MODEL 1
REMARK VINA RESULT:      -9.0      0.000      0.000
REMARK SMILES CCOc1ccccc1NC(=O)N[C@@](C)(CC)C(=O)OCCOCCOCCOCCOC(=O)c1ccc(-c2c3nc(c(-c4cc(S(=O)(=O)[O-])ccc4F)c4ccc([nH]4)c(-c4cc(S(=O)(=O)[O-])ccc4F)c4nc(c(-c5cc(S(=O)(=O)[O-])ccc5F)c5ccc2[nH]5)C=C4)C=C3)cc1
REMARK SMILES IDX 25 1 24 2 23 3 22 4 21 5 20 6 18 7 19 8 14 9 15 10 13 11
REMARK SMILES IDX 10 12 11 13 12 15 9 17 4 18 5 19 6 20 8 21 7 22 3 23 2 24
REMARK SMILES IDX 1 25 16 26 17 27 26 28 27 29 28 30 29 31 30 32 31 33 32 34
REMARK SMILES IDX 33 35 34 36 35 37 36 38 97 39 37 40 96 41 38 42 39 43 40 44
REMARK SMILES IDX 90 45 41 46 95 47 89 48 91 49 42 50 94 51 88 52 87 53 43 55
REMARK SMILES IDX 75 56 55 57 74 58 56 59 59 60 73 61 92 62 57 63 58 64 72 66
REMARK SMILES IDX 93 67 60 68 44 69 45 70 53 71 46 72 52 73 54 74 51 75 47 76
REMARK SMILES IDX 48 77 49 78 50 79 76 80 77 81 85 82 78 83 84 84 86 85 83 86
REMARK SMILES IDX 79 87 80 88 81 89 82 90 61 91 62 92 70 93 63 94 69 95 71 96
REMARK SMILES IDX 68 97 64 98 65 99 66 100 67 101
REMARK H PARENT 10 14 13 16 91 54 59 65
REMARK Flexibility Score: inf
ROOT
ATOM      1  C   UNL A   1      37.369  22.882  25.979  1.00  0.00     0.188 C 
ENDROOT
BRANCH   1   2
ATOM      2  C   UNL A   1      36.396  21.697  25.980  1.00  0.00     0.188 C 
BRANCH   2   3
ATOM      3  O   UNL A   1      35.663  21.446  24.781  1.00  0.00    -0.376 OA
BRANCH   3   4
ATOM      4  C   UNL A   1      34.675  22.374  24.336  1.00  0.00     0.202 C 
BRANCH   4   5
ATOM      5  C   UNL A   1      34.754  23.212  22.870  1.00  0.00     0.261 C 
BRANCH   5   6
ATOM      6  O   UNL A   1      34.184  25.086  22.326  1.00  0.00    -0.462 OA
BRANCH   6   7
ATOM      7  C   UNL A   1      33.427  26.239  21.969  1.00  0.00     0.331 C 
ATOM      8  O   UNL A   1      32.834  26.202  20.879  1.00  0.00    -0.249 OA
BRANCH   7   9
ATOM      9  C   UNL A   1      33.161  27.536  23.007  1.00  0.00     0.136 C 
ATOM     10  C   UNL A   1      34.425  28.422  22.685  1.00  0.00     0.047 C 
BRANCH   9  11
ATOM     11  N   UNL A   1      32.023  28.394  22.597  1.00  0.00    -0.322 N 
ATOM     12  N   UNL A   1      30.176  27.558  23.792  1.00  0.00    -0.305 N 
ATOM     13  C   UNL A   1      30.756  28.502  23.031  1.00  0.00     0.320 C 
ATOM     14  H   UNL A   1      29.248  27.734  24.067  1.00  0.00     0.172 HD
ATOM     15  O   UNL A   1      30.089  29.468  22.653  1.00  0.00    -0.248 OA
ATOM     16  H   UNL A   1      32.239  29.009  21.858  1.00  0.00     0.166 HD
BRANCH  12  17
ATOM     17  C   UNL A   1      30.730  26.365  24.234  1.00  0.00     0.085 A 
ATOM     18  C   UNL A   1      30.788  26.063  26.026  1.00  0.00     0.142 A 
ATOM     19  C   UNL A   1      30.945  24.371  26.606  1.00  0.00     0.048 A 
ATOM     20  C   UNL A   1      31.072  22.999  25.452  1.00  0.00     0.004 A 
ATOM     21  C   UNL A   1      30.944  24.976  23.070  1.00  0.00     0.030 A 
ATOM     22  C   UNL A   1      31.067  23.281  23.691  1.00  0.00     0.002 A 
BRANCH  18  23
ATOM     23  O   UNL A   1      31.646  26.856  26.804  1.00  0.00    -0.492 OA
BRANCH  23  24
ATOM     24  C   UNL A   1      31.216  27.928  27.615  1.00  0.00     0.226 C 
ATOM     25  C   UNL A   1      31.672  29.308  27.202  1.00  0.00     0.049 C 
ENDBRANCH  23  24
ENDBRANCH  18  23
ENDBRANCH  12  17
ENDBRANCH   9  11
BRANCH   9  26
ATOM     26  C   UNL A   1      33.278  27.465  24.602  1.00  0.00     0.037 C 
ATOM     27  C   UNL A   1      34.453  26.696  25.254  1.00  0.00     0.007 C 
ENDBRANCH   9  26
ENDBRANCH   7   9
ENDBRANCH   6   7
ENDBRANCH   5   6
ENDBRANCH   4   5
ENDBRANCH   3   4
ENDBRANCH   2   3
ENDBRANCH   1   2
BRANCH   1  28
ATOM     28  O   UNL A   1      38.726  22.470  26.078  1.00  0.00    -0.377 OA
BRANCH  28  29
ATOM     29  C   UNL A   1      39.545  23.101  27.052  1.00  0.00     0.188 C 
BRANCH  29  30
ATOM     30  C   UNL A   1      41.037  22.734  27.063  1.00  0.00     0.188 C 
BRANCH  30  31
ATOM     31  O   UNL A   1      41.460  22.066  25.881  1.00  0.00    -0.376 OA
BRANCH  31  32
ATOM     32  C   UNL A   1      42.323  20.945  25.933  1.00  0.00     0.202 C 
BRANCH  32  33
ATOM     33  C   UNL A   1      43.804  21.093  25.547  1.00  0.00     0.261 C 
BRANCH  33  34
ATOM     34  O   UNL A   1      44.485  22.289  25.945  1.00  0.00    -0.460 OA
BRANCH  34  35
ATOM     35  C   UNL A   1      44.558  23.309  25.064  1.00  0.00     0.338 C 
ATOM     36  O   UNL A   1      44.712  23.221  23.861  1.00  0.00    -0.246 OA
BRANCH  35  37
ATOM     37  C   UNL A   1      44.155  24.541  25.780  1.00  0.00     0.060 A 
ATOM     38  C   UNL A   1      43.584  25.586  25.043  1.00  0.00     0.016 A 
ATOM     39  C   UNL A   1      44.324  24.658  27.164  1.00  0.00     0.016 A 
ATOM     40  C   UNL A   1      43.247  26.779  25.673  1.00  0.00     0.010 A 
ATOM     41  C   UNL A   1      44.018  25.867  27.793  1.00  0.00     0.010 A 
ATOM     42  C   UNL A   1      43.536  26.947  27.033  1.00  0.00    -0.014 A 
BRANCH  42  43
ATOM     43  C   UNL A   1      43.647  28.333  27.544  1.00  0.00     0.031 A 
ATOM     44  C   UNL A   1      42.440  28.911  28.233  1.00  0.00     0.074 A 
ATOM     45  C   UNL A   1      44.804  29.013  27.494  1.00  0.00     0.049 A 
ATOM     46  N   UNL A   1      42.290  30.058  28.839  1.00  0.00    -0.248 NA
ATOM     47  C   UNL A   1      41.235  28.064  28.238  1.00  0.00     0.031 C 
ATOM     48  C   UNL A   1      46.051  28.519  26.915  1.00  0.00     0.029 A 
ATOM     49  N   UNL A   1      45.116  30.261  27.965  1.00  0.00    -0.354 N 
ATOM     50  C   UNL A   1      40.979  30.065  29.310  1.00  0.00     0.074 A 
ATOM     51  C   UNL A   1      40.364  28.837  28.861  1.00  0.00     0.031 C 
ATOM     52  C   UNL A   1      47.004  29.454  27.081  1.00  0.00     0.029 A 
ATOM     53  C   UNL A   1      46.426  30.619  27.750  1.00  0.00     0.049 A 
ATOM     54  H   UNL A   1      44.466  30.847  28.413  1.00  0.00     0.167 HD
ATOM     55  C   UNL A   1      40.352  31.001  30.064  1.00  0.00     0.034 A 
ATOM     56  C   UNL A   1      47.073  31.758  28.063  1.00  0.00     0.034 A 
ATOM     57  C   UNL A   1      40.974  32.238  30.465  1.00  0.00     0.049 A 
ATOM     58  C   UNL A   1      46.320  32.845  28.791  1.00  0.00     0.074 A 
ATOM     59  C   UNL A   1      40.438  33.279  31.202  1.00  0.00     0.029 A 
ATOM     60  N   UNL A   1      42.275  32.611  30.143  1.00  0.00    -0.354 N 
ATOM     61  N   UNL A   1      45.080  32.849  29.229  1.00  0.00    -0.248 NA
ATOM     62  C   UNL A   1      47.064  34.076  29.080  1.00  0.00     0.031 C 
ATOM     63  C   UNL A   1      41.383  34.311  31.252  1.00  0.00     0.029 A 
ATOM     64  C   UNL A   1      42.546  33.879  30.631  1.00  0.00     0.049 A 
ATOM     65  H   UNL A   1      42.912  32.054  29.638  1.00  0.00     0.167 HD
ATOM     66  C   UNL A   1      44.910  34.069  29.881  1.00  0.00     0.074 A 
ATOM     67  C   UNL A   1      46.181  34.763  29.787  1.00  0.00     0.031 C 
ATOM     68  C   UNL A   1      43.813  34.567  30.509  1.00  0.00     0.034 A 
BRANCH  55  69
ATOM     69  C   UNL A   1      38.906  30.730  30.419  1.00  0.00     0.023 A 
ATOM     70  C   UNL A   1      37.848  31.392  29.770  1.00  0.00     0.031 A 
ATOM     71  C   UNL A   1      38.585  29.879  31.490  1.00  0.00     0.131 A 
ATOM     72  C   UNL A   1      36.540  31.282  30.269  1.00  0.00     0.055 A 
ATOM     73  C   UNL A   1      37.268  29.693  31.916  1.00  0.00     0.041 A 
ATOM     74  F   UNL A   1      39.550  29.241  32.171  1.00  0.00    -0.206 F 
ATOM     75  C   UNL A   1      36.239  30.415  31.320  1.00  0.00     0.022 A 
BRANCH  72  76
ATOM     76  S   UNL A   1      35.284  32.449  29.668  1.00  0.00     0.124 S 
ATOM     77  O   UNL A   1      36.107  33.596  29.288  1.00  0.00    -0.237 OA
ATOM     78  O   UNL A   1      34.668  31.712  28.571  1.00  0.00    -0.237 OA
ATOM     79  O   UNL A   1      34.432  32.665  30.835  1.00  0.00    -0.744 OA
ENDBRANCH  72  76
ENDBRANCH  55  69
BRANCH  56  80
ATOM     80  C   UNL A   1      48.506  31.936  27.694  1.00  0.00     0.023 A 
ATOM     81  C   UNL A   1      49.523  31.273  28.400  1.00  0.00     0.031 A 
ATOM     82  C   UNL A   1      48.884  32.803  26.654  1.00  0.00     0.131 A 
ATOM     83  C   UNL A   1      50.868  31.512  28.079  1.00  0.00     0.055 A 
ATOM     84  C   UNL A   1      50.221  33.002  26.307  1.00  0.00     0.041 A 
ATOM     85  F   UNL A   1      47.952  33.463  25.947  1.00  0.00    -0.206 F 
ATOM     86  C   UNL A   1      51.223  32.362  27.029  1.00  0.00     0.022 A 
BRANCH  83  87
ATOM     87  S   UNL A   1      52.154  30.745  29.102  1.00  0.00     0.124 S 
ATOM     88  O   UNL A   1      51.371  30.182  30.194  1.00  0.00    -0.237 OA
ATOM     89  O   UNL A   1      52.745  29.786  28.174  1.00  0.00    -0.237 OA
ATOM     90  O   UNL A   1      53.016  31.868  29.463  1.00  0.00    -0.744 OA
ENDBRANCH  83  87
ENDBRANCH  56  80
BRANCH  68  91
ATOM     91  C   UNL A   1      43.964  35.912  31.186  1.00  0.00     0.023 A 
ATOM     92  C   UNL A   1      44.322  36.026  32.540  1.00  0.00     0.031 A 
ATOM     93  C   UNL A   1      43.704  37.096  30.472  1.00  0.00     0.131 A 
ATOM     94  C   UNL A   1      44.327  37.285  33.159  1.00  0.00     0.055 A 
ATOM     95  C   UNL A   1      43.789  38.352  31.072  1.00  0.00     0.041 A 
ATOM     96  F   UNL A   1      43.356  37.051  29.175  1.00  0.00    -0.206 F 
ATOM     97  C   UNL A   1      44.082  38.451  32.429  1.00  0.00     0.022 A 
BRANCH  94  98
ATOM     98  S   UNL A   1      44.515  37.367  34.961  1.00  0.00     0.124 S 
ATOM     99  O   UNL A   1      43.828  38.615  35.280  1.00  0.00    -0.237 OA
ATOM    100  O   UNL A   1      43.851  36.144  35.399  1.00  0.00    -0.237 OA
ATOM    101  O   UNL A   1      45.963  37.390  35.154  1.00  0.00    -0.744 OA
ENDBRANCH  94  98
ENDBRANCH  68  91
ENDBRANCH  42  43
ENDBRANCH  35  37
ENDBRANCH  34  35
ENDBRANCH  33  34
ENDBRANCH  32  33
ENDBRANCH  31  32
ENDBRANCH  30  31
ENDBRANCH  29  30
ENDBRANCH  28  29
ENDBRANCH   1  28
TORSDOF 28
ENDMDL
MODEL 2
REMARK VINA RESULT:      -8.9      2.078      2.888
REMARK SMILES CCOc1ccccc1NC(=O)N[C@@](C)(CC)C(=O)OCCOCCOCCOCCOC(=O)c1ccc(-c2c3nc(c(-c4cc(S(=O)(=O)[O-])ccc4F)c4ccc([nH]4)c(-c4cc(S(=O)(=O)[O-])ccc4F)c4nc(c(-c5cc(S(=O)(=O)[O-])ccc5F)c5ccc2[nH]5)C=C4)C=C3)cc1
REMARK SMILES IDX 25 1 24 2 23 3 22 4 21 5 20 6 18 7 19 8 14 9 15 10 13 11
REMARK SMILES IDX 10 12 11 13 12 15 9 17 4 18 5 19 6 20 8 21 7 22 3 23 2 24
REMARK SMILES IDX 1 25 16 26 17 27 26 28 27 29 28 30 29 31 30 32 31 33 32 34
REMARK SMILES IDX 33 35 34 36 35 37 36 38 97 39 37 40 96 41 38 42 39 43 40 44
REMARK SMILES IDX 90 45 41 46 95 47 89 48 91 49 42 50 94 51 88 52 87 53 43 55
REMARK SMILES IDX 75 56 55 57 74 58 56 59 59 60 73 61 92 62 57 63 58 64 72 66
REMARK SMILES IDX 93 67 60 68 44 69 45 70 53 71 46 72 52 73 54 74 51 75 47 76
REMARK SMILES IDX 48 77 49 78 50 79 76 80 77 81 85 82 78 83 84 84 86 85 83 86
REMARK SMILES IDX 79 87 80 88 81 89 82 90 61 91 62 92 70 93 63 94 69 95 71 96
REMARK SMILES IDX 68 97 64 98 65 99 66 100 67 101
REMARK H PARENT 10 14 13 16 91 54 59 65
REMARK Flexibility Score: inf
ROOT
ATOM      1  C   UNL A   1      37.730  22.902  25.779  1.00  0.00     0.188 C 
ENDROOT
BRANCH   1   2
ATOM      2  C   UNL A   1      36.526  22.154  25.194  1.00  0.00     0.188 C 
BRANCH   2   3
ATOM      3  O   UNL A   1      35.418  22.937  24.750  1.00  0.00    -0.376 OA
BRANCH   3   4
ATOM      4  C   UNL A   1      34.083  22.527  25.046  1.00  0.00     0.202 C 
BRANCH   4   5
ATOM      5  C   UNL A   1      32.716  23.478  24.762  1.00  0.00     0.261 C 
BRANCH   5   6
ATOM      6  O   UNL A   1      32.294  25.429  25.147  1.00  0.00    -0.462 OA
BRANCH   6   7
ATOM      7  C   UNL A   1      31.872  26.646  25.756  1.00  0.00     0.331 C 
ATOM      8  O   UNL A   1      31.186  26.546  26.787  1.00  0.00    -0.249 OA
BRANCH   7   9
ATOM      9  C   UNL A   1      32.395  28.165  25.261  1.00  0.00     0.136 C 
ATOM     10  C   UNL A   1      33.448  28.487  26.390  1.00  0.00     0.047 C 
BRANCH   9  11
ATOM     11  N   UNL A   1      33.213  28.133  24.024  1.00  0.00    -0.322 N 
ATOM     12  N   UNL A   1      31.679  28.495  22.277  1.00  0.00    -0.305 N 
ATOM     13  C   UNL A   1      32.937  28.409  22.738  1.00  0.00     0.320 C 
ATOM     14  H   UNL A   1      31.581  28.712  21.322  1.00  0.00     0.172 HD
ATOM     15  O   UNL A   1      33.879  28.515  21.949  1.00  0.00    -0.248 OA
ATOM     16  H   UNL A   1      34.145  27.852  24.175  1.00  0.00     0.166 HD
BRANCH  12  17
ATOM     17  C   UNL A   1      30.500  28.313  22.987  1.00  0.00     0.085 A 
ATOM     18  C   UNL A   1      29.269  29.651  22.956  1.00  0.00     0.142 A 
ATOM     19  C   UNL A   1      27.563  29.256  23.348  1.00  0.00     0.048 A 
ATOM     20  C   UNL A   1      27.071  27.585  23.791  1.00  0.00     0.004 A 
ATOM     21  C   UNL A   1      30.009  26.638  23.519  1.00  0.00     0.030 A 
ATOM     22  C   UNL A   1      28.274  26.270  23.874  1.00  0.00     0.002 A 
BRANCH  18  23
ATOM     23  O   UNL A   1      29.583  30.854  23.607  1.00  0.00    -0.492 OA
BRANCH  23  24
ATOM     24  C   UNL A   1      28.800  32.026  23.529  1.00  0.00     0.226 C 
ATOM     25  C   UNL A   1      28.720  32.691  22.175  1.00  0.00     0.049 C 
ENDBRANCH  23  24
ENDBRANCH  18  23
ENDBRANCH  12  17
ENDBRANCH   9  11
BRANCH   9  26
ATOM     26  C   UNL A   1      31.511  29.499  25.327  1.00  0.00     0.037 C 
ATOM     27  C   UNL A   1      31.733  30.512  26.476  1.00  0.00     0.007 C 
ENDBRANCH   9  26
ENDBRANCH   7   9
ENDBRANCH   6   7
ENDBRANCH   5   6
ENDBRANCH   4   5
ENDBRANCH   3   4
ENDBRANCH   2   3
ENDBRANCH   1   2
BRANCH   1  28
ATOM     28  O   UNL A   1      38.903  22.099  25.814  1.00  0.00    -0.377 OA
BRANCH  28  29
ATOM     29  C   UNL A   1      38.752  20.692  25.687  1.00  0.00     0.188 C 
BRANCH  29  30
ATOM     30  C   UNL A   1      40.019  19.833  25.823  1.00  0.00     0.188 C 
BRANCH  30  31
ATOM     31  O   UNL A   1      40.687  20.009  27.065  1.00  0.00    -0.376 OA
BRANCH  31  32
ATOM     32  C   UNL A   1      41.756  20.926  27.207  1.00  0.00     0.202 C 
BRANCH  32  33
ATOM     33  C   UNL A   1      42.854  21.002  26.132  1.00  0.00     0.261 C 
BRANCH  33  34
ATOM     34  O   UNL A   1      43.718  22.145  26.136  1.00  0.00    -0.460 OA
BRANCH  34  35
ATOM     35  C   UNL A   1      43.537  23.088  25.186  1.00  0.00     0.338 C 
ATOM     36  O   UNL A   1      43.426  22.903  23.990  1.00  0.00    -0.246 OA
BRANCH  35  37
ATOM     37  C   UNL A   1      43.235  24.361  25.880  1.00  0.00     0.060 A 
ATOM     38  C   UNL A   1      42.954  25.494  25.106  1.00  0.00     0.016 A 
ATOM     39  C   UNL A   1      43.214  24.433  27.278  1.00  0.00     0.016 A 
ATOM     40  C   UNL A   1      42.723  26.718  25.723  1.00  0.00     0.010 A 
ATOM     41  C   UNL A   1      43.016  25.668  27.897  1.00  0.00     0.010 A 
ATOM     42  C   UNL A   1      42.831  26.821  27.115  1.00  0.00    -0.014 A 
BRANCH  42  43
ATOM     43  C   UNL A   1      43.086  28.165  27.685  1.00  0.00     0.031 A 
ATOM     44  C   UNL A   1      41.916  28.882  28.303  1.00  0.00     0.074 A 
ATOM     45  C   UNL A   1      44.323  28.682  27.748  1.00  0.00     0.049 A 
ATOM     46  N   UNL A   1      41.873  30.023  28.940  1.00  0.00    -0.248 NA
ATOM     47  C   UNL A   1      40.612  28.209  28.185  1.00  0.00     0.031 C 
ATOM     48  C   UNL A   1      45.535  28.038  27.246  1.00  0.00     0.029 A 
ATOM     49  N   UNL A   1      44.762  29.862  28.288  1.00  0.00    -0.354 N 
ATOM     50  C   UNL A   1      40.542  30.195  29.311  1.00  0.00     0.074 A 
ATOM     51  C   UNL A   1      39.805  29.075  28.771  1.00  0.00     0.031 C 
ATOM     52  C   UNL A   1      46.588  28.829  27.519  1.00  0.00     0.029 A 
ATOM     53  C   UNL A   1      46.120  30.043  28.186  1.00  0.00     0.049 A 
ATOM     54  H   UNL A   1      44.162  30.519  28.709  1.00  0.00     0.167 HD
ATOM     55  C   UNL A   1      39.988  31.187  30.051  1.00  0.00     0.034 A 
ATOM     56  C   UNL A   1      46.887  31.074  28.590  1.00  0.00     0.034 A 
ATOM     57  C   UNL A   1      40.736  32.315  30.545  1.00  0.00     0.049 A 
ATOM     58  C   UNL A   1      46.231  32.234  29.301  1.00  0.00     0.074 A 
ATOM     59  C   UNL A   1      40.287  33.399  31.278  1.00  0.00     0.029 A 
ATOM     60  N   UNL A   1      42.097  32.516  30.335  1.00  0.00    -0.354 N 
ATOM     61  N   UNL A   1      44.972  32.395  29.644  1.00  0.00    -0.248 NA
ATOM     62  C   UNL A   1      47.108  33.343  29.692  1.00  0.00     0.031 C 
ATOM     63  C   UNL A   1      41.355  34.290  31.438  1.00  0.00     0.029 A 
ATOM     64  C   UNL A   1      42.495  33.722  30.891  1.00  0.00     0.049 A 
ATOM     65  H   UNL A   1      42.691  31.892  29.859  1.00  0.00     0.167 HD
ATOM     66  C   UNL A   1      44.916  33.607  30.328  1.00  0.00     0.074 A 
ATOM     67  C   UNL A   1      46.271  34.124  30.356  1.00  0.00     0.031 C 
ATOM     68  C   UNL A   1      43.848  34.233  30.890  1.00  0.00     0.034 A 
BRANCH  55  69
ATOM     69  C   UNL A   1      38.495  31.106  30.286  1.00  0.00     0.023 A 
ATOM     70  C   UNL A   1      37.573  31.700  29.404  1.00  0.00     0.031 A 
ATOM     71  C   UNL A   1      37.991  30.519  31.459  1.00  0.00     0.131 A 
ATOM     72  C   UNL A   1      36.219  31.796  29.763  1.00  0.00     0.055 A 
ATOM     73  C   UNL A   1      36.627  30.526  31.761  1.00  0.00     0.041 A 
ATOM     74  F   UNL A   1      38.819  29.961  32.356  1.00  0.00    -0.206 F 
ATOM     75  C   UNL A   1      35.736  31.188  30.923  1.00  0.00     0.022 A 
BRANCH  72  76
ATOM     76  S   UNL A   1      35.148  32.908  28.809  1.00  0.00     0.124 S 
ATOM     77  O   UNL A   1      34.962  34.014  29.747  1.00  0.00    -0.237 OA
ATOM     78  O   UNL A   1      35.961  33.196  27.633  1.00  0.00    -0.237 OA
ATOM     79  O   UNL A   1      33.953  32.105  28.563  1.00  0.00    -0.744 OA
ENDBRANCH  72  76
ENDBRANCH  55  69
BRANCH  56  80
ATOM     80  C   UNL A   1      48.356  31.065  28.337  1.00  0.00     0.023 A 
ATOM     81  C   UNL A   1      48.923  31.870  27.335  1.00  0.00     0.031 A 
ATOM     82  C   UNL A   1      49.211  30.223  29.068  1.00  0.00     0.131 A 
ATOM     83  C   UNL A   1      50.299  31.791  27.069  1.00  0.00     0.055 A 
ATOM     84  C   UNL A   1      50.587  30.182  28.832  1.00  0.00     0.041 A 
ATOM     85  F   UNL A   1      48.722  29.431  30.035  1.00  0.00    -0.206 F 
ATOM     86  C   UNL A   1      51.136  30.963  27.819  1.00  0.00     0.022 A 
BRANCH  83  87
ATOM     87  S   UNL A   1      50.970  32.742  25.679  1.00  0.00     0.124 S 
ATOM     88  O   UNL A   1      51.299  31.688  24.727  1.00  0.00    -0.237 OA
ATOM     89  O   UNL A   1      49.842  33.598  25.326  1.00  0.00    -0.237 OA
ATOM     90  O   UNL A   1      52.115  33.437  26.264  1.00  0.00    -0.744 OA
ENDBRANCH  83  87
ENDBRANCH  56  80
BRANCH  68  91
ATOM     91  C   UNL A   1      44.124  35.526  31.627  1.00  0.00     0.023 A 
ATOM     92  C   UNL A   1      44.057  36.775  30.986  1.00  0.00     0.031 A 
ATOM     93  C   UNL A   1      44.499  35.501  32.983  1.00  0.00     0.131 A 
ATOM     94  C   UNL A   1      44.443  37.936  31.673  1.00  0.00     0.055 A 
ATOM     95  C   UNL A   1      44.803  36.667  33.685  1.00  0.00     0.041 A 
ATOM     96  F   UNL A   1      44.581  34.337  33.649  1.00  0.00    -0.206 F 
ATOM     97  C   UNL A   1      44.797  37.893  33.024  1.00  0.00     0.022 A 
BRANCH  94  98
ATOM     98  S   UNL A   1      44.615  39.481  30.740  1.00  0.00     0.124 S 
ATOM     99  O   UNL A   1      43.224  39.826  30.467  1.00  0.00    -0.237 OA
ATOM    100  O   UNL A   1      45.310  40.344  31.691  1.00  0.00    -0.237 OA
ATOM    101  O   UNL A   1      45.399  39.091  29.571  1.00  0.00    -0.744 OA
ENDBRANCH  94  98
ENDBRANCH  68  91
ENDBRANCH  42  43
ENDBRANCH  35  37
ENDBRANCH  34  35
ENDBRANCH  33  34
ENDBRANCH  32  33
ENDBRANCH  31  32
ENDBRANCH  30  31
ENDBRANCH  29  30
ENDBRANCH  28  29
ENDBRANCH   1  28
TORSDOF 28
ENDMDL
MODEL 3
REMARK VINA RESULT:      -8.5      2.066      2.596
REMARK SMILES CCOc1ccccc1NC(=O)N[C@@](C)(CC)C(=O)OCCOCCOCCOCCOC(=O)c1ccc(-c2c3nc(c(-c4cc(S(=O)(=O)[O-])ccc4F)c4ccc([nH]4)c(-c4cc(S(=O)(=O)[O-])ccc4F)c4nc(c(-c5cc(S(=O)(=O)[O-])ccc5F)c5ccc2[nH]5)C=C4)C=C3)cc1
REMARK SMILES IDX 25 1 24 2 23 3 22 4 21 5 20 6 18 7 19 8 14 9 15 10 13 11
REMARK SMILES IDX 10 12 11 13 12 15 9 17 4 18 5 19 6 20 8 21 7 22 3 23 2 24
REMARK SMILES IDX 1 25 16 26 17 27 26 28 27 29 28 30 29 31 30 32 31 33 32 34
REMARK SMILES IDX 33 35 34 36 35 37 36 38 97 39 37 40 96 41 38 42 39 43 40 44
REMARK SMILES IDX 90 45 41 46 95 47 89 48 91 49 42 50 94 51 88 52 87 53 43 55
REMARK SMILES IDX 75 56 55 57 74 58 56 59 59 60 73 61 92 62 57 63 58 64 72 66
REMARK SMILES IDX 93 67 60 68 44 69 45 70 53 71 46 72 52 73 54 74 51 75 47 76
REMARK SMILES IDX 48 77 49 78 50 79 76 80 77 81 85 82 78 83 84 84 86 85 83 86
REMARK SMILES IDX 79 87 80 88 81 89 82 90 61 91 62 92 70 93 63 94 69 95 71 96
REMARK SMILES IDX 68 97 64 98 65 99 66 100 67 101
REMARK H PARENT 10 14 13 16 91 54 59 65
REMARK Flexibility Score: inf
ROOT
ATOM      1  C   UNL A   1      38.838  23.421  26.533  1.00  0.00     0.188 C 
ENDROOT
BRANCH   1   2
ATOM      2  C   UNL A   1      38.116  22.272  25.818  1.00  0.00     0.188 C 
BRANCH   2   3
ATOM      3  O   UNL A   1      37.283  22.607  24.710  1.00  0.00    -0.376 OA
BRANCH   3   4
ATOM      4  C   UNL A   1      35.929  23.007  24.924  1.00  0.00     0.202 C 
BRANCH   4   5
ATOM      5  C   UNL A   1      35.444  24.603  25.190  1.00  0.00     0.261 C 
BRANCH   5   6
ATOM      6  O   UNL A   1      34.212  25.854  24.166  1.00  0.00    -0.462 OA
BRANCH   6   7
ATOM      7  C   UNL A   1      33.173  26.758  23.798  1.00  0.00     0.331 C 
ATOM      8  O   UNL A   1      33.156  27.138  22.616  1.00  0.00    -0.249 OA
BRANCH   7   9
ATOM      9  C   UNL A   1      31.902  27.180  24.816  1.00  0.00     0.136 C 
ATOM     10  C   UNL A   1      32.425  28.561  25.367  1.00  0.00     0.047 C 
BRANCH   9  11
ATOM     11  N   UNL A   1      30.661  27.544  24.089  1.00  0.00    -0.322 N 
ATOM     12  N   UNL A   1      29.718  25.489  23.439  1.00  0.00    -0.305 N 
ATOM     13  C   UNL A   1      29.638  26.819  23.607  1.00  0.00     0.320 C 
ATOM     14  H   UNL A   1      28.911  25.047  23.089  1.00  0.00     0.172 HD
ATOM     15  O   UNL A   1      28.622  27.414  23.242  1.00  0.00    -0.248 OA
ATOM     16  H   UNL A   1      30.569  28.511  23.926  1.00  0.00     0.166 HD
BRANCH  12  17
ATOM     17  C   UNL A   1      30.802  24.663  23.700  1.00  0.00     0.085 A 
ATOM     18  C   UNL A   1      30.654  23.459  25.053  1.00  0.00     0.142 A 
ATOM     19  C   UNL A   1      31.746  22.034  25.057  1.00  0.00     0.048 A 
ATOM     20  C   UNL A   1      32.984  21.805  23.773  1.00  0.00     0.004 A 
ATOM     21  C   UNL A   1      32.117  24.468  22.448  1.00  0.00     0.030 A 
ATOM     22  C   UNL A   1      33.177  23.002  22.465  1.00  0.00     0.002 A 
BRANCH  18  23
ATOM     23  O   UNL A   1      30.591  23.945  26.368  1.00  0.00    -0.492 OA
BRANCH  23  24
ATOM     24  C   UNL A   1      29.484  23.767  27.227  1.00  0.00     0.226 C 
ATOM     25  C   UNL A   1      28.916  22.370  27.310  1.00  0.00     0.049 C 
ENDBRANCH  23  24
ENDBRANCH  18  23
ENDBRANCH  12  17
ENDBRANCH   9  11
BRANCH   9  26
ATOM     26  C   UNL A   1      31.561  26.448  26.198  1.00  0.00     0.037 C 
ATOM     27  C   UNL A   1      32.024  27.074  27.536  1.00  0.00     0.007 C 
ENDBRANCH   9  26
ENDBRANCH   7   9
ENDBRANCH   6   7
ENDBRANCH   5   6
ENDBRANCH   4   5
ENDBRANCH   3   4
ENDBRANCH   2   3
ENDBRANCH   1   2
BRANCH   1  28
ATOM     28  O   UNL A   1      40.249  23.245  26.554  1.00  0.00    -0.377 OA
BRANCH  28  29
ATOM     29  C   UNL A   1      40.866  22.949  27.799  1.00  0.00     0.188 C 
BRANCH  29  30
ATOM     30  C   UNL A   1      42.279  22.346  27.759  1.00  0.00     0.188 C 
BRANCH  30  31
ATOM     31  O   UNL A   1      42.845  22.327  26.455  1.00  0.00    -0.376 OA
BRANCH  31  32
ATOM     32  C   UNL A   1      43.420  21.151  25.916  1.00  0.00     0.202 C 
BRANCH  32  33
ATOM     33  C   UNL A   1      44.867  21.169  25.394  1.00  0.00     0.261 C 
BRANCH  33  34
ATOM     34  O   UNL A   1      45.747  22.185  25.892  1.00  0.00    -0.460 OA
BRANCH  34  35
ATOM     35  C   UNL A   1      45.997  23.256  25.109  1.00  0.00     0.338 C 
ATOM     36  O   UNL A   1      46.400  23.240  23.962  1.00  0.00    -0.246 OA
BRANCH  35  37
ATOM     37  C   UNL A   1      45.446  24.445  25.799  1.00  0.00     0.060 A 
ATOM     38  C   UNL A   1      44.816  25.432  25.031  1.00  0.00     0.016 A 
ATOM     39  C   UNL A   1      45.537  24.578  27.189  1.00  0.00     0.016 A 
ATOM     40  C   UNL A   1      44.339  26.588  25.638  1.00  0.00     0.010 A 
ATOM     41  C   UNL A   1      45.089  25.753  27.796  1.00  0.00     0.010 A 
ATOM     42  C   UNL A   1      44.546  26.783  27.009  1.00  0.00    -0.014 A 
BRANCH  42  43
ATOM     43  C   UNL A   1      44.502  28.174  27.517  1.00  0.00     0.031 A 
ATOM     44  C   UNL A   1      43.192  28.659  28.080  1.00  0.00     0.074 A 
ATOM     45  C   UNL A   1      45.603  28.939  27.577  1.00  0.00     0.049 A 
ATOM     46  N   UNL A   1      42.898  29.793  28.660  1.00  0.00    -0.248 NA
ATOM     47  C   UNL A   1      42.060  27.725  27.972  1.00  0.00     0.031 C 
ATOM     48  C   UNL A   1      46.935  28.540  27.128  1.00  0.00     0.029 A 
ATOM     49  N   UNL A   1      45.774  30.207  28.066  1.00  0.00    -0.354 N 
ATOM     50  C   UNL A   1      41.550  29.700  28.999  1.00  0.00     0.074 A 
ATOM     51  C   UNL A   1      41.075  28.429  28.501  1.00  0.00     0.031 C 
ATOM     52  C   UNL A   1      47.794  29.544  27.379  1.00  0.00     0.029 A 
ATOM     53  C   UNL A   1      47.067  30.662  27.979  1.00  0.00     0.049 A 
ATOM     54  H   UNL A   1      45.040  30.743  28.444  1.00  0.00     0.167 HD
ATOM     55  C   UNL A   1      40.783  30.587  29.681  1.00  0.00     0.034 A 
ATOM     56  C   UNL A   1      47.594  31.847  28.345  1.00  0.00     0.034 A 
ATOM     57  C   UNL A   1      41.268  31.867  30.131  1.00  0.00     0.049 A 
ATOM     58  C   UNL A   1      46.693  32.875  28.988  1.00  0.00     0.074 A 
ATOM     59  C   UNL A   1      40.586  32.865  30.803  1.00  0.00     0.029 A 
ATOM     60  N   UNL A   1      42.564  32.337  29.936  1.00  0.00    -0.354 N 
ATOM     61  N   UNL A   1      45.419  32.785  29.301  1.00  0.00    -0.248 NA
ATOM     62  C   UNL A   1      47.311  34.158  29.339  1.00  0.00     0.031 C 
ATOM     63  C   UNL A   1      41.441  33.965  30.939  1.00  0.00     0.029 A 
ATOM     64  C   UNL A   1      42.689  33.622  30.439  1.00  0.00     0.049 A 
ATOM     65  H   UNL A   1      43.287  31.830  29.501  1.00  0.00     0.167 HD
ATOM     66  C   UNL A   1      45.095  33.989  29.924  1.00  0.00     0.074 A 
ATOM     67  C   UNL A   1      46.313  34.776  29.950  1.00  0.00     0.031 C 
ATOM     68  C   UNL A   1      43.906  34.403  30.437  1.00  0.00     0.034 A 
BRANCH  55  69
ATOM     69  C   UNL A   1      39.334  30.208  29.893  1.00  0.00     0.023 A 
ATOM     70  C   UNL A   1      38.317  30.657  29.030  1.00  0.00     0.031 A 
ATOM     71  C   UNL A   1      38.950  29.477  31.030  1.00  0.00     0.131 A 
ATOM     72  C   UNL A   1      36.969  30.471  29.377  1.00  0.00     0.055 A 
ATOM     73  C   UNL A   1      37.610  29.206  31.316  1.00  0.00     0.041 A 
ATOM     74  F   UNL A   1      39.868  29.046  31.910  1.00  0.00    -0.206 F 
ATOM     75  C   UNL A   1      36.609  29.725  30.500  1.00  0.00     0.022 A 
BRANCH  72  76
ATOM     76  S   UNL A   1      35.705  31.402  28.465  1.00  0.00     0.124 S 
ATOM     77  O   UNL A   1      35.188  30.382  27.555  1.00  0.00    -0.237 OA
ATOM     78  O   UNL A   1      34.801  31.830  29.527  1.00  0.00    -0.237 OA
ATOM     79  O   UNL A   1      36.465  32.471  27.821  1.00  0.00    -0.744 OA
ENDBRANCH  72  76
ENDBRANCH  55  69
BRANCH  56  80
ATOM     80  C   UNL A   1      49.039  32.132  28.118  1.00  0.00     0.023 A 
ATOM     81  C   UNL A   1      49.480  32.728  26.925  1.00  0.00     0.031 A 
ATOM     82  C   UNL A   1      50.005  31.779  29.076  1.00  0.00     0.131 A 
ATOM     83  C   UNL A   1      50.853  32.921  26.706  1.00  0.00     0.055 A 
ATOM     84  C   UNL A   1      51.366  32.016  28.873  1.00  0.00     0.041 A 
ATOM     85  F   UNL A   1      49.638  31.205  30.233  1.00  0.00    -0.206 F 
ATOM     86  C   UNL A   1      51.797  32.581  27.677  1.00  0.00     0.022 A 
BRANCH  83  87
ATOM     87  S   UNL A   1      51.393  33.565  25.100  1.00  0.00     0.124 S 
ATOM     88  O   UNL A   1      52.655  34.208  25.445  1.00  0.00    -0.237 OA
ATOM     89  O   UNL A   1      51.490  32.346  24.303  1.00  0.00    -0.237 OA
ATOM     90  O   UNL A   1      50.313  34.471  24.716  1.00  0.00    -0.744 OA
ENDBRANCH  83  87
ENDBRANCH  56  80
BRANCH  68  91
ATOM     91  C   UNL A   1      43.889  35.756  31.115  1.00  0.00     0.023 A 
ATOM     92  C   UNL A   1      43.786  36.952  30.384  1.00  0.00     0.031 A 
ATOM     93  C   UNL A   1      44.019  35.848  32.513  1.00  0.00     0.131 A 
ATOM     94  C   UNL A   1      43.900  38.186  31.041  1.00  0.00     0.055 A 
ATOM     95  C   UNL A   1      44.051  37.078  33.170  1.00  0.00     0.041 A 
ATOM     96  F   UNL A   1      44.123  34.740  33.265  1.00  0.00    -0.206 F 
ATOM     97  C   UNL A   1      44.013  38.258  32.432  1.00  0.00     0.022 A 
BRANCH  94  98
ATOM     98  S   UNL A   1      44.046  39.693  30.042  1.00  0.00     0.124 S 
ATOM     99  O   UNL A   1      42.650  40.091  29.891  1.00  0.00    -0.237 OA
ATOM    100  O   UNL A   1      44.865  40.552  30.891  1.00  0.00    -0.237 OA
ATOM    101  O   UNL A   1      44.695  39.231  28.817  1.00  0.00    -0.744 OA
ENDBRANCH  94  98
ENDBRANCH  68  91
ENDBRANCH  42  43
ENDBRANCH  35  37
ENDBRANCH  34  35
ENDBRANCH  33  34
ENDBRANCH  32  33
ENDBRANCH  31  32
ENDBRANCH  30  31
ENDBRANCH  29  30
ENDBRANCH  28  29
ENDBRANCH   1  28
TORSDOF 28
ENDMDL
