MODEL 1
REMARK VINA RESULT:      -8.4      0.000      0.000
REMARK SMILES CCC1(C(=O)NCCc2ccc(C(=O)OCCOCCOCCOCCOC(=O)c3ccc(-c4c5nc(c(-c6cc(S(=O)(=O)[O-])ccc6F)c6ccc([nH]6)c(-c6cc(S(=O)(=O)[O-])ccc6F)c6nc(c(-c7cc(S(=O)(=O)[O-])ccc7F)c7ccc4[nH]7)C=C6)C=C5)cc3)cc2)CCCC1
REMARK SMILES IDX 20 1 19 2 18 3 17 4 16 5 15 6 13 7 14 8 12 9 9 10 10 11
REMARK SMILES IDX 94 12 11 13 93 14 8 15 7 16 6 17 4 18 5 19 3 21 95 22 98 23
REMARK SMILES IDX 96 24 97 25 2 26 1 27 21 28 22 29 23 30 24 31 25 32 26 33
REMARK SMILES IDX 27 34 28 35 29 36 30 37 31 38 92 39 32 40 91 41 33 42 34 43
REMARK SMILES IDX 35 44 85 45 36 46 90 47 84 48 86 49 37 50 89 51 83 52 82 53
REMARK SMILES IDX 38 55 70 56 50 57 69 58 51 59 54 60 68 61 87 62 52 63 53 64
REMARK SMILES IDX 67 66 88 67 55 68 39 69 40 70 48 71 41 72 47 73 49 74 46 75
REMARK SMILES IDX 42 76 43 77 44 78 45 79 71 80 72 81 80 82 73 83 79 84 81 85
REMARK SMILES IDX 78 86 74 87 75 88 76 89 77 90 56 91 57 92 65 93 58 94 64 95
REMARK SMILES IDX 66 96 63 97 59 98 60 99 61 100 62 101
REMARK H PARENT 6 20 86 54 54 65
REMARK Flexibility Score: inf
ROOT
ATOM      1  C   UNL A   1      33.039  23.888  24.383  1.00  0.00     0.188 C 
ENDROOT
BRANCH   1   2
ATOM      2  C   UNL A   1      33.689  25.021  23.561  1.00  0.00     0.188 C 
BRANCH   2   3
ATOM      3  O   UNL A   1      33.647  24.815  22.161  1.00  0.00    -0.376 OA
BRANCH   3   4
ATOM      4  C   UNL A   1      32.773  25.595  21.367  1.00  0.00     0.202 C 
BRANCH   4   5
ATOM      5  C   UNL A   1      31.619  26.376  22.020  1.00  0.00     0.261 C 
BRANCH   5   6
ATOM      6  O   UNL A   1      31.922  27.709  22.442  1.00  0.00    -0.460 OA
BRANCH   6   7
ATOM      7  C   UNL A   1      30.985  28.334  23.182  1.00  0.00     0.338 C 
ATOM      8  O   UNL A   1      29.776  28.212  23.105  1.00  0.00    -0.246 OA
BRANCH   7   9
ATOM      9  C   UNL A   1      31.680  28.995  24.303  1.00  0.00     0.060 A 
ATOM     10  C   UNL A   1      33.094  30.123  26.419  1.00  0.00    -0.046 A 
ATOM     11  C   UNL A   1      33.725  29.226  25.550  1.00  0.00     0.004 A 
ATOM     12  C   UNL A   1      31.806  30.584  26.111  1.00  0.00     0.004 A 
ATOM     13  C   UNL A   1      32.996  28.599  24.554  1.00  0.00     0.016 A 
ATOM     14  C   UNL A   1      31.106  30.039  25.031  1.00  0.00     0.016 A 
BRANCH  10  15
ATOM     15  C   UNL A   1      33.733  30.437  27.753  1.00  0.00     0.056 C 
BRANCH  15  16
ATOM     16  C   UNL A   1      34.413  31.823  27.679  1.00  0.00     0.120 C 
BRANCH  16  17
ATOM     17  N   UNL A   1      34.443  32.490  28.969  1.00  0.00    -0.355 N 
ATOM     18  C   UNL A   1      35.113  32.234  30.115  1.00  0.00     0.226 C 
ATOM     19  O   UNL A   1      34.509  32.554  31.143  1.00  0.00    -0.274 OA
ATOM     20  H   UNL A   1      33.863  33.283  29.019  1.00  0.00     0.163 HD
BRANCH  18  21
ATOM     21  C   UNL A   1      36.529  31.615  30.165  1.00  0.00     0.049 C 
ATOM     22  C   UNL A   1      37.240  31.578  28.799  1.00  0.00     0.017 C 
ATOM     23  C   UNL A   1      36.515  30.156  30.655  1.00  0.00     0.017 C 
ATOM     24  C   UNL A   1      37.334  30.124  28.346  1.00  0.00     0.001 C 
ATOM     25  C   UNL A   1      36.766  29.253  29.455  1.00  0.00     0.001 C 
BRANCH  21  26
ATOM     26  C   UNL A   1      37.375  32.465  31.171  1.00  0.00     0.013 C 
ATOM     27  C   UNL A   1      37.584  33.932  30.786  1.00  0.00     0.005 C 
ENDBRANCH  21  26
ENDBRANCH  18  21
ENDBRANCH  16  17
ENDBRANCH  15  16
ENDBRANCH  10  15
ENDBRANCH   7   9
ENDBRANCH   6   7
ENDBRANCH   5   6
ENDBRANCH   4   5
ENDBRANCH   3   4
ENDBRANCH   2   3
ENDBRANCH   1   2
BRANCH   1  28
ATOM     28  O   UNL A   1      33.784  23.347  25.461  1.00  0.00    -0.377 OA
BRANCH  28  29
ATOM     29  C   UNL A   1      34.636  22.225  25.235  1.00  0.00     0.188 C 
BRANCH  29  30
ATOM     30  C   UNL A   1      35.651  22.174  24.064  1.00  0.00     0.188 C 
BRANCH  30  31
ATOM     31  O   UNL A   1      36.816  21.403  24.310  1.00  0.00    -0.376 OA
BRANCH  31  32
ATOM     32  C   UNL A   1      37.337  21.405  25.625  1.00  0.00     0.202 C 
BRANCH  32  33
ATOM     33  C   UNL A   1      38.816  21.785  25.780  1.00  0.00     0.261 C 
BRANCH  33  34
ATOM     34  O   UNL A   1      39.109  22.803  26.748  1.00  0.00    -0.460 OA
BRANCH  34  35
ATOM     35  C   UNL A   1      38.548  24.017  26.559  1.00  0.00     0.338 C 
ATOM     36  O   UNL A   1      37.470  24.249  26.033  1.00  0.00    -0.246 OA
BRANCH  35  37
ATOM     37  C   UNL A   1      39.373  25.007  27.282  1.00  0.00     0.060 A 
ATOM     38  C   UNL A   1      38.993  26.357  27.276  1.00  0.00     0.016 A 
ATOM     39  C   UNL A   1      40.507  24.595  27.985  1.00  0.00     0.016 A 
ATOM     40  C   UNL A   1      39.766  27.303  27.950  1.00  0.00     0.010 A 
ATOM     41  C   UNL A   1      41.294  25.547  28.637  1.00  0.00     0.010 A 
ATOM     42  C   UNL A   1      40.946  26.909  28.594  1.00  0.00    -0.014 A 
BRANCH  42  43
ATOM     43  C   UNL A   1      41.929  27.933  29.027  1.00  0.00     0.031 A 
ATOM     44  C   UNL A   1      43.329  27.837  28.485  1.00  0.00     0.074 A 
ATOM     45  C   UNL A   1      41.593  28.929  29.867  1.00  0.00     0.049 A 
ATOM     46  N   UNL A   1      44.385  28.551  28.770  1.00  0.00    -0.248 NA
ATOM     47  C   UNL A   1      43.566  26.781  27.487  1.00  0.00     0.031 C 
ATOM     48  C   UNL A   1      40.256  29.159  30.413  1.00  0.00     0.029 A 
ATOM     49  N   UNL A   1      42.357  29.930  30.413  1.00  0.00    -0.354 N 
ATOM     50  C   UNL A   1      45.415  28.027  27.995  1.00  0.00     0.074 A 
ATOM     51  C   UNL A   1      44.863  26.910  27.260  1.00  0.00     0.031 C 
ATOM     52  C   UNL A   1      40.299  30.229  31.227  1.00  0.00     0.029 A 
ATOM     53  C   UNL A   1      41.671  30.730  31.296  1.00  0.00     0.049 A 
ATOM     54  H   UNL A   1      43.308  30.062  30.193  1.00  0.00     0.167 HD
ATOM     55  C   UNL A   1      46.701  28.445  27.900  1.00  0.00     0.034 A 
ATOM     56  C   UNL A   1      42.109  31.729  32.092  1.00  0.00     0.034 A 
ATOM     57  C   UNL A   1      47.238  29.551  28.652  1.00  0.00     0.049 A 
ATOM     58  C   UNL A   1      43.573  32.110  32.050  1.00  0.00     0.074 A 
ATOM     59  C   UNL A   1      48.522  30.066  28.628  1.00  0.00     0.029 A 
ATOM     60  N   UNL A   1      46.526  30.306  29.577  1.00  0.00    -0.354 N 
ATOM     61  N   UNL A   1      44.539  31.609  31.313  1.00  0.00    -0.248 NA
ATOM     62  C   UNL A   1      44.002  33.194  32.943  1.00  0.00     0.031 C 
ATOM     63  C   UNL A   1      48.609  31.070  29.597  1.00  0.00     0.029 A 
ATOM     64  C   UNL A   1      47.356  31.253  30.158  1.00  0.00     0.049 A 
ATOM     65  H   UNL A   1      45.572  30.185  29.789  1.00  0.00     0.167 HD
ATOM     66  C   UNL A   1      45.680  32.346  31.628  1.00  0.00     0.074 A 
ATOM     67  C   UNL A   1      45.278  33.330  32.611  1.00  0.00     0.031 C 
ATOM     68  C   UNL A   1      46.944  32.226  31.144  1.00  0.00     0.034 A 
BRANCH  55  69
ATOM     69  C   UNL A   1      47.620  27.659  26.996  1.00  0.00     0.023 A 
ATOM     70  C   UNL A   1      47.768  27.971  25.633  1.00  0.00     0.031 A 
ATOM     71  C   UNL A   1      48.337  26.559  27.500  1.00  0.00     0.131 A 
ATOM     72  C   UNL A   1      48.549  27.148  24.807  1.00  0.00     0.055 A 
ATOM     73  C   UNL A   1      49.183  25.797  26.692  1.00  0.00     0.041 A 
ATOM     74  F   UNL A   1      48.216  26.196  28.786  1.00  0.00    -0.206 F 
ATOM     75  C   UNL A   1      49.280  26.081  25.333  1.00  0.00     0.022 A 
BRANCH  72  76
ATOM     76  S   UNL A   1      48.472  27.400  23.012  1.00  0.00     0.124 S 
ATOM     77  O   UNL A   1      49.706  28.143  22.766  1.00  0.00    -0.237 OA
ATOM     78  O   UNL A   1      48.437  26.035  22.503  1.00  0.00    -0.237 OA
ATOM     79  O   UNL A   1      47.244  28.169  22.826  1.00  0.00    -0.744 OA
ENDBRANCH  72  76
ENDBRANCH  55  69
BRANCH  56  80
ATOM     80  C   UNL A   1      41.177  32.414  33.037  1.00  0.00     0.023 A 
ATOM     81  C   UNL A   1      40.677  31.757  34.172  1.00  0.00     0.031 A 
ATOM     82  C   UNL A   1      40.716  33.718  32.776  1.00  0.00     0.131 A 
ATOM     83  C   UNL A   1      39.710  32.384  34.975  1.00  0.00     0.055 A 
ATOM     84  C   UNL A   1      39.802  34.360  33.613  1.00  0.00     0.041 A 
ATOM     85  F   UNL A   1      41.152  34.391  31.699  1.00  0.00    -0.206 F 
ATOM     86  C   UNL A   1      39.282  33.686  34.714  1.00  0.00     0.022 A 
BRANCH  83  87
ATOM     87  S   UNL A   1      38.942  31.430  36.314  1.00  0.00     0.124 S 
ATOM     88  O   UNL A   1      39.526  32.056  37.495  1.00  0.00    -0.237 OA
ATOM     89  O   UNL A   1      37.523  31.682  36.090  1.00  0.00    -0.237 OA
ATOM     90  O   UNL A   1      39.381  30.061  36.050  1.00  0.00    -0.744 OA
ENDBRANCH  83  87
ENDBRANCH  56  80
BRANCH  68  91
ATOM     91  C   UNL A   1      47.972  33.222  31.630  1.00  0.00     0.023 A 
ATOM     92  C   UNL A   1      48.195  34.446  30.976  1.00  0.00     0.031 A 
ATOM     93  C   UNL A   1      48.744  32.936  32.772  1.00  0.00     0.131 A 
ATOM     94  C   UNL A   1      49.201  35.310  31.432  1.00  0.00     0.055 A 
ATOM     95  C   UNL A   1      49.695  33.832  33.262  1.00  0.00     0.041 A 
ATOM     96  F   UNL A   1      48.580  31.782  33.437  1.00  0.00    -0.206 F 
ATOM     97  C   UNL A   1      49.938  35.021  32.584  1.00  0.00     0.022 A 
BRANCH  94  98
ATOM     98  S   UNL A   1      49.610  36.773  30.439  1.00  0.00     0.124 S 
ATOM     99  O   UNL A   1      48.755  37.792  31.035  1.00  0.00    -0.237 OA
ATOM    100  O   UNL A   1      51.042  36.923  30.677  1.00  0.00    -0.237 OA
ATOM    101  O   UNL A   1      49.249  36.376  29.078  1.00  0.00    -0.744 OA
ENDBRANCH  94  98
ENDBRANCH  68  91
ENDBRANCH  42  43
ENDBRANCH  35  37
ENDBRANCH  34  35
ENDBRANCH  33  34
ENDBRANCH  32  33
ENDBRANCH  31  32
ENDBRANCH  30  31
ENDBRANCH  29  30
ENDBRANCH  28  29
ENDBRANCH   1  28
TORSDOF 28
ENDMDL
MODEL 2
REMARK VINA RESULT:      -7.8      4.046      7.878
REMARK SMILES CCC1(C(=O)NCCc2ccc(C(=O)OCCOCCOCCOCCOC(=O)c3ccc(-c4c5nc(c(-c6cc(S(=O)(=O)[O-])ccc6F)c6ccc([nH]6)c(-c6cc(S(=O)(=O)[O-])ccc6F)c6nc(c(-c7cc(S(=O)(=O)[O-])ccc7F)c7ccc4[nH]7)C=C6)C=C5)cc3)cc2)CCCC1
REMARK SMILES IDX 20 1 19 2 18 3 17 4 16 5 15 6 13 7 14 8 12 9 9 10 10 11
REMARK SMILES IDX 94 12 11 13 93 14 8 15 7 16 6 17 4 18 5 19 3 21 95 22 98 23
REMARK SMILES IDX 96 24 97 25 2 26 1 27 21 28 22 29 23 30 24 31 25 32 26 33
REMARK SMILES IDX 27 34 28 35 29 36 30 37 31 38 92 39 32 40 91 41 33 42 34 43
REMARK SMILES IDX 35 44 85 45 36 46 90 47 84 48 86 49 37 50 89 51 83 52 82 53
REMARK SMILES IDX 38 55 70 56 50 57 69 58 51 59 54 60 68 61 87 62 52 63 53 64
REMARK SMILES IDX 67 66 88 67 55 68 39 69 40 70 48 71 41 72 47 73 49 74 46 75
REMARK SMILES IDX 42 76 43 77 44 78 45 79 71 80 72 81 80 82 73 83 79 84 81 85
REMARK SMILES IDX 78 86 74 87 75 88 76 89 77 90 56 91 57 92 65 93 58 94 64 95
REMARK SMILES IDX 66 96 63 97 59 98 60 99 61 100 62 101
REMARK H PARENT 6 20 86 54 54 65
REMARK Flexibility Score: inf
ROOT
ATOM      1  C   UNL A   1      37.212  34.288  29.585  1.00  0.00     0.188 C 
ENDROOT
BRANCH   1   2
ATOM      2  C   UNL A   1      37.311  32.948  28.824  1.00  0.00     0.188 C 
BRANCH   2   3
ATOM      3  O   UNL A   1      36.108  32.555  28.190  1.00  0.00    -0.376 OA
BRANCH   3   4
ATOM      4  C   UNL A   1      34.878  33.102  28.629  1.00  0.00     0.202 C 
BRANCH   4   5
ATOM      5  C   UNL A   1      33.552  32.641  27.997  1.00  0.00     0.261 C 
BRANCH   5   6
ATOM      6  O   UNL A   1      33.615  31.454  27.202  1.00  0.00    -0.460 OA
BRANCH   6   7
ATOM      7  C   UNL A   1      32.441  30.960  26.762  1.00  0.00     0.338 C 
ATOM      8  O   UNL A   1      31.351  31.505  26.788  1.00  0.00    -0.246 OA
BRANCH   7   9
ATOM      9  C   UNL A   1      32.740  29.745  25.980  1.00  0.00     0.060 A 
ATOM     10  C   UNL A   1      33.154  27.453  24.458  1.00  0.00    -0.046 A 
ATOM     11  C   UNL A   1      32.103  28.322  24.148  1.00  0.00     0.004 A 
ATOM     12  C   UNL A   1      34.100  27.836  25.420  1.00  0.00     0.004 A 
ATOM     13  C   UNL A   1      31.845  29.413  24.960  1.00  0.00     0.016 A 
ATOM     14  C   UNL A   1      33.908  29.003  26.164  1.00  0.00     0.016 A 
BRANCH  10  15
ATOM     15  C   UNL A   1      33.153  26.053  23.885  1.00  0.00     0.056 C 
BRANCH  15  16
ATOM     16  C   UNL A   1      31.736  25.451  24.012  1.00  0.00     0.120 C 
BRANCH  16  17
ATOM     17  N   UNL A   1      31.582  24.657  25.219  1.00  0.00    -0.355 N 
ATOM     18  C   UNL A   1      31.741  23.339  25.472  1.00  0.00     0.226 C 
ATOM     19  O   UNL A   1      30.987  22.892  26.343  1.00  0.00    -0.274 OA
ATOM     20  H   UNL A   1      31.308  25.181  26.006  1.00  0.00     0.163 HD
BRANCH  18  21
ATOM     21  C   UNL A   1      32.785  22.446  24.764  1.00  0.00     0.049 C 
ATOM     22  C   UNL A   1      33.366  23.066  23.480  1.00  0.00     0.017 C 
ATOM     23  C   UNL A   1      32.201  21.089  24.332  1.00  0.00     0.017 C 
ATOM     24  C   UNL A   1      32.845  22.272  22.285  1.00  0.00     0.001 C 
ATOM     25  C   UNL A   1      32.017  21.115  22.822  1.00  0.00     0.001 C 
BRANCH  21  26
ATOM     26  C   UNL A   1      33.942  22.182  25.786  1.00  0.00     0.013 C 
ATOM     27  C   UNL A   1      34.637  23.430  26.337  1.00  0.00     0.005 C 
ENDBRANCH  21  26
ENDBRANCH  18  21
ENDBRANCH  16  17
ENDBRANCH  15  16
ENDBRANCH  10  15
ENDBRANCH   7   9
ENDBRANCH   6   7
ENDBRANCH   5   6
ENDBRANCH   4   5
ENDBRANCH   3   4
ENDBRANCH   2   3
ENDBRANCH   1   2
BRANCH   1  28
ATOM     28  O   UNL A   1      37.250  34.244  31.001  1.00  0.00    -0.377 OA
BRANCH  28  29
ATOM     29  C   UNL A   1      38.502  34.362  31.676  1.00  0.00     0.188 C 
BRANCH  29  30
ATOM     30  C   UNL A   1      38.605  34.551  33.211  1.00  0.00     0.188 C 
BRANCH  30  31
ATOM     31  O   UNL A   1      37.367  34.734  33.879  1.00  0.00    -0.376 OA
BRANCH  31  32
ATOM     32  C   UNL A   1      36.889  33.666  34.675  1.00  0.00     0.202 C 
BRANCH  32  33
ATOM     33  C   UNL A   1      36.623  32.336  33.957  1.00  0.00     0.261 C 
BRANCH  33  34
ATOM     34  O   UNL A   1      37.663  31.351  34.044  1.00  0.00    -0.460 OA
BRANCH  34  35
ATOM     35  C   UNL A   1      37.771  30.473  33.023  1.00  0.00     0.338 C 
ATOM     36  O   UNL A   1      36.919  29.685  32.643  1.00  0.00    -0.246 OA
BRANCH  35  37
ATOM     37  C   UNL A   1      39.033  30.769  32.312  1.00  0.00     0.060 A 
ATOM     38  C   UNL A   1      40.169  31.135  33.048  1.00  0.00     0.016 A 
ATOM     39  C   UNL A   1      39.095  30.659  30.922  1.00  0.00     0.016 A 
ATOM     40  C   UNL A   1      41.365  31.422  32.388  1.00  0.00     0.010 A 
ATOM     41  C   UNL A   1      40.286  30.972  30.262  1.00  0.00     0.010 A 
ATOM     42  C   UNL A   1      41.416  31.388  30.990  1.00  0.00    -0.014 A 
BRANCH  42  43
ATOM     43  C   UNL A   1      42.567  31.996  30.276  1.00  0.00     0.031 A 
ATOM     44  C   UNL A   1      43.784  31.142  30.048  1.00  0.00     0.074 A 
ATOM     45  C   UNL A   1      42.532  33.264  29.828  1.00  0.00     0.049 A 
ATOM     46  N   UNL A   1      44.941  31.460  29.530  1.00  0.00    -0.248 NA
ATOM     47  C   UNL A   1      43.679  29.738  30.475  1.00  0.00     0.031 C 
ATOM     48  C   UNL A   1      41.390  34.170  29.938  1.00  0.00     0.029 A 
ATOM     49  N   UNL A   1      43.495  34.012  29.197  1.00  0.00    -0.354 N 
ATOM     50  C   UNL A   1      45.705  30.298  29.575  1.00  0.00     0.074 A 
ATOM     51  C   UNL A   1      44.892  29.282  30.209  1.00  0.00     0.031 C 
ATOM     52  C   UNL A   1      41.724  35.357  29.401  1.00  0.00     0.029 A 
ATOM     53  C   UNL A   1      43.115  35.311  28.953  1.00  0.00     0.049 A 
ATOM     54  H   UNL A   1      44.376  33.652  28.943  1.00  0.00     0.167 HD
ATOM     55  C   UNL A   1      46.967  30.096  29.122  1.00  0.00     0.034 A 
ATOM     56  C   UNL A   1      43.821  36.349  28.457  1.00  0.00     0.034 A 
ATOM     57  C   UNL A   1      47.768  31.124  28.507  1.00  0.00     0.049 A 
ATOM     58  C   UNL A   1      45.263  36.129  28.055  1.00  0.00     0.074 A 
ATOM     59  C   UNL A   1      49.053  31.028  28.004  1.00  0.00     0.029 A 
ATOM     60  N   UNL A   1      47.368  32.442  28.323  1.00  0.00    -0.354 N 
ATOM     61  N   UNL A   1      45.978  35.026  28.100  1.00  0.00    -0.248 NA
ATOM     62  C   UNL A   1      45.992  37.292  27.532  1.00  0.00     0.031 C 
ATOM     63  C   UNL A   1      49.460  32.303  27.599  1.00  0.00     0.029 A 
ATOM     64  C   UNL A   1      48.397  33.177  27.754  1.00  0.00     0.049 A 
ATOM     65  H   UNL A   1      46.483  32.802  28.564  1.00  0.00     0.167 HD
ATOM     66  C   UNL A   1      47.225  35.358  27.574  1.00  0.00     0.074 A 
ATOM     67  C   UNL A   1      47.161  36.758  27.209  1.00  0.00     0.031 C 
ATOM     68  C   UNL A   1      48.323  34.576  27.400  1.00  0.00     0.034 A 
BRANCH  55  69
ATOM     69  C   UNL A   1      47.568  28.728  29.335  1.00  0.00     0.023 A 
ATOM     70  C   UNL A   1      47.505  27.726  28.351  1.00  0.00     0.031 A 
ATOM     71  C   UNL A   1      48.188  28.411  30.557  1.00  0.00     0.131 A 
ATOM     72  C   UNL A   1      47.982  26.436  28.634  1.00  0.00     0.055 A 
ATOM     73  C   UNL A   1      48.741  27.152  30.799  1.00  0.00     0.041 A 
ATOM     74  F   UNL A   1      48.255  29.317  31.545  1.00  0.00    -0.206 F 
ATOM     75  C   UNL A   1      48.626  26.151  29.840  1.00  0.00     0.022 A 
BRANCH  72  76
ATOM     76  S   UNL A   1      47.612  25.100  27.464  1.00  0.00     0.124 S 
ATOM     77  O   UNL A   1      47.113  25.847  26.312  1.00  0.00    -0.237 OA
ATOM     78  O   UNL A   1      48.909  24.458  27.296  1.00  0.00    -0.237 OA
ATOM     79  O   UNL A   1      46.606  24.303  28.162  1.00  0.00    -0.744 OA
ENDBRANCH  72  76
ENDBRANCH  55  69
BRANCH  56  80
ATOM     80  C   UNL A   1      43.207  37.706  28.350  1.00  0.00     0.023 A 
ATOM     81  C   UNL A   1      43.301  38.633  29.401  1.00  0.00     0.031 A 
ATOM     82  C   UNL A   1      42.452  38.070  27.220  1.00  0.00     0.131 A 
ATOM     83  C   UNL A   1      42.612  39.854  29.322  1.00  0.00     0.055 A 
ATOM     84  C   UNL A   1      41.821  39.311  27.119  1.00  0.00     0.041 A 
ATOM     85  F   UNL A   1      42.318  37.220  26.189  1.00  0.00    -0.206 F 
ATOM     86  C   UNL A   1      41.887  40.207  28.182  1.00  0.00     0.022 A 
BRANCH  83  87
ATOM     87  S   UNL A   1      42.594  40.937  30.777  1.00  0.00     0.124 S 
ATOM     88  O   UNL A   1      41.229  41.451  30.746  1.00  0.00    -0.237 OA
ATOM     89  O   UNL A   1      42.904  40.003  31.854  1.00  0.00    -0.237 OA
ATOM     90  O   UNL A   1      43.638  41.918  30.484  1.00  0.00    -0.744 OA
ENDBRANCH  83  87
ENDBRANCH  56  80
BRANCH  68  91
ATOM     91  C   UNL A   1      49.526  35.205  26.735  1.00  0.00     0.023 A 
ATOM     92  C   UNL A   1      50.641  35.644  27.469  1.00  0.00     0.031 A 
ATOM     93  C   UNL A   1      49.553  35.366  25.338  1.00  0.00     0.131 A 
ATOM     94  C   UNL A   1      51.708  36.274  26.812  1.00  0.00     0.055 A 
ATOM     95  C   UNL A   1      50.648  35.930  24.681  1.00  0.00     0.041 A 
ATOM     96  F   UNL A   1      48.516  34.971  24.582  1.00  0.00    -0.206 F 
ATOM     97  C   UNL A   1      51.729  36.400  25.420  1.00  0.00     0.022 A 
BRANCH  94  98
ATOM     98  S   UNL A   1      53.026  37.024  27.808  1.00  0.00     0.124 S 
ATOM     99  O   UNL A   1      53.822  35.860  28.182  1.00  0.00    -0.237 OA
ATOM    100  O   UNL A   1      53.648  37.945  26.862  1.00  0.00    -0.237 OA
ATOM    101  O   UNL A   1      52.305  37.661  28.908  1.00  0.00    -0.744 OA
ENDBRANCH  94  98
ENDBRANCH  68  91
ENDBRANCH  42  43
ENDBRANCH  35  37
ENDBRANCH  34  35
ENDBRANCH  33  34
ENDBRANCH  32  33
ENDBRANCH  31  32
ENDBRANCH  30  31
ENDBRANCH  29  30
ENDBRANCH  28  29
ENDBRANCH   1  28
TORSDOF 28
ENDMDL
MODEL 3
REMARK VINA RESULT:      -7.8      3.697      9.584
REMARK SMILES CCC1(C(=O)NCCc2ccc(C(=O)OCCOCCOCCOCCOC(=O)c3ccc(-c4c5nc(c(-c6cc(S(=O)(=O)[O-])ccc6F)c6ccc([nH]6)c(-c6cc(S(=O)(=O)[O-])ccc6F)c6nc(c(-c7cc(S(=O)(=O)[O-])ccc7F)c7ccc4[nH]7)C=C6)C=C5)cc3)cc2)CCCC1
REMARK SMILES IDX 20 1 19 2 18 3 17 4 16 5 15 6 13 7 14 8 12 9 9 10 10 11
REMARK SMILES IDX 94 12 11 13 93 14 8 15 7 16 6 17 4 18 5 19 3 21 95 22 98 23
REMARK SMILES IDX 96 24 97 25 2 26 1 27 21 28 22 29 23 30 24 31 25 32 26 33
REMARK SMILES IDX 27 34 28 35 29 36 30 37 31 38 92 39 32 40 91 41 33 42 34 43
REMARK SMILES IDX 35 44 85 45 36 46 90 47 84 48 86 49 37 50 89 51 83 52 82 53
REMARK SMILES IDX 38 55 70 56 50 57 69 58 51 59 54 60 68 61 87 62 52 63 53 64
REMARK SMILES IDX 67 66 88 67 55 68 39 69 40 70 48 71 41 72 47 73 49 74 46 75
REMARK SMILES IDX 42 76 43 77 44 78 45 79 71 80 72 81 80 82 73 83 79 84 81 85
REMARK SMILES IDX 78 86 74 87 75 88 76 89 77 90 56 91 57 92 65 93 58 94 64 95
REMARK SMILES IDX 66 96 63 97 59 98 60 99 61 100 62 101
REMARK H PARENT 6 20 86 54 54 65
REMARK Flexibility Score: inf
ROOT
ATOM      1  C   UNL A   1      39.018  28.569  28.989  1.00  0.00     0.188 C 
ENDROOT
BRANCH   1   2
ATOM      2  C   UNL A   1      38.962  30.103  28.825  1.00  0.00     0.188 C 
BRANCH   2   3
ATOM      3  O   UNL A   1      37.704  30.593  28.400  1.00  0.00    -0.376 OA
BRANCH   3   4
ATOM      4  C   UNL A   1      36.523  29.932  28.814  1.00  0.00     0.202 C 
BRANCH   4   5
ATOM      5  C   UNL A   1      35.620  29.234  27.781  1.00  0.00     0.261 C 
BRANCH   5   6
ATOM      6  O   UNL A   1      34.910  30.093  26.885  1.00  0.00    -0.460 OA
BRANCH   6   7
ATOM      7  C   UNL A   1      33.668  30.458  27.257  1.00  0.00     0.338 C 
ATOM      8  O   UNL A   1      33.336  31.484  27.826  1.00  0.00    -0.246 OA
BRANCH   7   9
ATOM      9  C   UNL A   1      32.723  29.528  26.610  1.00  0.00     0.060 A 
ATOM     10  C   UNL A   1      30.965  27.673  25.508  1.00  0.00    -0.046 A 
ATOM     11  C   UNL A   1      31.245  27.649  26.879  1.00  0.00     0.004 A 
ATOM     12  C   UNL A   1      31.434  28.743  24.732  1.00  0.00     0.004 A 
ATOM     13  C   UNL A   1      32.186  28.515  27.408  1.00  0.00     0.016 A 
ATOM     14  C   UNL A   1      32.293  29.691  25.292  1.00  0.00     0.016 A 
BRANCH  10  15
ATOM     15  C   UNL A   1      30.323  26.466  24.861  1.00  0.00     0.056 C 
BRANCH  15  16
ATOM     16  C   UNL A   1      30.670  25.203  25.681  1.00  0.00     0.120 C 
BRANCH  16  17
ATOM     17  N   UNL A   1      30.763  24.016  24.848  1.00  0.00    -0.355 N 
ATOM     18  C   UNL A   1      31.691  23.592  23.961  1.00  0.00     0.226 C 
ATOM     19  O   UNL A   1      31.236  22.934  23.020  1.00  0.00    -0.274 OA
ATOM     20  H   UNL A   1      30.002  23.400  24.949  1.00  0.00     0.163 HD
BRANCH  18  21
ATOM     21  C   UNL A   1      33.205  23.871  24.099  1.00  0.00     0.049 C 
ATOM     22  C   UNL A   1      33.671  24.070  25.554  1.00  0.00     0.017 C 
ATOM     23  C   UNL A   1      33.637  25.148  23.356  1.00  0.00     0.017 C 
ATOM     24  C   UNL A   1      34.051  25.536  25.740  1.00  0.00     0.001 C 
ATOM     25  C   UNL A   1      33.908  26.228  24.393  1.00  0.00     0.001 C 
BRANCH  21  26
ATOM     26  C   UNL A   1      33.962  22.654  23.470  1.00  0.00     0.013 C 
ATOM     27  C   UNL A   1      34.943  21.932  24.397  1.00  0.00     0.005 C 
ENDBRANCH  21  26
ENDBRANCH  18  21
ENDBRANCH  16  17
ENDBRANCH  15  16
ENDBRANCH  10  15
ENDBRANCH   7   9
ENDBRANCH   6   7
ENDBRANCH   5   6
ENDBRANCH   4   5
ENDBRANCH   3   4
ENDBRANCH   2   3
ENDBRANCH   1   2
BRANCH   1  28
ATOM     28  O   UNL A   1      39.304  27.795  27.838  1.00  0.00    -0.377 OA
BRANCH  28  29
ATOM     29  C   UNL A   1      40.089  26.610  27.963  1.00  0.00     0.188 C 
BRANCH  29  30
ATOM     30  C   UNL A   1      39.455  25.202  28.101  1.00  0.00     0.188 C 
BRANCH  30  31
ATOM     31  O   UNL A   1      39.861  24.260  27.122  1.00  0.00    -0.376 OA
BRANCH  31  32
ATOM     32  C   UNL A   1      41.213  23.844  27.135  1.00  0.00     0.202 C 
BRANCH  32  33
ATOM     33  C   UNL A   1      41.556  22.587  26.322  1.00  0.00     0.261 C 
BRANCH  33  34
ATOM     34  O   UNL A   1      42.881  22.065  26.494  1.00  0.00    -0.460 OA
BRANCH  34  35
ATOM     35  C   UNL A   1      43.782  22.332  25.523  1.00  0.00     0.338 C 
ATOM     36  O   UNL A   1      43.897  21.753  24.454  1.00  0.00    -0.246 OA
BRANCH  35  37
ATOM     37  C   UNL A   1      44.479  23.581  25.894  1.00  0.00     0.060 A 
ATOM     38  C   UNL A   1      44.338  24.716  25.083  1.00  0.00     0.016 A 
ATOM     39  C   UNL A   1      45.251  23.634  27.057  1.00  0.00     0.016 A 
ATOM     40  C   UNL A   1      44.996  25.900  25.419  1.00  0.00     0.010 A 
ATOM     41  C   UNL A   1      45.929  24.812  27.378  1.00  0.00     0.010 A 
ATOM     42  C   UNL A   1      45.831  25.940  26.542  1.00  0.00    -0.014 A 
BRANCH  42  43
ATOM     43  C   UNL A   1      46.774  27.072  26.724  1.00  0.00     0.031 A 
ATOM     44  C   UNL A   1      46.352  28.202  27.622  1.00  0.00     0.074 A 
ATOM     45  C   UNL A   1      47.977  27.096  26.122  1.00  0.00     0.049 A 
ATOM     46  N   UNL A   1      46.952  29.334  27.878  1.00  0.00    -0.248 NA
ATOM     47  C   UNL A   1      45.068  28.029  28.321  1.00  0.00     0.031 C 
ATOM     48  C   UNL A   1      48.521  26.034  25.276  1.00  0.00     0.029 A 
ATOM     49  N   UNL A   1      48.957  28.058  26.126  1.00  0.00    -0.354 N 
ATOM     50  C   UNL A   1      46.116  30.013  28.760  1.00  0.00     0.074 A 
ATOM     51  C   UNL A   1      44.951  29.180  28.961  1.00  0.00     0.031 C 
ATOM     52  C   UNL A   1      49.734  26.411  24.834  1.00  0.00     0.029 A 
ATOM     53  C   UNL A   1      50.032  27.755  25.325  1.00  0.00     0.049 A 
ATOM     54  H   UNL A   1      48.895  28.887  26.654  1.00  0.00     0.167 HD
ATOM     55  C   UNL A   1      46.310  31.216  29.353  1.00  0.00     0.034 A 
ATOM     56  C   UNL A   1      51.115  28.494  25.001  1.00  0.00     0.034 A 
ATOM     57  C   UNL A   1      47.471  32.039  29.129  1.00  0.00     0.049 A 
ATOM     58  C   UNL A   1      51.260  29.880  25.591  1.00  0.00     0.074 A 
ATOM     59  C   UNL A   1      47.774  33.271  29.682  1.00  0.00     0.029 A 
ATOM     60  N   UNL A   1      48.517  31.724  28.269  1.00  0.00    -0.354 N 
ATOM     61  N   UNL A   1      50.465  30.513  26.425  1.00  0.00    -0.248 NA
ATOM     62  C   UNL A   1      52.448  30.648  25.199  1.00  0.00     0.031 C 
ATOM     63  C   UNL A   1      48.954  33.737  29.094  1.00  0.00     0.029 A 
ATOM     64  C   UNL A   1      49.443  32.755  28.247  1.00  0.00     0.049 A 
ATOM     65  H   UNL A   1      48.589  30.890  27.751  1.00  0.00     0.167 HD
ATOM     66  C   UNL A   1      51.082  31.736  26.686  1.00  0.00     0.074 A 
ATOM     67  C   UNL A   1      52.317  31.745  25.929  1.00  0.00     0.031 C 
ATOM     68  C   UNL A   1      50.670  32.756  27.482  1.00  0.00     0.034 A 
BRANCH  55  69
ATOM     69  C   UNL A   1      45.209  31.732  30.249  1.00  0.00     0.023 A 
ATOM     70  C   UNL A   1      44.289  32.701  29.813  1.00  0.00     0.031 A 
ATOM     71  C   UNL A   1      45.098  31.268  31.572  1.00  0.00     0.131 A 
ATOM     72  C   UNL A   1      43.350  33.230  30.713  1.00  0.00     0.055 A 
ATOM     73  C   UNL A   1      44.105  31.733  32.435  1.00  0.00     0.041 A 
ATOM     74  F   UNL A   1      45.964  30.363  32.054  1.00  0.00    -0.206 F 
ATOM     75  C   UNL A   1      43.233  32.731  32.012  1.00  0.00     0.022 A 
BRANCH  72  76
ATOM     76  S   UNL A   1      42.389  34.682  30.207  1.00  0.00     0.124 S 
ATOM     77  O   UNL A   1      42.451  34.585  28.751  1.00  0.00    -0.237 OA
ATOM     78  O   UNL A   1      41.087  34.426  30.810  1.00  0.00    -0.237 OA
ATOM     79  O   UNL A   1      43.133  35.802  30.781  1.00  0.00    -0.744 OA
ENDBRANCH  72  76
ENDBRANCH  55  69
BRANCH  56  80
ATOM     80  C   UNL A   1      52.131  27.974  24.038  1.00  0.00     0.023 A 
ATOM     81  C   UNL A   1      51.904  28.004  22.653  1.00  0.00     0.031 A 
ATOM     82  C   UNL A   1      53.318  27.371  24.495  1.00  0.00     0.131 A 
ATOM     83  C   UNL A   1      52.822  27.400  21.778  1.00  0.00     0.055 A 
ATOM     84  C   UNL A   1      54.257  26.827  23.618  1.00  0.00     0.041 A 
ATOM     85  F   UNL A   1      53.583  27.303  25.810  1.00  0.00    -0.206 F 
ATOM     86  C   UNL A   1      54.005  26.827  22.250  1.00  0.00     0.022 A 
BRANCH  83  87
ATOM     87  S   UNL A   1      52.399  27.284  20.018  1.00  0.00     0.124 S 
ATOM     88  O   UNL A   1      51.154  28.041  19.964  1.00  0.00    -0.237 OA
ATOM     89  O   UNL A   1      53.557  27.905  19.386  1.00  0.00    -0.237 OA
ATOM     90  O   UNL A   1      52.266  25.845  19.795  1.00  0.00    -0.744 OA
ENDBRANCH  83  87
ENDBRANCH  56  80
BRANCH  68  91
ATOM     91  C   UNL A   1      51.592  33.946  27.622  1.00  0.00     0.023 A 
ATOM     92  C   UNL A   1      51.521  35.052  26.757  1.00  0.00     0.031 A 
ATOM     93  C   UNL A   1      52.560  33.970  28.642  1.00  0.00     0.131 A 
ATOM     94  C   UNL A   1      52.438  36.105  26.890  1.00  0.00     0.055 A 
ATOM     95  C   UNL A   1      53.423  35.053  28.815  1.00  0.00     0.041 A 
ATOM     96  F   UNL A   1      52.680  32.942  29.497  1.00  0.00    -0.206 F 
ATOM     97  C   UNL A   1      53.374  36.123  27.928  1.00  0.00     0.022 A 
BRANCH  94  98
ATOM     98  S   UNL A   1      52.462  37.406  25.627  1.00  0.00     0.124 S 
ATOM     99  O   UNL A   1      51.355  37.010  24.763  1.00  0.00    -0.237 OA
ATOM    100  O   UNL A   1      52.252  38.615  26.417  1.00  0.00    -0.237 OA
ATOM    101  O   UNL A   1      53.790  37.281  25.029  1.00  0.00    -0.744 OA
ENDBRANCH  94  98
ENDBRANCH  68  91
ENDBRANCH  42  43
ENDBRANCH  35  37
ENDBRANCH  34  35
ENDBRANCH  33  34
ENDBRANCH  32  33
ENDBRANCH  31  32
ENDBRANCH  30  31
ENDBRANCH  29  30
ENDBRANCH  28  29
ENDBRANCH   1  28
TORSDOF 28
ENDMDL
