MODEL 1
REMARK VINA RESULT:      -6.2      0.000      0.000
REMARK SMILES CC[C@@H](C)[C@H](NC(=O)[C@H](C)N1C(=O)N2CCC3=c4cc(OC)ccc4=N[C@H]3[C@@]2(C)C1=O)C(=O)OCCOCCOCCOCCOC(=O)c1ccc(-c2c3nc(c(-c4cc(S(=O)(=O)[O-])ccc4F)c4ccc([nH]4)c(-c4cc(S(=O)(=O)[O-])ccc4F)c4nc(c(-c5cc(S(=O)(=O)[O-])ccc5F)c5ccc2[nH]5)C=C4)C=C3)cc1
REMARK SMILES IDX 39 1 38 2 37 3 36 4 35 5 34 6 32 7 33 8 5 9 3 10 4 11 2 12
REMARK SMILES IDX 1 13 6 14 7 15 8 17 9 18 10 19 11 20 12 21 30 22 14 23 13 24
REMARK SMILES IDX 28 25 31 26 15 27 27 28 29 29 16 30 17 31 26 32 18 33 25 34
REMARK SMILES IDX 19 35 24 36 20 37 23 38 21 39 22 40 40 41 41 42 42 43 43 44
REMARK SMILES IDX 44 45 45 46 46 47 47 48 48 49 49 50 50 51 111 52 51 53
REMARK SMILES IDX 110 54 52 55 53 56 54 57 104 58 55 59 109 60 103 61 105 62
REMARK SMILES IDX 56 63 108 64 102 65 101 66 57 68 89 69 69 70 88 71 70 72
REMARK SMILES IDX 73 73 87 74 106 75 71 76 72 77 86 79 107 80 74 81 58 82
REMARK SMILES IDX 59 83 67 84 60 85 66 86 68 87 65 88 61 89 62 90 63 91 64 92
REMARK SMILES IDX 90 93 91 94 99 95 92 96 98 97 100 98 97 99 93 100 94 101
REMARK SMILES IDX 95 102 96 103 75 104 76 105 84 106 77 107 83 108 85 109
REMARK SMILES IDX 82 110 78 111 79 112 80 113 81 114
REMARK H PARENT 6 16 105 67 73 78
REMARK Flexibility Score: inf
ROOT
ATOM      1  C   UNL A   1      42.748  35.206  28.363  1.00  0.00     0.188 C 
ENDROOT
BRANCH   1   2
ATOM      2  C   UNL A   1      42.871  36.406  29.250  1.00  0.00     0.188 C 
BRANCH   2   3
ATOM      3  O   UNL A   1      43.785  36.252  30.338  1.00  0.00    -0.376 OA
BRANCH   3   4
ATOM      4  C   UNL A   1      43.632  35.400  31.489  1.00  0.00     0.202 C 
BRANCH   4   5
ATOM      5  C   UNL A   1      44.230  33.864  31.284  1.00  0.00     0.261 C 
BRANCH   5   6
ATOM      6  O   UNL A   1      43.613  32.703  31.909  1.00  0.00    -0.462 OA
BRANCH   6   7
ATOM      7  C   UNL A   1      44.067  32.409  33.170  1.00  0.00     0.328 C 
ATOM      8  O   UNL A   1      43.744  33.049  34.165  1.00  0.00    -0.250 OA
BRANCH   7   9
ATOM      9  C   UNL A   1      44.969  31.120  33.217  1.00  0.00     0.195 C 
BRANCH   9  10
ATOM     10  C   UNL A   1      46.389  31.391  33.728  1.00  0.00     0.019 C 
ATOM     11  C   UNL A   1      47.408  31.124  32.629  1.00  0.00     0.010 C 
BRANCH  10  12
ATOM     12  C   UNL A   1      46.600  30.711  35.096  1.00  0.00     0.002 C 
ATOM     13  C   UNL A   1      45.354  30.090  35.682  1.00  0.00     0.004 C 
ENDBRANCH  10  12
ENDBRANCH   9  10
BRANCH   9  14
ATOM     14  N   UNL A   1      45.150  30.290  32.036  1.00  0.00    -0.341 N 
ATOM     15  C   UNL A   1      44.643  29.039  31.891  1.00  0.00     0.243 C 
ATOM     16  H   UNL A   1      45.675  30.660  31.291  1.00  0.00     0.164 HD
ATOM     17  O   UNL A   1      45.123  28.297  31.030  1.00  0.00    -0.273 OA
BRANCH  15  18
ATOM     18  C   UNL A   1      43.240  28.884  32.394  1.00  0.00     0.181 C 
ATOM     19  C   UNL A   1      43.624  27.674  33.510  1.00  0.00     0.042 C 
BRANCH  18  20
ATOM     20  N   UNL A   1      41.836  29.344  31.590  1.00  0.00    -0.250 N 
ATOM     21  C   UNL A   1      41.169  30.250  30.674  1.00  0.00     0.328 C 
ATOM     22  C   UNL A   1      40.788  28.610  31.971  1.00  0.00     0.259 C 
ATOM     23  N   UNL A   1      39.693  29.725  30.446  1.00  0.00    -0.307 N 
ATOM     24  O   UNL A   1      41.594  31.288  30.193  1.00  0.00    -0.248 OA
ATOM     25  C   UNL A   1      39.861  28.365  30.798  1.00  0.00     0.147 C 
ATOM     26  O   UNL A   1      40.575  28.264  33.132  1.00  0.00    -0.271 OA
ATOM     27  C   UNL A   1      38.549  29.742  29.186  1.00  0.00     0.127 C 
ATOM     28  C   UNL A   1      40.479  27.808  29.281  1.00  0.00     0.168 C 
ATOM     29  C   UNL A   1      38.554  27.891  31.463  1.00  0.00     0.048 C 
ATOM     30  C   UNL A   1      38.305  28.081  28.372  1.00  0.00     0.055 C 
ATOM     31  C   UNL A   1      39.657  27.108  28.231  1.00  0.00    -0.032 C 
ATOM     32  N   UNL A   1      41.347  28.705  28.351  1.00  0.00    -0.274 NA
ATOM     33  C   UNL A   1      40.458  26.940  27.101  1.00  0.00     0.005 A 
ATOM     34  C   UNL A   1      41.076  28.294  27.143  1.00  0.00     0.066 A 
ATOM     35  C   UNL A   1      41.733  26.072  26.932  1.00  0.00     0.056 A 
ATOM     36  C   UNL A   1      41.821  28.752  25.975  1.00  0.00     0.032 A 
ATOM     37  C   UNL A   1      42.912  26.643  26.489  1.00  0.00     0.119 A 
ATOM     38  C   UNL A   1      42.863  27.932  25.805  1.00  0.00     0.048 A 
BRANCH  37  39
ATOM     39  O   UNL A   1      44.163  26.127  26.807  1.00  0.00    -0.497 OA
ATOM     40  C   UNL A   1      45.202  25.907  25.821  1.00  0.00     0.278 C 
ENDBRANCH  37  39
ENDBRANCH  18  20
ENDBRANCH  15  18
ENDBRANCH   9  14
ENDBRANCH   7   9
ENDBRANCH   6   7
ENDBRANCH   5   6
ENDBRANCH   4   5
ENDBRANCH   3   4
ENDBRANCH   2   3
ENDBRANCH   1   2
BRANCH   1  41
ATOM     41  O   UNL A   1      41.744  34.381  28.909  1.00  0.00    -0.377 OA
BRANCH  41  42
ATOM     42  C   UNL A   1      40.600  35.088  29.341  1.00  0.00     0.188 C 
BRANCH  42  43
ATOM     43  C   UNL A   1      39.685  34.289  30.262  1.00  0.00     0.188 C 
BRANCH  43  44
ATOM     44  O   UNL A   1      38.855  33.245  29.774  1.00  0.00    -0.376 OA
BRANCH  44  45
ATOM     45  C   UNL A   1      37.666  33.501  29.042  1.00  0.00     0.202 C 
BRANCH  45  46
ATOM     46  C   UNL A   1      36.497  32.518  29.199  1.00  0.00     0.261 C 
BRANCH  46  47
ATOM     47  O   UNL A   1      35.729  32.544  30.415  1.00  0.00    -0.460 OA
BRANCH  47  48
ATOM     48  C   UNL A   1      36.169  31.697  31.394  1.00  0.00     0.338 C 
ATOM     49  O   UNL A   1      35.909  30.528  31.489  1.00  0.00    -0.246 OA
BRANCH  48  50
ATOM     50  C   UNL A   1      37.077  32.401  32.347  1.00  0.00     0.060 A 
ATOM     51  C   UNL A   1      36.831  33.716  32.747  1.00  0.00     0.016 A 
ATOM     52  C   UNL A   1      38.100  31.666  32.964  1.00  0.00     0.016 A 
ATOM     53  C   UNL A   1      37.584  34.279  33.790  1.00  0.00     0.010 A 
ATOM     54  C   UNL A   1      38.864  32.238  33.994  1.00  0.00     0.010 A 
ATOM     55  C   UNL A   1      38.606  33.546  34.431  1.00  0.00    -0.014 A 
BRANCH  55  56
ATOM     56  C   UNL A   1      39.218  34.068  35.687  1.00  0.00     0.031 A 
ATOM     57  C   UNL A   1      38.676  33.836  37.065  1.00  0.00     0.074 A 
ATOM     58  C   UNL A   1      40.305  34.842  35.560  1.00  0.00     0.049 A 
ATOM     59  N   UNL A   1      39.256  33.947  38.232  1.00  0.00    -0.248 NA
ATOM     60  C   UNL A   1      37.282  33.425  37.144  1.00  0.00     0.031 C 
ATOM     61  C   UNL A   1      40.894  35.232  34.283  1.00  0.00     0.029 A 
ATOM     62  N   UNL A   1      41.086  35.447  36.506  1.00  0.00    -0.354 N 
ATOM     63  C   UNL A   1      38.319  33.518  39.172  1.00  0.00     0.074 A 
ATOM     64  C   UNL A   1      37.119  33.186  38.440  1.00  0.00     0.031 C 
ATOM     65  C   UNL A   1      41.956  36.012  34.523  1.00  0.00     0.029 A 
ATOM     66  C   UNL A   1      42.107  36.186  35.968  1.00  0.00     0.049 A 
ATOM     67  H   UNL A   1      40.930  35.360  37.473  1.00  0.00     0.167 HD
ATOM     68  C   UNL A   1      38.437  33.444  40.520  1.00  0.00     0.034 A 
ATOM     69  C   UNL A   1      43.063  36.917  36.570  1.00  0.00     0.034 A 
ATOM     70  C   UNL A   1      39.552  34.006  41.241  1.00  0.00     0.049 A 
ATOM     71  C   UNL A   1      43.156  36.906  38.072  1.00  0.00     0.074 A 
ATOM     72  C   UNL A   1      39.790  33.993  42.603  1.00  0.00     0.029 A 
ATOM     73  N   UNL A   1      40.561  34.764  40.666  1.00  0.00    -0.354 N 
ATOM     74  N   UNL A   1      42.406  36.270  38.942  1.00  0.00    -0.248 NA
ATOM     75  C   UNL A   1      44.241  37.688  38.676  1.00  0.00     0.031 C 
ATOM     76  C   UNL A   1      40.863  34.848  42.861  1.00  0.00     0.029 A 
ATOM     77  C   UNL A   1      41.375  35.295  41.651  1.00  0.00     0.049 A 
ATOM     78  H   UNL A   1      40.681  34.905  39.699  1.00  0.00     0.167 HD
ATOM     79  C   UNL A   1      42.940  36.558  40.195  1.00  0.00     0.074 A 
ATOM     80  C   UNL A   1      44.090  37.407  39.964  1.00  0.00     0.031 C 
ATOM     81  C   UNL A   1      42.516  36.153  41.420  1.00  0.00     0.034 A 
BRANCH  68  82
ATOM     82  C   UNL A   1      37.344  32.771  41.323  1.00  0.00     0.023 A 
ATOM     83  C   UNL A   1      36.154  33.455  41.639  1.00  0.00     0.031 A 
ATOM     84  C   UNL A   1      37.553  31.509  41.910  1.00  0.00     0.131 A 
ATOM     85  C   UNL A   1      35.241  32.893  42.544  1.00  0.00     0.055 A 
ATOM     86  C   UNL A   1      36.625  30.939  42.785  1.00  0.00     0.041 A 
ATOM     87  F   UNL A   1      38.674  30.815  41.651  1.00  0.00    -0.206 F 
ATOM     88  C   UNL A   1      35.468  31.637  43.115  1.00  0.00     0.022 A 
BRANCH  85  89
ATOM     89  S   UNL A   1      33.757  33.797  43.068  1.00  0.00     0.124 S 
ATOM     90  O   UNL A   1      32.898  32.713  43.540  1.00  0.00    -0.237 OA
ATOM     91  O   UNL A   1      34.283  34.674  44.110  1.00  0.00    -0.237 OA
ATOM     92  O   UNL A   1      33.303  34.461  41.852  1.00  0.00    -0.744 OA
ENDBRANCH  85  89
ENDBRANCH  68  82
BRANCH  69  93
ATOM     93  C   UNL A   1      44.040  37.623  35.698  1.00  0.00     0.023 A 
ATOM     94  C   UNL A   1      43.723  38.878  35.147  1.00  0.00     0.031 A 
ATOM     95  C   UNL A   1      45.195  36.967  35.246  1.00  0.00     0.131 A 
ATOM     96  C   UNL A   1      44.500  39.391  34.102  1.00  0.00     0.055 A 
ATOM     97  C   UNL A   1      46.012  37.522  34.261  1.00  0.00     0.041 A 
ATOM     98  F   UNL A   1      45.519  35.757  35.728  1.00  0.00    -0.206 F 
ATOM     99  C   UNL A   1      45.652  38.729  33.667  1.00  0.00     0.022 A 
BRANCH  96 100
ATOM    100  S   UNL A   1      43.939  40.835  33.157  1.00  0.00     0.124 S 
ATOM    101  O   UNL A   1      44.191  40.415  31.783  1.00  0.00    -0.237 OA
ATOM    102  O   UNL A   1      42.533  40.915  33.546  1.00  0.00    -0.237 OA
ATOM    103  O   UNL A   1      44.781  41.920  33.650  1.00  0.00    -0.744 OA
ENDBRANCH  96 100
ENDBRANCH  69  93
BRANCH  81 104
ATOM    104  C   UNL A   1      43.269  36.619  42.645  1.00  0.00     0.023 A 
ATOM    105  C   UNL A   1      44.265  35.796  43.208  1.00  0.00     0.031 A 
ATOM    106  C   UNL A   1      42.885  37.771  43.353  1.00  0.00     0.131 A 
ATOM    107  C   UNL A   1      44.797  36.102  44.466  1.00  0.00     0.055 A 
ATOM    108  C   UNL A   1      43.464  38.105  44.577  1.00  0.00     0.041 A 
ATOM    109  F   UNL A   1      41.930  38.581  42.870  1.00  0.00    -0.206 F 
ATOM    110  C   UNL A   1      44.410  37.259  45.149  1.00  0.00     0.022 A 
BRANCH 107 111
ATOM    111  S   UNL A   1      45.918  34.953  45.311  1.00  0.00     0.124 S 
ATOM    112  O   UNL A   1      45.359  34.923  46.661  1.00  0.00    -0.237 OA
ATOM    113  O   UNL A   1      45.743  33.727  44.536  1.00  0.00    -0.237 OA
ATOM    114  O   UNL A   1      47.227  35.586  45.195  1.00  0.00    -0.744 OA
ENDBRANCH 107 111
ENDBRANCH  81 104
ENDBRANCH  55  56
ENDBRANCH  48  50
ENDBRANCH  47  48
ENDBRANCH  46  47
ENDBRANCH  45  46
ENDBRANCH  44  45
ENDBRANCH  43  44
ENDBRANCH  42  43
ENDBRANCH  41  42
ENDBRANCH   1  41
TORSDOF 29
ENDMDL
MODEL 2
REMARK VINA RESULT:      -5.6      5.189     12.808
REMARK SMILES CC[C@@H](C)[C@H](NC(=O)[C@H](C)N1C(=O)N2CCC3=c4cc(OC)ccc4=N[C@H]3[C@@]2(C)C1=O)C(=O)OCCOCCOCCOCCOC(=O)c1ccc(-c2c3nc(c(-c4cc(S(=O)(=O)[O-])ccc4F)c4ccc([nH]4)c(-c4cc(S(=O)(=O)[O-])ccc4F)c4nc(c(-c5cc(S(=O)(=O)[O-])ccc5F)c5ccc2[nH]5)C=C4)C=C3)cc1
REMARK SMILES IDX 39 1 38 2 37 3 36 4 35 5 34 6 32 7 33 8 5 9 3 10 4 11 2 12
REMARK SMILES IDX 1 13 6 14 7 15 8 17 9 18 10 19 11 20 12 21 30 22 14 23 13 24
REMARK SMILES IDX 28 25 31 26 15 27 27 28 29 29 16 30 17 31 26 32 18 33 25 34
REMARK SMILES IDX 19 35 24 36 20 37 23 38 21 39 22 40 40 41 41 42 42 43 43 44
REMARK SMILES IDX 44 45 45 46 46 47 47 48 48 49 49 50 50 51 111 52 51 53
REMARK SMILES IDX 110 54 52 55 53 56 54 57 104 58 55 59 109 60 103 61 105 62
REMARK SMILES IDX 56 63 108 64 102 65 101 66 57 68 89 69 69 70 88 71 70 72
REMARK SMILES IDX 73 73 87 74 106 75 71 76 72 77 86 79 107 80 74 81 58 82
REMARK SMILES IDX 59 83 67 84 60 85 66 86 68 87 65 88 61 89 62 90 63 91 64 92
REMARK SMILES IDX 90 93 91 94 99 95 92 96 98 97 100 98 97 99 93 100 94 101
REMARK SMILES IDX 95 102 96 103 75 104 76 105 84 106 77 107 83 108 85 109
REMARK SMILES IDX 82 110 78 111 79 112 80 113 81 114
REMARK H PARENT 6 16 105 67 73 78
REMARK Flexibility Score: inf
ROOT
ATOM      1  C   UNL A   1      51.973  30.774  33.345  1.00  0.00     0.188 C 
ENDROOT
BRANCH   1   2
ATOM      2  C   UNL A   1      50.602  31.216  32.937  1.00  0.00     0.188 C 
BRANCH   2   3
ATOM      3  O   UNL A   1      50.442  32.631  32.815  1.00  0.00    -0.376 OA
BRANCH   3   4
ATOM      4  C   UNL A   1      49.509  33.332  31.972  1.00  0.00     0.202 C 
BRANCH   4   5
ATOM      5  C   UNL A   1      48.150  32.458  31.585  1.00  0.00     0.261 C 
BRANCH   5   6
ATOM      6  O   UNL A   1      47.858  32.045  30.220  1.00  0.00    -0.462 OA
BRANCH   6   7
ATOM      7  C   UNL A   1      47.260  33.000  29.438  1.00  0.00     0.328 C 
ATOM      8  O   UNL A   1      47.843  34.004  29.043  1.00  0.00    -0.250 OA
BRANCH   7   9
ATOM      9  C   UNL A   1      45.785  32.630  29.030  1.00  0.00     0.195 C 
BRANCH   9  10
ATOM     10  C   UNL A   1      45.592  31.136  28.746  1.00  0.00     0.019 C 
ATOM     11  C   UNL A   1      45.317  30.909  27.266  1.00  0.00     0.010 C 
BRANCH  10  12
ATOM     12  C   UNL A   1      44.616  30.521  29.769  1.00  0.00     0.002 C 
ATOM     13  C   UNL A   1      43.257  31.178  29.806  1.00  0.00     0.004 C 
ENDBRANCH  10  12
ENDBRANCH   9  10
BRANCH   9  14
ATOM     14  N   UNL A   1      45.120  33.308  27.929  1.00  0.00    -0.341 N 
ATOM     15  C   UNL A   1      44.065  34.151  28.070  1.00  0.00     0.243 C 
ATOM     16  H   UNL A   1      45.458  33.147  27.019  1.00  0.00     0.164 HD
ATOM     17  O   UNL A   1      43.364  34.400  27.086  1.00  0.00    -0.273 OA
BRANCH  15  18
ATOM     18  C   UNL A   1      44.183  35.091  29.231  1.00  0.00     0.181 C 
ATOM     19  C   UNL A   1      45.159  36.202  28.414  1.00  0.00     0.042 C 
BRANCH  18  20
ATOM     20  N   UNL A   1      43.930  34.711  30.851  1.00  0.00    -0.250 N 
ATOM     21  C   UNL A   1      44.476  34.303  32.131  1.00  0.00     0.328 C 
ATOM     22  C   UNL A   1      42.631  34.705  31.158  1.00  0.00     0.259 C 
ATOM     23  N   UNL A   1      43.308  34.330  33.199  1.00  0.00    -0.307 N 
ATOM     24  O   UNL A   1      45.608  33.921  32.384  1.00  0.00    -0.248 OA
ATOM     25  C   UNL A   1      42.418  35.228  32.564  1.00  0.00     0.147 C 
ATOM     26  O   UNL A   1      41.752  34.255  30.424  1.00  0.00    -0.271 OA
ATOM     27  C   UNL A   1      43.157  34.628  34.868  1.00  0.00     0.127 C 
ATOM     28  C   UNL A   1      43.164  36.700  33.084  1.00  0.00     0.168 C 
ATOM     29  C   UNL A   1      40.983  34.780  32.902  1.00  0.00     0.048 C 
ATOM     30  C   UNL A   1      42.349  36.261  35.268  1.00  0.00     0.055 C 
ATOM     31  C   UNL A   1      42.682  37.536  34.241  1.00  0.00    -0.032 C 
ATOM     32  N   UNL A   1      44.697  36.825  33.318  1.00  0.00    -0.274 NA
ATOM     33  C   UNL A   1      43.609  38.560  34.444  1.00  0.00     0.005 A 
ATOM     34  C   UNL A   1      44.820  37.714  34.263  1.00  0.00     0.066 A 
ATOM     35  C   UNL A   1      43.971  39.745  33.510  1.00  0.00     0.056 A 
ATOM     36  C   UNL A   1      46.113  38.263  34.658  1.00  0.00     0.032 A 
ATOM     37  C   UNL A   1      45.283  39.953  33.123  1.00  0.00     0.119 A 
ATOM     38  C   UNL A   1      46.356  39.333  33.895  1.00  0.00     0.048 A 
BRANCH  37  39
ATOM     39  O   UNL A   1      45.624  40.593  31.938  1.00  0.00    -0.497 OA
ATOM     40  C   UNL A   1      44.832  40.493  30.728  1.00  0.00     0.278 C 
ENDBRANCH  37  39
ENDBRANCH  18  20
ENDBRANCH  15  18
ENDBRANCH   9  14
ENDBRANCH   7   9
ENDBRANCH   6   7
ENDBRANCH   5   6
ENDBRANCH   4   5
ENDBRANCH   3   4
ENDBRANCH   2   3
ENDBRANCH   1   2
BRANCH   1  41
ATOM     41  O   UNL A   1      52.096  29.412  33.001  1.00  0.00    -0.377 OA
BRANCH  41  42
ATOM     42  C   UNL A   1      53.415  29.027  32.672  1.00  0.00     0.188 C 
BRANCH  42  43
ATOM     43  C   UNL A   1      53.896  27.774  33.394  1.00  0.00     0.188 C 
BRANCH  43  44
ATOM     44  O   UNL A   1      53.474  26.475  33.004  1.00  0.00    -0.376 OA
BRANCH  44  45
ATOM     45  C   UNL A   1      54.001  25.297  33.596  1.00  0.00     0.202 C 
BRANCH  45  46
ATOM     46  C   UNL A   1      53.404  23.948  33.171  1.00  0.00     0.261 C 
BRANCH  46  47
ATOM     47  O   UNL A   1      52.247  23.941  32.315  1.00  0.00    -0.460 OA
BRANCH  47  48
ATOM     48  C   UNL A   1      51.135  23.354  32.852  1.00  0.00     0.338 C 
ATOM     49  O   UNL A   1      51.062  22.235  33.281  1.00  0.00    -0.246 OA
BRANCH  48  50
ATOM     50  C   UNL A   1      49.987  24.307  32.888  1.00  0.00     0.060 A 
ATOM     51  C   UNL A   1      50.000  25.488  32.142  1.00  0.00     0.016 A 
ATOM     52  C   UNL A   1      48.818  23.923  33.560  1.00  0.00     0.016 A 
ATOM     53  C   UNL A   1      48.832  26.260  32.039  1.00  0.00     0.010 A 
ATOM     54  C   UNL A   1      47.656  24.707  33.473  1.00  0.00     0.010 A 
ATOM     55  C   UNL A   1      47.644  25.878  32.699  1.00  0.00    -0.014 A 
BRANCH  55  56
ATOM     56  C   UNL A   1      46.362  26.569  32.379  1.00  0.00     0.031 A 
ATOM     57  C   UNL A   1      45.512  26.287  31.176  1.00  0.00     0.074 A 
ATOM     58  C   UNL A   1      45.974  27.549  33.207  1.00  0.00     0.049 A 
ATOM     59  N   UNL A   1      44.256  26.567  30.943  1.00  0.00    -0.248 NA
ATOM     60  C   UNL A   1      46.168  25.596  30.077  1.00  0.00     0.031 C 
ATOM     61  C   UNL A   1      46.739  28.000  34.366  1.00  0.00     0.029 A 
ATOM     62  N   UNL A   1      44.862  28.344  33.191  1.00  0.00    -0.354 N 
ATOM     63  C   UNL A   1      43.954  25.991  29.710  1.00  0.00     0.074 A 
ATOM     64  C   UNL A   1      45.172  25.382  29.226  1.00  0.00     0.031 C 
ATOM     65  C   UNL A   1      46.069  28.995  34.959  1.00  0.00     0.029 A 
ATOM     66  C   UNL A   1      44.838  29.258  34.212  1.00  0.00     0.049 A 
ATOM     67  H   UNL A   1      44.150  28.268  32.516  1.00  0.00     0.167 HD
ATOM     68  C   UNL A   1      42.782  26.001  29.029  1.00  0.00     0.034 A 
ATOM     69  C   UNL A   1      43.926  30.199  34.518  1.00  0.00     0.034 A 
ATOM     70  C   UNL A   1      41.657  26.815  29.416  1.00  0.00     0.049 A 
ATOM     71  C   UNL A   1      42.653  30.272  33.718  1.00  0.00     0.074 A 
ATOM     72  C   UNL A   1      40.416  26.910  28.815  1.00  0.00     0.029 A 
ATOM     73  N   UNL A   1      41.674  27.743  30.447  1.00  0.00    -0.354 N 
ATOM     74  N   UNL A   1      42.270  29.529  32.705  1.00  0.00    -0.248 NA
ATOM     75  C   UNL A   1      41.675  31.289  34.118  1.00  0.00     0.031 C 
ATOM     76  C   UNL A   1      39.736  27.982  29.397  1.00  0.00     0.029 A 
ATOM     77  C   UNL A   1      40.500  28.475  30.445  1.00  0.00     0.049 A 
ATOM     78  H   UNL A   1      42.413  27.865  31.086  1.00  0.00     0.167 HD
ATOM     79  C   UNL A   1      40.997  29.976  32.359  1.00  0.00     0.074 A 
ATOM     80  C   UNL A   1      40.670  31.038  33.288  1.00  0.00     0.031 C 
ATOM     81  C   UNL A   1      40.179  29.543  31.366  1.00  0.00     0.034 A 
BRANCH  68  82
ATOM     82  C   UNL A   1      42.641  25.148  27.786  1.00  0.00     0.023 A 
ATOM     83  C   UNL A   1      42.034  23.878  27.845  1.00  0.00     0.031 A 
ATOM     84  C   UNL A   1      43.252  25.530  26.576  1.00  0.00     0.131 A 
ATOM     85  C   UNL A   1      42.088  23.023  26.734  1.00  0.00     0.055 A 
ATOM     86  C   UNL A   1      43.273  24.687  25.462  1.00  0.00     0.041 A 
ATOM     87  F   UNL A   1      43.853  26.726  26.465  1.00  0.00    -0.206 F 
ATOM     88  C   UNL A   1      42.700  23.422  25.541  1.00  0.00     0.022 A 
BRANCH  85  89
ATOM     89  S   UNL A   1      41.425  21.335  26.812  1.00  0.00     0.124 S 
ATOM     90  O   UNL A   1      42.638  20.531  26.679  1.00  0.00    -0.237 OA
ATOM     91  O   UNL A   1      40.802  21.310  28.132  1.00  0.00    -0.237 OA
ATOM     92  O   UNL A   1      40.509  21.265  25.679  1.00  0.00    -0.744 OA
ENDBRANCH  85  89
ENDBRANCH  68  82
BRANCH  69  93
ATOM     93  C   UNL A   1      44.193  31.057  35.703  1.00  0.00     0.023 A 
ATOM     94  C   UNL A   1      45.114  32.118  35.619  1.00  0.00     0.031 A 
ATOM     95  C   UNL A   1      43.697  30.701  36.967  1.00  0.00     0.131 A 
ATOM     96  C   UNL A   1      45.585  32.720  36.791  1.00  0.00     0.055 A 
ATOM     97  C   UNL A   1      44.109  31.361  38.125  1.00  0.00     0.041 A 
ATOM     98  F   UNL A   1      42.837  29.680  37.093  1.00  0.00    -0.206 F 
ATOM     99  C   UNL A   1      45.076  32.359  38.042  1.00  0.00     0.022 A 
BRANCH  96 100
ATOM    100  S   UNL A   1      46.999  33.856  36.741  1.00  0.00     0.124 S 
ATOM    101  O   UNL A   1      48.047  33.013  36.174  1.00  0.00    -0.237 OA
ATOM    102  O   UNL A   1      46.498  34.914  35.868  1.00  0.00    -0.237 OA
ATOM    103  O   UNL A   1      47.185  34.239  38.137  1.00  0.00    -0.744 OA
ENDBRANCH  96 100
ENDBRANCH  69  93
BRANCH  81 104
ATOM    104  C   UNL A   1      38.834  30.208  31.185  1.00  0.00     0.023 A 
ATOM    105  C   UNL A   1      38.765  31.510  30.650  1.00  0.00     0.031 A 
ATOM    106  C   UNL A   1      37.655  29.642  31.702  1.00  0.00     0.131 A 
ATOM    107  C   UNL A   1      37.562  32.224  30.700  1.00  0.00     0.055 A 
ATOM    108  C   UNL A   1      36.444  30.335  31.691  1.00  0.00     0.041 A 
ATOM    109  F   UNL A   1      37.669  28.412  32.238  1.00  0.00    -0.206 F 
ATOM    110  C   UNL A   1      36.398  31.639  31.207  1.00  0.00     0.022 A 
BRANCH 107 111
ATOM    111  S   UNL A   1      37.493  33.972  30.217  1.00  0.00     0.124 S 
ATOM    112  O   UNL A   1      37.562  34.645  31.513  1.00  0.00    -0.237 OA
ATOM    113  O   UNL A   1      38.682  34.107  29.381  1.00  0.00    -0.237 OA
ATOM    114  O   UNL A   1      36.217  34.097  29.521  1.00  0.00    -0.744 OA
ENDBRANCH 107 111
ENDBRANCH  81 104
ENDBRANCH  55  56
ENDBRANCH  48  50
ENDBRANCH  47  48
ENDBRANCH  46  47
ENDBRANCH  45  46
ENDBRANCH  44  45
ENDBRANCH  43  44
ENDBRANCH  42  43
ENDBRANCH  41  42
ENDBRANCH   1  41
TORSDOF 29
ENDMDL
MODEL 3
REMARK VINA RESULT:      -5.6      5.547     10.600
REMARK SMILES CC[C@@H](C)[C@H](NC(=O)[C@H](C)N1C(=O)N2CCC3=c4cc(OC)ccc4=N[C@H]3[C@@]2(C)C1=O)C(=O)OCCOCCOCCOCCOC(=O)c1ccc(-c2c3nc(c(-c4cc(S(=O)(=O)[O-])ccc4F)c4ccc([nH]4)c(-c4cc(S(=O)(=O)[O-])ccc4F)c4nc(c(-c5cc(S(=O)(=O)[O-])ccc5F)c5ccc2[nH]5)C=C4)C=C3)cc1
REMARK SMILES IDX 39 1 38 2 37 3 36 4 35 5 34 6 32 7 33 8 5 9 3 10 4 11 2 12
REMARK SMILES IDX 1 13 6 14 7 15 8 17 9 18 10 19 11 20 12 21 30 22 14 23 13 24
REMARK SMILES IDX 28 25 31 26 15 27 27 28 29 29 16 30 17 31 26 32 18 33 25 34
REMARK SMILES IDX 19 35 24 36 20 37 23 38 21 39 22 40 40 41 41 42 42 43 43 44
REMARK SMILES IDX 44 45 45 46 46 47 47 48 48 49 49 50 50 51 111 52 51 53
REMARK SMILES IDX 110 54 52 55 53 56 54 57 104 58 55 59 109 60 103 61 105 62
REMARK SMILES IDX 56 63 108 64 102 65 101 66 57 68 89 69 69 70 88 71 70 72
REMARK SMILES IDX 73 73 87 74 106 75 71 76 72 77 86 79 107 80 74 81 58 82
REMARK SMILES IDX 59 83 67 84 60 85 66 86 68 87 65 88 61 89 62 90 63 91 64 92
REMARK SMILES IDX 90 93 91 94 99 95 92 96 98 97 100 98 97 99 93 100 94 101
REMARK SMILES IDX 95 102 96 103 75 104 76 105 84 106 77 107 83 108 85 109
REMARK SMILES IDX 82 110 78 111 79 112 80 113 81 114
REMARK H PARENT 6 16 105 67 73 78
REMARK Flexibility Score: inf
ROOT
ATOM      1  C   UNL A   1      54.918  26.916  29.298  1.00  0.00     0.188 C 
ENDROOT
BRANCH   1   2
ATOM      2  C   UNL A   1      54.042  26.038  30.136  1.00  0.00     0.188 C 
BRANCH   2   3
ATOM      3  O   UNL A   1      54.104  26.299  31.540  1.00  0.00    -0.376 OA
BRANCH   3   4
ATOM      4  C   UNL A   1      54.571  27.500  32.182  1.00  0.00     0.202 C 
BRANCH   4   5
ATOM      5  C   UNL A   1      53.384  28.359  32.965  1.00  0.00     0.261 C 
BRANCH   5   6
ATOM      6  O   UNL A   1      52.954  28.030  34.317  1.00  0.00    -0.462 OA
BRANCH   6   7
ATOM      7  C   UNL A   1      51.839  27.235  34.395  1.00  0.00     0.328 C 
ATOM      8  O   UNL A   1      50.704  27.648  34.184  1.00  0.00    -0.250 OA
BRANCH   7   9
ATOM      9  C   UNL A   1      52.177  25.727  34.695  1.00  0.00     0.195 C 
BRANCH   9  10
ATOM     10  C   UNL A   1      53.151  25.545  35.866  1.00  0.00     0.019 C 
ATOM     11  C   UNL A   1      54.518  25.111  35.356  1.00  0.00     0.010 C 
BRANCH  10  12
ATOM     12  C   UNL A   1      52.492  24.708  36.981  1.00  0.00     0.002 C 
ATOM     13  C   UNL A   1      52.812  23.233  36.925  1.00  0.00     0.004 C 
ENDBRANCH  10  12
ENDBRANCH   9  10
BRANCH   9  14
ATOM     14  N   UNL A   1      52.683  24.850  33.650  1.00  0.00    -0.341 N 
ATOM     15  C   UNL A   1      52.106  23.677  33.285  1.00  0.00     0.243 C 
ATOM     16  H   UNL A   1      53.499  25.127  33.174  1.00  0.00     0.164 HD
ATOM     17  O   UNL A   1      52.773  22.855  32.652  1.00  0.00    -0.273 OA
BRANCH  15  18
ATOM     18  C   UNL A   1      50.610  23.728  33.207  1.00  0.00     0.181 C 
ATOM     19  C   UNL A   1      50.574  24.564  31.739  1.00  0.00     0.042 C 
BRANCH  18  20
ATOM     20  N   UNL A   1      49.539  23.557  34.493  1.00  0.00    -0.250 N 
ATOM     21  C   UNL A   1      48.770  24.170  35.560  1.00  0.00     0.328 C 
ATOM     22  C   UNL A   1      49.275  22.273  34.746  1.00  0.00     0.259 C 
ATOM     23  N   UNL A   1      47.879  23.050  36.235  1.00  0.00    -0.307 N 
ATOM     24  O   UNL A   1      48.816  25.323  35.960  1.00  0.00    -0.248 OA
ATOM     25  C   UNL A   1      47.833  22.107  35.181  1.00  0.00     0.147 C 
ATOM     26  O   UNL A   1      50.116  21.377  34.710  1.00  0.00    -0.271 OA
ATOM     27  C   UNL A   1      46.363  22.964  37.004  1.00  0.00     0.127 C 
ATOM     28  C   UNL A   1      46.546  22.831  34.279  1.00  0.00     0.168 C 
ATOM     29  C   UNL A   1      47.806  20.702  35.813  1.00  0.00     0.048 C 
ATOM     30  C   UNL A   1      45.049  22.126  35.978  1.00  0.00     0.055 C 
ATOM     31  C   UNL A   1      45.111  22.376  34.327  1.00  0.00    -0.032 C 
ATOM     32  N   UNL A   1      46.311  24.369  34.243  1.00  0.00    -0.274 NA
ATOM     33  C   UNL A   1      44.350  23.281  33.585  1.00  0.00     0.005 A 
ATOM     34  C   UNL A   1      45.023  24.508  34.093  1.00  0.00     0.066 A 
ATOM     35  C   UNL A   1      44.391  23.567  32.060  1.00  0.00     0.056 A 
ATOM     36  C   UNL A   1      44.400  25.800  33.826  1.00  0.00     0.032 A 
ATOM     37  C   UNL A   1      44.599  24.854  31.597  1.00  0.00     0.119 A 
ATOM     38  C   UNL A   1      44.372  25.977  32.502  1.00  0.00     0.048 A 
BRANCH  37  39
ATOM     39  O   UNL A   1      45.168  25.124  30.359  1.00  0.00    -0.497 OA
ATOM     40  C   UNL A   1      44.635  24.611  29.113  1.00  0.00     0.278 C 
ENDBRANCH  37  39
ENDBRANCH  18  20
ENDBRANCH  15  18
ENDBRANCH   9  14
ENDBRANCH   7   9
ENDBRANCH   6   7
ENDBRANCH   5   6
ENDBRANCH   4   5
ENDBRANCH   3   4
ENDBRANCH   2   3
ENDBRANCH   1   2
BRANCH   1  41
ATOM     41  O   UNL A   1      54.125  27.420  28.247  1.00  0.00    -0.377 OA
BRANCH  41  42
ATOM     42  C   UNL A   1      52.796  26.943  28.259  1.00  0.00     0.188 C 
BRANCH  42  43
ATOM     43  C   UNL A   1      51.830  27.770  27.419  1.00  0.00     0.188 C 
BRANCH  43  44
ATOM     44  O   UNL A   1      50.660  27.203  26.846  1.00  0.00    -0.376 OA
BRANCH  44  45
ATOM     45  C   UNL A   1      49.484  27.964  26.613  1.00  0.00     0.202 C 
BRANCH  45  46
ATOM     46  C   UNL A   1      48.523  27.488  25.515  1.00  0.00     0.261 C 
BRANCH  46  47
ATOM     47  O   UNL A   1      47.106  27.595  25.740  1.00  0.00    -0.460 OA
BRANCH  47  48
ATOM     48  C   UNL A   1      46.641  28.871  25.896  1.00  0.00     0.338 C 
ATOM     49  O   UNL A   1      46.504  29.686  25.025  1.00  0.00    -0.246 OA
BRANCH  48  50
ATOM     50  C   UNL A   1      46.268  29.139  27.316  1.00  0.00     0.060 A 
ATOM     51  C   UNL A   1      46.610  30.339  27.943  1.00  0.00     0.016 A 
ATOM     52  C   UNL A   1      45.424  28.230  27.970  1.00  0.00     0.016 A 
ATOM     53  C   UNL A   1      46.076  30.643  29.205  1.00  0.00     0.010 A 
ATOM     54  C   UNL A   1      44.906  28.527  29.242  1.00  0.00     0.010 A 
ATOM     55  C   UNL A   1      45.214  29.744  29.869  1.00  0.00    -0.014 A 
BRANCH  55  56
ATOM     56  C   UNL A   1      44.469  30.189  31.082  1.00  0.00     0.031 A 
ATOM     57  C   UNL A   1      44.965  30.054  32.490  1.00  0.00     0.074 A 
ATOM     58  C   UNL A   1      43.244  30.699  30.892  1.00  0.00     0.049 A 
ATOM     59  N   UNL A   1      44.587  30.666  33.583  1.00  0.00    -0.248 NA
ATOM     60  C   UNL A   1      46.035  29.091  32.703  1.00  0.00     0.031 C 
ATOM     61  C   UNL A   1      42.589  30.809  29.592  1.00  0.00     0.029 A 
ATOM     62  N   UNL A   1      42.336  31.198  31.785  1.00  0.00    -0.354 N 
ATOM     63  C   UNL A   1      45.449  30.230  34.588  1.00  0.00     0.074 A 
ATOM     64  C   UNL A   1      46.342  29.269  33.982  1.00  0.00     0.031 C 
ATOM     65  C   UNL A   1      41.377  31.351  29.769  1.00  0.00     0.029 A 
ATOM     66  C   UNL A   1      41.170  31.609  31.194  1.00  0.00     0.049 A 
ATOM     67  H   UNL A   1      42.504  31.256  32.753  1.00  0.00     0.167 HD
ATOM     68  C   UNL A   1      45.470  30.572  35.900  1.00  0.00     0.034 A 
ATOM     69  C   UNL A   1      40.059  32.141  31.737  1.00  0.00     0.034 A 
ATOM     70  C   UNL A   1      44.424  31.341  36.526  1.00  0.00     0.049 A 
ATOM     71  C   UNL A   1      40.041  32.451  33.209  1.00  0.00     0.074 A 
ATOM     72  C   UNL A   1      44.331  31.755  37.841  1.00  0.00     0.029 A 
ATOM     73  N   UNL A   1      43.247  31.727  35.901  1.00  0.00    -0.354 N 
ATOM     74  N   UNL A   1      40.984  32.268  34.105  1.00  0.00    -0.248 NA
ATOM     75  C   UNL A   1      38.821  33.067  33.743  1.00  0.00     0.031 C 
ATOM     76  C   UNL A   1      43.049  32.271  38.041  1.00  0.00     0.029 A 
ATOM     77  C   UNL A   1      42.387  32.297  36.822  1.00  0.00     0.049 A 
ATOM     78  H   UNL A   1      43.052  31.611  34.943  1.00  0.00     0.167 HD
ATOM     79  C   UNL A   1      40.479  32.765  35.304  1.00  0.00     0.074 A 
ATOM     80  C   UNL A   1      39.156  33.276  35.010  1.00  0.00     0.031 C 
ATOM     81  C   UNL A   1      41.061  32.796  36.530  1.00  0.00     0.034 A 
BRANCH  68  82
ATOM     82  C   UNL A   1      46.620  30.105  36.768  1.00  0.00     0.023 A 
ATOM     83  C   UNL A   1      47.853  30.786  36.761  1.00  0.00     0.031 A 
ATOM     84  C   UNL A   1      46.541  28.893  37.479  1.00  0.00     0.131 A 
ATOM     85  C   UNL A   1      48.963  30.231  37.415  1.00  0.00     0.055 A 
ATOM     86  C   UNL A   1      47.641  28.361  38.156  1.00  0.00     0.041 A 
ATOM     87  F   UNL A   1      45.392  28.197  37.513  1.00  0.00    -0.206 F 
ATOM     88  C   UNL A   1      48.863  29.025  38.116  1.00  0.00     0.022 A 
BRANCH  85  89
ATOM     89  S   UNL A   1      50.597  31.017  37.326  1.00  0.00     0.124 S 
ATOM     90  O   UNL A   1      51.321  30.102  36.446  1.00  0.00    -0.237 OA
ATOM     91  O   UNL A   1      50.281  32.320  36.747  1.00  0.00    -0.237 OA
ATOM     92  O   UNL A   1      51.053  31.034  38.711  1.00  0.00    -0.744 OA
ENDBRANCH  85  89
ENDBRANCH  68  82
BRANCH  69  93
ATOM     93  C   UNL A   1      38.939  32.481  30.819  1.00  0.00     0.023 A 
ATOM     94  C   UNL A   1      38.070  31.476  30.357  1.00  0.00     0.031 A 
ATOM     95  C   UNL A   1      38.856  33.755  30.238  1.00  0.00     0.131 A 
ATOM     96  C   UNL A   1      37.223  31.738  29.274  1.00  0.00     0.055 A 
ATOM     97  C   UNL A   1      37.951  34.033  29.214  1.00  0.00     0.041 A 
ATOM     98  F   UNL A   1      39.685  34.734  30.633  1.00  0.00    -0.206 F 
ATOM     99  C   UNL A   1      37.146  33.015  28.710  1.00  0.00     0.022 A 
BRANCH  96 100
ATOM    100  S   UNL A   1      36.333  30.388  28.450  1.00  0.00     0.124 S 
ATOM    101  O   UNL A   1      37.283  29.982  27.419  1.00  0.00    -0.237 OA
ATOM    102  O   UNL A   1      36.149  29.442  29.547  1.00  0.00    -0.237 OA
ATOM    103  O   UNL A   1      35.111  31.023  27.966  1.00  0.00    -0.744 OA
ENDBRANCH  96 100
ENDBRANCH  69  93
BRANCH  81 104
ATOM    104  C   UNL A   1      40.290  33.383  37.690  1.00  0.00     0.023 A 
ATOM    105  C   UNL A   1      39.300  32.614  38.333  1.00  0.00     0.031 A 
ATOM    106  C   UNL A   1      40.401  34.741  38.037  1.00  0.00     0.131 A 
ATOM    107  C   UNL A   1      38.422  33.219  39.240  1.00  0.00     0.055 A 
ATOM    108  C   UNL A   1      39.565  35.325  38.989  1.00  0.00     0.041 A 
ATOM    109  F   UNL A   1      41.316  35.523  37.444  1.00  0.00    -0.206 F 
ATOM    110  C   UNL A   1      38.557  34.568  39.581  1.00  0.00     0.022 A 
BRANCH 107 111
ATOM    111  S   UNL A   1      37.007  32.309  39.919  1.00  0.00     0.124 S 
ATOM    112  O   UNL A   1      36.829  32.954  41.218  1.00  0.00    -0.237 OA
ATOM    113  O   UNL A   1      35.963  32.587  38.936  1.00  0.00    -0.237 OA
ATOM    114  O   UNL A   1      37.468  30.926  39.971  1.00  0.00    -0.744 OA
ENDBRANCH 107 111
ENDBRANCH  81 104
ENDBRANCH  55  56
ENDBRANCH  48  50
ENDBRANCH  47  48
ENDBRANCH  46  47
ENDBRANCH  45  46
ENDBRANCH  44  45
ENDBRANCH  43  44
ENDBRANCH  42  43
ENDBRANCH  41  42
ENDBRANCH   1  41
TORSDOF 29
ENDMDL
