MODEL 1
REMARK VINA RESULT:     -10.5      0.000      0.000
REMARK SMILES O=C(OCCOCCOCCOCCOC(=O)[C@@H]1CC=CC[C@H]1C(=O)N1CC[NH+](Cc2ccc3c(c2)OCO3)CC1)c1ccc(-c2c3nc(c(-c4cc(S(=O)(=O)[O-])ccc4F)c4ccc([nH]4)c(-c4cc(S(=O)(=O)[O-])ccc4F)c4nc(c(-c5cc(S(=O)(=O)[O-])ccc5F)c5ccc2[nH]5)C=C4)C=C3)cc1
REMARK SMILES IDX 9 1 8 2 7 3 6 4 5 5 4 6 3 7 2 8 1 9 42 10 43 11 104 12 44 13
REMARK SMILES IDX 103 14 45 15 46 16 47 17 97 18 48 19 102 20 96 21 98 22
REMARK SMILES IDX 49 23 101 24 95 25 94 26 50 28 82 29 62 30 81 31 63 32 66 33
REMARK SMILES IDX 80 34 99 35 64 36 65 37 79 39 100 40 67 41 51 42 52 43 60 44
REMARK SMILES IDX 53 45 59 46 61 47 58 48 54 49 55 50 56 51 57 52 83 53 84 54
REMARK SMILES IDX 92 55 85 56 91 57 93 58 90 59 86 60 87 61 88 62 89 63 68 64
REMARK SMILES IDX 69 65 77 66 70 67 76 68 78 69 75 70 71 71 72 72 73 73 74 74
REMARK SMILES IDX 10 75 11 76 12 77 13 78 14 79 15 80 16 81 17 82 18 83 19 84
REMARK SMILES IDX 23 85 20 86 22 87 21 88 24 89 25 90 26 91 27 92 41 93 28 94
REMARK SMILES IDX 40 95 29 96 30 98 31 99 32 100 36 101 33 102 35 103 34 104
REMARK SMILES IDX 37 105 39 106 38 107
REMARK H PARENT 98 27 66 38 29 97
REMARK Flexibility Score: inf
ROOT
ATOM      1  O   UNL A   1      35.906  21.344  26.116  1.00  0.00    -0.377 OA
ENDROOT
BRANCH   1   2
ATOM      2  C   UNL A   1      37.080  22.051  25.728  1.00  0.00     0.188 C 
BRANCH   2   3
ATOM      3  C   UNL A   1      38.267  21.161  25.400  1.00  0.00     0.188 C 
BRANCH   3   4
ATOM      4  O   UNL A   1      39.475  21.762  25.845  1.00  0.00    -0.376 OA
BRANCH   4   5
ATOM      5  C   UNL A   1      40.237  21.041  26.806  1.00  0.00     0.202 C 
BRANCH   5   6
ATOM      6  C   UNL A   1      40.770  19.690  26.330  1.00  0.00     0.261 C 
BRANCH   6   7
ATOM      7  O   UNL A   1      41.844  19.780  25.378  1.00  0.00    -0.460 OA
BRANCH   7   8
ATOM      8  C   UNL A   1      43.073  20.333  25.518  1.00  0.00     0.338 C 
ATOM      9  O   UNL A   1      44.055  19.612  25.335  1.00  0.00    -0.246 OA
BRANCH   8  10
ATOM     10  C   UNL A   1      43.327  21.752  25.917  1.00  0.00     0.060 A 
ATOM     11  C   UNL A   1      43.140  22.861  25.098  1.00  0.00     0.016 A 
ATOM     12  C   UNL A   1      43.686  21.990  27.254  1.00  0.00     0.016 A 
ATOM     13  C   UNL A   1      43.327  24.154  25.543  1.00  0.00     0.010 A 
ATOM     14  C   UNL A   1      43.882  23.294  27.725  1.00  0.00     0.010 A 
ATOM     15  C   UNL A   1      43.722  24.374  26.852  1.00  0.00    -0.014 A 
BRANCH  15  16
ATOM     16  C   UNL A   1      44.200  25.730  27.155  1.00  0.00     0.031 A 
ATOM     17  C   UNL A   1      43.232  26.647  27.835  1.00  0.00     0.074 A 
ATOM     18  C   UNL A   1      45.506  26.023  27.031  1.00  0.00     0.049 A 
ATOM     19  N   UNL A   1      43.363  27.901  28.159  1.00  0.00    -0.248 NA
ATOM     20  C   UNL A   1      41.937  26.055  28.218  1.00  0.00     0.031 C 
ATOM     21  C   UNL A   1      46.541  25.085  26.583  1.00  0.00     0.029 A 
ATOM     22  N   UNL A   1      46.193  27.169  27.311  1.00  0.00    -0.354 N 
ATOM     23  C   UNL A   1      42.153  28.261  28.744  1.00  0.00     0.074 A 
ATOM     24  C   UNL A   1      41.300  27.096  28.725  1.00  0.00     0.031 C 
ATOM     25  C   UNL A   1      47.735  25.697  26.630  1.00  0.00     0.029 A 
ATOM     26  C   UNL A   1      47.534  27.087  27.017  1.00  0.00     0.049 A 
ATOM     27  H   UNL A   1      45.771  27.974  27.688  1.00  0.00     0.167 HD
ATOM     28  C   UNL A   1      41.800  29.472  29.233  1.00  0.00     0.034 A 
ATOM     29  C   UNL A   1      48.466  28.058  27.008  1.00  0.00     0.034 A 
ATOM     30  C   UNL A   1      42.700  30.594  29.208  1.00  0.00     0.049 A 
ATOM     31  C   UNL A   1      48.009  29.441  27.404  1.00  0.00     0.074 A 
ATOM     32  C   UNL A   1      42.467  31.906  29.563  1.00  0.00     0.029 A 
ATOM     33  N   UNL A   1      44.027  30.520  28.786  1.00  0.00    -0.354 N 
ATOM     34  N   UNL A   1      46.825  29.825  27.834  1.00  0.00    -0.248 NA
ATOM     35  C   UNL A   1      48.994  30.519  27.301  1.00  0.00     0.031 C 
ATOM     36  C   UNL A   1      43.627  32.639  29.284  1.00  0.00     0.029 A 
ATOM     37  C   UNL A   1      44.616  31.770  28.841  1.00  0.00     0.049 A 
ATOM     38  H   UNL A   1      44.480  29.697  28.490  1.00  0.00     0.167 HD
ATOM     39  C   UNL A   1      46.930  31.190  28.073  1.00  0.00     0.074 A 
ATOM     40  C   UNL A   1      48.302  31.552  27.758  1.00  0.00     0.031 C 
ATOM     41  C   UNL A   1      45.991  32.071  28.508  1.00  0.00     0.034 A 
BRANCH  28  42
ATOM     42  C   UNL A   1      40.368  29.630  29.683  1.00  0.00     0.023 A 
ATOM     43  C   UNL A   1      40.014  29.729  31.040  1.00  0.00     0.031 A 
ATOM     44  C   UNL A   1      39.330  29.541  28.738  1.00  0.00     0.131 A 
ATOM     45  C   UNL A   1      38.664  29.635  31.420  1.00  0.00     0.055 A 
ATOM     46  C   UNL A   1      37.986  29.541  29.117  1.00  0.00     0.041 A 
ATOM     47  F   UNL A   1      39.604  29.403  27.432  1.00  0.00    -0.206 F 
ATOM     48  C   UNL A   1      37.647  29.568  30.466  1.00  0.00     0.022 A 
BRANCH  45  49
ATOM     49  S   UNL A   1      38.271  29.407  33.177  1.00  0.00     0.124 S 
ATOM     50  O   UNL A   1      39.506  28.810  33.681  1.00  0.00    -0.237 OA
ATOM     51  O   UNL A   1      37.994  30.768  33.620  1.00  0.00    -0.237 OA
ATOM     52  O   UNL A   1      37.117  28.510  33.158  1.00  0.00    -0.744 OA
ENDBRANCH  45  49
ENDBRANCH  28  42
BRANCH  29  53
ATOM     53  C   UNL A   1      49.854  27.790  26.526  1.00  0.00     0.023 A 
ATOM     54  C   UNL A   1      50.247  28.094  25.214  1.00  0.00     0.031 A 
ATOM     55  C   UNL A   1      50.803  27.171  27.364  1.00  0.00     0.131 A 
ATOM     56  C   UNL A   1      51.533  27.745  24.766  1.00  0.00     0.055 A 
ATOM     57  C   UNL A   1      52.099  26.880  26.934  1.00  0.00     0.041 A 
ATOM     58  F   UNL A   1      50.487  26.844  28.627  1.00  0.00    -0.206 F 
ATOM     59  C   UNL A   1      52.466  27.154  25.622  1.00  0.00     0.022 A 
BRANCH  56  60
ATOM     60  S   UNL A   1      51.942  27.986  23.015  1.00  0.00     0.124 S 
ATOM     61  O   UNL A   1      51.627  29.398  22.829  1.00  0.00    -0.237 OA
ATOM     62  O   UNL A   1      53.357  27.633  22.985  1.00  0.00    -0.237 OA
ATOM     63  O   UNL A   1      51.054  27.051  22.327  1.00  0.00    -0.744 OA
ENDBRANCH  56  60
ENDBRANCH  29  53
BRANCH  41  64
ATOM     64  C   UNL A   1      46.448  33.491  28.708  1.00  0.00     0.023 A 
ATOM     65  C   UNL A   1      46.484  34.408  27.646  1.00  0.00     0.031 A 
ATOM     66  C   UNL A   1      46.846  33.926  29.984  1.00  0.00     0.131 A 
ATOM     67  C   UNL A   1      46.968  35.703  27.868  1.00  0.00     0.055 A 
ATOM     68  C   UNL A   1      47.255  35.239  30.213  1.00  0.00     0.041 A 
ATOM     69  F   UNL A   1      46.831  33.084  31.029  1.00  0.00    -0.206 F 
ATOM     70  C   UNL A   1      47.332  36.131  29.148  1.00  0.00     0.022 A 
BRANCH  67  71
ATOM     71  S   UNL A   1      47.217  36.790  26.438  1.00  0.00     0.124 S 
ATOM     72  O   UNL A   1      48.444  37.491  26.803  1.00  0.00    -0.237 OA
ATOM     73  O   UNL A   1      47.329  35.837  25.339  1.00  0.00    -0.237 OA
ATOM     74  O   UNL A   1      46.011  37.616  26.424  1.00  0.00    -0.744 OA
ENDBRANCH  67  71
ENDBRANCH  41  64
ENDBRANCH  15  16
ENDBRANCH   8  10
ENDBRANCH   7   8
ENDBRANCH   6   7
ENDBRANCH   5   6
ENDBRANCH   4   5
ENDBRANCH   3   4
ENDBRANCH   2   3
ENDBRANCH   1   2
BRANCH   1  75
ATOM     75  C   UNL A   1      34.645  21.972  25.873  1.00  0.00     0.188 C 
BRANCH  75  76
ATOM     76  C   UNL A   1      33.792  21.626  24.644  1.00  0.00     0.188 C 
BRANCH  76  77
ATOM     77  O   UNL A   1      33.257  22.757  24.000  1.00  0.00    -0.376 OA
BRANCH  77  78
ATOM     78  C   UNL A   1      32.909  22.612  22.635  1.00  0.00     0.202 C 
BRANCH  78  79
ATOM     79  C   UNL A   1      33.229  23.717  21.597  1.00  0.00     0.261 C 
BRANCH  79  80
ATOM     80  O   UNL A   1      33.237  25.091  22.041  1.00  0.00    -0.463 OA
BRANCH  80  81
ATOM     81  C   UNL A   1      32.039  25.711  22.210  1.00  0.00     0.310 C 
ATOM     82  O   UNL A   1      31.416  26.214  21.273  1.00  0.00    -0.252 OA
BRANCH  81  83
ATOM     83  C   UNL A   1      31.570  25.863  23.663  1.00  0.00     0.115 C 
ATOM     84  C   UNL A   1      30.438  24.857  23.968  1.00  0.00     0.043 C 
ATOM     85  C   UNL A   1      31.159  27.210  24.324  1.00  0.00     0.097 C 
ATOM     86  C   UNL A   1      30.146  24.780  25.443  1.00  0.00    -0.030 C 
ATOM     87  C   UNL A   1      31.167  27.019  25.862  1.00  0.00     0.041 C 
ATOM     88  C   UNL A   1      30.504  25.746  26.302  1.00  0.00    -0.030 C 
BRANCH  85  89
ATOM     89  C   UNL A   1      31.882  28.534  24.074  1.00  0.00     0.227 C 
ATOM     90  O   UNL A   1      31.702  29.177  23.038  1.00  0.00    -0.275 OA
ATOM     91  N   UNL A   1      32.512  29.080  25.156  1.00  0.00    -0.331 N 
ATOM     92  C   UNL A   1      32.074  30.371  25.660  1.00  0.00     0.181 C 
ATOM     93  C   UNL A   1      33.944  28.908  25.282  1.00  0.00     0.181 C 
ATOM     94  C   UNL A   1      32.502  30.546  27.134  1.00  0.00     0.284 C 
ATOM     95  C   UNL A   1      34.309  28.917  26.772  1.00  0.00     0.284 C 
ATOM     96  N   UNL A   1      33.877  30.138  27.492  1.00  0.00    -0.328 N 
ATOM     97  H   UNL A   1      33.816  29.885  28.478  1.00  0.00     0.348 HD
BRANCH  96  98
ATOM     98  C   UNL A   1      34.880  31.212  27.517  1.00  0.00     0.299 C 
BRANCH  98  99
ATOM     99  C   UNL A   1      34.681  32.289  28.559  1.00  0.00     0.010 A 
ATOM    100  C   UNL A   1      35.041  32.057  29.906  1.00  0.00     0.013 A 
ATOM    101  C   UNL A   1      34.024  33.486  28.216  1.00  0.00     0.060 A 
ATOM    102  C   UNL A   1      34.649  32.938  30.917  1.00  0.00     0.051 A 
ATOM    103  C   UNL A   1      33.642  34.329  29.237  1.00  0.00     0.166 A 
ATOM    104  C   UNL A   1      33.928  34.053  30.552  1.00  0.00     0.165 A 
ATOM    105  O   UNL A   1      32.897  35.456  29.094  1.00  0.00    -0.454 OA
ATOM    106  O   UNL A   1      33.393  34.968  31.403  1.00  0.00    -0.454 OA
ATOM    107  C   UNL A   1      32.694  35.826  30.474  1.00  0.00     0.468 C 
ENDBRANCH  98  99
ENDBRANCH  96  98
ENDBRANCH  85  89
ENDBRANCH  81  83
ENDBRANCH  80  81
ENDBRANCH  79  80
ENDBRANCH  78  79
ENDBRANCH  77  78
ENDBRANCH  76  77
ENDBRANCH  75  76
ENDBRANCH   1  75
TORSDOF 26
ENDMDL
MODEL 2
REMARK VINA RESULT:     -10.3      0.785      7.282
REMARK SMILES O=C(OCCOCCOCCOCCOC(=O)[C@@H]1CC=CC[C@H]1C(=O)N1CC[NH+](Cc2ccc3c(c2)OCO3)CC1)c1ccc(-c2c3nc(c(-c4cc(S(=O)(=O)[O-])ccc4F)c4ccc([nH]4)c(-c4cc(S(=O)(=O)[O-])ccc4F)c4nc(c(-c5cc(S(=O)(=O)[O-])ccc5F)c5ccc2[nH]5)C=C4)C=C3)cc1
REMARK SMILES IDX 9 1 8 2 7 3 6 4 5 5 4 6 3 7 2 8 1 9 42 10 43 11 104 12 44 13
REMARK SMILES IDX 103 14 45 15 46 16 47 17 97 18 48 19 102 20 96 21 98 22
REMARK SMILES IDX 49 23 101 24 95 25 94 26 50 28 82 29 62 30 81 31 63 32 66 33
REMARK SMILES IDX 80 34 99 35 64 36 65 37 79 39 100 40 67 41 51 42 52 43 60 44
REMARK SMILES IDX 53 45 59 46 61 47 58 48 54 49 55 50 56 51 57 52 83 53 84 54
REMARK SMILES IDX 92 55 85 56 91 57 93 58 90 59 86 60 87 61 88 62 89 63 68 64
REMARK SMILES IDX 69 65 77 66 70 67 76 68 78 69 75 70 71 71 72 72 73 73 74 74
REMARK SMILES IDX 10 75 11 76 12 77 13 78 14 79 15 80 16 81 17 82 18 83 19 84
REMARK SMILES IDX 23 85 20 86 22 87 21 88 24 89 25 90 26 91 27 92 41 93 28 94
REMARK SMILES IDX 40 95 29 96 30 98 31 99 32 100 36 101 33 102 35 103 34 104
REMARK SMILES IDX 37 105 39 106 38 107
REMARK H PARENT 98 27 66 38 29 97
REMARK Flexibility Score: inf
ROOT
ATOM      1  O   UNL A   1      35.999  21.705  26.254  1.00  0.00    -0.377 OA
ENDROOT
BRANCH   1   2
ATOM      2  C   UNL A   1      36.952  22.699  25.886  1.00  0.00     0.188 C 
BRANCH   2   3
ATOM      3  C   UNL A   1      38.075  22.190  24.999  1.00  0.00     0.188 C 
BRANCH   3   4
ATOM      4  O   UNL A   1      39.300  22.162  25.717  1.00  0.00    -0.376 OA
BRANCH   4   5
ATOM      5  C   UNL A   1      39.565  20.999  26.495  1.00  0.00     0.202 C 
BRANCH   5   6
ATOM      6  C   UNL A   1      39.845  19.731  25.689  1.00  0.00     0.261 C 
BRANCH   6   7
ATOM      7  O   UNL A   1      41.231  19.535  25.359  1.00  0.00    -0.460 OA
BRANCH   7   8
ATOM      8  C   UNL A   1      42.337  19.821  26.090  1.00  0.00     0.338 C 
ATOM      9  O   UNL A   1      42.955  18.881  26.594  1.00  0.00    -0.246 OA
BRANCH   8  10
ATOM     10  C   UNL A   1      42.845  21.201  26.360  1.00  0.00     0.060 A 
ATOM     11  C   UNL A   1      43.358  21.643  27.575  1.00  0.00     0.016 A 
ATOM     12  C   UNL A   1      42.899  22.091  25.274  1.00  0.00     0.016 A 
ATOM     13  C   UNL A   1      43.875  22.911  27.747  1.00  0.00     0.010 A 
ATOM     14  C   UNL A   1      43.418  23.382  25.428  1.00  0.00     0.010 A 
ATOM     15  C   UNL A   1      43.885  23.793  26.680  1.00  0.00    -0.014 A 
BRANCH  15  16
ATOM     16  C   UNL A   1      44.151  25.198  27.016  1.00  0.00     0.031 A 
ATOM     17  C   UNL A   1      45.493  25.740  26.630  1.00  0.00     0.074 A 
ATOM     18  C   UNL A   1      43.147  25.989  27.431  1.00  0.00     0.049 A 
ATOM     19  N   UNL A   1      46.013  26.911  26.857  1.00  0.00    -0.248 NA
ATOM     20  C   UNL A   1      46.362  24.830  25.862  1.00  0.00     0.031 C 
ATOM     21  C   UNL A   1      41.755  25.561  27.609  1.00  0.00     0.029 A 
ATOM     22  N   UNL A   1      43.127  27.320  27.734  1.00  0.00    -0.354 N 
ATOM     23  C   UNL A   1      47.286  26.865  26.300  1.00  0.00     0.074 A 
ATOM     24  C   UNL A   1      47.462  25.551  25.729  1.00  0.00     0.031 C 
ATOM     25  C   UNL A   1      41.017  26.618  27.981  1.00  0.00     0.029 A 
ATOM     26  C   UNL A   1      41.897  27.766  28.158  1.00  0.00     0.049 A 
ATOM     27  H   UNL A   1      43.915  27.905  27.655  1.00  0.00     0.167 HD
ATOM     28  C   UNL A   1      48.220  27.844  26.291  1.00  0.00     0.034 A 
ATOM     29  C   UNL A   1      41.556  28.955  28.688  1.00  0.00     0.034 A 
ATOM     30  C   UNL A   1      47.979  29.129  26.891  1.00  0.00     0.049 A 
ATOM     31  C   UNL A   1      42.657  29.980  28.818  1.00  0.00     0.074 A 
ATOM     32  C   UNL A   1      48.847  30.187  27.061  1.00  0.00     0.029 A 
ATOM     33  N   UNL A   1      46.755  29.521  27.433  1.00  0.00    -0.354 N 
ATOM     34  N   UNL A   1      43.908  29.900  28.414  1.00  0.00    -0.248 NA
ATOM     35  C   UNL A   1      42.315  31.238  29.483  1.00  0.00     0.031 C 
ATOM     36  C   UNL A   1      48.171  31.187  27.772  1.00  0.00     0.029 A 
ATOM     37  C   UNL A   1      46.854  30.792  27.966  1.00  0.00     0.049 A 
ATOM     38  H   UNL A   1      45.939  28.971  27.435  1.00  0.00     0.167 HD
ATOM     39  C   UNL A   1      44.498  31.111  28.759  1.00  0.00     0.074 A 
ATOM     40  C   UNL A   1      43.455  31.906  29.384  1.00  0.00     0.031 C 
ATOM     41  C   UNL A   1      45.778  31.535  28.584  1.00  0.00     0.034 A 
BRANCH  28  42
ATOM     42  C   UNL A   1      49.578  27.480  25.744  1.00  0.00     0.023 A 
ATOM     43  C   UNL A   1      50.019  27.912  24.479  1.00  0.00     0.031 A 
ATOM     44  C   UNL A   1      50.390  26.571  26.446  1.00  0.00     0.131 A 
ATOM     45  C   UNL A   1      51.180  27.357  23.916  1.00  0.00     0.055 A 
ATOM     46  C   UNL A   1      51.591  26.094  25.918  1.00  0.00     0.041 A 
ATOM     47  F   UNL A   1      50.005  26.091  27.639  1.00  0.00    -0.206 F 
ATOM     48  C   UNL A   1      51.983  26.472  24.638  1.00  0.00     0.022 A 
BRANCH  45  49
ATOM     49  S   UNL A   1      51.524  27.659  22.159  1.00  0.00     0.124 S 
ATOM     50  O   UNL A   1      52.010  26.352  21.725  1.00  0.00    -0.237 OA
ATOM     51  O   UNL A   1      50.219  28.057  21.644  1.00  0.00    -0.237 OA
ATOM     52  O   UNL A   1      52.534  28.715  22.183  1.00  0.00    -0.744 OA
ENDBRANCH  45  49
ENDBRANCH  28  42
BRANCH  29  53
ATOM     53  C   UNL A   1      40.180  29.199  29.215  1.00  0.00     0.023 A 
ATOM     54  C   UNL A   1      39.913  29.211  30.592  1.00  0.00     0.031 A 
ATOM     55  C   UNL A   1      39.091  29.374  28.338  1.00  0.00     0.131 A 
ATOM     56  C   UNL A   1      38.591  29.353  31.050  1.00  0.00     0.055 A 
ATOM     57  C   UNL A   1      37.789  29.574  28.798  1.00  0.00     0.041 A 
ATOM     58  F   UNL A   1      39.278  29.362  27.008  1.00  0.00    -0.206 F 
ATOM     59  C   UNL A   1      37.530  29.550  30.163  1.00  0.00     0.022 A 
BRANCH  56  60
ATOM     60  S   UNL A   1      38.261  29.179  32.826  1.00  0.00     0.124 S 
ATOM     61  O   UNL A   1      39.606  29.256  33.386  1.00  0.00    -0.237 OA
ATOM     62  O   UNL A   1      37.391  30.322  33.083  1.00  0.00    -0.237 OA
ATOM     63  O   UNL A   1      37.616  27.872  32.925  1.00  0.00    -0.744 OA
ENDBRANCH  56  60
ENDBRANCH  29  53
BRANCH  41  64
ATOM     64  C   UNL A   1      46.084  32.936  29.037  1.00  0.00     0.023 A 
ATOM     65  C   UNL A   1      45.956  34.034  28.171  1.00  0.00     0.031 A 
ATOM     66  C   UNL A   1      46.503  33.171  30.359  1.00  0.00     0.131 A 
ATOM     67  C   UNL A   1      46.304  35.314  28.621  1.00  0.00     0.055 A 
ATOM     68  C   UNL A   1      46.775  34.457  30.821  1.00  0.00     0.041 A 
ATOM     69  F   UNL A   1      46.642  32.152  31.222  1.00  0.00    -0.206 F 
ATOM     70  C   UNL A   1      46.690  35.535  29.946  1.00  0.00     0.022 A 
BRANCH  67  71
ATOM     71  S   UNL A   1      46.348  36.670  27.420  1.00  0.00     0.124 S 
ATOM     72  O   UNL A   1      44.950  37.090  27.389  1.00  0.00    -0.237 OA
ATOM     73  O   UNL A   1      47.281  37.605  28.039  1.00  0.00    -0.237 OA
ATOM     74  O   UNL A   1      46.830  36.029  26.198  1.00  0.00    -0.744 OA
ENDBRANCH  67  71
ENDBRANCH  41  64
ENDBRANCH  15  16
ENDBRANCH   8  10
ENDBRANCH   7   8
ENDBRANCH   6   7
ENDBRANCH   5   6
ENDBRANCH   4   5
ENDBRANCH   3   4
ENDBRANCH   2   3
ENDBRANCH   1   2
BRANCH   1  75
ATOM     75  C   UNL A   1      34.629  22.103  26.339  1.00  0.00     0.188 C 
BRANCH  75  76
ATOM     76  C   UNL A   1      33.535  21.424  25.501  1.00  0.00     0.188 C 
BRANCH  76  77
ATOM     77  O   UNL A   1      32.847  22.313  24.656  1.00  0.00    -0.376 OA
BRANCH  77  78
ATOM     78  C   UNL A   1      32.914  22.057  23.265  1.00  0.00     0.202 C 
BRANCH  78  79
ATOM     79  C   UNL A   1      33.417  23.130  22.268  1.00  0.00     0.261 C 
BRANCH  79  80
ATOM     80  O   UNL A   1      33.476  24.503  22.712  1.00  0.00    -0.463 OA
BRANCH  80  81
ATOM     81  C   UNL A   1      32.328  25.230  22.680  1.00  0.00     0.310 C 
ATOM     82  O   UNL A   1      31.865  25.691  21.636  1.00  0.00    -0.252 OA
BRANCH  81  83
ATOM     83  C   UNL A   1      31.712  25.556  24.048  1.00  0.00     0.115 C 
ATOM     84  C   UNL A   1      30.533  24.603  24.344  1.00  0.00     0.043 C 
ATOM     85  C   UNL A   1      31.262  26.975  24.501  1.00  0.00     0.097 C 
ATOM     86  C   UNL A   1      30.086  24.702  25.778  1.00  0.00    -0.030 C 
ATOM     87  C   UNL A   1      31.105  26.966  26.042  1.00  0.00     0.041 C 
ATOM     88  C   UNL A   1      30.372  25.759  26.553  1.00  0.00    -0.030 C 
BRANCH  85  89
ATOM     89  C   UNL A   1      32.036  28.254  24.177  1.00  0.00     0.227 C 
ATOM     90  O   UNL A   1      31.954  28.790  23.071  1.00  0.00    -0.275 OA
ATOM     91  N   UNL A   1      32.592  28.897  25.247  1.00  0.00    -0.331 N 
ATOM     92  C   UNL A   1      32.147  30.241  25.580  1.00  0.00     0.181 C 
ATOM     93  C   UNL A   1      34.004  28.715  25.506  1.00  0.00     0.181 C 
ATOM     94  C   UNL A   1      32.461  30.559  27.059  1.00  0.00     0.284 C 
ATOM     95  C   UNL A   1      34.250  28.871  27.012  1.00  0.00     0.284 C 
ATOM     96  N   UNL A   1      33.793  30.167  27.567  1.00  0.00    -0.328 N 
ATOM     97  H   UNL A   1      33.647  30.017  28.566  1.00  0.00     0.348 HD
BRANCH  96  98
ATOM     98  C   UNL A   1      34.816  31.221  27.566  1.00  0.00     0.299 C 
BRANCH  98  99
ATOM     99  C   UNL A   1      34.635  32.333  28.574  1.00  0.00     0.010 A 
ATOM    100  C   UNL A   1      35.016  32.144  29.922  1.00  0.00     0.013 A 
ATOM    101  C   UNL A   1      33.974  33.518  28.202  1.00  0.00     0.060 A 
ATOM    102  C   UNL A   1      34.640  33.059  30.910  1.00  0.00     0.051 A 
ATOM    103  C   UNL A   1      33.608  34.395  29.200  1.00  0.00     0.166 A 
ATOM    104  C   UNL A   1      33.914  34.162  30.519  1.00  0.00     0.165 A 
ATOM    105  O   UNL A   1      32.862  35.518  29.031  1.00  0.00    -0.454 OA
ATOM    106  O   UNL A   1      33.394  35.106  31.347  1.00  0.00    -0.454 OA
ATOM    107  C   UNL A   1      32.681  35.933  30.401  1.00  0.00     0.468 C 
ENDBRANCH  98  99
ENDBRANCH  96  98
ENDBRANCH  85  89
ENDBRANCH  81  83
ENDBRANCH  80  81
ENDBRANCH  79  80
ENDBRANCH  78  79
ENDBRANCH  77  78
ENDBRANCH  76  77
ENDBRANCH  75  76
ENDBRANCH   1  75
TORSDOF 26
ENDMDL
MODEL 3
REMARK VINA RESULT:      -9.9      3.516      8.568
REMARK SMILES O=C(OCCOCCOCCOCCOC(=O)[C@@H]1CC=CC[C@H]1C(=O)N1CC[NH+](Cc2ccc3c(c2)OCO3)CC1)c1ccc(-c2c3nc(c(-c4cc(S(=O)(=O)[O-])ccc4F)c4ccc([nH]4)c(-c4cc(S(=O)(=O)[O-])ccc4F)c4nc(c(-c5cc(S(=O)(=O)[O-])ccc5F)c5ccc2[nH]5)C=C4)C=C3)cc1
REMARK SMILES IDX 9 1 8 2 7 3 6 4 5 5 4 6 3 7 2 8 1 9 42 10 43 11 104 12 44 13
REMARK SMILES IDX 103 14 45 15 46 16 47 17 97 18 48 19 102 20 96 21 98 22
REMARK SMILES IDX 49 23 101 24 95 25 94 26 50 28 82 29 62 30 81 31 63 32 66 33
REMARK SMILES IDX 80 34 99 35 64 36 65 37 79 39 100 40 67 41 51 42 52 43 60 44
REMARK SMILES IDX 53 45 59 46 61 47 58 48 54 49 55 50 56 51 57 52 83 53 84 54
REMARK SMILES IDX 92 55 85 56 91 57 93 58 90 59 86 60 87 61 88 62 89 63 68 64
REMARK SMILES IDX 69 65 77 66 70 67 76 68 78 69 75 70 71 71 72 72 73 73 74 74
REMARK SMILES IDX 10 75 11 76 12 77 13 78 14 79 15 80 16 81 17 82 18 83 19 84
REMARK SMILES IDX 23 85 20 86 22 87 21 88 24 89 25 90 26 91 27 92 41 93 28 94
REMARK SMILES IDX 40 95 29 96 30 98 31 99 32 100 36 101 33 102 35 103 34 104
REMARK SMILES IDX 37 105 39 106 38 107
REMARK H PARENT 98 27 66 38 29 97
REMARK Flexibility Score: inf
ROOT
ATOM      1  O   UNL A   1      36.376  22.511  25.995  1.00  0.00    -0.377 OA
ENDROOT
BRANCH   1   2
ATOM      2  C   UNL A   1      37.088  23.662  25.550  1.00  0.00     0.188 C 
BRANCH   2   3
ATOM      3  C   UNL A   1      38.369  23.941  26.318  1.00  0.00     0.188 C 
BRANCH   3   4
ATOM      4  O   UNL A   1      39.147  22.758  26.429  1.00  0.00    -0.376 OA
BRANCH   4   5
ATOM      5  C   UNL A   1      40.426  22.884  27.043  1.00  0.00     0.202 C 
BRANCH   5   6
ATOM      6  C   UNL A   1      40.950  24.314  27.161  1.00  0.00     0.261 C 
BRANCH   6   7
ATOM      7  O   UNL A   1      41.964  24.654  26.199  1.00  0.00    -0.460 OA
BRANCH   7   8
ATOM      8  C   UNL A   1      42.381  25.876  25.786  1.00  0.00     0.338 C 
ATOM      9  O   UNL A   1      42.802  25.983  24.634  1.00  0.00    -0.246 OA
BRANCH   8  10
ATOM     10  C   UNL A   1      42.403  27.101  26.642  1.00  0.00     0.060 A 
ATOM     11  C   UNL A   1      41.711  28.278  26.376  1.00  0.00     0.016 A 
ATOM     12  C   UNL A   1      43.096  27.023  27.862  1.00  0.00     0.016 A 
ATOM     13  C   UNL A   1      41.715  29.355  27.238  1.00  0.00     0.010 A 
ATOM     14  C   UNL A   1      43.114  28.104  28.750  1.00  0.00     0.010 A 
ATOM     15  C   UNL A   1      42.436  29.281  28.418  1.00  0.00    -0.014 A 
BRANCH  15  16
ATOM     16  C   UNL A   1      42.648  30.555  29.118  1.00  0.00     0.031 A 
ATOM     17  C   UNL A   1      43.668  31.482  28.533  1.00  0.00     0.074 A 
ATOM     18  C   UNL A   1      41.796  30.938  30.084  1.00  0.00     0.049 A 
ATOM     19  N   UNL A   1      44.098  32.629  28.974  1.00  0.00    -0.248 NA
ATOM     20  C   UNL A   1      44.275  31.058  27.259  1.00  0.00     0.031 C 
ATOM     21  C   UNL A   1      40.637  30.163  30.542  1.00  0.00     0.029 A 
ATOM     22  N   UNL A   1      41.741  32.085  30.823  1.00  0.00    -0.354 N 
ATOM     23  C   UNL A   1      45.057  33.043  28.055  1.00  0.00     0.074 A 
ATOM     24  C   UNL A   1      45.150  32.023  27.038  1.00  0.00     0.031 C 
ATOM     25  C   UNL A   1      39.983  30.868  31.478  1.00  0.00     0.029 A 
ATOM     26  C   UNL A   1      40.725  32.091  31.749  1.00  0.00     0.049 A 
ATOM     27  H   UNL A   1      42.367  32.836  30.702  1.00  0.00     0.167 HD
ATOM     28  C   UNL A   1      45.797  34.175  28.087  1.00  0.00     0.034 A 
ATOM     29  C   UNL A   1      40.480  32.967  32.741  1.00  0.00     0.034 A 
ATOM     30  C   UNL A   1      45.659  35.144  29.142  1.00  0.00     0.049 A 
ATOM     31  C   UNL A   1      41.422  34.141  32.857  1.00  0.00     0.074 A 
ATOM     32  C   UNL A   1      46.399  36.283  29.380  1.00  0.00     0.029 A 
ATOM     33  N   UNL A   1      44.701  35.067  30.151  1.00  0.00    -0.354 N 
ATOM     34  N   UNL A   1      42.423  34.475  32.069  1.00  0.00    -0.248 NA
ATOM     35  C   UNL A   1      41.219  35.043  33.992  1.00  0.00     0.031 C 
ATOM     36  C   UNL A   1      45.938  36.853  30.574  1.00  0.00     0.029 A 
ATOM     37  C   UNL A   1      44.850  36.122  31.033  1.00  0.00     0.049 A 
ATOM     38  H   UNL A   1      44.016  34.364  30.226  1.00  0.00     0.167 HD
ATOM     39  C   UNL A   1      42.957  35.642  32.604  1.00  0.00     0.074 A 
ATOM     40  C   UNL A   1      42.150  35.960  33.769  1.00  0.00     0.031 C 
ATOM     41  C   UNL A   1      44.015  36.385  32.184  1.00  0.00     0.034 A 
BRANCH  28  42
ATOM     42  C   UNL A   1      46.875  34.310  27.039  1.00  0.00     0.023 A 
ATOM     43  C   UNL A   1      48.147  33.728  27.190  1.00  0.00     0.031 A 
ATOM     44  C   UNL A   1      46.665  35.153  25.933  1.00  0.00     0.131 A 
ATOM     45  C   UNL A   1      49.185  34.078  26.311  1.00  0.00     0.055 A 
ATOM     46  C   UNL A   1      47.678  35.423  25.010  1.00  0.00     0.041 A 
ATOM     47  F   UNL A   1      45.487  35.769  25.756  1.00  0.00    -0.206 F 
ATOM     48  C   UNL A   1      48.951  34.900  25.206  1.00  0.00     0.022 A 
BRANCH  45  49
ATOM     49  S   UNL A   1      50.883  33.599  26.737  1.00  0.00     0.124 S 
ATOM     50  O   UNL A   1      51.564  34.892  26.731  1.00  0.00    -0.237 OA
ATOM     51  O   UNL A   1      50.718  32.973  28.043  1.00  0.00    -0.237 OA
ATOM     52  O   UNL A   1      51.268  32.695  25.656  1.00  0.00    -0.744 OA
ENDBRANCH  45  49
ENDBRANCH  28  42
BRANCH  29  53
ATOM     53  C   UNL A   1      39.392  32.722  33.735  1.00  0.00     0.023 A 
ATOM     54  C   UNL A   1      38.130  33.322  33.605  1.00  0.00     0.031 A 
ATOM     55  C   UNL A   1      39.618  31.917  34.869  1.00  0.00     0.131 A 
ATOM     56  C   UNL A   1      37.160  33.141  34.606  1.00  0.00     0.055 A 
ATOM     57  C   UNL A   1      38.632  31.692  35.831  1.00  0.00     0.041 A 
ATOM     58  F   UNL A   1      40.808  31.324  35.058  1.00  0.00    -0.206 F 
ATOM     59  C   UNL A   1      37.398  32.319  35.711  1.00  0.00     0.022 A 
BRANCH  56  60
ATOM     60  S   UNL A   1      35.610  34.078  34.496  1.00  0.00     0.124 S 
ATOM     61  O   UNL A   1      35.977  35.151  33.580  1.00  0.00    -0.237 OA
ATOM     62  O   UNL A   1      34.689  33.074  33.976  1.00  0.00    -0.237 OA
ATOM     63  O   UNL A   1      35.364  34.490  35.876  1.00  0.00    -0.744 OA
ENDBRANCH  56  60
ENDBRANCH  29  53
BRANCH  41  64
ATOM     64  C   UNL A   1      44.309  37.632  32.972  1.00  0.00     0.023 A 
ATOM     65  C   UNL A   1      43.578  38.815  32.778  1.00  0.00     0.031 A 
ATOM     66  C   UNL A   1      45.332  37.627  33.937  1.00  0.00     0.131 A 
ATOM     67  C   UNL A   1      43.923  39.967  33.497  1.00  0.00     0.055 A 
ATOM     68  C   UNL A   1      45.619  38.756  34.702  1.00  0.00     0.041 A 
ATOM     69  F   UNL A   1      46.059  36.520  34.157  1.00  0.00    -0.206 F 
ATOM     70  C   UNL A   1      44.922  39.938  34.473  1.00  0.00     0.022 A 
BRANCH  67  71
ATOM     71  S   UNL A   1      43.118  41.531  33.061  1.00  0.00     0.124 S 
ATOM     72  O   UNL A   1      41.938  41.511  33.921  1.00  0.00    -0.237 OA
ATOM     73  O   UNL A   1      44.140  42.514  33.404  1.00  0.00    -0.237 OA
ATOM     74  O   UNL A   1      42.847  41.389  31.632  1.00  0.00    -0.744 OA
ENDBRANCH  67  71
ENDBRANCH  41  64
ENDBRANCH  15  16
ENDBRANCH   8  10
ENDBRANCH   7   8
ENDBRANCH   6   7
ENDBRANCH   5   6
ENDBRANCH   4   5
ENDBRANCH   3   4
ENDBRANCH   2   3
ENDBRANCH   1   2
BRANCH   1  75
ATOM     75  C   UNL A   1      35.081  22.714  26.564  1.00  0.00     0.188 C 
BRANCH  75  76
ATOM     76  C   UNL A   1      33.898  21.792  26.234  1.00  0.00     0.188 C 
BRANCH  76  77
ATOM     77  O   UNL A   1      33.097  22.268  25.180  1.00  0.00    -0.376 OA
BRANCH  77  78
ATOM     78  C   UNL A   1      33.551  22.010  23.864  1.00  0.00     0.202 C 
BRANCH  78  79
ATOM     79  C   UNL A   1      34.160  23.130  22.984  1.00  0.00     0.261 C 
BRANCH  79  80
ATOM     80  O   UNL A   1      33.960  24.502  23.388  1.00  0.00    -0.463 OA
BRANCH  80  81
ATOM     81  C   UNL A   1      32.762  25.079  23.107  1.00  0.00     0.310 C 
ATOM     82  O   UNL A   1      32.419  25.368  21.959  1.00  0.00    -0.252 OA
BRANCH  81  83
ATOM     83  C   UNL A   1      31.913  25.471  24.324  1.00  0.00     0.115 C 
ATOM     84  C   UNL A   1      30.774  24.450  24.533  1.00  0.00     0.043 C 
ATOM     85  C   UNL A   1      31.296  26.881  24.555  1.00  0.00     0.097 C 
ATOM     86  C   UNL A   1      30.097  24.639  25.865  1.00  0.00    -0.030 C 
ATOM     87  C   UNL A   1      30.895  26.997  26.047  1.00  0.00     0.041 C 
ATOM     88  C   UNL A   1      30.179  25.782  26.561  1.00  0.00    -0.030 C 
BRANCH  85  89
ATOM     89  C   UNL A   1      32.017  28.188  24.224  1.00  0.00     0.227 C 
ATOM     90  O   UNL A   1      31.840  28.764  23.148  1.00  0.00    -0.275 OA
ATOM     91  N   UNL A   1      32.642  28.803  25.272  1.00  0.00    -0.331 N 
ATOM     92  C   UNL A   1      32.198  30.123  25.691  1.00  0.00     0.181 C 
ATOM     93  C   UNL A   1      34.073  28.643  25.414  1.00  0.00     0.181 C 
ATOM     94  C   UNL A   1      32.620  30.392  27.153  1.00  0.00     0.284 C 
ATOM     95  C   UNL A   1      34.432  28.748  26.902  1.00  0.00     0.284 C 
ATOM     96  N   UNL A   1      33.994  30.011  27.541  1.00  0.00    -0.328 N 
ATOM     97  H   UNL A   1      33.930  29.820  28.542  1.00  0.00     0.348 HD
BRANCH  96  98
ATOM     98  C   UNL A   1      34.994  31.087  27.502  1.00  0.00     0.299 C 
BRANCH  98  99
ATOM     99  C   UNL A   1      34.808  32.211  28.496  1.00  0.00     0.010 A 
ATOM    100  C   UNL A   1      35.172  32.035  29.851  1.00  0.00     0.013 A 
ATOM    101  C   UNL A   1      34.158  33.395  28.104  1.00  0.00     0.060 A 
ATOM    102  C   UNL A   1      34.791  32.963  30.824  1.00  0.00     0.051 A 
ATOM    103  C   UNL A   1      33.787  34.286  29.088  1.00  0.00     0.166 A 
ATOM    104  C   UNL A   1      34.076  34.066  30.412  1.00  0.00     0.165 A 
ATOM    105  O   UNL A   1      33.049  35.411  28.898  1.00  0.00    -0.454 OA
ATOM    106  O   UNL A   1      33.552  35.022  31.224  1.00  0.00    -0.454 OA
ATOM    107  C   UNL A   1      32.855  35.843  30.261  1.00  0.00     0.468 C 
ENDBRANCH  98  99
ENDBRANCH  96  98
ENDBRANCH  85  89
ENDBRANCH  81  83
ENDBRANCH  80  81
ENDBRANCH  79  80
ENDBRANCH  78  79
ENDBRANCH  77  78
ENDBRANCH  76  77
ENDBRANCH  75  76
ENDBRANCH   1  75
TORSDOF 26
ENDMDL
