MODEL 1
REMARK VINA RESULT:      -8.9      0.000      0.000
REMARK SMILES Cc1nc2nc(CNC(=O)OC(C)(C)C)nn2c(C)c1CCC(=O)OCCOCCOCCOCCOC(=O)c1ccc(-c2c3nc(c(-c4cc(S(=O)(=O)[O-])ccc4F)c4ccc([nH]4)c(-c4cc(S(=O)(=O)[O-])ccc4F)c4nc(c(-c5cc(S(=O)(=O)[O-])ccc5F)c5ccc2[nH]5)C=C4)C=C3)cc1
REMARK SMILES IDX 29 1 28 2 27 3 26 4 25 5 23 6 24 7 22 8 21 9 20 10 1 11 2 12
REMARK SMILES IDX 3 13 4 14 18 15 5 16 17 17 19 18 6 19 16 20 7 21 8 22 9 23
REMARK SMILES IDX 10 25 11 26 12 27 13 28 14 29 15 30 30 31 31 32 32 33 33 34
REMARK SMILES IDX 34 35 35 36 36 37 37 38 38 39 39 40 40 41 41 42 102 43 42 44
REMARK SMILES IDX 101 45 43 46 44 47 45 48 95 49 46 50 100 51 94 52 96 53
REMARK SMILES IDX 47 54 99 55 93 56 92 57 48 59 80 60 60 61 79 62 61 63 64 64
REMARK SMILES IDX 78 65 97 66 62 67 63 68 77 70 98 71 65 72 49 73 50 74 58 75
REMARK SMILES IDX 51 76 57 77 59 78 56 79 52 80 53 81 54 82 55 83 81 84 82 85
REMARK SMILES IDX 90 86 83 87 89 88 91 89 88 90 84 91 85 92 86 93 87 94 66 95
REMARK SMILES IDX 67 96 75 97 68 98 74 99 76 100 73 101 69 102 70 103 71 104
REMARK SMILES IDX 72 105
REMARK H PARENT 8 24 96 58 64 69
REMARK Flexibility Score: inf
ROOT
ATOM      1  C   UNL A   1      34.055  30.752  27.825  1.00  0.00     0.188 C 
ENDROOT
BRANCH   1   2
ATOM      2  O   UNL A   1      32.760  30.826  27.274  1.00  0.00    -0.376 OA
BRANCH   2   3
ATOM      3  C   UNL A   1      32.206  29.820  26.437  1.00  0.00     0.202 C 
BRANCH   3   4
ATOM      4  C   UNL A   1      31.207  30.136  25.310  1.00  0.00     0.261 C 
BRANCH   4   5
ATOM      5  O   UNL A   1      30.980  29.033  24.398  1.00  0.00    -0.463 OA
BRANCH   5   6
ATOM      6  C   UNL A   1      30.093  29.179  23.396  1.00  0.00     0.306 C 
ATOM      7  O   UNL A   1      29.921  30.238  22.802  1.00  0.00    -0.252 OA
BRANCH   6   8
ATOM      8  C   UNL A   1      29.231  27.950  23.109  1.00  0.00     0.127 C 
BRANCH   8   9
ATOM      9  C   UNL A   1      29.154  26.659  23.969  1.00  0.00     0.051 C 
BRANCH   9  10
ATOM     10  C   UNL A   1      30.398  26.059  24.598  1.00  0.00    -0.005 A 
ATOM     11  C   UNL A   1      29.089  25.364  26.747  1.00  0.00     0.067 C 
ATOM     12  C   UNL A   1      30.413  25.455  26.015  1.00  0.00     0.046 A 
ATOM     13  N   UNL A   1      31.435  24.889  26.607  1.00  0.00    -0.216 NA
ATOM     14  C   UNL A   1      32.585  24.764  25.881  1.00  0.00     0.252 A 
ATOM     15  C   UNL A   1      31.517  25.717  23.938  1.00  0.00     0.048 A 
ATOM     16  N   UNL A   1      33.689  24.054  26.070  1.00  0.00    -0.192 NA
ATOM     17  N   UNL A   1      32.630  25.253  24.597  1.00  0.00    -0.201 N 
ATOM     18  C   UNL A   1      31.675  25.532  22.485  1.00  0.00     0.067 C 
ATOM     19  C   UNL A   1      34.382  24.216  24.890  1.00  0.00     0.172 A 
ATOM     20  N   UNL A   1      33.840  25.088  24.051  1.00  0.00    -0.148 NA
BRANCH  19  21
ATOM     21  C   UNL A   1      35.639  23.555  24.473  1.00  0.00     0.199 C 
BRANCH  21  22
ATOM     22  N   UNL A   1      35.696  22.264  25.128  1.00  0.00    -0.314 N 
ATOM     23  C   UNL A   1      34.833  21.263  24.875  1.00  0.00     0.408 C 
ATOM     24  H   UNL A   1      36.404  22.111  25.794  1.00  0.00     0.167 HD
ATOM     25  O   UNL A   1      34.788  20.248  25.573  1.00  0.00    -0.225 OA
BRANCH  23  26
ATOM     26  O   UNL A   1      34.058  21.548  23.818  1.00  0.00    -0.444 OA
BRANCH  26  27
ATOM     27  C   UNL A   1      32.685  21.124  23.738  1.00  0.00     0.106 C 
ATOM     28  C   UNL A   1      32.569  19.671  23.278  1.00  0.00     0.056 C 
ATOM     29  C   UNL A   1      31.996  21.378  25.081  1.00  0.00     0.056 C 
ATOM     30  C   UNL A   1      32.073  22.043  22.673  1.00  0.00     0.056 C 
ENDBRANCH  26  27
ENDBRANCH  23  26
ENDBRANCH  21  22
ENDBRANCH  19  21
ENDBRANCH   9  10
ENDBRANCH   8   9
ENDBRANCH   6   8
ENDBRANCH   5   6
ENDBRANCH   4   5
ENDBRANCH   3   4
ENDBRANCH   2   3
ENDBRANCH   1   2
BRANCH   1  31
ATOM     31  C   UNL A   1      35.052  31.903  27.646  1.00  0.00     0.188 C 
BRANCH  31  32
ATOM     32  O   UNL A   1      34.728  33.276  27.667  1.00  0.00    -0.377 OA
BRANCH  32  33
ATOM     33  C   UNL A   1      35.278  34.190  28.588  1.00  0.00     0.188 C 
BRANCH  33  34
ATOM     34  C   UNL A   1      34.721  34.226  30.016  1.00  0.00     0.188 C 
BRANCH  34  35
ATOM     35  O   UNL A   1      35.524  34.318  31.183  1.00  0.00    -0.376 OA
BRANCH  35  36
ATOM     36  C   UNL A   1      35.373  33.422  32.265  1.00  0.00     0.202 C 
BRANCH  36  37
ATOM     37  C   UNL A   1      35.686  31.943  32.031  1.00  0.00     0.261 C 
BRANCH  37  38
ATOM     38  O   UNL A   1      36.471  31.652  30.885  1.00  0.00    -0.460 OA
BRANCH  38  39
ATOM     39  C   UNL A   1      36.782  30.344  30.762  1.00  0.00     0.338 C 
ATOM     40  O   UNL A   1      36.224  29.398  31.289  1.00  0.00    -0.246 OA
BRANCH  39  41
ATOM     41  C   UNL A   1      38.037  30.214  30.013  1.00  0.00     0.060 A 
ATOM     42  C   UNL A   1      38.191  29.004  29.341  1.00  0.00     0.016 A 
ATOM     43  C   UNL A   1      39.128  31.032  30.349  1.00  0.00     0.016 A 
ATOM     44  C   UNL A   1      39.447  28.454  29.313  1.00  0.00     0.010 A 
ATOM     45  C   UNL A   1      40.386  30.479  30.313  1.00  0.00     0.010 A 
ATOM     46  C   UNL A   1      40.503  29.153  29.913  1.00  0.00    -0.014 A 
BRANCH  46  47
ATOM     47  C   UNL A   1      41.771  28.467  30.017  1.00  0.00     0.031 A 
ATOM     48  C   UNL A   1      42.224  28.391  31.417  1.00  0.00     0.074 A 
ATOM     49  C   UNL A   1      42.445  27.959  28.967  1.00  0.00     0.049 A 
ATOM     50  N   UNL A   1      43.129  29.122  31.973  1.00  0.00    -0.248 NA
ATOM     51  C   UNL A   1      41.412  27.609  32.358  1.00  0.00     0.031 C 
ATOM     52  C   UNL A   1      42.017  27.813  27.576  1.00  0.00     0.029 A 
ATOM     53  N   UNL A   1      43.683  27.398  28.961  1.00  0.00    -0.354 N 
ATOM     54  C   UNL A   1      43.181  28.695  33.290  1.00  0.00     0.074 A 
ATOM     55  C   UNL A   1      41.966  27.961  33.518  1.00  0.00     0.031 C 
ATOM     56  C   UNL A   1      42.890  27.010  26.920  1.00  0.00     0.029 A 
ATOM     57  C   UNL A   1      44.006  26.699  27.801  1.00  0.00     0.049 A 
ATOM     58  H   UNL A   1      44.305  27.480  29.720  1.00  0.00     0.167 HD
ATOM     59  C   UNL A   1      44.355  28.729  33.972  1.00  0.00     0.034 A 
ATOM     60  C   UNL A   1      45.098  25.905  27.613  1.00  0.00     0.034 A 
ATOM     61  C   UNL A   1      45.283  29.659  33.361  1.00  0.00     0.049 A 
ATOM     62  C   UNL A   1      46.126  26.387  28.571  1.00  0.00     0.074 A 
ATOM     63  C   UNL A   1      45.248  31.013  33.081  1.00  0.00     0.029 A 
ATOM     64  N   UNL A   1      46.285  29.148  32.565  1.00  0.00    -0.354 N 
ATOM     65  N   UNL A   1      46.667  27.573  28.496  1.00  0.00    -0.248 NA
ATOM     66  C   UNL A   1      46.178  25.761  29.885  1.00  0.00     0.031 C 
ATOM     67  C   UNL A   1      45.867  31.145  31.801  1.00  0.00     0.029 A 
ATOM     68  C   UNL A   1      46.317  29.885  31.405  1.00  0.00     0.049 A 
ATOM     69  H   UNL A   1      46.872  28.390  32.787  1.00  0.00     0.167 HD
ATOM     70  C   UNL A   1      46.731  28.020  29.808  1.00  0.00     0.074 A 
ATOM     71  C   UNL A   1      46.493  26.829  30.625  1.00  0.00     0.031 C 
ATOM     72  C   UNL A   1      46.686  29.352  30.106  1.00  0.00     0.034 A 
BRANCH  59  73
ATOM     73  C   UNL A   1      44.794  27.626  34.908  1.00  0.00     0.023 A 
ATOM     74  C   UNL A   1      45.092  26.382  34.331  1.00  0.00     0.031 A 
ATOM     75  C   UNL A   1      44.660  27.634  36.319  1.00  0.00     0.131 A 
ATOM     76  C   UNL A   1      45.141  25.217  35.116  1.00  0.00     0.055 A 
ATOM     77  C   UNL A   1      44.766  26.482  37.100  1.00  0.00     0.041 A 
ATOM     78  F   UNL A   1      44.334  28.723  37.022  1.00  0.00    -0.206 F 
ATOM     79  C   UNL A   1      44.975  25.258  36.498  1.00  0.00     0.022 A 
BRANCH  76  80
ATOM     80  S   UNL A   1      45.275  23.624  34.273  1.00  0.00     0.124 S 
ATOM     81  O   UNL A   1      44.592  23.899  33.014  1.00  0.00    -0.237 OA
ATOM     82  O   UNL A   1      46.721  23.447  34.199  1.00  0.00    -0.237 OA
ATOM     83  O   UNL A   1      44.581  22.706  35.175  1.00  0.00    -0.744 OA
ENDBRANCH  76  80
ENDBRANCH  59  73
BRANCH  60  84
ATOM     84  C   UNL A   1      45.158  24.555  26.972  1.00  0.00     0.023 A 
ATOM     85  C   UNL A   1      44.086  23.632  27.056  1.00  0.00     0.031 A 
ATOM     86  C   UNL A   1      46.165  24.256  26.028  1.00  0.00     0.131 A 
ATOM     87  C   UNL A   1      44.047  22.494  26.212  1.00  0.00     0.055 A 
ATOM     88  C   UNL A   1      46.119  23.134  25.196  1.00  0.00     0.041 A 
ATOM     89  F   UNL A   1      47.191  25.093  25.813  1.00  0.00    -0.206 F 
ATOM     90  C   UNL A   1      45.051  22.256  25.273  1.00  0.00     0.022 A 
BRANCH  87  91
ATOM     91  S   UNL A   1      42.618  21.357  26.230  1.00  0.00     0.124 S 
ATOM     92  O   UNL A   1      41.594  22.143  25.550  1.00  0.00    -0.237 OA
ATOM     93  O   UNL A   1      43.124  20.192  25.514  1.00  0.00    -0.237 OA
ATOM     94  O   UNL A   1      42.376  21.139  27.657  1.00  0.00    -0.744 OA
ENDBRANCH  87  91
ENDBRANCH  60  84
BRANCH  72  95
ATOM     95  C   UNL A   1      46.854  30.350  28.977  1.00  0.00     0.023 A 
ATOM     96  C   UNL A   1      45.797  30.994  28.289  1.00  0.00     0.031 A 
ATOM     97  C   UNL A   1      48.167  30.761  28.687  1.00  0.00     0.131 A 
ATOM     98  C   UNL A   1      46.084  32.009  27.350  1.00  0.00     0.055 A 
ATOM     99  C   UNL A   1      48.443  31.778  27.776  1.00  0.00     0.041 A 
ATOM    100  F   UNL A   1      49.208  30.205  29.327  1.00  0.00    -0.206 F 
ATOM    101  C   UNL A   1      47.403  32.405  27.102  1.00  0.00     0.022 A 
BRANCH  98 102
ATOM    102  S   UNL A   1      44.743  32.856  26.447  1.00  0.00     0.124 S 
ATOM    103  O   UNL A   1      43.980  33.502  27.511  1.00  0.00    -0.237 OA
ATOM    104  O   UNL A   1      45.471  33.746  25.549  1.00  0.00    -0.237 OA
ATOM    105  O   UNL A   1      44.037  31.763  25.774  1.00  0.00    -0.744 OA
ENDBRANCH  98 102
ENDBRANCH  72  95
ENDBRANCH  46  47
ENDBRANCH  39  41
ENDBRANCH  38  39
ENDBRANCH  37  38
ENDBRANCH  36  37
ENDBRANCH  35  36
ENDBRANCH  34  35
ENDBRANCH  33  34
ENDBRANCH  32  33
ENDBRANCH  31  32
ENDBRANCH   1  31
TORSDOF 29
ENDMDL
MODEL 2
REMARK VINA RESULT:      -8.9      3.411      7.370
REMARK SMILES Cc1nc2nc(CNC(=O)OC(C)(C)C)nn2c(C)c1CCC(=O)OCCOCCOCCOCCOC(=O)c1ccc(-c2c3nc(c(-c4cc(S(=O)(=O)[O-])ccc4F)c4ccc([nH]4)c(-c4cc(S(=O)(=O)[O-])ccc4F)c4nc(c(-c5cc(S(=O)(=O)[O-])ccc5F)c5ccc2[nH]5)C=C4)C=C3)cc1
REMARK SMILES IDX 29 1 28 2 27 3 26 4 25 5 23 6 24 7 22 8 21 9 20 10 1 11 2 12
REMARK SMILES IDX 3 13 4 14 18 15 5 16 17 17 19 18 6 19 16 20 7 21 8 22 9 23
REMARK SMILES IDX 10 25 11 26 12 27 13 28 14 29 15 30 30 31 31 32 32 33 33 34
REMARK SMILES IDX 34 35 35 36 36 37 37 38 38 39 39 40 40 41 41 42 102 43 42 44
REMARK SMILES IDX 101 45 43 46 44 47 45 48 95 49 46 50 100 51 94 52 96 53
REMARK SMILES IDX 47 54 99 55 93 56 92 57 48 59 80 60 60 61 79 62 61 63 64 64
REMARK SMILES IDX 78 65 97 66 62 67 63 68 77 70 98 71 65 72 49 73 50 74 58 75
REMARK SMILES IDX 51 76 57 77 59 78 56 79 52 80 53 81 54 82 55 83 81 84 82 85
REMARK SMILES IDX 90 86 83 87 89 88 91 89 88 90 84 91 85 92 86 93 87 94 66 95
REMARK SMILES IDX 67 96 75 97 68 98 74 99 76 100 73 101 69 102 70 103 71 104
REMARK SMILES IDX 72 105
REMARK H PARENT 8 24 96 58 64 69
REMARK Flexibility Score: inf
ROOT
ATOM      1  C   UNL A   1      34.303  31.690  27.988  1.00  0.00     0.188 C 
ENDROOT
BRANCH   1   2
ATOM      2  O   UNL A   1      33.226  31.174  27.241  1.00  0.00    -0.376 OA
BRANCH   2   3
ATOM      3  C   UNL A   1      33.160  29.831  26.784  1.00  0.00     0.202 C 
BRANCH   3   4
ATOM      4  C   UNL A   1      32.018  29.312  25.892  1.00  0.00     0.261 C 
BRANCH   4   5
ATOM      5  O   UNL A   1      32.453  28.413  24.842  1.00  0.00    -0.463 OA
BRANCH   5   6
ATOM      6  C   UNL A   1      31.532  27.821  24.059  1.00  0.00     0.306 C 
ATOM      7  O   UNL A   1      30.821  28.440  23.273  1.00  0.00    -0.252 OA
BRANCH   6   8
ATOM      8  C   UNL A   1      31.354  26.320  24.288  1.00  0.00     0.127 C 
BRANCH   8   9
ATOM      9  C   UNL A   1      31.357  25.593  25.660  1.00  0.00     0.051 C 
BRANCH   9  10
ATOM     10  C   UNL A   1      32.402  24.545  25.992  1.00  0.00    -0.005 A 
ATOM     11  C   UNL A   1      30.581  22.707  26.345  1.00  0.00     0.067 C 
ATOM     12  C   UNL A   1      32.043  23.102  26.399  1.00  0.00     0.046 A 
ATOM     13  N   UNL A   1      32.888  22.137  26.663  1.00  0.00    -0.216 NA
ATOM     14  C   UNL A   1      34.217  22.411  26.507  1.00  0.00     0.252 A 
ATOM     15  C   UNL A   1      33.712  24.631  25.705  1.00  0.00     0.048 A 
ATOM     16  N   UNL A   1      35.290  21.634  26.450  1.00  0.00    -0.192 NA
ATOM     17  N   UNL A   1      34.605  23.671  26.114  1.00  0.00    -0.201 N 
ATOM     18  C   UNL A   1      34.357  25.551  24.753  1.00  0.00     0.067 C 
ATOM     19  C   UNL A   1      36.297  22.502  26.087  1.00  0.00     0.172 A 
ATOM     20  N   UNL A   1      35.937  23.777  26.055  1.00  0.00    -0.148 NA
BRANCH  19  21
ATOM     21  C   UNL A   1      37.703  22.178  25.755  1.00  0.00     0.199 C 
BRANCH  21  22
ATOM     22  N   UNL A   1      38.552  22.900  26.680  1.00  0.00    -0.314 N 
ATOM     23  C   UNL A   1      39.848  22.602  26.888  1.00  0.00     0.408 C 
ATOM     24  H   UNL A   1      38.160  23.648  27.185  1.00  0.00     0.167 HD
ATOM     25  O   UNL A   1      40.495  23.106  27.808  1.00  0.00    -0.225 OA
BRANCH  23  26
ATOM     26  O   UNL A   1      40.285  21.699  25.997  1.00  0.00    -0.444 OA
BRANCH  26  27
ATOM     27  C   UNL A   1      40.913  20.467  26.401  1.00  0.00     0.106 C 
ATOM     28  C   UNL A   1      41.043  20.371  27.921  1.00  0.00     0.056 C 
ATOM     29  C   UNL A   1      40.153  19.287  25.793  1.00  0.00     0.056 C 
ATOM     30  C   UNL A   1      42.313  20.543  25.777  1.00  0.00     0.056 C 
ENDBRANCH  26  27
ENDBRANCH  23  26
ENDBRANCH  21  22
ENDBRANCH  19  21
ENDBRANCH   9  10
ENDBRANCH   8   9
ENDBRANCH   6   8
ENDBRANCH   5   6
ENDBRANCH   4   5
ENDBRANCH   3   4
ENDBRANCH   2   3
ENDBRANCH   1   2
BRANCH   1  31
ATOM     31  C   UNL A   1      34.384  33.184  28.323  1.00  0.00     0.188 C 
BRANCH  31  32
ATOM     32  O   UNL A   1      33.290  34.006  28.661  1.00  0.00    -0.377 OA
BRANCH  32  33
ATOM     33  C   UNL A   1      33.414  35.375  28.974  1.00  0.00     0.188 C 
BRANCH  33  34
ATOM     34  C   UNL A   1      32.704  35.914  30.222  1.00  0.00     0.188 C 
BRANCH  34  35
ATOM     35  O   UNL A   1      33.298  36.807  31.153  1.00  0.00    -0.376 OA
BRANCH  35  36
ATOM     36  C   UNL A   1      33.100  36.672  32.545  1.00  0.00     0.202 C 
BRANCH  36  37
ATOM     37  C   UNL A   1      34.308  36.331  33.420  1.00  0.00     0.261 C 
BRANCH  37  38
ATOM     38  O   UNL A   1      35.379  35.673  32.763  1.00  0.00    -0.460 OA
BRANCH  38  39
ATOM     39  C   UNL A   1      35.632  34.438  33.246  1.00  0.00     0.338 C 
ATOM     40  O   UNL A   1      35.543  34.064  34.403  1.00  0.00    -0.246 OA
BRANCH  39  41
ATOM     41  C   UNL A   1      36.212  33.612  32.182  1.00  0.00     0.060 A 
ATOM     42  C   UNL A   1      36.732  32.393  32.610  1.00  0.00     0.016 A 
ATOM     43  C   UNL A   1      36.607  34.216  30.978  1.00  0.00     0.016 A 
ATOM     44  C   UNL A   1      37.886  31.955  32.012  1.00  0.00     0.010 A 
ATOM     45  C   UNL A   1      37.761  33.770  30.377  1.00  0.00     0.010 A 
ATOM     46  C   UNL A   1      38.446  32.724  30.983  1.00  0.00    -0.014 A 
BRANCH  46  47
ATOM     47  C   UNL A   1      39.748  32.324  30.498  1.00  0.00     0.031 A 
ATOM     48  C   UNL A   1      39.742  30.922  30.047  1.00  0.00     0.074 A 
ATOM     49  C   UNL A   1      40.823  33.135  30.460  1.00  0.00     0.049 A 
ATOM     50  N   UNL A   1      40.209  29.906  30.689  1.00  0.00    -0.248 NA
ATOM     51  C   UNL A   1      38.903  30.577  28.891  1.00  0.00     0.031 C 
ATOM     52  C   UNL A   1      40.905  34.574  30.706  1.00  0.00     0.029 A 
ATOM     53  N   UNL A   1      42.100  32.814  30.124  1.00  0.00    -0.354 N 
ATOM     54  C   UNL A   1      39.952  28.814  29.874  1.00  0.00     0.074 A 
ATOM     55  C   UNL A   1      38.956  29.246  28.933  1.00  0.00     0.031 C 
ATOM     56  C   UNL A   1      42.114  35.031  30.296  1.00  0.00     0.029 A 
ATOM     57  C   UNL A   1      42.937  33.902  29.890  1.00  0.00     0.049 A 
ATOM     58  H   UNL A   1      42.410  31.882  30.051  1.00  0.00     0.167 HD
ATOM     59  C   UNL A   1      40.804  27.756  29.864  1.00  0.00     0.034 A 
ATOM     60  C   UNL A   1      44.198  33.856  29.372  1.00  0.00     0.034 A 
ATOM     61  C   UNL A   1      41.608  27.725  31.069  1.00  0.00     0.049 A 
ATOM     62  C   UNL A   1      44.714  32.495  29.670  1.00  0.00     0.074 A 
ATOM     63  C   UNL A   1      41.319  27.656  32.420  1.00  0.00     0.029 A 
ATOM     64  N   UNL A   1      42.904  28.187  30.996  1.00  0.00    -0.354 N 
ATOM     65  N   UNL A   1      44.931  32.067  30.885  1.00  0.00    -0.248 NA
ATOM     66  C   UNL A   1      44.509  31.455  28.672  1.00  0.00     0.031 C 
ATOM     67  C   UNL A   1      42.253  28.535  33.047  1.00  0.00     0.029 A 
ATOM     68  C   UNL A   1      43.111  29.030  32.063  1.00  0.00     0.049 A 
ATOM     69  H   UNL A   1      43.565  27.954  30.304  1.00  0.00     0.167 HD
ATOM     70  C   UNL A   1      44.464  30.761  30.892  1.00  0.00     0.074 A 
ATOM     71  C   UNL A   1      44.293  30.413  29.480  1.00  0.00     0.031 C 
ATOM     72  C   UNL A   1      43.991  30.184  32.035  1.00  0.00     0.034 A 
BRANCH  59  73
ATOM     73  C   UNL A   1      41.192  27.026  28.599  1.00  0.00     0.023 A 
ATOM     74  C   UNL A   1      42.514  27.182  28.153  1.00  0.00     0.031 A 
ATOM     75  C   UNL A   1      40.295  26.441  27.671  1.00  0.00     0.131 A 
ATOM     76  C   UNL A   1      42.870  26.869  26.830  1.00  0.00     0.055 A 
ATOM     77  C   UNL A   1      40.667  26.079  26.375  1.00  0.00     0.041 A 
ATOM     78  F   UNL A   1      38.993  26.263  27.917  1.00  0.00    -0.206 F 
ATOM     79  C   UNL A   1      41.953  26.323  25.935  1.00  0.00     0.022 A 
BRANCH  76  80
ATOM     80  S   UNL A   1      44.519  27.334  26.256  1.00  0.00     0.124 S 
ATOM     81  O   UNL A   1      45.283  27.299  27.497  1.00  0.00    -0.237 OA
ATOM     82  O   UNL A   1      44.806  26.278  25.291  1.00  0.00    -0.237 OA
ATOM     83  O   UNL A   1      44.315  28.663  25.683  1.00  0.00    -0.744 OA
ENDBRANCH  76  80
ENDBRANCH  59  73
BRANCH  60  84
ATOM     84  C   UNL A   1      44.797  34.738  28.323  1.00  0.00     0.023 A 
ATOM     85  C   UNL A   1      45.933  35.547  28.576  1.00  0.00     0.031 A 
ATOM     86  C   UNL A   1      44.427  34.590  26.969  1.00  0.00     0.131 A 
ATOM     87  C   UNL A   1      46.646  36.142  27.506  1.00  0.00     0.055 A 
ATOM     88  C   UNL A   1      45.137  35.176  25.917  1.00  0.00     0.041 A 
ATOM     89  F   UNL A   1      43.410  33.793  26.605  1.00  0.00    -0.206 F 
ATOM     90  C   UNL A   1      46.260  35.943  26.180  1.00  0.00     0.022 A 
BRANCH  87  91
ATOM     91  S   UNL A   1      48.175  37.093  27.809  1.00  0.00     0.124 S 
ATOM     92  O   UNL A   1      48.755  37.171  26.472  1.00  0.00    -0.237 OA
ATOM     93  O   UNL A   1      47.673  38.341  28.371  1.00  0.00    -0.237 OA
ATOM     94  O   UNL A   1      48.916  36.253  28.751  1.00  0.00    -0.744 OA
ENDBRANCH  87  91
ENDBRANCH  60  84
BRANCH  72  95
ATOM     95  C   UNL A   1      44.245  30.885  33.356  1.00  0.00     0.023 A 
ATOM     96  C   UNL A   1      43.413  31.876  33.931  1.00  0.00     0.031 A 
ATOM     97  C   UNL A   1      45.323  30.412  34.125  1.00  0.00     0.131 A 
ATOM     98  C   UNL A   1      43.683  32.353  35.232  1.00  0.00     0.055 A 
ATOM     99  C   UNL A   1      45.572  30.870  35.417  1.00  0.00     0.041 A 
ATOM    100  F   UNL A   1      46.131  29.453  33.642  1.00  0.00    -0.206 F 
ATOM    101  C   UNL A   1      44.753  31.844  35.975  1.00  0.00     0.022 A 
BRANCH  98 102
ATOM    102  S   UNL A   1      42.628  33.630  35.999  1.00  0.00     0.124 S 
ATOM    103  O   UNL A   1      43.574  34.689  36.334  1.00  0.00    -0.237 OA
ATOM    104  O   UNL A   1      41.672  33.936  34.940  1.00  0.00    -0.237 OA
ATOM    105  O   UNL A   1      42.048  32.947  37.158  1.00  0.00    -0.744 OA
ENDBRANCH  98 102
ENDBRANCH  72  95
ENDBRANCH  46  47
ENDBRANCH  39  41
ENDBRANCH  38  39
ENDBRANCH  37  38
ENDBRANCH  36  37
ENDBRANCH  35  36
ENDBRANCH  34  35
ENDBRANCH  33  34
ENDBRANCH  32  33
ENDBRANCH  31  32
ENDBRANCH   1  31
TORSDOF 29
ENDMDL
MODEL 3
REMARK VINA RESULT:      -8.7      6.585      9.511
REMARK SMILES Cc1nc2nc(CNC(=O)OC(C)(C)C)nn2c(C)c1CCC(=O)OCCOCCOCCOCCOC(=O)c1ccc(-c2c3nc(c(-c4cc(S(=O)(=O)[O-])ccc4F)c4ccc([nH]4)c(-c4cc(S(=O)(=O)[O-])ccc4F)c4nc(c(-c5cc(S(=O)(=O)[O-])ccc5F)c5ccc2[nH]5)C=C4)C=C3)cc1
REMARK SMILES IDX 29 1 28 2 27 3 26 4 25 5 23 6 24 7 22 8 21 9 20 10 1 11 2 12
REMARK SMILES IDX 3 13 4 14 18 15 5 16 17 17 19 18 6 19 16 20 7 21 8 22 9 23
REMARK SMILES IDX 10 25 11 26 12 27 13 28 14 29 15 30 30 31 31 32 32 33 33 34
REMARK SMILES IDX 34 35 35 36 36 37 37 38 38 39 39 40 40 41 41 42 102 43 42 44
REMARK SMILES IDX 101 45 43 46 44 47 45 48 95 49 46 50 100 51 94 52 96 53
REMARK SMILES IDX 47 54 99 55 93 56 92 57 48 59 80 60 60 61 79 62 61 63 64 64
REMARK SMILES IDX 78 65 97 66 62 67 63 68 77 70 98 71 65 72 49 73 50 74 58 75
REMARK SMILES IDX 51 76 57 77 59 78 56 79 52 80 53 81 54 82 55 83 81 84 82 85
REMARK SMILES IDX 90 86 83 87 89 88 91 89 88 90 84 91 85 92 86 93 87 94 66 95
REMARK SMILES IDX 67 96 75 97 68 98 74 99 76 100 73 101 69 102 70 103 71 104
REMARK SMILES IDX 72 105
REMARK H PARENT 8 24 96 58 64 69
REMARK Flexibility Score: inf
ROOT
ATOM      1  C   UNL A   1      34.619  30.831  27.964  1.00  0.00     0.188 C 
ENDROOT
BRANCH   1   2
ATOM      2  O   UNL A   1      33.274  30.460  27.774  1.00  0.00    -0.376 OA
BRANCH   2   3
ATOM      3  C   UNL A   1      32.795  29.816  26.602  1.00  0.00     0.202 C 
BRANCH   3   4
ATOM      4  C   UNL A   1      31.606  30.353  25.786  1.00  0.00     0.261 C 
BRANCH   4   5
ATOM      5  O   UNL A   1      31.603  29.930  24.400  1.00  0.00    -0.463 OA
BRANCH   5   6
ATOM      6  C   UNL A   1      30.436  29.868  23.733  1.00  0.00     0.306 C 
ATOM      7  O   UNL A   1      29.473  30.582  23.996  1.00  0.00    -0.252 OA
BRANCH   6   8
ATOM      8  C   UNL A   1      30.349  28.764  22.678  1.00  0.00     0.127 C 
BRANCH   8   9
ATOM      9  C   UNL A   1      30.369  27.235  22.945  1.00  0.00     0.051 C 
BRANCH   9  10
ATOM     10  C   UNL A   1      31.586  26.558  23.547  1.00  0.00    -0.005 A 
ATOM     11  C   UNL A   1      30.648  26.815  25.969  1.00  0.00     0.067 C 
ATOM     12  C   UNL A   1      31.785  26.386  25.065  1.00  0.00     0.046 A 
ATOM     13  N   UNL A   1      32.788  25.782  25.653  1.00  0.00    -0.216 NA
ATOM     14  C   UNL A   1      33.721  25.194  24.847  1.00  0.00     0.252 A 
ATOM     15  C   UNL A   1      32.464  25.793  22.876  1.00  0.00     0.048 A 
ATOM     16  N   UNL A   1      34.693  24.325  25.091  1.00  0.00    -0.192 NA
ATOM     17  N   UNL A   1      33.587  25.282  23.481  1.00  0.00    -0.201 N 
ATOM     18  C   UNL A   1      32.281  25.180  21.549  1.00  0.00     0.067 C 
ATOM     19  C   UNL A   1      35.144  23.985  23.834  1.00  0.00     0.172 A 
ATOM     20  N   UNL A   1      34.607  24.693  22.849  1.00  0.00    -0.148 NA
BRANCH  19  21
ATOM     21  C   UNL A   1      36.147  22.959  23.472  1.00  0.00     0.199 C 
BRANCH  21  22
ATOM     22  N   UNL A   1      36.203  21.997  24.555  1.00  0.00    -0.314 N 
ATOM     23  C   UNL A   1      35.228  21.105  24.808  1.00  0.00     0.408 C 
ATOM     24  H   UNL A   1      36.997  21.997  25.136  1.00  0.00     0.167 HD
ATOM     25  O   UNL A   1      35.214  20.428  25.838  1.00  0.00    -0.225 OA
BRANCH  23  26
ATOM     26  O   UNL A   1      34.314  21.096  23.826  1.00  0.00    -0.444 OA
BRANCH  26  27
ATOM     27  C   UNL A   1      32.900  21.072  24.096  1.00  0.00     0.106 C 
ATOM     28  C   UNL A   1      32.578  21.656  25.471  1.00  0.00     0.056 C 
ATOM     29  C   UNL A   1      32.154  21.777  22.961  1.00  0.00     0.056 C 
ATOM     30  C   UNL A   1      32.545  19.579  24.084  1.00  0.00     0.056 C 
ENDBRANCH  26  27
ENDBRANCH  23  26
ENDBRANCH  21  22
ENDBRANCH  19  21
ENDBRANCH   9  10
ENDBRANCH   8   9
ENDBRANCH   6   8
ENDBRANCH   5   6
ENDBRANCH   4   5
ENDBRANCH   3   4
ENDBRANCH   2   3
ENDBRANCH   1   2
BRANCH   1  31
ATOM     31  C   UNL A   1      35.054  32.297  27.853  1.00  0.00     0.188 C 
BRANCH  31  32
ATOM     32  O   UNL A   1      34.471  33.377  28.547  1.00  0.00    -0.377 OA
BRANCH  32  33
ATOM     33  C   UNL A   1      35.187  34.211  29.429  1.00  0.00     0.188 C 
BRANCH  33  34
ATOM     34  C   UNL A   1      35.193  33.874  30.925  1.00  0.00     0.188 C 
BRANCH  34  35
ATOM     35  O   UNL A   1      35.574  34.784  31.946  1.00  0.00    -0.376 OA
BRANCH  35  36
ATOM     36  C   UNL A   1      36.301  34.368  33.083  1.00  0.00     0.202 C 
BRANCH  36  37
ATOM     37  C   UNL A   1      37.828  34.450  33.039  1.00  0.00     0.261 C 
BRANCH  37  38
ATOM     38  O   UNL A   1      38.403  34.546  31.746  1.00  0.00    -0.460 OA
BRANCH  38  39
ATOM     39  C   UNL A   1      38.959  33.393  31.315  1.00  0.00     0.338 C 
ATOM     40  O   UNL A   1      38.760  32.271  31.745  1.00  0.00    -0.246 OA
BRANCH  39  41
ATOM     41  C   UNL A   1      40.005  33.699  30.333  1.00  0.00     0.060 A 
ATOM     42  C   UNL A   1      41.265  33.195  30.648  1.00  0.00     0.016 A 
ATOM     43  C   UNL A   1      39.825  34.771  29.445  1.00  0.00     0.016 A 
ATOM     44  C   UNL A   1      42.350  33.978  30.349  1.00  0.00     0.010 A 
ATOM     45  C   UNL A   1      40.916  35.551  29.141  1.00  0.00     0.010 A 
ATOM     46  C   UNL A   1      42.139  35.206  29.706  1.00  0.00    -0.014 A 
BRANCH  46  47
ATOM     47  C   UNL A   1      43.282  36.079  29.563  1.00  0.00     0.031 A 
ATOM     48  C   UNL A   1      43.564  36.798  30.817  1.00  0.00     0.074 A 
ATOM     49  C   UNL A   1      43.997  36.210  28.430  1.00  0.00     0.049 A 
ATOM     50  N   UNL A   1      43.274  38.027  31.081  1.00  0.00    -0.248 NA
ATOM     51  C   UNL A   1      43.970  36.005  31.986  1.00  0.00     0.031 C 
ATOM     52  C   UNL A   1      43.927  35.427  27.196  1.00  0.00     0.029 A 
ATOM     53  N   UNL A   1      45.012  37.079  28.177  1.00  0.00    -0.354 N 
ATOM     54  C   UNL A   1      43.714  38.231  32.379  1.00  0.00     0.074 A 
ATOM     55  C   UNL A   1      43.896  36.924  32.948  1.00  0.00     0.031 C 
ATOM     56  C   UNL A   1      45.002  35.715  26.421  1.00  0.00     0.029 A 
ATOM     57  C   UNL A   1      45.757  36.796  27.036  1.00  0.00     0.049 A 
ATOM     58  H   UNL A   1      45.204  37.851  28.758  1.00  0.00     0.167 HD
ATOM     59  C   UNL A   1      44.172  39.452  32.759  1.00  0.00     0.034 A 
ATOM     60  C   UNL A   1      46.921  37.399  26.660  1.00  0.00     0.034 A 
ATOM     61  C   UNL A   1      43.686  40.489  31.872  1.00  0.00     0.049 A 
ATOM     62  C   UNL A   1      46.917  38.737  27.306  1.00  0.00     0.074 A 
ATOM     63  C   UNL A   1      42.428  40.926  31.496  1.00  0.00     0.029 A 
ATOM     64  N   UNL A   1      44.542  40.971  30.906  1.00  0.00    -0.354 N 
ATOM     65  N   UNL A   1      46.051  39.668  27.007  1.00  0.00    -0.248 NA
ATOM     66  C   UNL A   1      47.538  38.862  28.617  1.00  0.00     0.031 C 
ATOM     67  C   UNL A   1      42.531  41.206  30.100  1.00  0.00     0.029 A 
ATOM     68  C   UNL A   1      43.857  41.004  29.714  1.00  0.00     0.049 A 
ATOM     69  H   UNL A   1      45.478  41.244  31.045  1.00  0.00     0.167 HD
ATOM     70  C   UNL A   1      45.696  40.229  28.224  1.00  0.00     0.074 A 
ATOM     71  C   UNL A   1      46.705  39.750  29.170  1.00  0.00     0.031 C 
ATOM     72  C   UNL A   1      44.467  40.793  28.414  1.00  0.00     0.034 A 
BRANCH  59  73
ATOM     73  C   UNL A   1      45.378  39.635  33.653  1.00  0.00     0.023 A 
ATOM     74  C   UNL A   1      45.350  40.717  34.547  1.00  0.00     0.031 A 
ATOM     75  C   UNL A   1      46.638  39.009  33.484  1.00  0.00     0.131 A 
ATOM     76  C   UNL A   1      46.533  41.193  35.139  1.00  0.00     0.055 A 
ATOM     77  C   UNL A   1      47.800  39.451  34.118  1.00  0.00     0.041 A 
ATOM     78  F   UNL A   1      46.849  37.996  32.637  1.00  0.00    -0.206 F 
ATOM     79  C   UNL A   1      47.760  40.570  34.925  1.00  0.00     0.022 A 
BRANCH  76  80
ATOM     80  S   UNL A   1      46.459  42.739  36.072  1.00  0.00     0.124 S 
ATOM     81  O   UNL A   1      46.946  43.699  35.089  1.00  0.00    -0.237 OA
ATOM     82  O   UNL A   1      45.040  42.817  36.404  1.00  0.00    -0.237 OA
ATOM     83  O   UNL A   1      47.351  42.493  37.204  1.00  0.00    -0.744 OA
ENDBRANCH  76  80
ENDBRANCH  59  73
BRANCH  60  84
ATOM     84  C   UNL A   1      48.166  36.755  26.138  1.00  0.00     0.023 A 
ATOM     85  C   UNL A   1      48.587  35.471  26.564  1.00  0.00     0.031 A 
ATOM     86  C   UNL A   1      48.816  37.278  24.999  1.00  0.00     0.131 A 
ATOM     87  C   UNL A   1      49.593  34.770  25.852  1.00  0.00     0.055 A 
ATOM     88  C   UNL A   1      49.804  36.580  24.299  1.00  0.00     0.041 A 
ATOM     89  F   UNL A   1      48.452  38.454  24.464  1.00  0.00    -0.206 F 
ATOM     90  C   UNL A   1      50.187  35.315  24.714  1.00  0.00     0.022 A 
BRANCH  87  91
ATOM     91  S   UNL A   1      50.066  33.070  26.322  1.00  0.00     0.124 S 
ATOM     92  O   UNL A   1      50.876  32.653  25.182  1.00  0.00    -0.237 OA
ATOM     93  O   UNL A   1      50.774  33.269  27.581  1.00  0.00    -0.237 OA
ATOM     94  O   UNL A   1      48.781  32.381  26.447  1.00  0.00    -0.744 OA
ENDBRANCH  87  91
ENDBRANCH  60  84
BRANCH  72  95
ATOM     95  C   UNL A   1      43.599  41.056  27.199  1.00  0.00     0.023 A 
ATOM     96  C   UNL A   1      43.949  41.883  26.104  1.00  0.00     0.031 A 
ATOM     97  C   UNL A   1      42.410  40.310  27.098  1.00  0.00     0.131 A 
ATOM     98  C   UNL A   1      43.113  41.937  24.967  1.00  0.00     0.055 A 
ATOM     99  C   UNL A   1      41.601  40.350  25.965  1.00  0.00     0.041 A 
ATOM    100  F   UNL A   1      42.040  39.488  28.094  1.00  0.00    -0.206 F 
ATOM    101  C   UNL A   1      41.949  41.165  24.895  1.00  0.00     0.022 A 
BRANCH  98 102
ATOM    102  S   UNL A   1      43.539  42.995  23.542  1.00  0.00     0.124 S 
ATOM    103  O   UNL A   1      44.926  42.638  23.262  1.00  0.00    -0.237 OA
ATOM    104  O   UNL A   1      42.559  42.593  22.539  1.00  0.00    -0.237 OA
ATOM    105  O   UNL A   1      43.355  44.355  24.055  1.00  0.00    -0.744 OA
ENDBRANCH  98 102
ENDBRANCH  72  95
ENDBRANCH  46  47
ENDBRANCH  39  41
ENDBRANCH  38  39
ENDBRANCH  37  38
ENDBRANCH  36  37
ENDBRANCH  35  36
ENDBRANCH  34  35
ENDBRANCH  33  34
ENDBRANCH  32  33
ENDBRANCH  31  32
ENDBRANCH   1  31
TORSDOF 29
ENDMDL
