MODEL 1
REMARK VINA RESULT:      -8.5      0.000      0.000
REMARK SMILES O=C(OCCOCCOCCOCCOC(=O)c1nnn(Cc2ccccc2Cl)c1-c1ccc(Cl)cc1)c1ccc(-c2c3nc(c(-c4cc(S(=O)(=O)[O-])ccc4F)c4ccc([nH]4)c(-c4cc(S(=O)(=O)[O-])ccc4F)c4nc(c(-c5cc(S(=O)(=O)[O-])ccc5F)c5ccc2[nH]5)C=C4)C=C3)cc1
REMARK SMILES IDX 8 1 7 2 6 3 5 4 4 5 3 6 2 7 1 8 38 9 39 10 100 11 40 12
REMARK SMILES IDX 99 13 41 14 42 15 43 16 93 17 44 18 98 19 92 20 94 21 45 22
REMARK SMILES IDX 97 23 91 24 90 25 46 27 78 28 58 29 77 30 59 31 62 32 76 33
REMARK SMILES IDX 95 34 60 35 61 36 75 38 96 39 63 40 47 41 48 42 56 43 49 44
REMARK SMILES IDX 55 45 57 46 54 47 50 48 51 49 52 50 53 51 79 52 80 53 88 54
REMARK SMILES IDX 81 55 87 56 89 57 86 58 82 59 83 60 84 61 85 62 64 63 65 64
REMARK SMILES IDX 73 65 66 66 72 67 74 68 71 69 67 70 68 71 69 72 70 73 9 74
REMARK SMILES IDX 10 75 11 76 12 77 13 78 14 79 15 80 16 81 17 82 18 83 19 84
REMARK SMILES IDX 30 85 20 86 21 87 31 88 32 89 37 90 33 91 36 92 34 93 35 94
REMARK SMILES IDX 22 95 23 96 24 97 28 98 25 99 27 100 29 101 26 102
REMARK H PARENT 94 26 62 37
REMARK Flexibility Score: inf
ROOT
ATOM      1  C   UNL A   1      44.091  36.950  34.519  1.00  0.00     0.188 C 
ENDROOT
BRANCH   1   2
ATOM      2  C   UNL A   1      44.307  36.251  33.169  1.00  0.00     0.188 C 
BRANCH   2   3
ATOM      3  O   UNL A   1      43.885  36.793  31.929  1.00  0.00    -0.376 OA
BRANCH   3   4
ATOM      4  C   UNL A   1      43.679  36.122  30.702  1.00  0.00     0.202 C 
BRANCH   4   5
ATOM      5  C   UNL A   1      43.190  36.764  29.400  1.00  0.00     0.261 C 
BRANCH   5   6
ATOM      6  O   UNL A   1      42.956  35.888  28.306  1.00  0.00    -0.460 OA
BRANCH   6   7
ATOM      7  C   UNL A   1      43.836  35.196  27.556  1.00  0.00     0.338 C 
ATOM      8  O   UNL A   1      44.472  35.824  26.708  1.00  0.00    -0.246 OA
BRANCH   7   9
ATOM      9  C   UNL A   1      44.011  33.717  27.618  1.00  0.00     0.060 A 
ATOM     10  C   UNL A   1      44.006  32.926  28.769  1.00  0.00     0.016 A 
ATOM     11  C   UNL A   1      44.179  33.083  26.372  1.00  0.00     0.016 A 
ATOM     12  C   UNL A   1      44.319  31.582  28.704  1.00  0.00     0.010 A 
ATOM     13  C   UNL A   1      44.456  31.728  26.294  1.00  0.00     0.010 A 
ATOM     14  C   UNL A   1      44.600  31.005  27.473  1.00  0.00    -0.014 A 
BRANCH  14  15
ATOM     15  C   UNL A   1      45.092  29.640  27.492  1.00  0.00     0.031 A 
ATOM     16  C   UNL A   1      44.091  28.579  27.765  1.00  0.00     0.074 A 
ATOM     17  C   UNL A   1      46.387  29.375  27.245  1.00  0.00     0.049 A 
ATOM     18  N   UNL A   1      44.097  27.697  28.710  1.00  0.00    -0.248 NA
ATOM     19  C   UNL A   1      42.883  28.551  26.928  1.00  0.00     0.031 C 
ATOM     20  C   UNL A   1      47.410  30.302  26.751  1.00  0.00     0.029 A 
ATOM     21  N   UNL A   1      47.032  28.179  27.273  1.00  0.00    -0.354 N 
ATOM     22  C   UNL A   1      43.005  26.869  28.470  1.00  0.00     0.074 A 
ATOM     23  C   UNL A   1      42.223  27.518  27.451  1.00  0.00     0.031 C 
ATOM     24  C   UNL A   1      48.463  29.591  26.295  1.00  0.00     0.029 A 
ATOM     25  C   UNL A   1      48.239  28.186  26.588  1.00  0.00     0.049 A 
ATOM     26  H   UNL A   1      46.679  27.385  27.734  1.00  0.00     0.167 HD
ATOM     27  C   UNL A   1      42.929  25.611  28.985  1.00  0.00     0.034 A 
ATOM     28  C   UNL A   1      48.959  27.106  26.198  1.00  0.00     0.034 A 
ATOM     29  C   UNL A   1      43.764  25.463  30.152  1.00  0.00     0.049 A 
ATOM     30  C   UNL A   1      48.568  25.975  27.072  1.00  0.00     0.074 A 
ATOM     31  C   UNL A   1      43.824  26.100  31.378  1.00  0.00     0.029 A 
ATOM     32  N   UNL A   1      44.953  24.780  30.040  1.00  0.00    -0.354 N 
ATOM     33  N   UNL A   1      48.808  25.940  28.354  1.00  0.00    -0.248 NA
ATOM     34  C   UNL A   1      47.510  25.082  26.621  1.00  0.00     0.031 C 
ATOM     35  C   UNL A   1      45.213  26.188  31.681  1.00  0.00     0.029 A 
ATOM     36  C   UNL A   1      45.913  25.548  30.656  1.00  0.00     0.049 A 
ATOM     37  H   UNL A   1      45.090  23.909  29.602  1.00  0.00     0.167 HD
ATOM     38  C   UNL A   1      47.678  25.370  28.919  1.00  0.00     0.074 A 
ATOM     39  C   UNL A   1      46.967  24.759  27.799  1.00  0.00     0.031 C 
ATOM     40  C   UNL A   1      47.280  25.680  30.189  1.00  0.00     0.034 A 
BRANCH  27  41
ATOM     41  C   UNL A   1      42.325  24.435  28.253  1.00  0.00     0.023 A 
ATOM     42  C   UNL A   1      43.170  23.634  27.461  1.00  0.00     0.031 A 
ATOM     43  C   UNL A   1      40.937  24.230  28.075  1.00  0.00     0.131 A 
ATOM     44  C   UNL A   1      42.636  22.741  26.513  1.00  0.00     0.055 A 
ATOM     45  C   UNL A   1      40.413  23.290  27.184  1.00  0.00     0.041 A 
ATOM     46  F   UNL A   1      40.013  24.990  28.676  1.00  0.00    -0.206 F 
ATOM     47  C   UNL A   1      41.262  22.558  26.376  1.00  0.00     0.022 A 
BRANCH  44  48
ATOM     48  S   UNL A   1      43.763  21.955  25.331  1.00  0.00     0.124 S 
ATOM     49  O   UNL A   1      43.509  22.726  24.119  1.00  0.00    -0.237 OA
ATOM     50  O   UNL A   1      45.059  22.162  25.968  1.00  0.00    -0.237 OA
ATOM     51  O   UNL A   1      43.302  20.568  25.294  1.00  0.00    -0.744 OA
ENDBRANCH  44  48
ENDBRANCH  27  41
BRANCH  28  52
ATOM     52  C   UNL A   1      49.674  26.970  24.904  1.00  0.00     0.023 A 
ATOM     53  C   UNL A   1      49.005  26.986  23.667  1.00  0.00     0.031 A 
ATOM     54  C   UNL A   1      51.088  27.028  24.864  1.00  0.00     0.131 A 
ATOM     55  C   UNL A   1      49.744  27.041  22.464  1.00  0.00     0.055 A 
ATOM     56  C   UNL A   1      51.813  27.062  23.675  1.00  0.00     0.041 A 
ATOM     57  F   UNL A   1      51.814  27.136  25.989  1.00  0.00    -0.206 F 
ATOM     58  C   UNL A   1      51.141  27.077  22.465  1.00  0.00     0.022 A 
BRANCH  55  59
ATOM     59  S   UNL A   1      48.879  27.177  20.869  1.00  0.00     0.124 S 
ATOM     60  O   UNL A   1      47.667  27.899  21.236  1.00  0.00    -0.237 OA
ATOM     61  O   UNL A   1      49.843  27.902  20.051  1.00  0.00    -0.237 OA
ATOM     62  O   UNL A   1      48.670  25.783  20.476  1.00  0.00    -0.744 OA
ENDBRANCH  55  59
ENDBRANCH  28  52
BRANCH  40  63
ATOM     63  C   UNL A   1      48.243  26.434  31.088  1.00  0.00     0.023 A 
ATOM     64  C   UNL A   1      49.258  25.826  31.862  1.00  0.00     0.031 A 
ATOM     65  C   UNL A   1      48.209  27.840  31.050  1.00  0.00     0.131 A 
ATOM     66  C   UNL A   1      50.181  26.622  32.570  1.00  0.00     0.055 A 
ATOM     67  C   UNL A   1      49.135  28.625  31.738  1.00  0.00     0.041 A 
ATOM     68  F   UNL A   1      47.292  28.480  30.306  1.00  0.00    -0.206 F 
ATOM     69  C   UNL A   1      50.121  28.018  32.507  1.00  0.00     0.022 A 
BRANCH  66  70
ATOM     70  S   UNL A   1      51.476  25.853  33.595  1.00  0.00     0.124 S 
ATOM     71  O   UNL A   1      52.439  26.930  33.798  1.00  0.00    -0.237 OA
ATOM     72  O   UNL A   1      50.731  25.429  34.777  1.00  0.00    -0.237 OA
ATOM     73  O   UNL A   1      51.963  24.754  32.758  1.00  0.00    -0.744 OA
ENDBRANCH  66  70
ENDBRANCH  40  63
ENDBRANCH  14  15
ENDBRANCH   7   9
ENDBRANCH   6   7
ENDBRANCH   5   6
ENDBRANCH   4   5
ENDBRANCH   3   4
ENDBRANCH   2   3
ENDBRANCH   1   2
BRANCH   1  74
ATOM     74  O   UNL A   1      42.763  37.375  34.779  1.00  0.00    -0.377 OA
BRANCH  74  75
ATOM     75  C   UNL A   1      42.009  36.469  35.556  1.00  0.00     0.188 C 
BRANCH  75  76
ATOM     76  C   UNL A   1      40.964  35.642  34.774  1.00  0.00     0.188 C 
BRANCH  76  77
ATOM     77  O   UNL A   1      40.722  34.254  34.991  1.00  0.00    -0.376 OA
BRANCH  77  78
ATOM     78  C   UNL A   1      39.482  33.782  35.480  1.00  0.00     0.202 C 
BRANCH  78  79
ATOM     79  C   UNL A   1      38.797  32.721  34.616  1.00  0.00     0.261 C 
BRANCH  79  80
ATOM     80  O   UNL A   1      38.145  33.246  33.457  1.00  0.00    -0.458 OA
BRANCH  80  81
ATOM     81  C   UNL A   1      36.846  32.865  33.272  1.00  0.00     0.361 C 
ATOM     82  O   UNL A   1      36.125  32.356  34.124  1.00  0.00    -0.244 OA
BRANCH  81  83
ATOM     83  C   UNL A   1      36.408  33.146  31.917  1.00  0.00     0.198 A 
ATOM     84  N   UNL A   1      35.334  33.942  31.629  1.00  0.00    -0.122 NA
ATOM     85  C   UNL A   1      37.033  32.749  30.742  1.00  0.00     0.104 A 
ATOM     86  N   UNL A   1      35.290  34.106  30.319  1.00  0.00    -0.066 NA
ATOM     87  N   UNL A   1      36.263  33.347  29.770  1.00  0.00    -0.239 N 
BRANCH  85  88
ATOM     88  C   UNL A   1      38.183  31.869  30.596  1.00  0.00     0.002 A 
ATOM     89  C   UNL A   1      38.042  30.520  30.963  1.00  0.00     0.012 A 
ATOM     90  C   UNL A   1      39.452  32.358  30.271  1.00  0.00     0.012 A 
ATOM     91  C   UNL A   1      39.152  29.680  31.041  1.00  0.00     0.021 A 
ATOM     92  C   UNL A   1      40.565  31.510  30.331  1.00  0.00     0.021 A 
ATOM     93  C   UNL A   1      40.412  30.182  30.728  1.00  0.00     0.041 A 
ATOM     94  Cl  UNL A   1      41.787  29.158  30.859  1.00  0.00    -0.084 Cl
ENDBRANCH  85  88
BRANCH  87  95
ATOM     95  C   UNL A   1      36.295  33.193  28.324  1.00  0.00     0.183 C 
BRANCH  95  96
ATOM     96  C   UNL A   1      35.568  31.932  27.912  1.00  0.00    -0.008 A 
ATOM     97  C   UNL A   1      36.297  30.731  27.821  1.00  0.00     0.007 A 
ATOM     98  C   UNL A   1      34.177  31.886  27.715  1.00  0.00     0.046 A 
ATOM     99  C   UNL A   1      35.654  29.522  27.554  1.00  0.00     0.000 A 
ATOM    100  C   UNL A   1      33.537  30.669  27.457  1.00  0.00     0.021 A 
ATOM    101  Cl  UNL A   1      33.188  33.301  27.770  1.00  0.00    -0.084 Cl
ATOM    102  C   UNL A   1      34.274  29.488  27.380  1.00  0.00     0.002 A 
ENDBRANCH  95  96
ENDBRANCH  87  95
ENDBRANCH  81  83
ENDBRANCH  80  81
ENDBRANCH  79  80
ENDBRANCH  78  79
ENDBRANCH  77  78
ENDBRANCH  76  77
ENDBRANCH  75  76
ENDBRANCH  74  75
ENDBRANCH   1  74
TORSDOF 26
ENDMDL
MODEL 2
REMARK VINA RESULT:      -8.4      5.571      9.411
REMARK SMILES O=C(OCCOCCOCCOCCOC(=O)c1nnn(Cc2ccccc2Cl)c1-c1ccc(Cl)cc1)c1ccc(-c2c3nc(c(-c4cc(S(=O)(=O)[O-])ccc4F)c4ccc([nH]4)c(-c4cc(S(=O)(=O)[O-])ccc4F)c4nc(c(-c5cc(S(=O)(=O)[O-])ccc5F)c5ccc2[nH]5)C=C4)C=C3)cc1
REMARK SMILES IDX 8 1 7 2 6 3 5 4 4 5 3 6 2 7 1 8 38 9 39 10 100 11 40 12
REMARK SMILES IDX 99 13 41 14 42 15 43 16 93 17 44 18 98 19 92 20 94 21 45 22
REMARK SMILES IDX 97 23 91 24 90 25 46 27 78 28 58 29 77 30 59 31 62 32 76 33
REMARK SMILES IDX 95 34 60 35 61 36 75 38 96 39 63 40 47 41 48 42 56 43 49 44
REMARK SMILES IDX 55 45 57 46 54 47 50 48 51 49 52 50 53 51 79 52 80 53 88 54
REMARK SMILES IDX 81 55 87 56 89 57 86 58 82 59 83 60 84 61 85 62 64 63 65 64
REMARK SMILES IDX 73 65 66 66 72 67 74 68 71 69 67 70 68 71 69 72 70 73 9 74
REMARK SMILES IDX 10 75 11 76 12 77 13 78 14 79 15 80 16 81 17 82 18 83 19 84
REMARK SMILES IDX 30 85 20 86 21 87 31 88 32 89 37 90 33 91 36 92 34 93 35 94
REMARK SMILES IDX 22 95 23 96 24 97 28 98 25 99 27 100 29 101 26 102
REMARK H PARENT 94 26 62 37
REMARK Flexibility Score: inf
ROOT
ATOM      1  C   UNL A   1      37.377  31.896  33.330  1.00  0.00     0.188 C 
ENDROOT
BRANCH   1   2
ATOM      2  C   UNL A   1      36.191  32.435  32.516  1.00  0.00     0.188 C 
BRANCH   2   3
ATOM      3  O   UNL A   1      36.157  33.731  31.945  1.00  0.00    -0.376 OA
BRANCH   3   4
ATOM      4  C   UNL A   1      35.553  34.142  30.735  1.00  0.00     0.202 C 
BRANCH   4   5
ATOM      5  C   UNL A   1      34.399  33.429  30.022  1.00  0.00     0.261 C 
BRANCH   5   6
ATOM      6  O   UNL A   1      34.601  32.062  29.691  1.00  0.00    -0.460 OA
BRANCH   6   7
ATOM      7  C   UNL A   1      35.199  31.519  28.614  1.00  0.00     0.338 C 
ATOM      8  O   UNL A   1      34.583  31.554  27.547  1.00  0.00    -0.246 OA
BRANCH   7   9
ATOM      9  C   UNL A   1      36.501  30.794  28.653  1.00  0.00     0.060 A 
ATOM     10  C   UNL A   1      36.719  29.457  28.310  1.00  0.00     0.016 A 
ATOM     11  C   UNL A   1      37.604  31.567  29.064  1.00  0.00     0.016 A 
ATOM     12  C   UNL A   1      37.950  28.865  28.524  1.00  0.00     0.010 A 
ATOM     13  C   UNL A   1      38.850  30.990  29.245  1.00  0.00     0.010 A 
ATOM     14  C   UNL A   1      38.990  29.621  29.046  1.00  0.00    -0.014 A 
BRANCH  14  15
ATOM     15  C   UNL A   1      40.196  28.902  29.410  1.00  0.00     0.031 A 
ATOM     16  C   UNL A   1      40.513  28.830  30.859  1.00  0.00     0.074 A 
ATOM     17  C   UNL A   1      40.956  28.317  28.468  1.00  0.00     0.049 A 
ATOM     18  N   UNL A   1      41.582  29.229  31.465  1.00  0.00    -0.248 NA
ATOM     19  C   UNL A   1      39.466  28.327  31.760  1.00  0.00     0.031 C 
ATOM     20  C   UNL A   1      40.635  28.131  27.050  1.00  0.00     0.029 A 
ATOM     21  N   UNL A   1      42.135  27.655  28.614  1.00  0.00    -0.354 N 
ATOM     22  C   UNL A   1      41.437  28.842  32.794  1.00  0.00     0.074 A 
ATOM     23  C   UNL A   1      40.070  28.418  32.944  1.00  0.00     0.031 C 
ATOM     24  C   UNL A   1      41.465  27.202  26.530  1.00  0.00     0.029 A 
ATOM     25  C   UNL A   1      42.446  26.837  27.537  1.00  0.00     0.049 A 
ATOM     26  H   UNL A   1      42.712  27.747  29.406  1.00  0.00     0.167 HD
ATOM     27  C   UNL A   1      42.507  28.710  33.624  1.00  0.00     0.034 A 
ATOM     28  C   UNL A   1      43.381  25.856  27.505  1.00  0.00     0.034 A 
ATOM     29  C   UNL A   1      43.634  29.487  33.169  1.00  0.00     0.049 A 
ATOM     30  C   UNL A   1      44.370  26.153  28.568  1.00  0.00     0.074 A 
ATOM     31  C   UNL A   1      43.835  30.830  32.914  1.00  0.00     0.029 A 
ATOM     32  N   UNL A   1      44.688  28.841  32.564  1.00  0.00    -0.354 N 
ATOM     33  N   UNL A   1      45.155  27.195  28.549  1.00  0.00    -0.248 NA
ATOM     34  C   UNL A   1      44.185  25.547  29.878  1.00  0.00     0.031 C 
ATOM     35  C   UNL A   1      44.676  30.867  31.765  1.00  0.00     0.029 A 
ATOM     36  C   UNL A   1      44.987  29.549  31.424  1.00  0.00     0.049 A 
ATOM     37  H   UNL A   1      45.141  28.028  32.886  1.00  0.00     0.167 HD
ATOM     38  C   UNL A   1      45.210  27.630  29.864  1.00  0.00     0.074 A 
ATOM     39  C   UNL A   1      44.691  26.514  30.650  1.00  0.00     0.031 C 
ATOM     40  C   UNL A   1      45.408  28.947  30.173  1.00  0.00     0.034 A 
BRANCH  27  41
ATOM     41  C   UNL A   1      42.622  27.643  34.688  1.00  0.00     0.023 A 
ATOM     42  C   UNL A   1      43.399  26.502  34.410  1.00  0.00     0.031 A 
ATOM     43  C   UNL A   1      41.796  27.560  35.834  1.00  0.00     0.131 A 
ATOM     44  C   UNL A   1      43.290  25.344  35.203  1.00  0.00     0.055 A 
ATOM     45  C   UNL A   1      41.745  26.434  36.658  1.00  0.00     0.041 A 
ATOM     46  F   UNL A   1      40.922  28.520  36.162  1.00  0.00    -0.206 F 
ATOM     47  C   UNL A   1      42.474  25.306  36.331  1.00  0.00     0.022 A 
BRANCH  44  48
ATOM     48  S   UNL A   1      44.093  23.823  34.632  1.00  0.00     0.124 S 
ATOM     49  O   UNL A   1      45.135  24.347  33.755  1.00  0.00    -0.237 OA
ATOM     50  O   UNL A   1      44.543  23.230  35.886  1.00  0.00    -0.237 OA
ATOM     51  O   UNL A   1      43.014  23.105  33.955  1.00  0.00    -0.744 OA
ENDBRANCH  44  48
ENDBRANCH  27  41
BRANCH  28  52
ATOM     52  C   UNL A   1      43.224  24.540  26.836  1.00  0.00     0.023 A 
ATOM     53  C   UNL A   1      42.222  23.623  27.200  1.00  0.00     0.031 A 
ATOM     54  C   UNL A   1      43.956  24.250  25.659  1.00  0.00     0.131 A 
ATOM     55  C   UNL A   1      41.997  22.472  26.412  1.00  0.00     0.055 A 
ATOM     56  C   UNL A   1      43.745  23.102  24.897  1.00  0.00     0.041 A 
ATOM     57  F   UNL A   1      44.853  25.118  25.163  1.00  0.00    -0.206 F 
ATOM     58  C   UNL A   1      42.755  22.209  25.268  1.00  0.00     0.022 A 
BRANCH  55  59
ATOM     59  S   UNL A   1      40.627  21.345  26.817  1.00  0.00     0.124 S 
ATOM     60  O   UNL A   1      40.835  21.103  28.239  1.00  0.00    -0.237 OA
ATOM     61  O   UNL A   1      39.456  22.136  26.457  1.00  0.00    -0.237 OA
ATOM     62  O   UNL A   1      40.871  20.189  25.953  1.00  0.00    -0.744 OA
ENDBRANCH  55  59
ENDBRANCH  28  52
BRANCH  40  63
ATOM     63  C   UNL A   1      45.856  29.892  29.073  1.00  0.00     0.023 A 
ATOM     64  C   UNL A   1      47.205  30.110  28.707  1.00  0.00     0.031 A 
ATOM     65  C   UNL A   1      44.863  30.492  28.279  1.00  0.00     0.131 A 
ATOM     66  C   UNL A   1      47.514  30.913  27.590  1.00  0.00     0.055 A 
ATOM     67  C   UNL A   1      45.172  31.272  27.165  1.00  0.00     0.041 A 
ATOM     68  F   UNL A   1      43.562  30.296  28.552  1.00  0.00    -0.206 F 
ATOM     69  C   UNL A   1      46.500  31.492  26.820  1.00  0.00     0.022 A 
BRANCH  66  70
ATOM     70  S   UNL A   1      49.246  31.227  27.124  1.00  0.00     0.124 S 
ATOM     71  O   UNL A   1      49.926  31.379  28.405  1.00  0.00    -0.237 OA
ATOM     72  O   UNL A   1      49.587  30.032  26.356  1.00  0.00    -0.237 OA
ATOM     73  O   UNL A   1      49.166  32.455  26.329  1.00  0.00    -0.744 OA
ENDBRANCH  66  70
ENDBRANCH  40  63
ENDBRANCH  14  15
ENDBRANCH   7   9
ENDBRANCH   6   7
ENDBRANCH   5   6
ENDBRANCH   4   5
ENDBRANCH   3   4
ENDBRANCH   2   3
ENDBRANCH   1   2
BRANCH   1  74
ATOM     74  O   UNL A   1      37.148  31.760  34.723  1.00  0.00    -0.377 OA
BRANCH  74  75
ATOM     75  C   UNL A   1      38.179  31.086  35.415  1.00  0.00     0.188 C 
BRANCH  75  76
ATOM     76  C   UNL A   1      38.996  31.962  36.391  1.00  0.00     0.188 C 
BRANCH  76  77
ATOM     77  O   UNL A   1      38.417  32.776  37.406  1.00  0.00    -0.376 OA
BRANCH  77  78
ATOM     78  C   UNL A   1      38.596  34.179  37.430  1.00  0.00     0.202 C 
BRANCH  78  79
ATOM     79  C   UNL A   1      39.728  34.680  38.329  1.00  0.00     0.261 C 
BRANCH  79  80
ATOM     80  O   UNL A   1      40.114  33.756  39.350  1.00  0.00    -0.458 OA
BRANCH  80  81
ATOM     81  C   UNL A   1      39.507  33.911  40.564  1.00  0.00     0.361 C 
ATOM     82  O   UNL A   1      39.045  34.959  41.000  1.00  0.00    -0.244 OA
BRANCH  81  83
ATOM     83  C   UNL A   1      39.466  32.655  41.290  1.00  0.00     0.198 A 
ATOM     84  N   UNL A   1      40.589  32.004  41.720  1.00  0.00    -0.122 NA
ATOM     85  C   UNL A   1      38.332  31.984  41.729  1.00  0.00     0.104 A 
ATOM     86  N   UNL A   1      40.206  30.978  42.460  1.00  0.00    -0.066 NA
ATOM     87  N   UNL A   1      38.857  30.917  42.422  1.00  0.00    -0.239 N 
BRANCH  85  88
ATOM     88  C   UNL A   1      36.940  32.314  41.461  1.00  0.00     0.002 A 
ATOM     89  C   UNL A   1      36.440  32.097  40.166  1.00  0.00     0.012 A 
ATOM     90  C   UNL A   1      36.148  32.993  42.392  1.00  0.00     0.012 A 
ATOM     91  C   UNL A   1      35.186  32.579  39.793  1.00  0.00     0.021 A 
ATOM     92  C   UNL A   1      34.882  33.462  42.024  1.00  0.00     0.021 A 
ATOM     93  C   UNL A   1      34.413  33.265  40.724  1.00  0.00     0.041 A 
ATOM     94  Cl  UNL A   1      32.883  33.894  40.256  1.00  0.00    -0.084 Cl
ENDBRANCH  85  88
BRANCH  87  95
ATOM     95  C   UNL A   1      38.196  29.754  42.991  1.00  0.00     0.183 C 
BRANCH  95  96
ATOM     96  C   UNL A   1      38.304  29.770  44.500  1.00  0.00    -0.008 A 
ATOM     97  C   UNL A   1      39.566  29.557  45.088  1.00  0.00     0.007 A 
ATOM     98  C   UNL A   1      37.222  30.089  45.338  1.00  0.00     0.046 A 
ATOM     99  C   UNL A   1      39.741  29.672  46.468  1.00  0.00     0.000 A 
ATOM    100  C   UNL A   1      37.405  30.212  46.719  1.00  0.00     0.021 A 
ATOM    101  Cl  UNL A   1      35.625  30.339  44.729  1.00  0.00    -0.084 Cl
ATOM    102  C   UNL A   1      38.664  30.007  47.283  1.00  0.00     0.002 A 
ENDBRANCH  95  96
ENDBRANCH  87  95
ENDBRANCH  81  83
ENDBRANCH  80  81
ENDBRANCH  79  80
ENDBRANCH  78  79
ENDBRANCH  77  78
ENDBRANCH  76  77
ENDBRANCH  75  76
ENDBRANCH  74  75
ENDBRANCH   1  74
TORSDOF 26
ENDMDL
MODEL 3
REMARK VINA RESULT:      -8.4      4.970     11.837
REMARK SMILES O=C(OCCOCCOCCOCCOC(=O)c1nnn(Cc2ccccc2Cl)c1-c1ccc(Cl)cc1)c1ccc(-c2c3nc(c(-c4cc(S(=O)(=O)[O-])ccc4F)c4ccc([nH]4)c(-c4cc(S(=O)(=O)[O-])ccc4F)c4nc(c(-c5cc(S(=O)(=O)[O-])ccc5F)c5ccc2[nH]5)C=C4)C=C3)cc1
REMARK SMILES IDX 8 1 7 2 6 3 5 4 4 5 3 6 2 7 1 8 38 9 39 10 100 11 40 12
REMARK SMILES IDX 99 13 41 14 42 15 43 16 93 17 44 18 98 19 92 20 94 21 45 22
REMARK SMILES IDX 97 23 91 24 90 25 46 27 78 28 58 29 77 30 59 31 62 32 76 33
REMARK SMILES IDX 95 34 60 35 61 36 75 38 96 39 63 40 47 41 48 42 56 43 49 44
REMARK SMILES IDX 55 45 57 46 54 47 50 48 51 49 52 50 53 51 79 52 80 53 88 54
REMARK SMILES IDX 81 55 87 56 89 57 86 58 82 59 83 60 84 61 85 62 64 63 65 64
REMARK SMILES IDX 73 65 66 66 72 67 74 68 71 69 67 70 68 71 69 72 70 73 9 74
REMARK SMILES IDX 10 75 11 76 12 77 13 78 14 79 15 80 16 81 17 82 18 83 19 84
REMARK SMILES IDX 30 85 20 86 21 87 31 88 32 89 37 90 33 91 36 92 34 93 35 94
REMARK SMILES IDX 22 95 23 96 24 97 28 98 25 99 27 100 29 101 26 102
REMARK H PARENT 94 26 62 37
REMARK Flexibility Score: inf
ROOT
ATOM      1  C   UNL A   1      39.579  21.111  26.078  1.00  0.00     0.188 C 
ENDROOT
BRANCH   1   2
ATOM      2  C   UNL A   1      40.865  21.863  26.450  1.00  0.00     0.188 C 
BRANCH   2   3
ATOM      3  O   UNL A   1      41.967  22.014  25.572  1.00  0.00    -0.376 OA
BRANCH   3   4
ATOM      4  C   UNL A   1      43.346  21.951  25.875  1.00  0.00     0.202 C 
BRANCH   4   5
ATOM      5  C   UNL A   1      44.194  23.099  26.433  1.00  0.00     0.261 C 
BRANCH   5   6
ATOM      6  O   UNL A   1      44.135  23.311  27.836  1.00  0.00    -0.460 OA
BRANCH   6   7
ATOM      7  C   UNL A   1      43.094  23.686  28.605  1.00  0.00     0.338 C 
ATOM      8  O   UNL A   1      42.269  22.820  28.901  1.00  0.00    -0.246 OA
BRANCH   7   9
ATOM      9  C   UNL A   1      42.827  25.090  29.029  1.00  0.00     0.060 A 
ATOM     10  C   UNL A   1      41.680  25.838  28.754  1.00  0.00     0.016 A 
ATOM     11  C   UNL A   1      43.846  25.687  29.797  1.00  0.00     0.016 A 
ATOM     12  C   UNL A   1      41.614  27.178  29.086  1.00  0.00     0.010 A 
ATOM     13  C   UNL A   1      43.772  27.020  30.165  1.00  0.00     0.010 A 
ATOM     14  C   UNL A   1      42.685  27.774  29.736  1.00  0.00    -0.014 A 
BRANCH  14  15
ATOM     15  C   UNL A   1      42.629  29.215  29.896  1.00  0.00     0.031 A 
ATOM     16  C   UNL A   1      43.626  30.007  29.133  1.00  0.00     0.074 A 
ATOM     17  C   UNL A   1      41.693  29.781  30.679  1.00  0.00     0.049 A 
ATOM     18  N   UNL A   1      44.502  30.840  29.587  1.00  0.00    -0.248 NA
ATOM     19  C   UNL A   1      43.715  29.774  27.684  1.00  0.00     0.031 C 
ATOM     20  C   UNL A   1      40.534  29.132  31.298  1.00  0.00     0.029 A 
ATOM     21  N   UNL A   1      41.522  31.094  30.989  1.00  0.00    -0.354 N 
ATOM     22  C   UNL A   1      45.118  31.398  28.470  1.00  0.00     0.074 A 
ATOM     23  C   UNL A   1      44.694  30.610  27.341  1.00  0.00     0.031 C 
ATOM     24  C   UNL A   1      39.658  30.080  31.692  1.00  0.00     0.029 A 
ATOM     25  C   UNL A   1      40.255  31.386  31.474  1.00  0.00     0.049 A 
ATOM     26  H   UNL A   1      42.227  31.771  30.880  1.00  0.00     0.167 HD
ATOM     27  C   UNL A   1      45.773  32.588  28.529  1.00  0.00     0.034 A 
ATOM     28  C   UNL A   1      39.695  32.614  31.597  1.00  0.00     0.034 A 
ATOM     29  C   UNL A   1      46.197  32.897  29.873  1.00  0.00     0.049 A 
ATOM     30  C   UNL A   1      40.799  33.599  31.663  1.00  0.00     0.074 A 
ATOM     31  C   UNL A   1      47.005  32.260  30.795  1.00  0.00     0.029 A 
ATOM     32  N   UNL A   1      45.500  33.841  30.592  1.00  0.00    -0.354 N 
ATOM     33  N   UNL A   1      41.655  33.656  32.647  1.00  0.00    -0.248 NA
ATOM     34  C   UNL A   1      41.241  34.233  30.429  1.00  0.00     0.031 C 
ATOM     35  C   UNL A   1      46.381  32.491  32.056  1.00  0.00     0.029 A 
ATOM     36  C   UNL A   1      45.266  33.302  31.835  1.00  0.00     0.049 A 
ATOM     37  H   UNL A   1      45.222  34.731  30.276  1.00  0.00     0.167 HD
ATOM     38  C   UNL A   1      42.875  33.932  32.051  1.00  0.00     0.074 A 
ATOM     39  C   UNL A   1      42.539  34.390  30.706  1.00  0.00     0.031 C 
ATOM     40  C   UNL A   1      44.051  33.505  32.601  1.00  0.00     0.034 A 
BRANCH  27  41
ATOM     41  C   UNL A   1      45.768  33.610  27.416  1.00  0.00     0.023 A 
ATOM     42  C   UNL A   1      47.004  34.045  26.901  1.00  0.00     0.031 A 
ATOM     43  C   UNL A   1      44.639  34.370  27.031  1.00  0.00     0.131 A 
ATOM     44  C   UNL A   1      47.087  35.207  26.110  1.00  0.00     0.055 A 
ATOM     45  C   UNL A   1      44.718  35.481  26.187  1.00  0.00     0.041 A 
ATOM     46  F   UNL A   1      43.416  34.144  27.526  1.00  0.00    -0.206 F 
ATOM     47  C   UNL A   1      45.950  35.922  25.742  1.00  0.00     0.022 A 
BRANCH  44  48
ATOM     48  S   UNL A   1      48.726  35.875  25.720  1.00  0.00     0.124 S 
ATOM     49  O   UNL A   1      48.388  37.153  25.101  1.00  0.00    -0.237 OA
ATOM     50  O   UNL A   1      49.346  35.941  27.038  1.00  0.00    -0.237 OA
ATOM     51  O   UNL A   1      49.292  34.876  24.814  1.00  0.00    -0.744 OA
ENDBRANCH  44  48
ENDBRANCH  27  41
BRANCH  28  52
ATOM     52  C   UNL A   1      38.278  32.946  31.302  1.00  0.00     0.023 A 
ATOM     53  C   UNL A   1      37.344  33.231  32.314  1.00  0.00     0.031 A 
ATOM     54  C   UNL A   1      37.869  33.193  29.970  1.00  0.00     0.131 A 
ATOM     55  C   UNL A   1      36.063  33.722  31.975  1.00  0.00     0.055 A 
ATOM     56  C   UNL A   1      36.598  33.659  29.639  1.00  0.00     0.041 A 
ATOM     57  F   UNL A   1      38.724  33.065  28.941  1.00  0.00    -0.206 F 
ATOM     58  C   UNL A   1      35.688  33.934  30.645  1.00  0.00     0.022 A 
BRANCH  55  59
ATOM     59  S   UNL A   1      34.895  34.199  33.286  1.00  0.00     0.124 S 
ATOM     60  O   UNL A   1      35.328  33.367  34.402  1.00  0.00    -0.237 OA
ATOM     61  O   UNL A   1      35.134  35.631  33.413  1.00  0.00    -0.237 OA
ATOM     62  O   UNL A   1      33.590  33.845  32.724  1.00  0.00    -0.744 OA
ENDBRANCH  55  59
ENDBRANCH  28  52
BRANCH  40  63
ATOM     63  C   UNL A   1      44.038  32.973  34.022  1.00  0.00     0.023 A 
ATOM     64  C   UNL A   1      43.672  31.654  34.379  1.00  0.00     0.031 A 
ATOM     65  C   UNL A   1      44.548  33.802  35.038  1.00  0.00     0.131 A 
ATOM     66  C   UNL A   1      43.811  31.217  35.712  1.00  0.00     0.055 A 
ATOM     67  C   UNL A   1      44.700  33.361  36.352  1.00  0.00     0.041 A 
ATOM     68  F   UNL A   1      44.947  35.054  34.758  1.00  0.00    -0.206 F 
ATOM     69  C   UNL A   1      44.325  32.067  36.696  1.00  0.00     0.022 A 
BRANCH  66  70
ATOM     70  S   UNL A   1      43.317  29.531  36.192  1.00  0.00     0.124 S 
ATOM     71  O   UNL A   1      42.660  29.011  34.998  1.00  0.00    -0.237 OA
ATOM     72  O   UNL A   1      44.594  28.915  36.541  1.00  0.00    -0.237 OA
ATOM     73  O   UNL A   1      42.420  29.752  37.330  1.00  0.00    -0.744 OA
ENDBRANCH  66  70
ENDBRANCH  40  63
ENDBRANCH  14  15
ENDBRANCH   7   9
ENDBRANCH   6   7
ENDBRANCH   5   6
ENDBRANCH   4   5
ENDBRANCH   3   4
ENDBRANCH   2   3
ENDBRANCH   1   2
BRANCH   1  74
ATOM     74  O   UNL A   1      38.590  21.885  25.419  1.00  0.00    -0.377 OA
BRANCH  74  75
ATOM     75  C   UNL A   1      37.531  21.126  24.875  1.00  0.00     0.188 C 
BRANCH  75  76
ATOM     76  C   UNL A   1      36.119  21.713  25.099  1.00  0.00     0.188 C 
BRANCH  76  77
ATOM     77  O   UNL A   1      35.573  22.789  24.339  1.00  0.00    -0.376 OA
BRANCH  77  78
ATOM     78  C   UNL A   1      34.300  22.701  23.732  1.00  0.00     0.202 C 
BRANCH  78  79
ATOM     79  C   UNL A   1      33.971  23.814  22.735  1.00  0.00     0.261 C 
BRANCH  79  80
ATOM     80  O   UNL A   1      32.640  24.324  22.849  1.00  0.00    -0.458 OA
BRANCH  80  81
ATOM     81  C   UNL A   1      32.454  25.618  22.454  1.00  0.00     0.361 C 
ATOM     82  O   UNL A   1      31.866  25.976  21.440  1.00  0.00    -0.244 OA
BRANCH  81  83
ATOM     83  C   UNL A   1      33.044  26.542  23.405  1.00  0.00     0.198 A 
ATOM     84  N   UNL A   1      33.929  27.522  23.045  1.00  0.00    -0.122 NA
ATOM     85  C   UNL A   1      32.753  26.641  24.759  1.00  0.00     0.104 A 
ATOM     86  N   UNL A   1      34.164  28.268  24.110  1.00  0.00    -0.066 NA
ATOM     87  N   UNL A   1      33.516  27.716  25.158  1.00  0.00    -0.239 N 
BRANCH  85  88
ATOM     88  C   UNL A   1      31.894  25.776  25.553  1.00  0.00     0.002 A 
ATOM     89  C   UNL A   1      32.448  24.607  26.102  1.00  0.00     0.012 A 
ATOM     90  C   UNL A   1      30.513  25.979  25.638  1.00  0.00     0.012 A 
ATOM     91  C   UNL A   1      31.637  23.640  26.694  1.00  0.00     0.021 A 
ATOM     92  C   UNL A   1      29.700  25.017  26.248  1.00  0.00     0.021 A 
ATOM     93  C   UNL A   1      30.263  23.848  26.760  1.00  0.00     0.041 A 
ATOM     94  Cl  UNL A   1      29.256  22.640  27.456  1.00  0.00    -0.084 Cl
ENDBRANCH  85  88
BRANCH  87  95
ATOM     95  C   UNL A   1      33.779  28.233  26.492  1.00  0.00     0.183 C 
BRANCH  95  96
ATOM     96  C   UNL A   1      33.244  29.641  26.627  1.00  0.00    -0.008 A 
ATOM     97  C   UNL A   1      31.999  29.949  26.047  1.00  0.00     0.007 A 
ATOM     98  C   UNL A   1      33.887  30.629  27.393  1.00  0.00     0.046 A 
ATOM     99  C   UNL A   1      31.409  31.199  26.238  1.00  0.00     0.000 A 
ATOM    100  C   UNL A   1      33.287  31.878  27.588  1.00  0.00     0.021 A 
ATOM    101  Cl  UNL A   1      35.432  30.374  28.122  1.00  0.00    -0.084 Cl
ATOM    102  C   UNL A   1      32.049  32.161  27.014  1.00  0.00     0.002 A 
ENDBRANCH  95  96
ENDBRANCH  87  95
ENDBRANCH  81  83
ENDBRANCH  80  81
ENDBRANCH  79  80
ENDBRANCH  78  79
ENDBRANCH  77  78
ENDBRANCH  76  77
ENDBRANCH  75  76
ENDBRANCH  74  75
ENDBRANCH   1  74
TORSDOF 26
ENDMDL
