MODEL 1
REMARK VINA RESULT:      -9.5      0.000      0.000
REMARK SMILES Cc1ccc(/C=C/C(=O)N2C[C@@H](O)C[C@H]2C(=O)OCCOCCOCCOCCOC(=O)c2ccc(-c3c4nc(c(-c5cc(S(=O)(=O)[O-])ccc5F)c5ccc([nH]5)c(-c5cc(S(=O)(=O)[O-])ccc5F)c5nc(c(-c6cc(S(=O)(=O)[O-])ccc6F)c6ccc3[nH]6)C=C5)C=C4)cc2)c(C)c1
REMARK SMILES IDX 24 1 23 2 22 3 21 4 20 5 19 6 18 7 16 8 17 9 15 10 10 11
REMARK SMILES IDX 11 12 12 13 14 14 8 15 9 16 7 17 6 18 5 19 1 20 2 21 3 22
REMARK SMILES IDX 98 23 4 24 96 25 97 26 13 27 25 29 26 30 27 31 28 32 29 33
REMARK SMILES IDX 30 34 31 35 32 36 33 37 34 38 95 39 35 40 94 41 36 42 37 43
REMARK SMILES IDX 38 44 88 45 39 46 93 47 87 48 89 49 40 50 92 51 86 52 85 53
REMARK SMILES IDX 41 55 73 56 53 57 72 58 54 59 57 60 71 61 90 62 55 63 56 64
REMARK SMILES IDX 70 66 91 67 58 68 42 69 43 70 51 71 44 72 50 73 52 74 49 75
REMARK SMILES IDX 45 76 46 77 47 78 48 79 74 80 75 81 83 82 76 83 82 84 84 85
REMARK SMILES IDX 81 86 77 87 78 88 79 89 80 90 59 91 60 92 68 93 61 94 67 95
REMARK SMILES IDX 69 96 66 97 62 98 63 99 64 100 65 101
REMARK H PARENT 13 28 89 54 57 65
REMARK Flexibility Score: inf
ROOT
ATOM      1  O   UNL A   1      32.913  26.829  26.251  1.00  0.00    -0.377 OA
ENDROOT
BRANCH   1   2
ATOM      2  C   UNL A   1      32.032  25.806  26.656  1.00  0.00     0.188 C 
BRANCH   2   3
ATOM      3  C   UNL A   1      30.641  25.646  26.030  1.00  0.00     0.188 C 
BRANCH   3   4
ATOM      4  O   UNL A   1      29.882  24.501  26.339  1.00  0.00    -0.376 OA
BRANCH   4   5
ATOM      5  C   UNL A   1      30.485  23.249  26.585  1.00  0.00     0.202 C 
BRANCH   5   6
ATOM      6  C   UNL A   1      31.475  22.519  25.655  1.00  0.00     0.261 C 
BRANCH   6   7
ATOM      7  O   UNL A   1      32.790  22.202  26.138  1.00  0.00    -0.462 OA
BRANCH   7   8
ATOM      8  C   UNL A   1      33.381  21.102  25.603  1.00  0.00     0.329 C 
ATOM      9  O   UNL A   1      33.208  19.962  26.026  1.00  0.00    -0.250 OA
BRANCH   8  10
ATOM     10  C   UNL A   1      34.436  21.413  24.512  1.00  0.00     0.198 C 
ATOM     11  N   UNL A   1      34.937  22.775  24.218  1.00  0.00    -0.323 N 
ATOM     12  C   UNL A   1      36.270  22.955  24.758  1.00  0.00     0.152 C 
ATOM     13  C   UNL A   1      36.863  21.562  24.580  1.00  0.00     0.136 C 
ATOM     14  C   UNL A   1      35.698  20.638  24.927  1.00  0.00     0.071 C 
BRANCH  11  15
ATOM     15  C   UNL A   1      34.370  23.539  23.218  1.00  0.00     0.247 C 
ATOM     16  O   UNL A   1      34.365  23.191  22.039  1.00  0.00    -0.270 OA
BRANCH  15  17
ATOM     17  C   UNL A   1      33.743  24.834  23.591  1.00  0.00     0.072 C 
ATOM     18  C   UNL A   1      33.229  25.550  22.580  1.00  0.00     0.014 C 
BRANCH  18  19
ATOM     19  C   UNL A   1      32.419  26.784  22.618  1.00  0.00    -0.023 A 
ATOM     20  C   UNL A   1      29.643  29.949  23.655  1.00  0.00     0.044 C 
ATOM     21  C   UNL A   1      30.587  28.869  23.215  1.00  0.00    -0.051 A 
ATOM     22  C   UNL A   1      30.122  27.615  22.834  1.00  0.00     0.004 A 
ATOM     23  C   UNL A   1      31.969  29.097  23.223  1.00  0.00     0.007 A 
ATOM     24  C   UNL A   1      31.027  26.589  22.540  1.00  0.00     0.008 A 
ATOM     25  C   UNL A   1      32.898  28.074  22.924  1.00  0.00    -0.044 A 
ATOM     26  C   UNL A   1      34.351  28.446  23.049  1.00  0.00     0.045 C 
ENDBRANCH  18  19
ENDBRANCH  15  17
ENDBRANCH  11  15
BRANCH  13  27
ATOM     27  O   UNL A   1      37.988  21.316  25.399  1.00  0.00    -0.391 OA
ATOM     28  H   UNL A   1      37.851  21.725  26.268  1.00  0.00     0.211 HD
ENDBRANCH  13  27
ENDBRANCH   8  10
ENDBRANCH   7   8
ENDBRANCH   6   7
ENDBRANCH   5   6
ENDBRANCH   4   5
ENDBRANCH   3   4
ENDBRANCH   2   3
ENDBRANCH   1   2
BRANCH   1  29
ATOM     29  C   UNL A   1      32.999  28.034  26.985  1.00  0.00     0.188 C 
BRANCH  29  30
ATOM     30  C   UNL A   1      31.781  28.950  27.169  1.00  0.00     0.188 C 
BRANCH  30  31
ATOM     31  O   UNL A   1      31.885  30.224  26.558  1.00  0.00    -0.376 OA
BRANCH  31  32
ATOM     32  C   UNL A   1      32.892  31.112  27.010  1.00  0.00     0.202 C 
BRANCH  32  33
ATOM     33  C   UNL A   1      32.486  32.554  27.359  1.00  0.00     0.261 C 
BRANCH  33  34
ATOM     34  O   UNL A   1      33.554  33.494  27.535  1.00  0.00    -0.460 OA
BRANCH  34  35
ATOM     35  C   UNL A   1      33.624  34.111  28.739  1.00  0.00     0.338 C 
ATOM     36  O   UNL A   1      32.804  34.860  29.221  1.00  0.00    -0.246 OA
BRANCH  35  37
ATOM     37  C   UNL A   1      34.797  33.556  29.450  1.00  0.00     0.060 A 
ATOM     38  C   UNL A   1      36.070  34.035  29.116  1.00  0.00     0.016 A 
ATOM     39  C   UNL A   1      34.639  32.593  30.449  1.00  0.00     0.016 A 
ATOM     40  C   UNL A   1      37.195  33.528  29.763  1.00  0.00     0.010 A 
ATOM     41  C   UNL A   1      35.771  32.063  31.076  1.00  0.00     0.010 A 
ATOM     42  C   UNL A   1      37.055  32.504  30.707  1.00  0.00    -0.014 A 
BRANCH  42  43
ATOM     43  C   UNL A   1      38.262  31.742  31.110  1.00  0.00     0.031 A 
ATOM     44  C   UNL A   1      38.896  32.080  32.433  1.00  0.00     0.074 A 
ATOM     45  C   UNL A   1      38.739  30.732  30.363  1.00  0.00     0.049 A 
ATOM     46  N   UNL A   1      39.945  31.561  33.013  1.00  0.00    -0.248 NA
ATOM     47  C   UNL A   1      38.251  33.157  33.201  1.00  0.00     0.031 C 
ATOM     48  C   UNL A   1      38.174  30.282  29.092  1.00  0.00     0.029 A 
ATOM     49  N   UNL A   1      39.810  29.899  30.569  1.00  0.00    -0.354 N 
ATOM     50  C   UNL A   1      40.084  32.243  34.218  1.00  0.00     0.074 A 
ATOM     51  C   UNL A   1      39.044  33.248  34.256  1.00  0.00     0.031 C 
ATOM     52  C   UNL A   1      38.911  29.258  28.628  1.00  0.00     0.029 A 
ATOM     53  C   UNL A   1      40.019  29.003  29.547  1.00  0.00     0.049 A 
ATOM     54  H   UNL A   1      40.375  29.938  31.375  1.00  0.00     0.167 HD
ATOM     55  C   UNL A   1      40.987  32.040  35.208  1.00  0.00     0.034 A 
ATOM     56  C   UNL A   1      41.006  28.102  29.366  1.00  0.00     0.034 A 
ATOM     57  C   UNL A   1      42.032  31.048  35.138  1.00  0.00     0.049 A 
ATOM     58  C   UNL A   1      42.065  27.957  30.435  1.00  0.00     0.074 A 
ATOM     59  C   UNL A   1      43.009  30.757  36.073  1.00  0.00     0.029 A 
ATOM     60  N   UNL A   1      42.248  30.196  34.061  1.00  0.00    -0.354 N 
ATOM     61  N   UNL A   1      42.187  28.605  31.573  1.00  0.00    -0.248 NA
ATOM     62  C   UNL A   1      43.109  26.953  30.203  1.00  0.00     0.031 C 
ATOM     63  C   UNL A   1      43.862  29.792  35.528  1.00  0.00     0.029 A 
ATOM     64  C   UNL A   1      43.363  29.406  34.293  1.00  0.00     0.049 A 
ATOM     65  H   UNL A   1      41.690  30.158  33.251  1.00  0.00     0.167 HD
ATOM     66  C   UNL A   1      43.303  28.060  32.205  1.00  0.00     0.074 A 
ATOM     67  C   UNL A   1      43.805  27.021  31.328  1.00  0.00     0.031 C 
ATOM     68  C   UNL A   1      43.861  28.381  33.402  1.00  0.00     0.034 A 
BRANCH  55  69
ATOM     69  C   UNL A   1      40.910  32.953  36.409  1.00  0.00     0.023 A 
ATOM     70  C   UNL A   1      40.307  32.545  37.614  1.00  0.00     0.031 A 
ATOM     71  C   UNL A   1      41.393  34.270  36.332  1.00  0.00     0.131 A 
ATOM     72  C   UNL A   1      40.124  33.469  38.653  1.00  0.00     0.055 A 
ATOM     73  C   UNL A   1      41.292  35.157  37.405  1.00  0.00     0.041 A 
ATOM     74  F   UNL A   1      41.952  34.729  35.200  1.00  0.00    -0.206 F 
ATOM     75  C   UNL A   1      40.637  34.765  38.568  1.00  0.00     0.022 A 
BRANCH  72  76
ATOM     76  S   UNL A   1      39.050  33.008  40.042  1.00  0.00     0.124 S 
ATOM     77  O   UNL A   1      38.050  32.176  39.378  1.00  0.00    -0.237 OA
ATOM     78  O   UNL A   1      39.971  32.312  40.934  1.00  0.00    -0.237 OA
ATOM     79  O   UNL A   1      38.555  34.293  40.533  1.00  0.00    -0.744 OA
ENDBRANCH  72  76
ENDBRANCH  55  69
BRANCH  56  80
ATOM     80  C   UNL A   1      41.077  27.302  28.107  1.00  0.00     0.023 A 
ATOM     81  C   UNL A   1      40.779  25.931  28.088  1.00  0.00     0.031 A 
ATOM     82  C   UNL A   1      41.500  27.899  26.905  1.00  0.00     0.131 A 
ATOM     83  C   UNL A   1      40.950  25.194  26.903  1.00  0.00     0.055 A 
ATOM     84  C   UNL A   1      41.611  27.176  25.717  1.00  0.00     0.041 A 
ATOM     85  F   UNL A   1      41.804  29.207  26.866  1.00  0.00    -0.206 F 
ATOM     86  C   UNL A   1      41.348  25.810  25.715  1.00  0.00     0.022 A 
BRANCH  83  87
ATOM     87  S   UNL A   1      40.730  23.393  26.956  1.00  0.00     0.124 S 
ATOM     88  O   UNL A   1      39.279  23.269  26.877  1.00  0.00    -0.237 OA
ATOM     89  O   UNL A   1      41.476  22.963  25.777  1.00  0.00    -0.237 OA
ATOM     90  O   UNL A   1      41.321  23.015  28.237  1.00  0.00    -0.744 OA
ENDBRANCH  83  87
ENDBRANCH  56  80
BRANCH  68  91
ATOM     91  C   UNL A   1      45.050  27.563  33.852  1.00  0.00     0.023 A 
ATOM     92  C   UNL A   1      46.370  27.935  33.547  1.00  0.00     0.031 A 
ATOM     93  C   UNL A   1      44.853  26.379  34.588  1.00  0.00     0.131 A 
ATOM     94  C   UNL A   1      47.435  27.096  33.911  1.00  0.00     0.055 A 
ATOM     95  C   UNL A   1      45.922  25.589  35.014  1.00  0.00     0.041 A 
ATOM     96  F   UNL A   1      43.614  25.968  34.907  1.00  0.00    -0.206 F 
ATOM     97  C   UNL A   1      47.222  25.938  34.661  1.00  0.00     0.022 A 
BRANCH  94  98
ATOM     98  S   UNL A   1      49.094  27.476  33.282  1.00  0.00     0.124 S 
ATOM     99  O   UNL A   1      48.972  27.119  31.872  1.00  0.00    -0.237 OA
ATOM    100  O   UNL A   1      49.219  28.901  33.571  1.00  0.00    -0.237 OA
ATOM    101  O   UNL A   1      49.967  26.606  34.069  1.00  0.00    -0.744 OA
ENDBRANCH  94  98
ENDBRANCH  68  91
ENDBRANCH  42  43
ENDBRANCH  35  37
ENDBRANCH  34  35
ENDBRANCH  33  34
ENDBRANCH  32  33
ENDBRANCH  31  32
ENDBRANCH  30  31
ENDBRANCH  29  30
ENDBRANCH   1  29
TORSDOF 27
ENDMDL
MODEL 2
REMARK VINA RESULT:      -9.2      1.838      2.247
REMARK SMILES Cc1ccc(/C=C/C(=O)N2C[C@@H](O)C[C@H]2C(=O)OCCOCCOCCOCCOC(=O)c2ccc(-c3c4nc(c(-c5cc(S(=O)(=O)[O-])ccc5F)c5ccc([nH]5)c(-c5cc(S(=O)(=O)[O-])ccc5F)c5nc(c(-c6cc(S(=O)(=O)[O-])ccc6F)c6ccc3[nH]6)C=C5)C=C4)cc2)c(C)c1
REMARK SMILES IDX 24 1 23 2 22 3 21 4 20 5 19 6 18 7 16 8 17 9 15 10 10 11
REMARK SMILES IDX 11 12 12 13 14 14 8 15 9 16 7 17 6 18 5 19 1 20 2 21 3 22
REMARK SMILES IDX 98 23 4 24 96 25 97 26 13 27 25 29 26 30 27 31 28 32 29 33
REMARK SMILES IDX 30 34 31 35 32 36 33 37 34 38 95 39 35 40 94 41 36 42 37 43
REMARK SMILES IDX 38 44 88 45 39 46 93 47 87 48 89 49 40 50 92 51 86 52 85 53
REMARK SMILES IDX 41 55 73 56 53 57 72 58 54 59 57 60 71 61 90 62 55 63 56 64
REMARK SMILES IDX 70 66 91 67 58 68 42 69 43 70 51 71 44 72 50 73 52 74 49 75
REMARK SMILES IDX 45 76 46 77 47 78 48 79 74 80 75 81 83 82 76 83 82 84 84 85
REMARK SMILES IDX 81 86 77 87 78 88 79 89 80 90 59 91 60 92 68 93 61 94 67 95
REMARK SMILES IDX 69 96 66 97 62 98 63 99 64 100 65 101
REMARK H PARENT 13 28 89 54 57 65
REMARK Flexibility Score: inf
ROOT
ATOM      1  O   UNL A   1      32.568  26.907  25.985  1.00  0.00    -0.377 OA
ENDROOT
BRANCH   1   2
ATOM      2  C   UNL A   1      31.970  25.700  26.400  1.00  0.00     0.188 C 
BRANCH   2   3
ATOM      3  C   UNL A   1      30.521  25.353  26.037  1.00  0.00     0.188 C 
BRANCH   3   4
ATOM      4  O   UNL A   1      29.877  24.309  26.728  1.00  0.00    -0.376 OA
BRANCH   4   5
ATOM      5  C   UNL A   1      30.390  22.993  26.740  1.00  0.00     0.202 C 
BRANCH   5   6
ATOM      6  C   UNL A   1      31.335  22.378  25.689  1.00  0.00     0.261 C 
BRANCH   6   7
ATOM      7  O   UNL A   1      32.706  22.129  26.038  1.00  0.00    -0.462 OA
BRANCH   7   8
ATOM      8  C   UNL A   1      33.322  21.113  25.379  1.00  0.00     0.329 C 
ATOM      9  O   UNL A   1      33.258  19.937  25.728  1.00  0.00    -0.250 OA
BRANCH   8  10
ATOM     10  C   UNL A   1      34.263  21.571  24.237  1.00  0.00     0.198 C 
ATOM     11  N   UNL A   1      34.395  22.979  23.797  1.00  0.00    -0.323 N 
ATOM     12  C   UNL A   1      35.635  23.550  24.282  1.00  0.00     0.152 C 
ATOM     13  C   UNL A   1      36.568  22.345  24.230  1.00  0.00     0.136 C 
ATOM     14  C   UNL A   1      35.681  21.194  24.695  1.00  0.00     0.071 C 
BRANCH  11  15
ATOM     15  C   UNL A   1      33.651  23.464  22.740  1.00  0.00     0.247 C 
ATOM     16  O   UNL A   1      33.788  23.055  21.588  1.00  0.00    -0.270 OA
BRANCH  15  17
ATOM     17  C   UNL A   1      32.647  24.526  23.013  1.00  0.00     0.072 C 
ATOM     18  C   UNL A   1      32.981  25.765  22.623  1.00  0.00     0.014 C 
BRANCH  18  19
ATOM     19  C   UNL A   1      32.168  26.997  22.608  1.00  0.00    -0.023 A 
ATOM     20  C   UNL A   1      29.428  30.226  23.540  1.00  0.00     0.044 C 
ATOM     21  C   UNL A   1      30.356  29.118  23.136  1.00  0.00    -0.051 A 
ATOM     22  C   UNL A   1      29.880  27.838  22.872  1.00  0.00     0.004 A 
ATOM     23  C   UNL A   1      31.735  29.348  23.061  1.00  0.00     0.007 A 
ATOM     24  C   UNL A   1      30.774  26.795  22.612  1.00  0.00     0.008 A 
ATOM     25  C   UNL A   1      32.654  28.306  22.794  1.00  0.00    -0.044 A 
ATOM     26  C   UNL A   1      34.109  28.689  22.822  1.00  0.00     0.045 C 
ENDBRANCH  18  19
ENDBRANCH  15  17
ENDBRANCH  11  15
BRANCH  13  27
ATOM     27  O   UNL A   1      37.717  22.483  25.041  1.00  0.00    -0.391 OA
ATOM     28  H   UNL A   1      38.484  22.690  24.484  1.00  0.00     0.211 HD
ENDBRANCH  13  27
ENDBRANCH   8  10
ENDBRANCH   7   8
ENDBRANCH   6   7
ENDBRANCH   5   6
ENDBRANCH   4   5
ENDBRANCH   3   4
ENDBRANCH   2   3
ENDBRANCH   1   2
BRANCH   1  29
ATOM     29  C   UNL A   1      32.823  27.939  26.916  1.00  0.00     0.188 C 
BRANCH  29  30
ATOM     30  C   UNL A   1      31.708  28.876  27.403  1.00  0.00     0.188 C 
BRANCH  30  31
ATOM     31  O   UNL A   1      31.905  30.249  27.117  1.00  0.00    -0.376 OA
BRANCH  31  32
ATOM     32  C   UNL A   1      33.232  30.732  26.995  1.00  0.00     0.202 C 
BRANCH  32  33
ATOM     33  C   UNL A   1      33.581  32.072  27.665  1.00  0.00     0.261 C 
BRANCH  33  34
ATOM     34  O   UNL A   1      34.963  32.452  27.652  1.00  0.00    -0.460 OA
BRANCH  34  35
ATOM     35  C   UNL A   1      35.362  33.316  28.616  1.00  0.00     0.338 C 
ATOM     36  O   UNL A   1      34.804  34.335  28.956  1.00  0.00    -0.246 OA
BRANCH  35  37
ATOM     37  C   UNL A   1      36.506  32.694  29.318  1.00  0.00     0.060 A 
ATOM     38  C   UNL A   1      37.803  33.089  28.967  1.00  0.00     0.016 A 
ATOM     39  C   UNL A   1      36.299  31.749  30.327  1.00  0.00     0.016 A 
ATOM     40  C   UNL A   1      38.900  32.518  29.606  1.00  0.00     0.010 A 
ATOM     41  C   UNL A   1      37.403  31.154  30.945  1.00  0.00     0.010 A 
ATOM     42  C   UNL A   1      38.707  31.511  30.559  1.00  0.00    -0.014 A 
BRANCH  42  43
ATOM     43  C   UNL A   1      39.869  30.677  30.955  1.00  0.00     0.031 A 
ATOM     44  C   UNL A   1      40.555  31.003  32.254  1.00  0.00     0.074 A 
ATOM     45  C   UNL A   1      40.258  29.618  30.224  1.00  0.00     0.049 A 
ATOM     46  N   UNL A   1      41.580  30.427  32.824  1.00  0.00    -0.248 NA
ATOM     47  C   UNL A   1      40.004  32.140  33.009  1.00  0.00     0.031 C 
ATOM     48  C   UNL A   1      39.633  29.178  28.978  1.00  0.00     0.029 A 
ATOM     49  N   UNL A   1      41.273  28.719  30.428  1.00  0.00    -0.354 N 
ATOM     50  C   UNL A   1      41.794  31.127  34.008  1.00  0.00     0.074 A 
ATOM     51  C   UNL A   1      40.826  32.201  34.043  1.00  0.00     0.031 C 
ATOM     52  C   UNL A   1      40.287  28.095  28.524  1.00  0.00     0.029 A 
ATOM     53  C   UNL A   1      41.397  27.787  29.425  1.00  0.00     0.049 A 
ATOM     54  H   UNL A   1      41.859  28.738  31.219  1.00  0.00     0.167 HD
ATOM     55  C   UNL A   1      42.705  30.885  34.982  1.00  0.00     0.034 A 
ATOM     56  C   UNL A   1      42.316  26.815  29.245  1.00  0.00     0.034 A 
ATOM     57  C   UNL A   1      43.677  29.823  34.915  1.00  0.00     0.049 A 
ATOM     58  C   UNL A   1      43.387  26.624  30.294  1.00  0.00     0.074 A 
ATOM     59  C   UNL A   1      44.654  29.487  35.835  1.00  0.00     0.029 A 
ATOM     60  N   UNL A   1      43.809  28.932  33.856  1.00  0.00    -0.354 N 
ATOM     61  N   UNL A   1      43.580  27.289  31.412  1.00  0.00    -0.248 NA
ATOM     62  C   UNL A   1      44.354  25.545  30.064  1.00  0.00     0.031 C 
ATOM     63  C   UNL A   1      45.426  28.453  35.297  1.00  0.00     0.029 A 
ATOM     64  C   UNL A   1      44.873  28.072  34.084  1.00  0.00     0.049 A 
ATOM     65  H   UNL A   1      43.230  28.913  33.060  1.00  0.00     0.167 HD
ATOM     66  C   UNL A   1      44.671  26.684  32.032  1.00  0.00     0.074 A 
ATOM     67  C   UNL A   1      45.080  25.592  31.172  1.00  0.00     0.031 C 
ATOM     68  C   UNL A   1      45.278  26.995  33.208  1.00  0.00     0.034 A 
BRANCH  55  69
ATOM     69  C   UNL A   1      42.719  31.830  36.161  1.00  0.00     0.023 A 
ATOM     70  C   UNL A   1      41.644  31.904  37.067  1.00  0.00     0.031 A 
ATOM     71  C   UNL A   1      43.795  32.714  36.350  1.00  0.00     0.131 A 
ATOM     72  C   UNL A   1      41.631  32.895  38.059  1.00  0.00     0.055 A 
ATOM     73  C   UNL A   1      43.818  33.636  37.398  1.00  0.00     0.041 A 
ATOM     74  F   UNL A   1      44.837  32.714  35.502  1.00  0.00    -0.206 F 
ATOM     75  C   UNL A   1      42.723  33.744  38.249  1.00  0.00     0.022 A 
BRANCH  72  76
ATOM     76  S   UNL A   1      40.093  33.176  38.981  1.00  0.00     0.124 S 
ATOM     77  O   UNL A   1      39.810  34.573  38.664  1.00  0.00    -0.237 OA
ATOM     78  O   UNL A   1      39.190  32.192  38.395  1.00  0.00    -0.237 OA
ATOM     79  O   UNL A   1      40.475  32.925  40.370  1.00  0.00    -0.744 OA
ENDBRANCH  72  76
ENDBRANCH  55  69
BRANCH  56  80
ATOM     80  C   UNL A   1      42.301  25.982  28.006  1.00  0.00     0.023 A 
ATOM     81  C   UNL A   1      41.706  24.712  27.979  1.00  0.00     0.031 A 
ATOM     82  C   UNL A   1      42.938  26.434  26.835  1.00  0.00     0.131 A 
ATOM     83  C   UNL A   1      41.797  23.920  26.821  1.00  0.00     0.055 A 
ATOM     84  C   UNL A   1      42.975  25.669  25.669  1.00  0.00     0.041 A 
ATOM     85  F   UNL A   1      43.530  27.639  26.805  1.00  0.00    -0.206 F 
ATOM     86  C   UNL A   1      42.413  24.396  25.662  1.00  0.00     0.022 A 
BRANCH  83  87
ATOM     87  S   UNL A   1      41.175  22.216  26.877  1.00  0.00     0.124 S 
ATOM     88  O   UNL A   1      41.922  21.665  28.002  1.00  0.00    -0.237 OA
ATOM     89  O   UNL A   1      39.747  22.423  27.095  1.00  0.00    -0.237 OA
ATOM     90  O   UNL A   1      41.532  21.680  25.566  1.00  0.00    -0.744 OA
ENDBRANCH  83  87
ENDBRANCH  56  80
BRANCH  68  91
ATOM     91  C   UNL A   1      46.418  26.107  33.653  1.00  0.00     0.023 A 
ATOM     92  C   UNL A   1      46.201  24.917  34.368  1.00  0.00     0.031 A 
ATOM     93  C   UNL A   1      47.748  26.470  33.368  1.00  0.00     0.131 A 
ATOM     94  C   UNL A   1      47.295  24.173  34.836  1.00  0.00     0.055 A 
ATOM     95  C   UNL A   1      48.829  25.684  33.768  1.00  0.00     0.041 A 
ATOM     96  F   UNL A   1      48.020  27.598  32.690  1.00  0.00    -0.206 F 
ATOM     97  C   UNL A   1      48.606  24.536  34.522  1.00  0.00     0.022 A 
BRANCH  94  98
ATOM     98  S   UNL A   1      46.984  22.789  35.968  1.00  0.00     0.124 S 
ATOM     99  O   UNL A   1      47.086  21.640  35.076  1.00  0.00    -0.237 OA
ATOM    100  O   UNL A   1      48.058  22.937  36.944  1.00  0.00    -0.237 OA
ATOM    101  O   UNL A   1      45.641  23.059  36.480  1.00  0.00    -0.744 OA
ENDBRANCH  94  98
ENDBRANCH  68  91
ENDBRANCH  42  43
ENDBRANCH  35  37
ENDBRANCH  34  35
ENDBRANCH  33  34
ENDBRANCH  32  33
ENDBRANCH  31  32
ENDBRANCH  30  31
ENDBRANCH  29  30
ENDBRANCH   1  29
TORSDOF 27
ENDMDL
MODEL 3
REMARK VINA RESULT:      -8.5      2.911      4.054
REMARK SMILES Cc1ccc(/C=C/C(=O)N2C[C@@H](O)C[C@H]2C(=O)OCCOCCOCCOCCOC(=O)c2ccc(-c3c4nc(c(-c5cc(S(=O)(=O)[O-])ccc5F)c5ccc([nH]5)c(-c5cc(S(=O)(=O)[O-])ccc5F)c5nc(c(-c6cc(S(=O)(=O)[O-])ccc6F)c6ccc3[nH]6)C=C5)C=C4)cc2)c(C)c1
REMARK SMILES IDX 24 1 23 2 22 3 21 4 20 5 19 6 18 7 16 8 17 9 15 10 10 11
REMARK SMILES IDX 11 12 12 13 14 14 8 15 9 16 7 17 6 18 5 19 1 20 2 21 3 22
REMARK SMILES IDX 98 23 4 24 96 25 97 26 13 27 25 29 26 30 27 31 28 32 29 33
REMARK SMILES IDX 30 34 31 35 32 36 33 37 34 38 95 39 35 40 94 41 36 42 37 43
REMARK SMILES IDX 38 44 88 45 39 46 93 47 87 48 89 49 40 50 92 51 86 52 85 53
REMARK SMILES IDX 41 55 73 56 53 57 72 58 54 59 57 60 71 61 90 62 55 63 56 64
REMARK SMILES IDX 70 66 91 67 58 68 42 69 43 70 51 71 44 72 50 73 52 74 49 75
REMARK SMILES IDX 45 76 46 77 47 78 48 79 74 80 75 81 83 82 76 83 82 84 84 85
REMARK SMILES IDX 81 86 77 87 78 88 79 89 80 90 59 91 60 92 68 93 61 94 67 95
REMARK SMILES IDX 69 96 66 97 62 98 63 99 64 100 65 101
REMARK H PARENT 13 28 89 54 57 65
REMARK Flexibility Score: inf
ROOT
ATOM      1  O   UNL A   1      32.193  27.188  25.984  1.00  0.00    -0.377 OA
ENDROOT
BRANCH   1   2
ATOM      2  C   UNL A   1      31.443  26.201  26.653  1.00  0.00     0.188 C 
BRANCH   2   3
ATOM      3  C   UNL A   1      30.520  25.237  25.896  1.00  0.00     0.188 C 
BRANCH   3   4
ATOM      4  O   UNL A   1      29.902  24.188  26.603  1.00  0.00    -0.376 OA
BRANCH   4   5
ATOM      5  C   UNL A   1      30.548  22.952  26.822  1.00  0.00     0.202 C 
BRANCH   5   6
ATOM      6  C   UNL A   1      31.490  22.232  25.835  1.00  0.00     0.261 C 
BRANCH   6   7
ATOM      7  O   UNL A   1      32.773  21.780  26.293  1.00  0.00    -0.462 OA
BRANCH   7   8
ATOM      8  C   UNL A   1      33.405  20.864  25.513  1.00  0.00     0.329 C 
ATOM      9  O   UNL A   1      33.184  19.657  25.566  1.00  0.00    -0.250 OA
BRANCH   8  10
ATOM     10  C   UNL A   1      34.560  21.442  24.658  1.00  0.00     0.198 C 
ATOM     11  N   UNL A   1      34.812  22.892  24.491  1.00  0.00    -0.323 N 
ATOM     12  C   UNL A   1      35.951  23.305  25.286  1.00  0.00     0.152 C 
ATOM     13  C   UNL A   1      36.843  22.072  25.207  1.00  0.00     0.136 C 
ATOM     14  C   UNL A   1      35.853  20.915  25.301  1.00  0.00     0.071 C 
BRANCH  11  15
ATOM     15  C   UNL A   1      34.300  23.581  23.411  1.00  0.00     0.247 C 
ATOM     16  O   UNL A   1      34.580  23.297  22.247  1.00  0.00    -0.270 OA
BRANCH  15  17
ATOM     17  C   UNL A   1      33.371  24.712  23.673  1.00  0.00     0.072 C 
ATOM     18  C   UNL A   1      33.354  25.684  22.749  1.00  0.00     0.014 C 
BRANCH  18  19
ATOM     19  C   UNL A   1      32.457  26.851  22.628  1.00  0.00    -0.023 A 
ATOM     20  C   UNL A   1      29.475  29.933  23.267  1.00  0.00     0.044 C 
ATOM     21  C   UNL A   1      30.488  28.869  22.964  1.00  0.00    -0.051 A 
ATOM     22  C   UNL A   1      30.110  27.542  22.782  1.00  0.00     0.004 A 
ATOM     23  C   UNL A   1      31.850  29.191  22.903  1.00  0.00     0.007 A 
ATOM     24  C   UNL A   1      31.081  26.550  22.616  1.00  0.00     0.008 A 
ATOM     25  C   UNL A   1      32.846  28.201  22.731  1.00  0.00    -0.044 A 
ATOM     26  C   UNL A   1      34.269  28.688  22.763  1.00  0.00     0.045 C 
ENDBRANCH  18  19
ENDBRANCH  15  17
ENDBRANCH  11  15
BRANCH  13  27
ATOM     27  O   UNL A   1      37.818  22.011  26.229  1.00  0.00    -0.391 OA
ATOM     28  H   UNL A   1      38.693  21.876  25.834  1.00  0.00     0.211 HD
ENDBRANCH  13  27
ENDBRANCH   8  10
ENDBRANCH   7   8
ENDBRANCH   6   7
ENDBRANCH   5   6
ENDBRANCH   4   5
ENDBRANCH   3   4
ENDBRANCH   2   3
ENDBRANCH   1   2
BRANCH   1  29
ATOM     29  C   UNL A   1      32.616  28.352  26.664  1.00  0.00     0.188 C 
BRANCH  29  30
ATOM     30  C   UNL A   1      31.777  29.639  26.654  1.00  0.00     0.188 C 
BRANCH  30  31
ATOM     31  O   UNL A   1      32.509  30.835  26.457  1.00  0.00    -0.376 OA
BRANCH  31  32
ATOM     32  C   UNL A   1      33.648  31.074  27.266  1.00  0.00     0.202 C 
BRANCH  32  33
ATOM     33  C   UNL A   1      33.715  32.393  28.055  1.00  0.00     0.261 C 
BRANCH  33  34
ATOM     34  O   UNL A   1      34.739  32.489  29.053  1.00  0.00    -0.460 OA
BRANCH  34  35
ATOM     35  C   UNL A   1      34.541  33.398  30.037  1.00  0.00     0.338 C 
ATOM     36  O   UNL A   1      33.605  34.160  30.147  1.00  0.00    -0.246 OA
BRANCH  35  37
ATOM     37  C   UNL A   1      35.577  33.166  31.066  1.00  0.00     0.060 A 
ATOM     38  C   UNL A   1      36.661  34.051  31.137  1.00  0.00     0.016 A 
ATOM     39  C   UNL A   1      35.469  32.101  31.965  1.00  0.00     0.016 A 
ATOM     40  C   UNL A   1      37.657  33.856  32.091  1.00  0.00     0.010 A 
ATOM     41  C   UNL A   1      36.485  31.889  32.901  1.00  0.00     0.010 A 
ATOM     42  C   UNL A   1      37.600  32.745  32.942  1.00  0.00    -0.014 A 
BRANCH  42  43
ATOM     43  C   UNL A   1      38.824  32.360  33.687  1.00  0.00     0.031 A 
ATOM     44  C   UNL A   1      38.949  32.819  35.115  1.00  0.00     0.074 A 
ATOM     45  C   UNL A   1      39.761  31.567  33.140  1.00  0.00     0.049 A 
ATOM     46  N   UNL A   1      39.908  32.612  35.977  1.00  0.00    -0.248 NA
ATOM     47  C   UNL A   1      37.833  33.625  35.634  1.00  0.00     0.031 C 
ATOM     48  C   UNL A   1      39.717  31.020  31.785  1.00  0.00     0.029 A 
ATOM     49  N   UNL A   1      40.933  31.081  33.662  1.00  0.00    -0.354 N 
ATOM     50  C   UNL A   1      39.510  33.257  37.144  1.00  0.00     0.074 A 
ATOM     51  C   UNL A   1      38.249  33.906  36.858  1.00  0.00     0.031 C 
ATOM     52  C   UNL A   1      40.821  30.279  31.581  1.00  0.00     0.029 A 
ATOM     53  C   UNL A   1      41.665  30.329  32.774  1.00  0.00     0.049 A 
ATOM     54  H   UNL A   1      41.223  31.255  34.587  1.00  0.00     0.167 HD
ATOM     55  C   UNL A   1      40.132  33.292  38.348  1.00  0.00     0.034 A 
ATOM     56  C   UNL A   1      42.885  29.769  32.904  1.00  0.00     0.034 A 
ATOM     57  C   UNL A   1      41.402  32.659  38.604  1.00  0.00     0.049 A 
ATOM     58  C   UNL A   1      43.611  29.903  34.223  1.00  0.00     0.074 A 
ATOM     59  C   UNL A   1      42.133  32.634  39.779  1.00  0.00     0.029 A 
ATOM     60  N   UNL A   1      42.141  31.951  37.663  1.00  0.00    -0.354 N 
ATOM     61  N   UNL A   1      43.225  30.512  35.322  1.00  0.00    -0.248 NA
ATOM     62  C   UNL A   1      44.927  29.263  34.323  1.00  0.00     0.031 C 
ATOM     63  C   UNL A   1      43.346  31.988  39.526  1.00  0.00     0.029 A 
ATOM     64  C   UNL A   1      43.335  31.519  38.220  1.00  0.00     0.049 A 
ATOM     65  H   UNL A   1      41.859  31.781  36.736  1.00  0.00     0.167 HD
ATOM     66  C   UNL A   1      44.240  30.299  36.253  1.00  0.00     0.074 A 
ATOM     67  C   UNL A   1      45.243  29.490  35.589  1.00  0.00     0.031 C 
ATOM     68  C   UNL A   1      44.334  30.724  37.541  1.00  0.00     0.034 A 
BRANCH  55  69
ATOM     69  C   UNL A   1      39.468  34.094  39.443  1.00  0.00     0.023 A 
ATOM     70  C   UNL A   1      39.711  35.471  39.606  1.00  0.00     0.031 A 
ATOM     71  C   UNL A   1      38.628  33.462  40.376  1.00  0.00     0.131 A 
ATOM     72  C   UNL A   1      39.193  36.146  40.721  1.00  0.00     0.055 A 
ATOM     73  C   UNL A   1      38.040  34.161  41.431  1.00  0.00     0.041 A 
ATOM     74  F   UNL A   1      38.383  32.145  40.293  1.00  0.00    -0.206 F 
ATOM     75  C   UNL A   1      38.337  35.508  41.620  1.00  0.00     0.022 A 
BRANCH  72  76
ATOM     76  S   UNL A   1      39.799  37.819  41.077  1.00  0.00     0.124 S 
ATOM     77  O   UNL A   1      41.217  37.695  40.750  1.00  0.00    -0.237 OA
ATOM     78  O   UNL A   1      39.004  38.641  40.173  1.00  0.00    -0.237 OA
ATOM     79  O   UNL A   1      39.509  37.993  42.499  1.00  0.00    -0.744 OA
ENDBRANCH  72  76
ENDBRANCH  55  69
BRANCH  56  80
ATOM     80  C   UNL A   1      43.525  29.076  31.746  1.00  0.00     0.023 A 
ATOM     81  C   UNL A   1      43.660  27.679  31.706  1.00  0.00     0.031 A 
ATOM     82  C   UNL A   1      44.062  29.818  30.678  1.00  0.00     0.131 A 
ATOM     83  C   UNL A   1      44.353  27.073  30.644  1.00  0.00     0.055 A 
ATOM     84  C   UNL A   1      44.697  29.207  29.596  1.00  0.00     0.041 A 
ATOM     85  F   UNL A   1      43.967  31.158  30.666  1.00  0.00    -0.206 F 
ATOM     86  C   UNL A   1      44.858  27.826  29.582  1.00  0.00     0.022 A 
BRANCH  83  87
ATOM     87  S   UNL A   1      44.666  25.287  30.713  1.00  0.00     0.124 S 
ATOM     88  O   UNL A   1      46.113  25.232  30.543  1.00  0.00    -0.237 OA
ATOM     89  O   UNL A   1      44.161  24.943  32.039  1.00  0.00    -0.237 OA
ATOM     90  O   UNL A   1      43.885  24.760  29.596  1.00  0.00    -0.744 OA
ENDBRANCH  83  87
ENDBRANCH  56  80
BRANCH  68  91
ATOM     91  C   UNL A   1      45.545  30.278  38.329  1.00  0.00     0.023 A 
ATOM     92  C   UNL A   1      45.545  29.095  39.088  1.00  0.00     0.031 A 
ATOM     93  C   UNL A   1      46.714  31.061  38.331  1.00  0.00     0.131 A 
ATOM     94  C   UNL A   1      46.662  28.768  39.873  1.00  0.00     0.055 A 
ATOM     95  C   UNL A   1      47.850  30.689  39.052  1.00  0.00     0.041 A 
ATOM     96  F   UNL A   1      46.774  32.204  37.627  1.00  0.00    -0.206 F 
ATOM     97  C   UNL A   1      47.822  29.546  39.842  1.00  0.00     0.022 A 
BRANCH  94  98
ATOM     98  S   UNL A   1      46.533  27.378  41.031  1.00  0.00     0.124 S 
ATOM     99  O   UNL A   1      46.710  26.230  40.148  1.00  0.00    -0.237 OA
ATOM    100  O   UNL A   1      47.626  27.643  41.960  1.00  0.00    -0.237 OA
ATOM    101  O   UNL A   1      45.192  27.525  41.596  1.00  0.00    -0.744 OA
ENDBRANCH  94  98
ENDBRANCH  68  91
ENDBRANCH  42  43
ENDBRANCH  35  37
ENDBRANCH  34  35
ENDBRANCH  33  34
ENDBRANCH  32  33
ENDBRANCH  31  32
ENDBRANCH  30  31
ENDBRANCH  29  30
ENDBRANCH   1  29
TORSDOF 27
ENDMDL
