MODEL 1
REMARK VINA RESULT:      -9.5      0.000      0.000
REMARK SMILES O=C(OCCOCCOCCOCCOC(=O)[C@@H](NC(=O)[C@H]1CC[C@@H]2CCCC[C@H]2[NH2+]1)C1CC1)c1ccc(-c2c3nc(c(-c4cc(S(=O)(=O)[O-])ccc4F)c4ccc([nH]4)c(-c4cc(S(=O)(=O)[O-])ccc4F)c4nc(c(-c5cc(S(=O)(=O)[O-])ccc5F)c5ccc2[nH]5)C=C4)C=C3)cc1
REMARK SMILES IDX 8 1 7 2 6 3 5 4 4 5 3 6 2 7 1 8 35 9 36 10 97 11 37 12 96 13
REMARK SMILES IDX 38 14 39 15 40 16 90 17 41 18 95 19 89 20 91 21 42 22 94 23
REMARK SMILES IDX 88 24 87 25 43 27 75 28 55 29 74 30 56 31 59 32 73 33 92 34
REMARK SMILES IDX 57 35 58 36 72 38 93 39 60 40 44 41 45 42 53 43 46 44 52 45
REMARK SMILES IDX 54 46 51 47 47 48 48 49 49 50 50 51 76 52 77 53 85 54 78 55
REMARK SMILES IDX 84 56 86 57 83 58 79 59 80 60 81 61 82 62 61 63 62 64 70 65
REMARK SMILES IDX 63 66 69 67 71 68 68 69 64 70 65 71 66 72 67 73 9 74 10 75
REMARK SMILES IDX 11 76 12 77 13 78 14 79 15 80 16 81 17 82 18 83 19 84 20 85
REMARK SMILES IDX 21 87 22 88 23 89 31 90 24 91 30 92 25 95 29 96 26 97 28 98
REMARK SMILES IDX 27 99 32 100 33 101 34 102
REMARK H PARENT 91 26 59 37 19 86 31 93 31 94
REMARK Flexibility Score: inf
ROOT
ATOM      1  C   UNL A   1      38.624  21.783  25.754  1.00  0.00     0.188 C 
ENDROOT
BRANCH   1   2
ATOM      2  C   UNL A   1      39.908  21.454  26.488  1.00  0.00     0.188 C 
BRANCH   2   3
ATOM      3  O   UNL A   1      41.006  21.908  25.726  1.00  0.00    -0.376 OA
BRANCH   3   4
ATOM      4  C   UNL A   1      42.158  22.342  26.434  1.00  0.00     0.202 C 
BRANCH   4   5
ATOM      5  C   UNL A   1      41.998  23.705  27.097  1.00  0.00     0.261 C 
BRANCH   5   6
ATOM      6  O   UNL A   1      42.646  24.779  26.393  1.00  0.00    -0.460 OA
BRANCH   6   7
ATOM      7  C   UNL A   1      42.161  25.991  26.025  1.00  0.00     0.338 C 
ATOM      8  O   UNL A   1      41.398  26.041  25.060  1.00  0.00    -0.246 OA
BRANCH   7   9
ATOM      9  C   UNL A   1      42.478  27.279  26.712  1.00  0.00     0.060 A 
ATOM     10  C   UNL A   1      43.426  27.442  27.716  1.00  0.00     0.016 A 
ATOM     11  C   UNL A   1      41.849  28.437  26.227  1.00  0.00     0.016 A 
ATOM     12  C   UNL A   1      43.706  28.666  28.282  1.00  0.00     0.010 A 
ATOM     13  C   UNL A   1      42.141  29.694  26.771  1.00  0.00     0.010 A 
ATOM     14  C   UNL A   1      43.055  29.798  27.825  1.00  0.00    -0.014 A 
BRANCH  14  15
ATOM     15  C   UNL A   1      43.199  30.997  28.661  1.00  0.00     0.031 A 
ATOM     16  C   UNL A   1      44.153  32.045  28.176  1.00  0.00     0.074 A 
ATOM     17  C   UNL A   1      42.328  31.224  29.661  1.00  0.00     0.049 A 
ATOM     18  N   UNL A   1      44.513  33.162  28.739  1.00  0.00    -0.248 NA
ATOM     19  C   UNL A   1      44.773  31.803  26.860  1.00  0.00     0.031 C 
ATOM     20  C   UNL A   1      41.228  30.329  30.042  1.00  0.00     0.029 A 
ATOM     21  N   UNL A   1      42.193  32.289  30.507  1.00  0.00    -0.354 N 
ATOM     22  C   UNL A   1      45.424  33.740  27.862  1.00  0.00     0.074 A 
ATOM     23  C   UNL A   1      45.580  32.843  26.742  1.00  0.00     0.031 C 
ATOM     24  C   UNL A   1      40.526  30.895  31.038  1.00  0.00     0.029 A 
ATOM     25  C   UNL A   1      41.184  32.134  31.429  1.00  0.00     0.049 A 
ATOM     26  H   UNL A   1      42.764  33.090  30.459  1.00  0.00     0.167 HD
ATOM     27  C   UNL A   1      46.068  34.922  27.998  1.00  0.00     0.034 A 
ATOM     28  C   UNL A   1      40.882  32.889  32.501  1.00  0.00     0.034 A 
ATOM     29  C   UNL A   1      45.878  35.765  29.148  1.00  0.00     0.049 A 
ATOM     30  C   UNL A   1      41.734  34.117  32.726  1.00  0.00     0.074 A 
ATOM     31  C   UNL A   1      46.548  36.918  29.504  1.00  0.00     0.029 A 
ATOM     32  N   UNL A   1      44.926  35.529  30.137  1.00  0.00    -0.354 N 
ATOM     33  N   UNL A   1      42.701  34.598  31.973  1.00  0.00    -0.248 NA
ATOM     34  C   UNL A   1      41.465  34.897  33.935  1.00  0.00     0.031 C 
ATOM     35  C   UNL A   1      46.044  37.342  30.738  1.00  0.00     0.029 A 
ATOM     36  C   UNL A   1      45.002  36.505  31.113  1.00  0.00     0.049 A 
ATOM     37  H   UNL A   1      44.292  34.776  30.141  1.00  0.00     0.167 HD
ATOM     38  C   UNL A   1      43.141  35.753  32.610  1.00  0.00     0.074 A 
ATOM     39  C   UNL A   1      42.308  35.907  33.789  1.00  0.00     0.031 C 
ATOM     40  C   UNL A   1      44.140  36.608  32.269  1.00  0.00     0.034 A 
BRANCH  27  41
ATOM     41  C   UNL A   1      47.083  35.268  26.940  1.00  0.00     0.023 A 
ATOM     42  C   UNL A   1      48.238  34.490  26.734  1.00  0.00     0.031 A 
ATOM     43  C   UNL A   1      46.956  36.462  26.209  1.00  0.00     0.131 A 
ATOM     44  C   UNL A   1      49.255  34.958  25.887  1.00  0.00     0.055 A 
ATOM     45  C   UNL A   1      47.933  36.878  25.302  1.00  0.00     0.041 A 
ATOM     46  F   UNL A   1      45.897  37.267  26.393  1.00  0.00    -0.206 F 
ATOM     47  C   UNL A   1      49.099  36.134  25.149  1.00  0.00     0.022 A 
BRANCH  44  48
ATOM     48  S   UNL A   1      50.851  34.094  25.892  1.00  0.00     0.124 S 
ATOM     49  O   UNL A   1      51.712  35.071  26.556  1.00  0.00    -0.237 OA
ATOM     50  O   UNL A   1      50.558  32.885  26.644  1.00  0.00    -0.237 OA
ATOM     51  O   UNL A   1      51.135  33.893  24.468  1.00  0.00    -0.744 OA
ENDBRANCH  44  48
ENDBRANCH  27  41
BRANCH  28  52
ATOM     52  C   UNL A   1      39.835  32.468  33.481  1.00  0.00     0.023 A 
ATOM     53  C   UNL A   1      38.554  33.044  33.484  1.00  0.00     0.031 A 
ATOM     54  C   UNL A   1      40.129  31.535  34.497  1.00  0.00     0.131 A 
ATOM     55  C   UNL A   1      37.647  32.735  34.512  1.00  0.00     0.055 A 
ATOM     56  C   UNL A   1      39.199  31.178  35.474  1.00  0.00     0.041 A 
ATOM     57  F   UNL A   1      41.339  30.956  34.561  1.00  0.00    -0.206 F 
ATOM     58  C   UNL A   1      37.955  31.796  35.498  1.00  0.00     0.022 A 
BRANCH  55  59
ATOM     59  S   UNL A   1      36.104  33.684  34.619  1.00  0.00     0.124 S 
ATOM     60  O   UNL A   1      36.492  34.951  34.018  1.00  0.00    -0.237 OA
ATOM     61  O   UNL A   1      35.187  32.857  33.845  1.00  0.00    -0.237 OA
ATOM     62  O   UNL A   1      35.834  33.731  36.059  1.00  0.00    -0.744 OA
ENDBRANCH  55  59
ENDBRANCH  28  52
BRANCH  40  63
ATOM     63  C   UNL A   1      44.329  37.804  33.162  1.00  0.00     0.023 A 
ATOM     64  C   UNL A   1      43.623  38.999  32.950  1.00  0.00     0.031 A 
ATOM     65  C   UNL A   1      45.236  37.743  34.234  1.00  0.00     0.131 A 
ATOM     66  C   UNL A   1      43.891  40.112  33.756  1.00  0.00     0.055 A 
ATOM     67  C   UNL A   1      45.439  38.831  35.081  1.00  0.00     0.041 A 
ATOM     68  F   UNL A   1      45.935  36.622  34.476  1.00  0.00    -0.206 F 
ATOM     69  C   UNL A   1      44.778  40.030  34.834  1.00  0.00     0.022 A 
BRANCH  66  70
ATOM     70  S   UNL A   1      43.152  41.703  33.301  1.00  0.00     0.124 S 
ATOM     71  O   UNL A   1      43.521  42.542  34.438  1.00  0.00    -0.237 OA
ATOM     72  O   UNL A   1      43.821  42.009  32.041  1.00  0.00    -0.237 OA
ATOM     73  O   UNL A   1      41.728  41.399  33.190  1.00  0.00    -0.744 OA
ENDBRANCH  66  70
ENDBRANCH  40  63
ENDBRANCH  14  15
ENDBRANCH   7   9
ENDBRANCH   6   7
ENDBRANCH   5   6
ENDBRANCH   4   5
ENDBRANCH   3   4
ENDBRANCH   2   3
ENDBRANCH   1   2
BRANCH   1  74
ATOM     74  O   UNL A   1      37.732  20.685  25.572  1.00  0.00    -0.377 OA
BRANCH  74  75
ATOM     75  C   UNL A   1      36.570  20.832  24.758  1.00  0.00     0.188 C 
BRANCH  75  76
ATOM     76  C   UNL A   1      35.171  20.551  25.332  1.00  0.00     0.188 C 
BRANCH  76  77
ATOM     77  O   UNL A   1      34.426  19.534  24.676  1.00  0.00    -0.376 OA
BRANCH  77  78
ATOM     78  C   UNL A   1      33.023  19.567  24.932  1.00  0.00     0.202 C 
BRANCH  78  79
ATOM     79  C   UNL A   1      32.291  20.718  24.228  1.00  0.00     0.261 C 
BRANCH  79  80
ATOM     80  O   UNL A   1      31.714  21.711  25.087  1.00  0.00    -0.462 OA
BRANCH  80  81
ATOM     81  C   UNL A   1      31.707  22.994  24.644  1.00  0.00     0.329 C 
ATOM     82  O   UNL A   1      30.710  23.706  24.643  1.00  0.00    -0.250 OA
BRANCH  81  83
ATOM     83  C   UNL A   1      33.105  23.427  24.087  1.00  0.00     0.195 C 
BRANCH  83  84
ATOM     84  N   UNL A   1      32.944  23.992  22.708  1.00  0.00    -0.337 N 
ATOM     85  C   UNL A   1      33.023  25.189  22.053  1.00  0.00     0.278 C 
ATOM     86  H   UNL A   1      32.706  23.276  22.074  1.00  0.00     0.164 HD
ATOM     87  O   UNL A   1      33.295  25.214  20.853  1.00  0.00    -0.268 OA
BRANCH  85  88
ATOM     88  C   UNL A   1      32.699  26.443  22.828  1.00  0.00     0.272 C 
ATOM     89  C   UNL A   1      33.849  27.272  23.392  1.00  0.00     0.076 C 
ATOM     90  N   UNL A   1      31.996  27.392  21.934  1.00  0.00    -0.333 N 
ATOM     91  C   UNL A   1      33.253  28.388  24.279  1.00  0.00     0.016 C 
ATOM     92  C   UNL A   1      31.157  28.179  22.812  1.00  0.00     0.186 C 
ATOM     93  H   UNL A   1      31.429  26.887  21.251  1.00  0.00     0.347 HD
ATOM     94  H   UNL A   1      32.646  27.970  21.402  1.00  0.00     0.347 HD
ATOM     95  C   UNL A   1      32.043  29.125  23.633  1.00  0.00     0.048 C 
ATOM     96  C   UNL A   1      30.032  28.910  22.089  1.00  0.00     0.065 C 
ATOM     97  C   UNL A   1      31.149  29.779  24.698  1.00  0.00     0.010 C 
ATOM     98  C   UNL A   1      29.115  29.500  23.155  1.00  0.00     0.006 C 
ATOM     99  C   UNL A   1      29.890  30.422  24.098  1.00  0.00     0.001 C 
ENDBRANCH  85  88
ENDBRANCH  83  84
BRANCH  83 100
ATOM    100  C   UNL A   1      33.773  24.305  25.102  1.00  0.00     0.023 C 
ATOM    101  C   UNL A   1      34.506  23.739  26.305  1.00  0.00     0.007 C 
ATOM    102  C   UNL A   1      35.285  24.381  25.205  1.00  0.00     0.007 C 
ENDBRANCH  83 100
ENDBRANCH  81  83
ENDBRANCH  80  81
ENDBRANCH  79  80
ENDBRANCH  78  79
ENDBRANCH  77  78
ENDBRANCH  76  77
ENDBRANCH  75  76
ENDBRANCH  74  75
ENDBRANCH   1  74
TORSDOF 26
ENDMDL
MODEL 2
REMARK VINA RESULT:      -9.1      2.779      7.818
REMARK SMILES O=C(OCCOCCOCCOCCOC(=O)[C@@H](NC(=O)[C@H]1CC[C@@H]2CCCC[C@H]2[NH2+]1)C1CC1)c1ccc(-c2c3nc(c(-c4cc(S(=O)(=O)[O-])ccc4F)c4ccc([nH]4)c(-c4cc(S(=O)(=O)[O-])ccc4F)c4nc(c(-c5cc(S(=O)(=O)[O-])ccc5F)c5ccc2[nH]5)C=C4)C=C3)cc1
REMARK SMILES IDX 8 1 7 2 6 3 5 4 4 5 3 6 2 7 1 8 35 9 36 10 97 11 37 12 96 13
REMARK SMILES IDX 38 14 39 15 40 16 90 17 41 18 95 19 89 20 91 21 42 22 94 23
REMARK SMILES IDX 88 24 87 25 43 27 75 28 55 29 74 30 56 31 59 32 73 33 92 34
REMARK SMILES IDX 57 35 58 36 72 38 93 39 60 40 44 41 45 42 53 43 46 44 52 45
REMARK SMILES IDX 54 46 51 47 47 48 48 49 49 50 50 51 76 52 77 53 85 54 78 55
REMARK SMILES IDX 84 56 86 57 83 58 79 59 80 60 81 61 82 62 61 63 62 64 70 65
REMARK SMILES IDX 63 66 69 67 71 68 68 69 64 70 65 71 66 72 67 73 9 74 10 75
REMARK SMILES IDX 11 76 12 77 13 78 14 79 15 80 16 81 17 82 18 83 19 84 20 85
REMARK SMILES IDX 21 87 22 88 23 89 31 90 24 91 30 92 25 95 29 96 26 97 28 98
REMARK SMILES IDX 27 99 32 100 33 101 34 102
REMARK H PARENT 91 26 59 37 19 86 31 93 31 94
REMARK Flexibility Score: inf
ROOT
ATOM      1  C   UNL A   1      38.903  21.955  25.898  1.00  0.00     0.188 C 
ENDROOT
BRANCH   1   2
ATOM      2  C   UNL A   1      40.135  21.630  26.720  1.00  0.00     0.188 C 
BRANCH   2   3
ATOM      3  O   UNL A   1      41.266  22.216  26.110  1.00  0.00    -0.376 OA
BRANCH   3   4
ATOM      4  C   UNL A   1      42.539  21.695  26.459  1.00  0.00     0.202 C 
BRANCH   4   5
ATOM      5  C   UNL A   1      43.550  22.759  26.868  1.00  0.00     0.261 C 
BRANCH   5   6
ATOM      6  O   UNL A   1      44.869  22.552  26.329  1.00  0.00    -0.460 OA
BRANCH   6   7
ATOM      7  C   UNL A   1      45.807  23.459  25.961  1.00  0.00     0.338 C 
ATOM      8  O   UNL A   1      46.732  23.077  25.244  1.00  0.00    -0.246 OA
BRANCH   7   9
ATOM      9  C   UNL A   1      45.799  24.900  26.354  1.00  0.00     0.060 A 
ATOM     10  C   UNL A   1      46.271  25.407  27.560  1.00  0.00     0.016 A 
ATOM     11  C   UNL A   1      45.386  25.828  25.384  1.00  0.00     0.016 A 
ATOM     12  C   UNL A   1      46.279  26.754  27.848  1.00  0.00     0.010 A 
ATOM     13  C   UNL A   1      45.412  27.203  25.648  1.00  0.00     0.010 A 
ATOM     14  C   UNL A   1      45.835  27.660  26.901  1.00  0.00    -0.014 A 
BRANCH  14  15
ATOM     15  C   UNL A   1      45.611  29.029  27.385  1.00  0.00     0.031 A 
ATOM     16  C   UNL A   1      44.306  29.296  28.070  1.00  0.00     0.074 A 
ATOM     17  C   UNL A   1      46.636  29.900  27.422  1.00  0.00     0.049 A 
ATOM     18  N   UNL A   1      43.829  30.414  28.536  1.00  0.00    -0.248 NA
ATOM     19  C   UNL A   1      43.424  28.131  28.270  1.00  0.00     0.031 C 
ATOM     20  C   UNL A   1      48.003  29.618  26.965  1.00  0.00     0.029 A 
ATOM     21  N   UNL A   1      46.708  31.177  27.905  1.00  0.00    -0.354 N 
ATOM     22  C   UNL A   1      42.580  30.093  29.056  1.00  0.00     0.074 A 
ATOM     23  C   UNL A   1      42.363  28.684  28.829  1.00  0.00     0.031 C 
ATOM     24  C   UNL A   1      48.776  30.689  27.204  1.00  0.00     0.029 A 
ATOM     25  C   UNL A   1      47.943  31.760  27.733  1.00  0.00     0.049 A 
ATOM     26  H   UNL A   1      45.949  31.634  28.335  1.00  0.00     0.167 HD
ATOM     27  C   UNL A   1      41.702  30.920  29.669  1.00  0.00     0.034 A 
ATOM     28  C   UNL A   1      48.320  33.037  27.930  1.00  0.00     0.034 A 
ATOM     29  C   UNL A   1      41.974  32.320  29.852  1.00  0.00     0.049 A 
ATOM     30  C   UNL A   1      47.263  33.982  28.454  1.00  0.00     0.074 A 
ATOM     31  C   UNL A   1      41.143  33.315  30.325  1.00  0.00     0.029 A 
ATOM     32  N   UNL A   1      43.198  32.920  29.562  1.00  0.00    -0.354 N 
ATOM     33  N   UNL A   1      46.026  33.716  28.816  1.00  0.00    -0.248 NA
ATOM     34  C   UNL A   1      47.643  35.389  28.590  1.00  0.00     0.031 C 
ATOM     35  C   UNL A   1      41.845  34.525  30.262  1.00  0.00     0.029 A 
ATOM     36  C   UNL A   1      43.140  34.274  29.831  1.00  0.00     0.049 A 
ATOM     37  H   UNL A   1      43.989  32.447  29.216  1.00  0.00     0.167 HD
ATOM     38  C   UNL A   1      45.487  34.923  29.246  1.00  0.00     0.074 A 
ATOM     39  C   UNL A   1      46.548  35.906  29.125  1.00  0.00     0.031 C 
ATOM     40  C   UNL A   1      44.236  35.207  29.692  1.00  0.00     0.034 A 
BRANCH  27  41
ATOM     41  C   UNL A   1      40.369  30.330  30.053  1.00  0.00     0.023 A 
ATOM     42  C   UNL A   1      39.269  30.344  29.175  1.00  0.00     0.031 A 
ATOM     43  C   UNL A   1      40.162  29.858  31.361  1.00  0.00     0.131 A 
ATOM     44  C   UNL A   1      37.997  29.975  29.642  1.00  0.00     0.055 A 
ATOM     45  C   UNL A   1      38.912  29.411  31.793  1.00  0.00     0.041 A 
ATOM     46  F   UNL A   1      41.163  29.861  32.255  1.00  0.00    -0.206 F 
ATOM     47  C   UNL A   1      37.816  29.485  30.938  1.00  0.00     0.022 A 
BRANCH  44  48
ATOM     48  S   UNL A   1      36.559  30.306  28.587  1.00  0.00     0.124 S 
ATOM     49  O   UNL A   1      36.254  31.693  28.930  1.00  0.00    -0.237 OA
ATOM     50  O   UNL A   1      37.084  30.079  27.250  1.00  0.00    -0.237 OA
ATOM     51  O   UNL A   1      35.567  29.327  29.044  1.00  0.00    -0.744 OA
ENDBRANCH  44  48
ENDBRANCH  27  41
BRANCH  28  52
ATOM     52  C   UNL A   1      49.680  33.517  27.536  1.00  0.00     0.023 A 
ATOM     53  C   UNL A   1      50.757  33.496  28.435  1.00  0.00     0.031 A 
ATOM     54  C   UNL A   1      49.904  34.091  26.267  1.00  0.00     0.131 A 
ATOM     55  C   UNL A   1      51.979  34.094  28.082  1.00  0.00     0.055 A 
ATOM     56  C   UNL A   1      51.141  34.619  25.896  1.00  0.00     0.041 A 
ATOM     57  F   UNL A   1      48.914  34.156  25.363  1.00  0.00    -0.206 F 
ATOM     58  C   UNL A   1      52.183  34.642  26.815  1.00  0.00     0.022 A 
BRANCH  55  59
ATOM     59  S   UNL A   1      53.259  34.267  29.358  1.00  0.00     0.124 S 
ATOM     60  O   UNL A   1      53.942  32.985  29.268  1.00  0.00    -0.237 OA
ATOM     61  O   UNL A   1      54.001  35.429  28.886  1.00  0.00    -0.237 OA
ATOM     62  O   UNL A   1      52.487  34.479  30.585  1.00  0.00    -0.744 OA
ENDBRANCH  55  59
ENDBRANCH  28  52
BRANCH  40  63
ATOM     63  C   UNL A   1      43.989  36.626  30.129  1.00  0.00     0.023 A 
ATOM     64  C   UNL A   1      43.540  37.605  29.228  1.00  0.00     0.031 A 
ATOM     65  C   UNL A   1      44.217  37.000  31.465  1.00  0.00     0.131 A 
ATOM     66  C   UNL A   1      43.403  38.929  29.659  1.00  0.00     0.055 A 
ATOM     67  C   UNL A   1      44.002  38.304  31.905  1.00  0.00     0.041 A 
ATOM     68  F   UNL A   1      44.648  36.099  32.363  1.00  0.00    -0.206 F 
ATOM     69  C   UNL A   1      43.609  39.282  30.996  1.00  0.00     0.022 A 
BRANCH  66  70
ATOM     70  S   UNL A   1      43.066  40.208  28.420  1.00  0.00     0.124 S 
ATOM     71  O   UNL A   1      41.678  39.924  28.065  1.00  0.00    -0.237 OA
ATOM     72  O   UNL A   1      43.292  41.438  29.171  1.00  0.00    -0.237 OA
ATOM     73  O   UNL A   1      44.044  39.932  27.369  1.00  0.00    -0.744 OA
ENDBRANCH  66  70
ENDBRANCH  40  63
ENDBRANCH  14  15
ENDBRANCH   7   9
ENDBRANCH   6   7
ENDBRANCH   5   6
ENDBRANCH   4   5
ENDBRANCH   3   4
ENDBRANCH   2   3
ENDBRANCH   1   2
BRANCH   1  74
ATOM     74  O   UNL A   1      38.219  20.824  25.361  1.00  0.00    -0.377 OA
BRANCH  74  75
ATOM     75  C   UNL A   1      36.978  20.996  24.679  1.00  0.00     0.188 C 
BRANCH  75  76
ATOM     76  C   UNL A   1      35.776  20.092  25.003  1.00  0.00     0.188 C 
BRANCH  76  77
ATOM     77  O   UNL A   1      34.533  20.493  24.443  1.00  0.00    -0.376 OA
BRANCH  77  78
ATOM     78  C   UNL A   1      33.403  20.264  25.283  1.00  0.00     0.202 C 
BRANCH  78  79
ATOM     79  C   UNL A   1      32.128  20.983  24.817  1.00  0.00     0.261 C 
BRANCH  79  80
ATOM     80  O   UNL A   1      31.736  22.126  25.592  1.00  0.00    -0.462 OA
BRANCH  80  81
ATOM     81  C   UNL A   1      31.768  23.336  24.979  1.00  0.00     0.329 C 
ATOM     82  O   UNL A   1      30.811  24.100  24.937  1.00  0.00    -0.250 OA
BRANCH  81  83
ATOM     83  C   UNL A   1      33.148  23.606  24.291  1.00  0.00     0.195 C 
BRANCH  83  84
ATOM     84  N   UNL A   1      32.929  24.271  22.965  1.00  0.00    -0.337 N 
ATOM     85  C   UNL A   1      33.176  25.461  22.340  1.00  0.00     0.278 C 
ATOM     86  H   UNL A   1      32.457  23.660  22.354  1.00  0.00     0.164 HD
ATOM     87  O   UNL A   1      33.281  25.497  21.114  1.00  0.00    -0.268 OA
BRANCH  85  88
ATOM     88  C   UNL A   1      33.241  26.708  23.188  1.00  0.00     0.272 C 
ATOM     89  C   UNL A   1      33.446  28.053  22.497  1.00  0.00     0.076 C 
ATOM     90  N   UNL A   1      31.948  26.876  23.892  1.00  0.00    -0.333 N 
ATOM     91  C   UNL A   1      33.650  29.130  23.585  1.00  0.00     0.016 C 
ATOM     92  C   UNL A   1      32.277  27.587  25.110  1.00  0.00     0.186 C 
ATOM     93  H   UNL A   1      31.536  25.968  24.107  1.00  0.00     0.347 HD
ATOM     94  H   UNL A   1      31.266  27.380  23.326  1.00  0.00     0.347 HD
ATOM     95  C   UNL A   1      32.632  29.038  24.759  1.00  0.00     0.048 C 
ATOM     96  C   UNL A   1      31.202  27.489  26.185  1.00  0.00     0.065 C 
ATOM     97  C   UNL A   1      33.184  29.694  26.035  1.00  0.00     0.010 C 
ATOM     98  C   UNL A   1      31.783  28.084  27.464  1.00  0.00     0.006 C 
ATOM     99  C   UNL A   1      32.246  29.525  27.240  1.00  0.00     0.001 C 
ENDBRANCH  85  88
ENDBRANCH  83  84
BRANCH  83 100
ATOM    100  C   UNL A   1      34.037  24.321  25.265  1.00  0.00     0.023 C 
ATOM    101  C   UNL A   1      34.947  23.577  26.225  1.00  0.00     0.007 C 
ATOM    102  C   UNL A   1      35.544  24.340  25.090  1.00  0.00     0.007 C 
ENDBRANCH  83 100
ENDBRANCH  81  83
ENDBRANCH  80  81
ENDBRANCH  79  80
ENDBRANCH  78  79
ENDBRANCH  77  78
ENDBRANCH  76  77
ENDBRANCH  75  76
ENDBRANCH  74  75
ENDBRANCH   1  74
TORSDOF 26
ENDMDL
MODEL 3
REMARK VINA RESULT:      -9.0      4.892     10.241
REMARK SMILES O=C(OCCOCCOCCOCCOC(=O)[C@@H](NC(=O)[C@H]1CC[C@@H]2CCCC[C@H]2[NH2+]1)C1CC1)c1ccc(-c2c3nc(c(-c4cc(S(=O)(=O)[O-])ccc4F)c4ccc([nH]4)c(-c4cc(S(=O)(=O)[O-])ccc4F)c4nc(c(-c5cc(S(=O)(=O)[O-])ccc5F)c5ccc2[nH]5)C=C4)C=C3)cc1
REMARK SMILES IDX 8 1 7 2 6 3 5 4 4 5 3 6 2 7 1 8 35 9 36 10 97 11 37 12 96 13
REMARK SMILES IDX 38 14 39 15 40 16 90 17 41 18 95 19 89 20 91 21 42 22 94 23
REMARK SMILES IDX 88 24 87 25 43 27 75 28 55 29 74 30 56 31 59 32 73 33 92 34
REMARK SMILES IDX 57 35 58 36 72 38 93 39 60 40 44 41 45 42 53 43 46 44 52 45
REMARK SMILES IDX 54 46 51 47 47 48 48 49 49 50 50 51 76 52 77 53 85 54 78 55
REMARK SMILES IDX 84 56 86 57 83 58 79 59 80 60 81 61 82 62 61 63 62 64 70 65
REMARK SMILES IDX 63 66 69 67 71 68 68 69 64 70 65 71 66 72 67 73 9 74 10 75
REMARK SMILES IDX 11 76 12 77 13 78 14 79 15 80 16 81 17 82 18 83 19 84 20 85
REMARK SMILES IDX 21 87 22 88 23 89 31 90 24 91 30 92 25 95 29 96 26 97 28 98
REMARK SMILES IDX 27 99 32 100 33 101 34 102
REMARK H PARENT 91 26 59 37 19 86 31 93 31 94
REMARK Flexibility Score: inf
ROOT
ATOM      1  C   UNL A   1      41.425  19.673  26.707  1.00  0.00     0.188 C 
ENDROOT
BRANCH   1   2
ATOM      2  C   UNL A   1      42.602  18.987  26.042  1.00  0.00     0.188 C 
BRANCH   2   3
ATOM      3  O   UNL A   1      43.136  19.841  25.052  1.00  0.00    -0.376 OA
BRANCH   3   4
ATOM      4  C   UNL A   1      44.408  20.417  25.304  1.00  0.00     0.202 C 
BRANCH   4   5
ATOM      5  C   UNL A   1      44.545  21.852  24.811  1.00  0.00     0.261 C 
BRANCH   5   6
ATOM      6  O   UNL A   1      43.581  22.760  25.374  1.00  0.00    -0.460 OA
BRANCH   6   7
ATOM      7  C   UNL A   1      43.716  23.646  26.391  1.00  0.00     0.338 C 
ATOM      8  O   UNL A   1      43.149  23.397  27.456  1.00  0.00    -0.246 OA
BRANCH   7   9
ATOM      9  C   UNL A   1      44.515  24.907  26.322  1.00  0.00     0.060 A 
ATOM     10  C   UNL A   1      44.639  25.718  25.200  1.00  0.00     0.016 A 
ATOM     11  C   UNL A   1      45.093  25.367  27.516  1.00  0.00     0.016 A 
ATOM     12  C   UNL A   1      45.354  26.896  25.209  1.00  0.00     0.010 A 
ATOM     13  C   UNL A   1      45.801  26.574  27.552  1.00  0.00     0.010 A 
ATOM     14  C   UNL A   1      45.953  27.324  26.380  1.00  0.00    -0.014 A 
BRANCH  14  15
ATOM     15  C   UNL A   1      46.918  28.422  26.237  1.00  0.00     0.031 A 
ATOM     16  C   UNL A   1      46.386  29.812  26.403  1.00  0.00     0.074 A 
ATOM     17  C   UNL A   1      48.237  28.154  26.209  1.00  0.00     0.049 A 
ATOM     18  N   UNL A   1      46.997  30.954  26.272  1.00  0.00    -0.248 NA
ATOM     19  C   UNL A   1      44.967  29.925  26.790  1.00  0.00     0.031 C 
ATOM     20  C   UNL A   1      48.827  26.810  26.267  1.00  0.00     0.029 A 
ATOM     21  N   UNL A   1      49.319  28.988  26.177  1.00  0.00    -0.354 N 
ATOM     22  C   UNL A   1      46.031  31.920  26.529  1.00  0.00     0.074 A 
ATOM     23  C   UNL A   1      44.790  31.234  26.801  1.00  0.00     0.031 C 
ATOM     24  C   UNL A   1      50.166  26.919  26.278  1.00  0.00     0.029 A 
ATOM     25  C   UNL A   1      50.523  28.323  26.128  1.00  0.00     0.049 A 
ATOM     26  H   UNL A   1      49.244  29.969  26.189  1.00  0.00     0.167 HD
ATOM     27  C   UNL A   1      46.185  33.264  26.533  1.00  0.00     0.034 A 
ATOM     28  C   UNL A   1      51.760  28.810  25.920  1.00  0.00     0.034 A 
ATOM     29  C   UNL A   1      47.448  33.887  26.239  1.00  0.00     0.049 A 
ATOM     30  C   UNL A   1      51.880  30.307  25.754  1.00  0.00     0.074 A 
ATOM     31  C   UNL A   1      47.742  35.224  26.069  1.00  0.00     0.029 A 
ATOM     32  N   UNL A   1      48.642  33.187  26.077  1.00  0.00    -0.354 N 
ATOM     33  N   UNL A   1      50.941  31.224  25.853  1.00  0.00    -0.248 NA
ATOM     34  C   UNL A   1      53.210  30.834  25.444  1.00  0.00     0.031 C 
ATOM     35  C   UNL A   1      49.099  35.326  25.740  1.00  0.00     0.029 A 
ATOM     36  C   UNL A   1      49.672  34.063  25.790  1.00  0.00     0.049 A 
ATOM     37  H   UNL A   1      48.738  32.210  26.154  1.00  0.00     0.167 HD
ATOM     38  C   UNL A   1      51.576  32.443  25.639  1.00  0.00     0.074 A 
ATOM     39  C   UNL A   1      52.981  32.139  25.439  1.00  0.00     0.031 C 
ATOM     40  C   UNL A   1      51.058  33.699  25.602  1.00  0.00     0.034 A 
BRANCH  27  41
ATOM     41  C   UNL A   1      44.943  34.090  26.748  1.00  0.00     0.023 A 
ATOM     42  C   UNL A   1      44.446  34.364  28.036  1.00  0.00     0.031 A 
ATOM     43  C   UNL A   1      44.177  34.506  25.645  1.00  0.00     0.131 A 
ATOM     44  C   UNL A   1      43.182  34.956  28.187  1.00  0.00     0.055 A 
ATOM     45  C   UNL A   1      42.960  35.173  25.803  1.00  0.00     0.041 A 
ATOM     46  F   UNL A   1      44.579  34.236  24.393  1.00  0.00    -0.206 F 
ATOM     47  C   UNL A   1      42.447  35.386  27.080  1.00  0.00     0.022 A 
BRANCH  44  48
ATOM     48  S   UNL A   1      42.441  35.003  29.842  1.00  0.00     0.124 S 
ATOM     49  O   UNL A   1      42.890  33.730  30.403  1.00  0.00    -0.237 OA
ATOM     50  O   UNL A   1      43.028  36.199  30.423  1.00  0.00    -0.237 OA
ATOM     51  O   UNL A   1      41.002  35.081  29.570  1.00  0.00    -0.744 OA
ENDBRANCH  44  48
ENDBRANCH  27  41
BRANCH  28  52
ATOM     52  C   UNL A   1      52.935  27.902  25.745  1.00  0.00     0.023 A 
ATOM     53  C   UNL A   1      53.752  27.538  26.826  1.00  0.00     0.031 A 
ATOM     54  C   UNL A   1      53.315  27.451  24.464  1.00  0.00     0.131 A 
ATOM     55  C   UNL A   1      54.933  26.810  26.601  1.00  0.00     0.055 A 
ATOM     56  C   UNL A   1      54.451  26.666  24.255  1.00  0.00     0.041 A 
ATOM     57  F   UNL A   1      52.586  27.773  23.383  1.00  0.00    -0.206 F 
ATOM     58  C   UNL A   1      55.280  26.359  25.327  1.00  0.00     0.022 A 
BRANCH  55  59
ATOM     59  S   UNL A   1      56.083  26.575  27.986  1.00  0.00     0.124 S 
ATOM     60  O   UNL A   1      55.598  27.557  28.945  1.00  0.00    -0.237 OA
ATOM     61  O   UNL A   1      55.862  25.176  28.329  1.00  0.00    -0.237 OA
ATOM     62  O   UNL A   1      57.390  26.871  27.395  1.00  0.00    -0.744 OA
ENDBRANCH  55  59
ENDBRANCH  28  52
BRANCH  40  63
ATOM     63  C   UNL A   1      52.040  34.819  25.392  1.00  0.00     0.023 A 
ATOM     64  C   UNL A   1      52.562  35.552  26.469  1.00  0.00     0.031 A 
ATOM     65  C   UNL A   1      52.448  35.160  24.090  1.00  0.00     0.131 A 
ATOM     66  C   UNL A   1      53.409  36.639  26.220  1.00  0.00     0.055 A 
ATOM     67  C   UNL A   1      53.354  36.192  23.856  1.00  0.00     0.041 A 
ATOM     68  F   UNL A   1      51.975  34.489  23.027  1.00  0.00    -0.206 F 
ATOM     69  C   UNL A   1      53.826  36.950  24.923  1.00  0.00     0.022 A 
BRANCH  66  70
ATOM     70  S   UNL A   1      53.863  37.712  27.608  1.00  0.00     0.124 S 
ATOM     71  O   UNL A   1      55.229  37.281  27.887  1.00  0.00    -0.237 OA
ATOM     72  O   UNL A   1      53.721  39.045  27.030  1.00  0.00    -0.237 OA
ATOM     73  O   UNL A   1      52.883  37.374  28.637  1.00  0.00    -0.744 OA
ENDBRANCH  66  70
ENDBRANCH  40  63
ENDBRANCH  14  15
ENDBRANCH   7   9
ENDBRANCH   6   7
ENDBRANCH   5   6
ENDBRANCH   4   5
ENDBRANCH   3   4
ENDBRANCH   2   3
ENDBRANCH   1   2
BRANCH   1  74
ATOM     74  O   UNL A   1      40.232  19.723  25.926  1.00  0.00    -0.377 OA
BRANCH  74  75
ATOM     75  C   UNL A   1      39.340  20.828  26.050  1.00  0.00     0.188 C 
BRANCH  75  76
ATOM     76  C   UNL A   1      39.840  22.180  26.589  1.00  0.00     0.188 C 
BRANCH  76  77
ATOM     77  O   UNL A   1      38.982  23.290  26.366  1.00  0.00    -0.376 OA
BRANCH  77  78
ATOM     78  C   UNL A   1      37.854  23.011  25.539  1.00  0.00     0.202 C 
BRANCH  78  79
ATOM     79  C   UNL A   1      36.711  24.026  25.686  1.00  0.00     0.261 C 
BRANCH  79  80
ATOM     80  O   UNL A   1      35.386  23.509  25.488  1.00  0.00    -0.462 OA
BRANCH  80  81
ATOM     81  C   UNL A   1      34.516  24.276  24.782  1.00  0.00     0.329 C 
ATOM     82  O   UNL A   1      34.818  24.872  23.754  1.00  0.00    -0.250 OA
BRANCH  81  83
ATOM     83  C   UNL A   1      33.111  24.347  25.467  1.00  0.00     0.195 C 
BRANCH  83  84
ATOM     84  N   UNL A   1      33.057  23.374  26.607  1.00  0.00    -0.337 N 
ATOM     85  C   UNL A   1      33.250  22.043  26.854  1.00  0.00     0.278 C 
ATOM     86  H   UNL A   1      32.802  23.838  27.437  1.00  0.00     0.164 HD
ATOM     87  O   UNL A   1      33.581  21.672  27.980  1.00  0.00    -0.268 OA
BRANCH  85  88
ATOM     88  C   UNL A   1      32.976  21.067  25.736  1.00  0.00     0.272 C 
ATOM     89  C   UNL A   1      32.338  21.587  24.450  1.00  0.00     0.076 C 
ATOM     90  N   UNL A   1      34.262  20.493  25.275  1.00  0.00    -0.333 N 
ATOM     91  C   UNL A   1      32.007  20.377  23.550  1.00  0.00     0.016 C 
ATOM     92  C   UNL A   1      33.923  19.179  24.770  1.00  0.00     0.186 C 
ATOM     93  H   UNL A   1      34.920  20.420  26.051  1.00  0.00     0.347 HD
ATOM     94  H   UNL A   1      34.709  21.073  24.566  1.00  0.00     0.347 HD
ATOM     95  C   UNL A   1      33.160  19.335  23.448  1.00  0.00     0.048 C 
ATOM     96  C   UNL A   1      35.118  18.243  24.650  1.00  0.00     0.065 C 
ATOM     97  C   UNL A   1      32.630  17.946  23.059  1.00  0.00     0.010 C 
ATOM     98  C   UNL A   1      34.577  16.853  24.329  1.00  0.00     0.006 C 
ATOM     99  C   UNL A   1      33.730  16.873  23.055  1.00  0.00     0.001 C 
ENDBRANCH  85  88
ENDBRANCH  83  84
BRANCH  83 100
ATOM    100  C   UNL A   1      32.807  25.779  25.789  1.00  0.00     0.023 C 
ATOM    101  C   UNL A   1      31.860  26.614  24.946  1.00  0.00     0.007 C 
ATOM    102  C   UNL A   1      31.448  26.197  26.319  1.00  0.00     0.007 C 
ENDBRANCH  83 100
ENDBRANCH  81  83
ENDBRANCH  80  81
ENDBRANCH  79  80
ENDBRANCH  78  79
ENDBRANCH  77  78
ENDBRANCH  76  77
ENDBRANCH  75  76
ENDBRANCH  74  75
ENDBRANCH   1  74
TORSDOF 26
ENDMDL
