MODEL 1
REMARK VINA RESULT:      -9.3      0.000      0.000
REMARK SMILES Cc1occc1C(=O)N[C@@H](C)CC(=O)OCCOCCOCCOCCOC(=O)c1ccc(-c2c3nc(c(-c4cc(S(=O)(=O)[O-])ccc4F)c4ccc([nH]4)c(-c4cc(S(=O)(=O)[O-])ccc4F)c4nc(c(-c5cc(S(=O)(=O)[O-])ccc5F)c5ccc2[nH]5)C=C4)C=C3)cc1
REMARK SMILES IDX 21 1 20 2 19 3 18 4 17 5 16 6 15 7 13 8 14 9 12 10 10 11
REMARK SMILES IDX 11 12 9 13 7 14 8 15 6 17 1 18 2 19 3 20 4 21 5 22 22 23
REMARK SMILES IDX 23 24 24 25 25 26 26 27 27 28 28 29 29 30 30 31 31 32 92 33
REMARK SMILES IDX 32 34 91 35 33 36 34 37 35 38 85 39 36 40 90 41 84 42 86 43
REMARK SMILES IDX 37 44 89 45 83 46 82 47 38 49 70 50 50 51 69 52 51 53 54 54
REMARK SMILES IDX 68 55 87 56 52 57 53 58 67 60 88 61 55 62 39 63 40 64 48 65
REMARK SMILES IDX 41 66 47 67 49 68 46 69 42 70 43 71 44 72 45 73 71 74 72 75
REMARK SMILES IDX 80 76 73 77 79 78 81 79 78 80 74 81 75 82 76 83 77 84 56 85
REMARK SMILES IDX 57 86 65 87 58 88 64 89 66 90 63 91 59 92 60 93 61 94 62 95
REMARK H PARENT 9 16 86 48 54 59
REMARK Flexibility Score: inf
ROOT
ATOM      1  O   UNL A   1      33.308  22.658  27.664  1.00  0.00    -0.377 OA
ENDROOT
BRANCH   1   2
ATOM      2  C   UNL A   1      32.768  23.397  26.597  1.00  0.00     0.188 C 
BRANCH   2   3
ATOM      3  C   UNL A   1      33.600  24.582  26.103  1.00  0.00     0.188 C 
BRANCH   3   4
ATOM      4  O   UNL A   1      34.757  24.412  25.293  1.00  0.00    -0.376 OA
BRANCH   4   5
ATOM      5  C   UNL A   1      34.647  24.454  23.880  1.00  0.00     0.202 C 
BRANCH   5   6
ATOM      6  C   UNL A   1      33.456  23.696  23.270  1.00  0.00     0.261 C 
BRANCH   6   7
ATOM      7  O   UNL A   1      32.475  24.466  22.539  1.00  0.00    -0.463 OA
BRANCH   7   8
ATOM      8  C   UNL A   1      31.328  24.770  23.194  1.00  0.00     0.307 C 
ATOM      9  O   UNL A   1      30.665  23.970  23.848  1.00  0.00    -0.252 OA
BRANCH   8  10
ATOM     10  C   UNL A   1      30.829  26.181  22.931  1.00  0.00     0.147 C 
BRANCH  10  11
ATOM     11  C   UNL A   1      29.946  26.899  23.970  1.00  0.00     0.090 C 
ATOM     12  C   UNL A   1      28.524  26.331  23.887  1.00  0.00     0.031 C 
BRANCH  11  13
ATOM     13  N   UNL A   1      29.874  28.334  23.759  1.00  0.00    -0.349 N 
ATOM     14  C   UNL A   1      30.576  29.424  24.196  1.00  0.00     0.255 C 
ATOM     15  O   UNL A   1      30.078  30.500  23.847  1.00  0.00    -0.269 OA
ATOM     16  H   UNL A   1      29.139  28.583  23.153  1.00  0.00     0.164 HD
BRANCH  14  17
ATOM     17  C   UNL A   1      31.807  29.439  24.997  1.00  0.00     0.080 A 
ATOM     18  C   UNL A   1      33.916  28.139  23.947  1.00  0.00     0.088 C 
ATOM     19  C   UNL A   1      33.103  28.938  24.887  1.00  0.00     0.113 A 
ATOM     20  O   UNL A   1      33.853  29.319  25.971  1.00  0.00    -0.469 OA
ATOM     21  C   UNL A   1      33.071  30.036  26.798  1.00  0.00     0.196 A 
ATOM     22  C   UNL A   1      31.820  30.144  26.262  1.00  0.00     0.056 A 
ENDBRANCH  14  17
ENDBRANCH  11  13
ENDBRANCH  10  11
ENDBRANCH   8  10
ENDBRANCH   7   8
ENDBRANCH   6   7
ENDBRANCH   5   6
ENDBRANCH   4   5
ENDBRANCH   3   4
ENDBRANCH   2   3
ENDBRANCH   1   2
BRANCH   1  23
ATOM     23  C   UNL A   1      33.738  21.353  27.335  1.00  0.00     0.188 C 
BRANCH  23  24
ATOM     24  C   UNL A   1      33.372  20.906  25.913  1.00  0.00     0.188 C 
BRANCH  24  25
ATOM     25  O   UNL A   1      34.324  20.158  25.166  1.00  0.00    -0.376 OA
BRANCH  25  26
ATOM     26  C   UNL A   1      35.504  20.742  24.634  1.00  0.00     0.202 C 
BRANCH  26  27
ATOM     27  C   UNL A   1      36.918  20.242  24.956  1.00  0.00     0.261 C 
BRANCH  27  28
ATOM     28  O   UNL A   1      37.922  21.259  25.053  1.00  0.00    -0.460 OA
BRANCH  28  29
ATOM     29  C   UNL A   1      38.959  20.970  25.872  1.00  0.00     0.338 C 
ATOM     30  O   UNL A   1      39.537  19.893  25.960  1.00  0.00    -0.246 OA
BRANCH  29  31
ATOM     31  C   UNL A   1      39.458  22.197  26.519  1.00  0.00     0.060 A 
ATOM     32  C   UNL A   1      38.917  23.418  26.098  1.00  0.00     0.016 A 
ATOM     33  C   UNL A   1      40.491  22.169  27.459  1.00  0.00     0.016 A 
ATOM     34  C   UNL A   1      39.438  24.618  26.577  1.00  0.00     0.010 A 
ATOM     35  C   UNL A   1      41.025  23.377  27.927  1.00  0.00     0.010 A 
ATOM     36  C   UNL A   1      40.531  24.607  27.451  1.00  0.00    -0.014 A 
BRANCH  36  37
ATOM     37  C   UNL A   1      41.284  25.872  27.666  1.00  0.00     0.031 A 
ATOM     38  C   UNL A   1      40.603  26.991  28.411  1.00  0.00     0.074 A 
ATOM     39  C   UNL A   1      42.571  25.998  27.294  1.00  0.00     0.049 A 
ATOM     40  N   UNL A   1      41.057  28.174  28.738  1.00  0.00    -0.248 NA
ATOM     41  C   UNL A   1      39.220  26.737  28.843  1.00  0.00     0.031 C 
ATOM     42  C   UNL A   1      43.361  24.966  26.624  1.00  0.00     0.029 A 
ATOM     43  N   UNL A   1      43.443  27.049  27.438  1.00  0.00    -0.354 N 
ATOM     44  C   UNL A   1      40.018  28.804  29.415  1.00  0.00     0.074 A 
ATOM     45  C   UNL A   1      38.894  27.892  29.402  1.00  0.00     0.031 C 
ATOM     46  C   UNL A   1      44.605  25.434  26.422  1.00  0.00     0.029 A 
ATOM     47  C   UNL A   1      44.691  26.811  26.910  1.00  0.00     0.049 A 
ATOM     48  H   UNL A   1      43.198  27.894  27.879  1.00  0.00     0.167 HD
ATOM     49  C   UNL A   1      40.004  30.023  30.010  1.00  0.00     0.034 A 
ATOM     50  C   UNL A   1      45.769  27.617  26.816  1.00  0.00     0.034 A 
ATOM     51  C   UNL A   1      41.125  30.931  30.004  1.00  0.00     0.049 A 
ATOM     52  C   UNL A   1      45.691  29.019  27.379  1.00  0.00     0.074 A 
ATOM     53  C   UNL A   1      41.217  32.189  30.574  1.00  0.00     0.029 A 
ATOM     54  N   UNL A   1      42.344  30.686  29.387  1.00  0.00    -0.354 N 
ATOM     55  N   UNL A   1      44.702  29.604  28.017  1.00  0.00    -0.248 NA
ATOM     56  C   UNL A   1      46.880  29.866  27.213  1.00  0.00     0.031 C 
ATOM     57  C   UNL A   1      42.457  32.737  30.230  1.00  0.00     0.029 A 
ATOM     58  C   UNL A   1      43.179  31.785  29.527  1.00  0.00     0.049 A 
ATOM     59  H   UNL A   1      42.583  29.854  28.917  1.00  0.00     0.167 HD
ATOM     60  C   UNL A   1      45.168  30.872  28.361  1.00  0.00     0.074 A 
ATOM     61  C   UNL A   1      46.528  30.961  27.871  1.00  0.00     0.031 C 
ATOM     62  C   UNL A   1      44.533  31.871  29.028  1.00  0.00     0.034 A 
BRANCH  49  63
ATOM     63  C   UNL A   1      38.712  30.458  30.664  1.00  0.00     0.023 A 
ATOM     64  C   UNL A   1      37.745  31.205  29.968  1.00  0.00     0.031 A 
ATOM     65  C   UNL A   1      38.465  30.159  32.015  1.00  0.00     0.131 A 
ATOM     66  C   UNL A   1      36.619  31.696  30.646  1.00  0.00     0.055 A 
ATOM     67  C   UNL A   1      37.297  30.573  32.659  1.00  0.00     0.041 A 
ATOM     68  F   UNL A   1      39.362  29.472  32.739  1.00  0.00    -0.206 F 
ATOM     69  C   UNL A   1      36.374  31.362  31.979  1.00  0.00     0.022 A 
BRANCH  66  70
ATOM     70  S   UNL A   1      35.568  32.915  29.808  1.00  0.00     0.124 S 
ATOM     71  O   UNL A   1      34.885  33.541  30.938  1.00  0.00    -0.237 OA
ATOM     72  O   UNL A   1      36.543  33.745  29.110  1.00  0.00    -0.237 OA
ATOM     73  O   UNL A   1      34.714  32.097  28.949  1.00  0.00    -0.744 OA
ENDBRANCH  66  70
ENDBRANCH  49  63
BRANCH  50  74
ATOM     74  C   UNL A   1      47.010  27.150  26.129  1.00  0.00     0.023 A 
ATOM     75  C   UNL A   1      48.001  26.437  26.824  1.00  0.00     0.031 A 
ATOM     76  C   UNL A   1      47.255  27.474  24.783  1.00  0.00     0.131 A 
ATOM     77  C   UNL A   1      49.211  26.116  26.185  1.00  0.00     0.055 A 
ATOM     78  C   UNL A   1      48.434  27.099  24.135  1.00  0.00     0.041 A 
ATOM     79  F   UNL A   1      46.349  28.164  24.074  1.00  0.00    -0.206 F 
ATOM     80  C   UNL A   1      49.427  26.429  24.841  1.00  0.00     0.022 A 
BRANCH  77  81
ATOM     81  S   UNL A   1      50.543  25.374  27.168  1.00  0.00     0.124 S 
ATOM     82  O   UNL A   1      51.401  24.816  26.130  1.00  0.00    -0.237 OA
ATOM     83  O   UNL A   1      51.070  26.529  27.887  1.00  0.00    -0.237 OA
ATOM     84  O   UNL A   1      49.846  24.392  27.997  1.00  0.00    -0.744 OA
ENDBRANCH  77  81
ENDBRANCH  50  74
BRANCH  62  85
ATOM     85  C   UNL A   1      45.321  33.129  29.315  1.00  0.00     0.023 A 
ATOM     86  C   UNL A   1      46.080  33.283  30.487  1.00  0.00     0.031 A 
ATOM     87  C   UNL A   1      45.306  34.196  28.397  1.00  0.00     0.131 A 
ATOM     88  C   UNL A   1      46.746  34.493  30.738  1.00  0.00     0.055 A 
ATOM     89  C   UNL A   1      46.025  35.371  28.619  1.00  0.00     0.041 A 
ATOM     90  F   UNL A   1      44.595  34.110  27.261  1.00  0.00    -0.206 F 
ATOM     91  C   UNL A   1      46.739  35.530  29.802  1.00  0.00     0.022 A 
BRANCH  88  92
ATOM     92  S   UNL A   1      47.538  34.737  32.352  1.00  0.00     0.124 S 
ATOM     93  O   UNL A   1      46.815  35.892  32.874  1.00  0.00    -0.237 OA
ATOM     94  O   UNL A   1      47.278  33.466  33.022  1.00  0.00    -0.237 OA
ATOM     95  O   UNL A   1      48.939  34.982  32.014  1.00  0.00    -0.744 OA
ENDBRANCH  88  92
ENDBRANCH  62  85
ENDBRANCH  36  37
ENDBRANCH  29  31
ENDBRANCH  28  29
ENDBRANCH  27  28
ENDBRANCH  26  27
ENDBRANCH  25  26
ENDBRANCH  24  25
ENDBRANCH  23  24
ENDBRANCH   1  23
TORSDOF 26
ENDMDL
MODEL 2
REMARK VINA RESULT:      -9.3      2.326      8.157
REMARK SMILES Cc1occc1C(=O)N[C@@H](C)CC(=O)OCCOCCOCCOCCOC(=O)c1ccc(-c2c3nc(c(-c4cc(S(=O)(=O)[O-])ccc4F)c4ccc([nH]4)c(-c4cc(S(=O)(=O)[O-])ccc4F)c4nc(c(-c5cc(S(=O)(=O)[O-])ccc5F)c5ccc2[nH]5)C=C4)C=C3)cc1
REMARK SMILES IDX 21 1 20 2 19 3 18 4 17 5 16 6 15 7 13 8 14 9 12 10 10 11
REMARK SMILES IDX 11 12 9 13 7 14 8 15 6 17 1 18 2 19 3 20 4 21 5 22 22 23
REMARK SMILES IDX 23 24 24 25 25 26 26 27 27 28 28 29 29 30 30 31 31 32 92 33
REMARK SMILES IDX 32 34 91 35 33 36 34 37 35 38 85 39 36 40 90 41 84 42 86 43
REMARK SMILES IDX 37 44 89 45 83 46 82 47 38 49 70 50 50 51 69 52 51 53 54 54
REMARK SMILES IDX 68 55 87 56 52 57 53 58 67 60 88 61 55 62 39 63 40 64 48 65
REMARK SMILES IDX 41 66 47 67 49 68 46 69 42 70 43 71 44 72 45 73 71 74 72 75
REMARK SMILES IDX 80 76 73 77 79 78 81 79 78 80 74 81 75 82 76 83 77 84 56 85
REMARK SMILES IDX 57 86 65 87 58 88 64 89 66 90 63 91 59 92 60 93 61 94 62 95
REMARK H PARENT 9 16 86 48 54 59
REMARK Flexibility Score: inf
ROOT
ATOM      1  O   UNL A   1      33.475  23.748  26.834  1.00  0.00    -0.377 OA
ENDROOT
BRANCH   1   2
ATOM      2  C   UNL A   1      33.374  24.761  25.865  1.00  0.00     0.188 C 
BRANCH   2   3
ATOM      3  C   UNL A   1      33.074  26.168  26.385  1.00  0.00     0.188 C 
BRANCH   3   4
ATOM      4  O   UNL A   1      31.867  26.483  27.071  1.00  0.00    -0.376 OA
BRANCH   4   5
ATOM      5  C   UNL A   1      31.232  27.731  26.854  1.00  0.00     0.202 C 
BRANCH   5   6
ATOM      6  C   UNL A   1      31.982  28.726  25.952  1.00  0.00     0.261 C 
BRANCH   6   7
ATOM      7  O   UNL A   1      31.219  29.419  24.939  1.00  0.00    -0.463 OA
BRANCH   7   8
ATOM      8  C   UNL A   1      31.349  28.970  23.666  1.00  0.00     0.307 C 
ATOM      9  O   UNL A   1      30.890  29.534  22.677  1.00  0.00    -0.252 OA
BRANCH   8  10
ATOM     10  C   UNL A   1      31.998  27.600  23.564  1.00  0.00     0.147 C 
BRANCH  10  11
ATOM     11  C   UNL A   1      33.319  27.421  22.792  1.00  0.00     0.090 C 
ATOM     12  C   UNL A   1      33.934  28.802  22.538  1.00  0.00     0.031 C 
BRANCH  11  13
ATOM     13  N   UNL A   1      33.143  26.761  21.511  1.00  0.00    -0.349 N 
ATOM     14  C   UNL A   1      32.867  25.487  21.096  1.00  0.00     0.255 C 
ATOM     15  O   UNL A   1      32.928  25.347  19.869  1.00  0.00    -0.269 OA
ATOM     16  H   UNL A   1      33.248  27.384  20.756  1.00  0.00     0.164 HD
BRANCH  14  17
ATOM     17  C   UNL A   1      32.520  24.326  21.925  1.00  0.00     0.080 A 
ATOM     18  C   UNL A   1      30.354  24.603  23.497  1.00  0.00     0.088 C 
ATOM     19  C   UNL A   1      31.535  23.993  22.854  1.00  0.00     0.113 A 
ATOM     20  O   UNL A   1      31.707  22.701  23.285  1.00  0.00    -0.469 OA
ATOM     21  C   UNL A   1      32.794  22.191  22.678  1.00  0.00     0.196 A 
ATOM     22  C   UNL A   1      33.329  23.128  21.842  1.00  0.00     0.056 A 
ENDBRANCH  14  17
ENDBRANCH  11  13
ENDBRANCH  10  11
ENDBRANCH   8  10
ENDBRANCH   7   8
ENDBRANCH   6   7
ENDBRANCH   5   6
ENDBRANCH   4   5
ENDBRANCH   3   4
ENDBRANCH   2   3
ENDBRANCH   1   2
BRANCH   1  23
ATOM     23  C   UNL A   1      34.611  22.916  26.720  1.00  0.00     0.188 C 
BRANCH  23  24
ATOM     24  C   UNL A   1      35.152  22.778  25.290  1.00  0.00     0.188 C 
BRANCH  24  25
ATOM     25  O   UNL A   1      35.723  21.538  24.892  1.00  0.00    -0.376 OA
BRANCH  25  26
ATOM     26  C   UNL A   1      37.089  21.410  24.525  1.00  0.00     0.202 C 
BRANCH  26  27
ATOM     27  C   UNL A   1      38.150  20.754  25.418  1.00  0.00     0.261 C 
BRANCH  27  28
ATOM     28  O   UNL A   1      39.428  21.403  25.431  1.00  0.00    -0.460 OA
BRANCH  28  29
ATOM     29  C   UNL A   1      40.167  21.199  26.545  1.00  0.00     0.338 C 
ATOM     30  O   UNL A   1      40.724  20.156  26.867  1.00  0.00    -0.246 OA
BRANCH  29  31
ATOM     31  C   UNL A   1      40.400  22.474  27.246  1.00  0.00     0.060 A 
ATOM     32  C   UNL A   1      39.613  23.572  26.874  1.00  0.00     0.016 A 
ATOM     33  C   UNL A   1      41.418  22.624  28.190  1.00  0.00     0.016 A 
ATOM     34  C   UNL A   1      39.872  24.832  27.406  1.00  0.00     0.010 A 
ATOM     35  C   UNL A   1      41.688  23.896  28.712  1.00  0.00     0.010 A 
ATOM     36  C   UNL A   1      40.946  25.015  28.285  1.00  0.00    -0.014 A 
BRANCH  36  37
ATOM     37  C   UNL A   1      41.417  26.399  28.557  1.00  0.00     0.031 A 
ATOM     38  C   UNL A   1      42.809  26.778  28.123  1.00  0.00     0.074 A 
ATOM     39  C   UNL A   1      40.603  27.327  29.092  1.00  0.00     0.049 A 
ATOM     40  N   UNL A   1      43.435  27.922  28.230  1.00  0.00    -0.248 NA
ATOM     41  C   UNL A   1      43.601  25.717  27.481  1.00  0.00     0.031 C 
ATOM     42  C   UNL A   1      39.216  27.104  29.494  1.00  0.00     0.029 A 
ATOM     43  N   UNL A   1      40.828  28.652  29.378  1.00  0.00    -0.354 N 
ATOM     44  C   UNL A   1      44.692  27.721  27.669  1.00  0.00     0.074 A 
ATOM     45  C   UNL A   1      44.756  26.330  27.273  1.00  0.00     0.031 C 
ATOM     46  C   UNL A   1      38.710  28.256  29.969  1.00  0.00     0.029 A 
ATOM     47  C   UNL A   1      39.747  29.288  29.943  1.00  0.00     0.049 A 
ATOM     48  H   UNL A   1      41.682  29.104  29.195  1.00  0.00     0.167 HD
ATOM     49  C   UNL A   1      45.695  28.614  27.482  1.00  0.00     0.034 A 
ATOM     50  C   UNL A   1      39.617  30.550  30.402  1.00  0.00     0.034 A 
ATOM     51  C   UNL A   1      45.626  29.995  27.894  1.00  0.00     0.049 A 
ATOM     52  C   UNL A   1      40.791  31.498  30.294  1.00  0.00     0.074 A 
ATOM     53  C   UNL A   1      46.584  30.984  27.754  1.00  0.00     0.029 A 
ATOM     54  N   UNL A   1      44.544  30.580  28.538  1.00  0.00    -0.354 N 
ATOM     55  N   UNL A   1      41.975  31.295  29.761  1.00  0.00    -0.248 NA
ATOM     56  C   UNL A   1      40.606  32.847  30.845  1.00  0.00     0.031 C 
ATOM     57  C   UNL A   1      46.116  32.140  28.388  1.00  0.00     0.029 A 
ATOM     58  C   UNL A   1      44.827  31.905  28.838  1.00  0.00     0.049 A 
ATOM     59  H   UNL A   1      43.698  30.122  28.751  1.00  0.00     0.167 HD
ATOM     60  C   UNL A   1      42.658  32.504  29.881  1.00  0.00     0.074 A 
ATOM     61  C   UNL A   1      41.751  33.432  30.523  1.00  0.00     0.031 C 
ATOM     62  C   UNL A   1      43.919  32.823  29.488  1.00  0.00     0.034 A 
BRANCH  49  63
ATOM     63  C   UNL A   1      46.970  28.100  26.854  1.00  0.00     0.023 A 
ATOM     64  C   UNL A   1      47.191  28.165  25.467  1.00  0.00     0.031 A 
ATOM     65  C   UNL A   1      47.961  27.497  27.650  1.00  0.00     0.131 A 
ATOM     66  C   UNL A   1      48.331  27.564  24.910  1.00  0.00     0.055 A 
ATOM     67  C   UNL A   1      49.136  26.984  27.099  1.00  0.00     0.041 A 
ATOM     68  F   UNL A   1      47.797  27.383  28.976  1.00  0.00    -0.206 F 
ATOM     69  C   UNL A   1      49.318  26.999  25.719  1.00  0.00     0.022 A 
BRANCH  66  70
ATOM     70  S   UNL A   1      48.420  27.384  23.107  1.00  0.00     0.124 S 
ATOM     71  O   UNL A   1      48.334  25.934  22.952  1.00  0.00    -0.237 OA
ATOM     72  O   UNL A   1      47.262  28.146  22.656  1.00  0.00    -0.237 OA
ATOM     73  O   UNL A   1      49.719  27.962  22.770  1.00  0.00    -0.744 OA
ENDBRANCH  66  70
ENDBRANCH  49  63
BRANCH  50  74
ATOM     74  C   UNL A   1      38.345  30.998  31.045  1.00  0.00     0.023 A 
ATOM     75  C   UNL A   1      37.328  31.615  30.297  1.00  0.00     0.031 A 
ATOM     76  C   UNL A   1      38.159  30.881  32.434  1.00  0.00     0.131 A 
ATOM     77  C   UNL A   1      36.197  32.135  30.947  1.00  0.00     0.055 A 
ATOM     78  C   UNL A   1      37.005  31.344  33.068  1.00  0.00     0.041 A 
ATOM     79  F   UNL A   1      39.102  30.311  33.200  1.00  0.00    -0.206 F 
ATOM     80  C   UNL A   1      36.022  31.989  32.325  1.00  0.00     0.022 A 
BRANCH  77  81
ATOM     81  S   UNL A   1      35.004  33.098  29.978  1.00  0.00     0.124 S 
ATOM     82  O   UNL A   1      34.437  32.076  29.105  1.00  0.00    -0.237 OA
ATOM     83  O   UNL A   1      34.121  33.620  31.015  1.00  0.00    -0.237 OA
ATOM     84  O   UNL A   1      35.836  34.097  29.311  1.00  0.00    -0.744 OA
ENDBRANCH  77  81
ENDBRANCH  50  74
BRANCH  62  85
ATOM     85  C   UNL A   1      44.374  34.250  29.694  1.00  0.00     0.023 A 
ATOM     86  C   UNL A   1      44.020  35.281  28.807  1.00  0.00     0.031 A 
ATOM     87  C   UNL A   1      45.182  34.581  30.798  1.00  0.00     0.131 A 
ATOM     88  C   UNL A   1      44.517  36.579  29.006  1.00  0.00     0.055 A 
ATOM     89  C   UNL A   1      45.617  35.887  31.029  1.00  0.00     0.041 A 
ATOM     90  F   UNL A   1      45.557  33.638  31.677  1.00  0.00    -0.206 F 
ATOM     91  C   UNL A   1      45.296  36.892  30.123  1.00  0.00     0.022 A 
BRANCH  88  92
ATOM     92  S   UNL A   1      44.219  37.834  27.731  1.00  0.00     0.124 S 
ATOM     93  O   UNL A   1      42.915  37.436  27.211  1.00  0.00    -0.237 OA
ATOM     94  O   UNL A   1      44.246  39.074  28.502  1.00  0.00    -0.237 OA
ATOM     95  O   UNL A   1      45.337  37.658  26.806  1.00  0.00    -0.744 OA
ENDBRANCH  88  92
ENDBRANCH  62  85
ENDBRANCH  36  37
ENDBRANCH  29  31
ENDBRANCH  28  29
ENDBRANCH  27  28
ENDBRANCH  26  27
ENDBRANCH  25  26
ENDBRANCH  24  25
ENDBRANCH  23  24
ENDBRANCH   1  23
TORSDOF 26
ENDMDL
MODEL 3
REMARK VINA RESULT:      -9.2      1.880      8.127
REMARK SMILES Cc1occc1C(=O)N[C@@H](C)CC(=O)OCCOCCOCCOCCOC(=O)c1ccc(-c2c3nc(c(-c4cc(S(=O)(=O)[O-])ccc4F)c4ccc([nH]4)c(-c4cc(S(=O)(=O)[O-])ccc4F)c4nc(c(-c5cc(S(=O)(=O)[O-])ccc5F)c5ccc2[nH]5)C=C4)C=C3)cc1
REMARK SMILES IDX 21 1 20 2 19 3 18 4 17 5 16 6 15 7 13 8 14 9 12 10 10 11
REMARK SMILES IDX 11 12 9 13 7 14 8 15 6 17 1 18 2 19 3 20 4 21 5 22 22 23
REMARK SMILES IDX 23 24 24 25 25 26 26 27 27 28 28 29 29 30 30 31 31 32 92 33
REMARK SMILES IDX 32 34 91 35 33 36 34 37 35 38 85 39 36 40 90 41 84 42 86 43
REMARK SMILES IDX 37 44 89 45 83 46 82 47 38 49 70 50 50 51 69 52 51 53 54 54
REMARK SMILES IDX 68 55 87 56 52 57 53 58 67 60 88 61 55 62 39 63 40 64 48 65
REMARK SMILES IDX 41 66 47 67 49 68 46 69 42 70 43 71 44 72 45 73 71 74 72 75
REMARK SMILES IDX 80 76 73 77 79 78 81 79 78 80 74 81 75 82 76 83 77 84 56 85
REMARK SMILES IDX 57 86 65 87 58 88 64 89 66 90 63 91 59 92 60 93 61 94 62 95
REMARK H PARENT 9 16 86 48 54 59
REMARK Flexibility Score: inf
ROOT
ATOM      1  O   UNL A   1      33.569  23.169  26.778  1.00  0.00    -0.377 OA
ENDROOT
BRANCH   1   2
ATOM      2  C   UNL A   1      32.827  23.452  25.618  1.00  0.00     0.188 C 
BRANCH   2   3
ATOM      3  C   UNL A   1      32.024  24.754  25.627  1.00  0.00     0.188 C 
BRANCH   3   4
ATOM      4  O   UNL A   1      31.692  25.433  26.832  1.00  0.00    -0.376 OA
BRANCH   4   5
ATOM      5  C   UNL A   1      31.178  26.753  26.785  1.00  0.00     0.202 C 
BRANCH   5   6
ATOM      6  C   UNL A   1      31.987  27.823  27.538  1.00  0.00     0.261 C 
BRANCH   6   7
ATOM      7  O   UNL A   1      31.589  29.202  27.374  1.00  0.00    -0.463 OA
BRANCH   7   8
ATOM      8  C   UNL A   1      32.247  29.918  26.430  1.00  0.00     0.307 C 
ATOM      9  O   UNL A   1      33.296  30.527  26.619  1.00  0.00    -0.252 OA
BRANCH   8  10
ATOM     10  C   UNL A   1      31.492  30.036  25.116  1.00  0.00     0.147 C 
BRANCH  10  11
ATOM     11  C   UNL A   1      31.615  28.934  24.047  1.00  0.00     0.090 C 
ATOM     12  C   UNL A   1      33.072  28.459  23.991  1.00  0.00     0.031 C 
BRANCH  11  13
ATOM     13  N   UNL A   1      31.234  29.384  22.720  1.00  0.00    -0.349 N 
ATOM     14  C   UNL A   1      30.115  29.930  22.156  1.00  0.00     0.255 C 
ATOM     15  O   UNL A   1      30.193  30.051  20.928  1.00  0.00    -0.269 OA
ATOM     16  H   UNL A   1      31.961  29.266  22.066  1.00  0.00     0.164 HD
BRANCH  14  17
ATOM     17  C   UNL A   1      28.889  30.371  22.834  1.00  0.00     0.080 A 
ATOM     18  C   UNL A   1      27.005  28.488  23.211  1.00  0.00     0.088 C 
ATOM     19  C   UNL A   1      27.686  29.798  23.243  1.00  0.00     0.113 A 
ATOM     20  O   UNL A   1      26.910  30.730  23.886  1.00  0.00    -0.469 OA
ATOM     21  C   UNL A   1      27.568  31.904  23.885  1.00  0.00     0.196 A 
ATOM     22  C   UNL A   1      28.773  31.749  23.263  1.00  0.00     0.056 A 
ENDBRANCH  14  17
ENDBRANCH  11  13
ENDBRANCH  10  11
ENDBRANCH   8  10
ENDBRANCH   7   8
ENDBRANCH   6   7
ENDBRANCH   5   6
ENDBRANCH   4   5
ENDBRANCH   3   4
ENDBRANCH   2   3
ENDBRANCH   1   2
BRANCH   1  23
ATOM     23  C   UNL A   1      34.745  22.414  26.572  1.00  0.00     0.188 C 
BRANCH  23  24
ATOM     24  C   UNL A   1      34.714  21.526  25.320  1.00  0.00     0.188 C 
BRANCH  24  25
ATOM     25  O   UNL A   1      35.502  20.342  25.302  1.00  0.00    -0.376 OA
BRANCH  25  26
ATOM     26  C   UNL A   1      36.750  20.267  24.628  1.00  0.00     0.202 C 
BRANCH  26  27
ATOM     27  C   UNL A   1      38.051  19.807  25.298  1.00  0.00     0.261 C 
BRANCH  27  28
ATOM     28  O   UNL A   1      39.122  20.759  25.277  1.00  0.00    -0.460 OA
BRANCH  28  29
ATOM     29  C   UNL A   1      40.053  20.600  26.244  1.00  0.00     0.338 C 
ATOM     30  O   UNL A   1      40.739  19.602  26.436  1.00  0.00    -0.246 OA
BRANCH  29  31
ATOM     31  C   UNL A   1      40.298  21.878  26.936  1.00  0.00     0.060 A 
ATOM     32  C   UNL A   1      39.641  23.015  26.449  1.00  0.00     0.016 A 
ATOM     33  C   UNL A   1      41.212  21.988  27.987  1.00  0.00     0.016 A 
ATOM     34  C   UNL A   1      39.930  24.272  26.975  1.00  0.00     0.010 A 
ATOM     35  C   UNL A   1      41.513  23.255  28.504  1.00  0.00     0.010 A 
ATOM     36  C   UNL A   1      40.908  24.408  27.967  1.00  0.00    -0.014 A 
BRANCH  36  37
ATOM     37  C   UNL A   1      41.445  25.764  28.257  1.00  0.00     0.031 A 
ATOM     38  C   UNL A   1      42.828  26.104  27.765  1.00  0.00     0.074 A 
ATOM     39  C   UNL A   1      40.696  26.704  28.860  1.00  0.00     0.049 A 
ATOM     40  N   UNL A   1      43.502  27.220  27.875  1.00  0.00    -0.248 NA
ATOM     41  C   UNL A   1      43.546  25.036  27.052  1.00  0.00     0.031 C 
ATOM     42  C   UNL A   1      39.322  26.519  29.325  1.00  0.00     0.029 A 
ATOM     43  N   UNL A   1      40.985  28.010  29.175  1.00  0.00    -0.354 N 
ATOM     44  C   UNL A   1      44.721  26.990  27.245  1.00  0.00     0.074 A 
ATOM     45  C   UNL A   1      44.712  25.612  26.805  1.00  0.00     0.031 C 
ATOM     46  C   UNL A   1      38.886  27.674  29.860  1.00  0.00     0.029 A 
ATOM     47  C   UNL A   1      39.959  28.667  29.813  1.00  0.00     0.049 A 
ATOM     48  H   UNL A   1      41.847  28.435  28.963  1.00  0.00     0.167 HD
ATOM     49  C   UNL A   1      45.748  27.851  27.035  1.00  0.00     0.034 A 
ATOM     50  C   UNL A   1      39.901  29.918  30.316  1.00  0.00     0.034 A 
ATOM     51  C   UNL A   1      45.753  29.219  27.492  1.00  0.00     0.049 A 
ATOM     52  C   UNL A   1      41.104  30.824  30.178  1.00  0.00     0.074 A 
ATOM     53  C   UNL A   1      46.740  30.177  27.334  1.00  0.00     0.029 A 
ATOM     54  N   UNL A   1      44.727  29.824  28.207  1.00  0.00    -0.354 N 
ATOM     55  N   UNL A   1      42.251  30.594  29.580  1.00  0.00    -0.248 NA
ATOM     56  C   UNL A   1      40.999  32.160  30.778  1.00  0.00     0.031 C 
ATOM     57  C   UNL A   1      46.350  31.328  28.025  1.00  0.00     0.029 A 
ATOM     58  C   UNL A   1      45.076  31.127  28.533  1.00  0.00     0.049 A 
ATOM     59  H   UNL A   1      43.876  29.391  28.448  1.00  0.00     0.167 HD
ATOM     60  C   UNL A   1      42.986  31.773  29.701  1.00  0.00     0.074 A 
ATOM     61  C   UNL A   1      42.149  32.712  30.417  1.00  0.00     0.031 C 
ATOM     62  C   UNL A   1      44.238  32.056  29.255  1.00  0.00     0.034 A 
BRANCH  49  63
ATOM     63  C   UNL A   1      46.970  27.311  26.328  1.00  0.00     0.023 A 
ATOM     64  C   UNL A   1      48.067  26.793  27.039  1.00  0.00     0.031 A 
ATOM     65  C   UNL A   1      47.056  27.354  24.926  1.00  0.00     0.131 A 
ATOM     66  C   UNL A   1      49.232  26.417  26.351  1.00  0.00     0.055 A 
ATOM     67  C   UNL A   1      48.182  26.893  24.242  1.00  0.00     0.041 A 
ATOM     68  F   UNL A   1      46.051  27.861  24.194  1.00  0.00    -0.206 F 
ATOM     69  C   UNL A   1      49.287  26.438  24.956  1.00  0.00     0.022 A 
BRANCH  66  70
ATOM     70  S   UNL A   1      50.729  26.064  27.313  1.00  0.00     0.124 S 
ATOM     71  O   UNL A   1      50.168  25.753  28.626  1.00  0.00    -0.237 OA
ATOM     72  O   UNL A   1      51.314  24.944  26.586  1.00  0.00    -0.237 OA
ATOM     73  O   UNL A   1      51.481  27.315  27.246  1.00  0.00    -0.744 OA
ENDBRANCH  66  70
ENDBRANCH  49  63
BRANCH  50  74
ATOM     74  C   UNL A   1      38.681  30.391  31.036  1.00  0.00     0.023 A 
ATOM     75  C   UNL A   1      37.640  31.043  30.354  1.00  0.00     0.031 A 
ATOM     76  C   UNL A   1      38.572  30.263  32.431  1.00  0.00     0.131 A 
ATOM     77  C   UNL A   1      36.563  31.586  31.073  1.00  0.00     0.055 A 
ATOM     78  C   UNL A   1      37.469  30.750  33.136  1.00  0.00     0.041 A 
ATOM     79  F   UNL A   1      39.541  29.660  33.137  1.00  0.00    -0.206 F 
ATOM     80  C   UNL A   1      36.462  31.429  32.457  1.00  0.00     0.022 A 
BRANCH  77  81
ATOM     81  S   UNL A   1      35.342  32.591  30.184  1.00  0.00     0.124 S 
ATOM     82  O   UNL A   1      36.133  33.758  29.812  1.00  0.00    -0.237 OA
ATOM     83  O   UNL A   1      34.953  31.704  29.094  1.00  0.00    -0.237 OA
ATOM     84  O   UNL A   1      34.307  32.833  31.187  1.00  0.00    -0.744 OA
ENDBRANCH  77  81
ENDBRANCH  50  74
BRANCH  62  85
ATOM     85  C   UNL A   1      44.758  33.458  29.481  1.00  0.00     0.023 A 
ATOM     86  C   UNL A   1      44.685  34.450  28.488  1.00  0.00     0.031 A 
ATOM     87  C   UNL A   1      45.342  33.804  30.714  1.00  0.00     0.131 A 
ATOM     88  C   UNL A   1      45.236  35.720  28.723  1.00  0.00     0.055 A 
ATOM     89  C   UNL A   1      45.826  35.088  30.967  1.00  0.00     0.041 A 
ATOM     90  F   UNL A   1      45.444  32.898  31.700  1.00  0.00    -0.206 F 
ATOM     91  C   UNL A   1      45.788  36.051  29.963  1.00  0.00     0.022 A 
BRANCH  88  92
ATOM     92  S   UNL A   1      45.317  36.905  27.352  1.00  0.00     0.124 S 
ATOM     93  O   UNL A   1      45.340  36.024  26.189  1.00  0.00    -0.237 OA
ATOM     94  O   UNL A   1      44.096  37.682  27.539  1.00  0.00    -0.237 OA
ATOM     95  O   UNL A   1      46.559  37.636  27.602  1.00  0.00    -0.744 OA
ENDBRANCH  88  92
ENDBRANCH  62  85
ENDBRANCH  36  37
ENDBRANCH  29  31
ENDBRANCH  28  29
ENDBRANCH  27  28
ENDBRANCH  26  27
ENDBRANCH  25  26
ENDBRANCH  24  25
ENDBRANCH  23  24
ENDBRANCH   1  23
TORSDOF 26
ENDMDL
