MODEL 1
REMARK VINA RESULT:      -8.0      0.000      0.000
REMARK SMILES CC[C@H](C)[C@@H](NC(=O)c1csc(NC(C)=O)n1)C(=O)OCCOCCOCCOCCOC(=O)c1ccc(-c2c3nc(c(-c4cc(S(=O)(=O)[O-])ccc4F)c4ccc([nH]4)c(-c4cc(S(=O)(=O)[O-])ccc4F)c4nc(c(-c5cc(S(=O)(=O)[O-])ccc5F)c5ccc2[nH]5)C=C4)C=C3)cc1
REMARK SMILES IDX 26 1 25 2 24 3 23 4 22 5 21 6 20 7 18 8 19 9 5 10 3 11 4 12
REMARK SMILES IDX 2 13 1 14 6 15 7 16 8 18 9 19 10 20 17 21 11 22 12 23 13 24
REMARK SMILES IDX 14 25 15 27 16 28 27 29 28 30 29 31 30 32 31 33 32 34 33 35
REMARK SMILES IDX 34 36 35 37 36 38 97 39 37 40 96 41 38 42 39 43 40 44 90 45
REMARK SMILES IDX 41 46 95 47 89 48 91 49 42 50 94 51 88 52 87 53 43 55 75 56
REMARK SMILES IDX 55 57 74 58 56 59 59 60 73 61 92 62 57 63 58 64 72 66 93 67
REMARK SMILES IDX 60 68 44 69 45 70 53 71 46 72 52 73 54 74 51 75 47 76 48 77
REMARK SMILES IDX 49 78 50 79 76 80 77 81 85 82 78 83 84 84 86 85 83 86 79 87
REMARK SMILES IDX 80 88 81 89 82 90 61 91 62 92 70 93 63 94 69 95 71 96 68 97
REMARK SMILES IDX 64 98 65 99 66 100 67 101
REMARK H PARENT 6 17 13 26 91 54 59 65
REMARK Flexibility Score: inf
ROOT
ATOM      1  O   UNL A   1      37.161  30.162  27.897  1.00  0.00    -0.377 OA
ENDROOT
BRANCH   1   2
ATOM      2  C   UNL A   1      37.654  29.019  28.578  1.00  0.00     0.188 C 
BRANCH   2   3
ATOM      3  C   UNL A   1      39.163  28.767  28.468  1.00  0.00     0.188 C 
BRANCH   3   4
ATOM      4  O   UNL A   1      39.575  27.551  27.829  1.00  0.00    -0.376 OA
BRANCH   4   5
ATOM      5  C   UNL A   1      39.501  26.382  28.622  1.00  0.00     0.202 C 
BRANCH   5   6
ATOM      6  C   UNL A   1      39.485  25.014  27.911  1.00  0.00     0.261 C 
BRANCH   6   7
ATOM      7  O   UNL A   1      38.510  24.613  26.926  1.00  0.00    -0.462 OA
BRANCH   7   8
ATOM      8  C   UNL A   1      38.417  23.372  26.393  1.00  0.00     0.329 C 
ATOM      9  O   UNL A   1      39.255  22.478  26.390  1.00  0.00    -0.250 OA
BRANCH   8  10
ATOM     10  C   UNL A   1      37.074  23.171  25.698  1.00  0.00     0.195 C 
BRANCH  10  11
ATOM     11  C   UNL A   1      37.202  22.242  24.418  1.00  0.00     0.019 C 
ATOM     12  C   UNL A   1      36.667  20.826  24.673  1.00  0.00     0.010 C 
BRANCH  11  13
ATOM     13  C   UNL A   1      36.546  22.862  23.151  1.00  0.00     0.002 C 
ATOM     14  C   UNL A   1      35.028  22.785  23.002  1.00  0.00     0.004 C 
ENDBRANCH  11  13
ENDBRANCH  10  11
BRANCH  10  15
ATOM     15  N   UNL A   1      36.038  22.671  26.631  1.00  0.00    -0.337 N 
ATOM     16  C   UNL A   1      34.670  22.811  26.726  1.00  0.00     0.271 C 
ATOM     17  H   UNL A   1      36.413  22.113  27.350  1.00  0.00     0.164 HD
ATOM     18  O   UNL A   1      34.097  21.956  27.406  1.00  0.00    -0.267 OA
BRANCH  16  19
ATOM     19  C   UNL A   1      33.925  23.972  26.217  1.00  0.00     0.141 A 
ATOM     20  C   UNL A   1      32.736  24.380  26.802  1.00  0.00     0.102 A 
ATOM     21  N   UNL A   1      34.286  24.750  25.120  1.00  0.00    -0.215 NA
ATOM     22  S   UNL A   1      32.112  25.764  26.009  1.00  0.00    -0.104 S 
ATOM     23  C   UNL A   1      33.490  25.795  25.010  1.00  0.00     0.190 A 
BRANCH  23  24
ATOM     24  N   UNL A   1      33.834  26.887  24.242  1.00  0.00    -0.302 N 
ATOM     25  C   UNL A   1      33.909  26.946  22.865  1.00  0.00     0.223 C 
ATOM     26  H   UNL A   1      34.048  27.717  24.729  1.00  0.00     0.172 HD
ATOM     27  C   UNL A   1      34.003  28.360  22.327  1.00  0.00     0.114 C 
ATOM     28  O   UNL A   1      33.842  26.008  22.077  1.00  0.00    -0.275 OA
ENDBRANCH  23  24
ENDBRANCH  16  19
ENDBRANCH  10  15
ENDBRANCH   8  10
ENDBRANCH   7   8
ENDBRANCH   6   7
ENDBRANCH   5   6
ENDBRANCH   4   5
ENDBRANCH   3   4
ENDBRANCH   2   3
ENDBRANCH   1   2
BRANCH   1  29
ATOM     29  C   UNL A   1      36.718  31.303  28.622  1.00  0.00     0.188 C 
BRANCH  29  30
ATOM     30  C   UNL A   1      35.766  32.288  27.938  1.00  0.00     0.188 C 
BRANCH  30  31
ATOM     31  O   UNL A   1      34.629  32.598  28.731  1.00  0.00    -0.376 OA
BRANCH  31  32
ATOM     32  C   UNL A   1      33.515  33.206  28.086  1.00  0.00     0.202 C 
BRANCH  32  33
ATOM     33  C   UNL A   1      32.988  34.537  28.651  1.00  0.00     0.261 C 
BRANCH  33  34
ATOM     34  O   UNL A   1      33.771  35.216  29.656  1.00  0.00    -0.460 OA
BRANCH  34  35
ATOM     35  C   UNL A   1      33.603  34.937  30.966  1.00  0.00     0.338 C 
ATOM     36  O   UNL A   1      32.560  34.978  31.594  1.00  0.00    -0.246 OA
BRANCH  35  37
ATOM     37  C   UNL A   1      34.856  34.313  31.460  1.00  0.00     0.060 A 
ATOM     38  C   UNL A   1      34.771  33.241  32.362  1.00  0.00     0.016 A 
ATOM     39  C   UNL A   1      36.106  34.766  31.031  1.00  0.00     0.016 A 
ATOM     40  C   UNL A   1      35.930  32.654  32.873  1.00  0.00     0.010 A 
ATOM     41  C   UNL A   1      37.267  34.201  31.566  1.00  0.00     0.010 A 
ATOM     42  C   UNL A   1      37.184  33.172  32.522  1.00  0.00    -0.014 A 
BRANCH  42  43
ATOM     43  C   UNL A   1      38.365  32.852  33.367  1.00  0.00     0.031 A 
ATOM     44  C   UNL A   1      39.474  32.057  32.727  1.00  0.00     0.074 A 
ATOM     45  C   UNL A   1      38.473  33.263  34.642  1.00  0.00     0.049 A 
ATOM     46  N   UNL A   1      40.579  31.593  33.249  1.00  0.00    -0.248 NA
ATOM     47  C   UNL A   1      39.305  31.744  31.299  1.00  0.00     0.031 C 
ATOM     48  C   UNL A   1      37.500  34.091  35.353  1.00  0.00     0.029 A 
ATOM     49  N   UNL A   1      39.458  33.030  35.571  1.00  0.00    -0.354 N 
ATOM     50  C   UNL A   1      41.232  30.927  32.216  1.00  0.00     0.074 A 
ATOM     51  C   UNL A   1      40.383  31.020  31.049  1.00  0.00     0.031 C 
ATOM     52  C   UNL A   1      37.934  34.288  36.611  1.00  0.00     0.029 A 
ATOM     53  C   UNL A   1      39.193  33.568  36.809  1.00  0.00     0.049 A 
ATOM     54  H   UNL A   1      40.279  32.525  35.369  1.00  0.00     0.167 HD
ATOM     55  C   UNL A   1      42.433  30.299  32.236  1.00  0.00     0.034 A 
ATOM     56  C   UNL A   1      39.874  33.464  37.970  1.00  0.00     0.034 A 
ATOM     57  C   UNL A   1      43.259  30.197  33.411  1.00  0.00     0.049 A 
ATOM     58  C   UNL A   1      41.160  32.665  37.997  1.00  0.00     0.074 A 
ATOM     59  C   UNL A   1      44.493  29.586  33.546  1.00  0.00     0.029 A 
ATOM     60  N   UNL A   1      42.927  30.702  34.661  1.00  0.00    -0.354 N 
ATOM     61  N   UNL A   1      41.769  32.040  37.014  1.00  0.00    -0.248 NA
ATOM     62  C   UNL A   1      41.851  32.561  39.290  1.00  0.00     0.031 C 
ATOM     63  C   UNL A   1      44.870  29.653  34.891  1.00  0.00     0.029 A 
ATOM     64  C   UNL A   1      43.915  30.384  35.580  1.00  0.00     0.049 A 
ATOM     65  H   UNL A   1      42.111  31.213  34.865  1.00  0.00     0.167 HD
ATOM     66  C   UNL A   1      42.932  31.504  37.566  1.00  0.00     0.074 A 
ATOM     67  C   UNL A   1      42.942  31.887  38.962  1.00  0.00     0.031 C 
ATOM     68  C   UNL A   1      43.908  30.768  36.973  1.00  0.00     0.034 A 
BRANCH  55  69
ATOM     69  C   UNL A   1      42.877  29.620  30.963  1.00  0.00     0.023 A 
ATOM     70  C   UNL A   1      43.523  30.324  29.931  1.00  0.00     0.031 A 
ATOM     71  C   UNL A   1      42.604  28.256  30.758  1.00  0.00     0.131 A 
ATOM     72  C   UNL A   1      43.805  29.681  28.716  1.00  0.00     0.055 A 
ATOM     73  C   UNL A   1      42.964  27.601  29.580  1.00  0.00     0.041 A 
ATOM     74  F   UNL A   1      41.963  27.539  31.696  1.00  0.00    -0.206 F 
ATOM     75  C   UNL A   1      43.554  28.317  28.543  1.00  0.00     0.022 A 
BRANCH  72  76
ATOM     76  S   UNL A   1      44.360  30.686  27.312  1.00  0.00     0.124 S 
ATOM     77  O   UNL A   1      43.480  30.214  26.245  1.00  0.00    -0.237 OA
ATOM     78  O   UNL A   1      44.121  32.045  27.782  1.00  0.00    -0.237 OA
ATOM     79  O   UNL A   1      45.765  30.315  27.158  1.00  0.00    -0.744 OA
ENDBRANCH  72  76
ENDBRANCH  55  69
BRANCH  56  80
ATOM     80  C   UNL A   1      39.349  34.086  39.223  1.00  0.00     0.023 A 
ATOM     81  C   UNL A   1      39.674  35.408  39.573  1.00  0.00     0.031 A 
ATOM     82  C   UNL A   1      38.576  33.338  40.130  1.00  0.00     0.131 A 
ATOM     83  C   UNL A   1      39.272  35.923  40.817  1.00  0.00     0.055 A 
ATOM     84  C   UNL A   1      38.130  33.875  41.341  1.00  0.00     0.041 A 
ATOM     85  F   UNL A   1      38.245  32.068  39.854  1.00  0.00    -0.206 F 
ATOM     86  C   UNL A   1      38.489  35.171  41.696  1.00  0.00     0.022 A 
BRANCH  83  87
ATOM     87  S   UNL A   1      39.869  37.562  41.314  1.00  0.00     0.124 S 
ATOM     88  O   UNL A   1      38.914  38.440  40.646  1.00  0.00    -0.237 OA
ATOM     89  O   UNL A   1      39.771  37.493  42.767  1.00  0.00    -0.237 OA
ATOM     90  O   UNL A   1      41.231  37.603  40.784  1.00  0.00    -0.744 OA
ENDBRANCH  83  87
ENDBRANCH  56  80
BRANCH  68  91
ATOM     91  C   UNL A   1      45.095  30.377  37.821  1.00  0.00     0.023 A 
ATOM     92  C   UNL A   1      45.139  29.165  38.530  1.00  0.00     0.031 A 
ATOM     93  C   UNL A   1      46.205  31.237  37.916  1.00  0.00     0.131 A 
ATOM     94  C   UNL A   1      46.243  28.870  39.344  1.00  0.00     0.055 A 
ATOM     95  C   UNL A   1      47.329  30.910  38.677  1.00  0.00     0.041 A 
ATOM     96  F   UNL A   1      46.220  32.410  37.261  1.00  0.00    -0.206 F 
ATOM     97  C   UNL A   1      47.347  29.726  39.407  1.00  0.00     0.022 A 
BRANCH  94  98
ATOM     98  S   UNL A   1      46.183  27.393  40.397  1.00  0.00     0.124 S 
ATOM     99  O   UNL A   1      46.811  27.870  41.625  1.00  0.00    -0.237 OA
ATOM    100  O   UNL A   1      44.750  27.126  40.476  1.00  0.00    -0.237 OA
ATOM    101  O   UNL A   1      46.956  26.405  39.647  1.00  0.00    -0.744 OA
ENDBRANCH  94  98
ENDBRANCH  68  91
ENDBRANCH  42  43
ENDBRANCH  35  37
ENDBRANCH  34  35
ENDBRANCH  33  34
ENDBRANCH  32  33
ENDBRANCH  31  32
ENDBRANCH  30  31
ENDBRANCH  29  30
ENDBRANCH   1  29
TORSDOF 28
ENDMDL
MODEL 2
REMARK VINA RESULT:      -7.9      1.531      7.347
REMARK SMILES CC[C@H](C)[C@@H](NC(=O)c1csc(NC(C)=O)n1)C(=O)OCCOCCOCCOCCOC(=O)c1ccc(-c2c3nc(c(-c4cc(S(=O)(=O)[O-])ccc4F)c4ccc([nH]4)c(-c4cc(S(=O)(=O)[O-])ccc4F)c4nc(c(-c5cc(S(=O)(=O)[O-])ccc5F)c5ccc2[nH]5)C=C4)C=C3)cc1
REMARK SMILES IDX 26 1 25 2 24 3 23 4 22 5 21 6 20 7 18 8 19 9 5 10 3 11 4 12
REMARK SMILES IDX 2 13 1 14 6 15 7 16 8 18 9 19 10 20 17 21 11 22 12 23 13 24
REMARK SMILES IDX 14 25 15 27 16 28 27 29 28 30 29 31 30 32 31 33 32 34 33 35
REMARK SMILES IDX 34 36 35 37 36 38 97 39 37 40 96 41 38 42 39 43 40 44 90 45
REMARK SMILES IDX 41 46 95 47 89 48 91 49 42 50 94 51 88 52 87 53 43 55 75 56
REMARK SMILES IDX 55 57 74 58 56 59 59 60 73 61 92 62 57 63 58 64 72 66 93 67
REMARK SMILES IDX 60 68 44 69 45 70 53 71 46 72 52 73 54 74 51 75 47 76 48 77
REMARK SMILES IDX 49 78 50 79 76 80 77 81 85 82 78 83 84 84 86 85 83 86 79 87
REMARK SMILES IDX 80 88 81 89 82 90 61 91 62 92 70 93 63 94 69 95 71 96 68 97
REMARK SMILES IDX 64 98 65 99 66 100 67 101
REMARK H PARENT 6 17 13 26 91 54 59 65
REMARK Flexibility Score: inf
ROOT
ATOM      1  O   UNL A   1      37.647  30.174  27.884  1.00  0.00    -0.377 OA
ENDROOT
BRANCH   1   2
ATOM      2  C   UNL A   1      38.425  29.080  28.346  1.00  0.00     0.188 C 
BRANCH   2   3
ATOM      3  C   UNL A   1      39.732  28.815  27.590  1.00  0.00     0.188 C 
BRANCH   3   4
ATOM      4  O   UNL A   1      40.037  27.449  27.277  1.00  0.00    -0.376 OA
BRANCH   4   5
ATOM      5  C   UNL A   1      39.494  26.479  28.154  1.00  0.00     0.202 C 
BRANCH   5   6
ATOM      6  C   UNL A   1      39.313  25.040  27.632  1.00  0.00     0.261 C 
BRANCH   6   7
ATOM      7  O   UNL A   1      38.287  24.624  26.708  1.00  0.00    -0.462 OA
BRANCH   7   8
ATOM      8  C   UNL A   1      38.107  23.356  26.273  1.00  0.00     0.329 C 
ATOM      9  O   UNL A   1      38.921  22.440  26.235  1.00  0.00    -0.250 OA
BRANCH   8  10
ATOM     10  C   UNL A   1      36.690  23.148  25.748  1.00  0.00     0.195 C 
BRANCH  10  11
ATOM     11  C   UNL A   1      36.669  22.277  24.423  1.00  0.00     0.019 C 
ATOM     12  C   UNL A   1      36.163  20.850  24.674  1.00  0.00     0.010 C 
BRANCH  11  13
ATOM     13  C   UNL A   1      35.875  22.951  23.267  1.00  0.00     0.002 C 
ATOM     14  C   UNL A   1      34.351  22.851  23.273  1.00  0.00     0.004 C 
ENDBRANCH  11  13
ENDBRANCH  10  11
BRANCH  10  15
ATOM     15  N   UNL A   1      35.795  22.584  26.785  1.00  0.00    -0.337 N 
ATOM     16  C   UNL A   1      34.431  22.581  26.992  1.00  0.00     0.271 C 
ATOM     17  H   UNL A   1      36.286  22.102  27.488  1.00  0.00     0.164 HD
ATOM     18  O   UNL A   1      34.013  21.702  27.749  1.00  0.00    -0.267 OA
BRANCH  16  19
ATOM     19  C   UNL A   1      33.525  23.632  26.507  1.00  0.00     0.141 A 
ATOM     20  C   UNL A   1      32.170  23.392  26.332  1.00  0.00     0.102 A 
ATOM     21  N   UNL A   1      33.898  24.926  26.152  1.00  0.00    -0.215 NA
ATOM     22  S   UNL A   1      31.370  24.802  25.778  1.00  0.00    -0.104 S 
ATOM     23  C   UNL A   1      32.835  25.662  25.895  1.00  0.00     0.190 A 
BRANCH  23  24
ATOM     24  N   UNL A   1      32.899  27.039  25.864  1.00  0.00    -0.302 N 
ATOM     25  C   UNL A   1      33.405  27.826  24.849  1.00  0.00     0.223 C 
ATOM     26  H   UNL A   1      32.545  27.513  26.652  1.00  0.00     0.172 HD
ATOM     27  C   UNL A   1      33.042  29.291  24.986  1.00  0.00     0.114 C 
ATOM     28  O   UNL A   1      34.033  27.453  23.863  1.00  0.00    -0.275 OA
ENDBRANCH  23  24
ENDBRANCH  16  19
ENDBRANCH  10  15
ENDBRANCH   8  10
ENDBRANCH   7   8
ENDBRANCH   6   7
ENDBRANCH   5   6
ENDBRANCH   4   5
ENDBRANCH   3   4
ENDBRANCH   2   3
ENDBRANCH   1   2
BRANCH   1  29
ATOM     29  C   UNL A   1      36.554  30.662  28.652  1.00  0.00     0.188 C 
BRANCH  29  30
ATOM     30  C   UNL A   1      35.962  32.032  28.306  1.00  0.00     0.188 C 
BRANCH  30  31
ATOM     31  O   UNL A   1      34.602  32.160  28.695  1.00  0.00    -0.376 OA
BRANCH  31  32
ATOM     32  C   UNL A   1      33.824  33.170  28.064  1.00  0.00     0.202 C 
BRANCH  32  33
ATOM     33  C   UNL A   1      33.260  34.304  28.941  1.00  0.00     0.261 C 
BRANCH  33  34
ATOM     34  O   UNL A   1      34.123  34.902  29.931  1.00  0.00    -0.460 OA
BRANCH  34  35
ATOM     35  C   UNL A   1      34.024  34.556  31.232  1.00  0.00     0.338 C 
ATOM     36  O   UNL A   1      33.019  34.587  31.921  1.00  0.00    -0.246 OA
BRANCH  35  37
ATOM     37  C   UNL A   1      35.286  33.879  31.619  1.00  0.00     0.060 A 
ATOM     38  C   UNL A   1      35.219  32.674  32.335  1.00  0.00     0.016 A 
ATOM     39  C   UNL A   1      36.529  34.415  31.268  1.00  0.00     0.016 A 
ATOM     40  C   UNL A   1      36.389  32.030  32.744  1.00  0.00     0.010 A 
ATOM     41  C   UNL A   1      37.700  33.787  31.705  1.00  0.00     0.010 A 
ATOM     42  C   UNL A   1      37.634  32.615  32.482  1.00  0.00    -0.014 A 
BRANCH  42  43
ATOM     43  C   UNL A   1      38.821  32.180  33.263  1.00  0.00     0.031 A 
ATOM     44  C   UNL A   1      38.880  32.592  34.712  1.00  0.00     0.074 A 
ATOM     45  C   UNL A   1      39.801  31.431  32.730  1.00  0.00     0.049 A 
ATOM     46  N   UNL A   1      39.823  32.401  35.598  1.00  0.00    -0.248 NA
ATOM     47  C   UNL A   1      37.711  33.323  35.225  1.00  0.00     0.031 C 
ATOM     48  C   UNL A   1      39.828  30.915  31.363  1.00  0.00     0.029 A 
ATOM     49  N   UNL A   1      40.974  30.977  33.282  1.00  0.00    -0.354 N 
ATOM     50  C   UNL A   1      39.362  32.994  36.770  1.00  0.00     0.074 A 
ATOM     51  C   UNL A   1      38.074  33.580  36.471  1.00  0.00     0.031 C 
ATOM     52  C   UNL A   1      40.967  30.223  31.181  1.00  0.00     0.029 A 
ATOM     53  C   UNL A   1      41.770  30.280  32.403  1.00  0.00     0.049 A 
ATOM     54  H   UNL A   1      41.223  31.135  34.222  1.00  0.00     0.167 HD
ATOM     55  C   UNL A   1      39.957  33.044  37.987  1.00  0.00     0.034 A 
ATOM     56  C   UNL A   1      43.012  29.775  32.561  1.00  0.00     0.034 A 
ATOM     57  C   UNL A   1      41.251  32.475  38.264  1.00  0.00     0.049 A 
ATOM     58  C   UNL A   1      43.705  29.937  33.898  1.00  0.00     0.074 A 
ATOM     59  C   UNL A   1      41.948  32.464  39.460  1.00  0.00     0.029 A 
ATOM     60  N   UNL A   1      42.052  31.830  37.331  1.00  0.00    -0.354 N 
ATOM     61  N   UNL A   1      43.260  30.499  35.000  1.00  0.00    -0.248 NA
ATOM     62  C   UNL A   1      45.065  29.392  34.012  1.00  0.00     0.031 C 
ATOM     63  C   UNL A   1      43.200  31.885  39.230  1.00  0.00     0.029 A 
ATOM     64  C   UNL A   1      43.252  31.452  37.915  1.00  0.00     0.049 A 
ATOM     65  H   UNL A   1      41.804  31.665  36.394  1.00  0.00     0.167 HD
ATOM     66  C   UNL A   1      44.273  30.339  35.945  1.00  0.00     0.074 A 
ATOM     67  C   UNL A   1      45.344  29.622  35.286  1.00  0.00     0.031 C 
ATOM     68  C   UNL A   1      44.314  30.741  37.241  1.00  0.00     0.034 A 
BRANCH  55  69
ATOM     69  C   UNL A   1      39.236  33.800  39.076  1.00  0.00     0.023 A 
ATOM     70  C   UNL A   1      39.514  35.151  39.352  1.00  0.00     0.031 A 
ATOM     71  C   UNL A   1      38.291  33.144  39.884  1.00  0.00     0.131 A 
ATOM     72  C   UNL A   1      38.910  35.777  40.453  1.00  0.00     0.055 A 
ATOM     73  C   UNL A   1      37.630  33.798  40.925  1.00  0.00     0.041 A 
ATOM     74  F   UNL A   1      38.006  31.847  39.686  1.00  0.00    -0.206 F 
ATOM     75  C   UNL A   1      37.951  35.118  41.225  1.00  0.00     0.022 A 
BRANCH  72  76
ATOM     76  S   UNL A   1      39.513  37.413  40.956  1.00  0.00     0.124 S 
ATOM     77  O   UNL A   1      39.398  37.334  42.411  1.00  0.00    -0.237 OA
ATOM     78  O   UNL A   1      40.869  37.429  40.423  1.00  0.00    -0.237 OA
ATOM     79  O   UNL A   1      38.577  38.335  40.315  1.00  0.00    -0.744 OA
ENDBRANCH  72  76
ENDBRANCH  55  69
BRANCH  56  80
ATOM     80  C   UNL A   1      43.717  29.108  31.426  1.00  0.00     0.023 A 
ATOM     81  C   UNL A   1      43.568  27.732  31.182  1.00  0.00     0.031 A 
ATOM     82  C   UNL A   1      44.614  29.825  30.612  1.00  0.00     0.131 A 
ATOM     83  C   UNL A   1      44.341  27.108  30.188  1.00  0.00     0.055 A 
ATOM     84  C   UNL A   1      45.337  29.210  29.587  1.00  0.00     0.041 A 
ATOM     85  F   UNL A   1      44.804  31.139  30.805  1.00  0.00    -0.206 F 
ATOM     86  C   UNL A   1      45.212  27.840  29.379  1.00  0.00     0.022 A 
BRANCH  83  87
ATOM     87  S   UNL A   1      44.262  25.302  30.031  1.00  0.00     0.124 S 
ATOM     88  O   UNL A   1      44.496  24.875  31.406  1.00  0.00    -0.237 OA
ATOM     89  O   UNL A   1      42.911  25.102  29.518  1.00  0.00    -0.237 OA
ATOM     90  O   UNL A   1      45.337  24.995  29.090  1.00  0.00    -0.744 OA
ENDBRANCH  83  87
ENDBRANCH  56  80
BRANCH  68  91
ATOM     91  C   UNL A   1      45.535  30.364  38.048  1.00  0.00     0.023 A 
ATOM     92  C   UNL A   1      45.701  29.079  38.591  1.00  0.00     0.031 A 
ATOM     93  C   UNL A   1      46.550  31.312  38.272  1.00  0.00     0.131 A 
ATOM     94  C   UNL A   1      46.829  28.792  39.376  1.00  0.00     0.055 A 
ATOM     95  C   UNL A   1      47.700  31.002  38.999  1.00  0.00     0.041 A 
ATOM     96  F   UNL A   1      46.445  32.557  37.778  1.00  0.00    -0.206 F 
ATOM     97  C   UNL A   1      47.839  29.740  39.568  1.00  0.00     0.022 A 
BRANCH  94  98
ATOM     98  S   UNL A   1      46.919  27.191  40.223  1.00  0.00     0.124 S 
ATOM     99  O   UNL A   1      45.986  27.379  41.329  1.00  0.00    -0.237 OA
ATOM    100  O   UNL A   1      46.493  26.262  39.181  1.00  0.00    -0.237 OA
ATOM    101  O   UNL A   1      48.325  27.085  40.609  1.00  0.00    -0.744 OA
ENDBRANCH  94  98
ENDBRANCH  68  91
ENDBRANCH  42  43
ENDBRANCH  35  37
ENDBRANCH  34  35
ENDBRANCH  33  34
ENDBRANCH  32  33
ENDBRANCH  31  32
ENDBRANCH  30  31
ENDBRANCH  29  30
ENDBRANCH   1  29
TORSDOF 28
ENDMDL
MODEL 3
REMARK VINA RESULT:      -7.9      5.181      9.424
REMARK SMILES CC[C@H](C)[C@@H](NC(=O)c1csc(NC(C)=O)n1)C(=O)OCCOCCOCCOCCOC(=O)c1ccc(-c2c3nc(c(-c4cc(S(=O)(=O)[O-])ccc4F)c4ccc([nH]4)c(-c4cc(S(=O)(=O)[O-])ccc4F)c4nc(c(-c5cc(S(=O)(=O)[O-])ccc5F)c5ccc2[nH]5)C=C4)C=C3)cc1
REMARK SMILES IDX 26 1 25 2 24 3 23 4 22 5 21 6 20 7 18 8 19 9 5 10 3 11 4 12
REMARK SMILES IDX 2 13 1 14 6 15 7 16 8 18 9 19 10 20 17 21 11 22 12 23 13 24
REMARK SMILES IDX 14 25 15 27 16 28 27 29 28 30 29 31 30 32 31 33 32 34 33 35
REMARK SMILES IDX 34 36 35 37 36 38 97 39 37 40 96 41 38 42 39 43 40 44 90 45
REMARK SMILES IDX 41 46 95 47 89 48 91 49 42 50 94 51 88 52 87 53 43 55 75 56
REMARK SMILES IDX 55 57 74 58 56 59 59 60 73 61 92 62 57 63 58 64 72 66 93 67
REMARK SMILES IDX 60 68 44 69 45 70 53 71 46 72 52 73 54 74 51 75 47 76 48 77
REMARK SMILES IDX 49 78 50 79 76 80 77 81 85 82 78 83 84 84 86 85 83 86 79 87
REMARK SMILES IDX 80 88 81 89 82 90 61 91 62 92 70 93 63 94 69 95 71 96 68 97
REMARK SMILES IDX 64 98 65 99 66 100 67 101
REMARK H PARENT 6 17 13 26 91 54 59 65
REMARK Flexibility Score: inf
ROOT
ATOM      1  O   UNL A   1      34.437  35.154  28.888  1.00  0.00    -0.377 OA
ENDROOT
BRANCH   1   2
ATOM      2  C   UNL A   1      34.424  34.125  27.910  1.00  0.00     0.188 C 
BRANCH   2   3
ATOM      3  C   UNL A   1      34.701  32.707  28.420  1.00  0.00     0.188 C 
BRANCH   3   4
ATOM      4  O   UNL A   1      34.635  31.644  27.459  1.00  0.00    -0.376 OA
BRANCH   4   5
ATOM      5  C   UNL A   1      33.644  30.661  27.695  1.00  0.00     0.202 C 
BRANCH   5   6
ATOM      6  C   UNL A   1      32.466  30.558  26.707  1.00  0.00     0.261 C 
BRANCH   6   7
ATOM      7  O   UNL A   1      32.367  29.587  25.645  1.00  0.00    -0.462 OA
BRANCH   7   8
ATOM      8  C   UNL A   1      32.330  28.246  25.826  1.00  0.00     0.329 C 
ATOM      9  O   UNL A   1      32.949  27.568  26.637  1.00  0.00    -0.250 OA
BRANCH   8  10
ATOM     10  C   UNL A   1      31.397  27.580  24.819  1.00  0.00     0.195 C 
BRANCH  10  11
ATOM     11  C   UNL A   1      32.194  26.928  23.613  1.00  0.00     0.019 C 
ATOM     12  C   UNL A   1      31.457  27.086  22.276  1.00  0.00     0.010 C 
BRANCH  11  13
ATOM     13  C   UNL A   1      33.658  27.447  23.502  1.00  0.00     0.002 C 
ATOM     14  C   UNL A   1      33.962  28.565  22.507  1.00  0.00     0.004 C 
ENDBRANCH  11  13
ENDBRANCH  10  11
BRANCH  10  15
ATOM     15  N   UNL A   1      30.494  26.601  25.467  1.00  0.00    -0.337 N 
ATOM     16  C   UNL A   1      30.595  25.271  25.815  1.00  0.00     0.271 C 
ATOM     17  H   UNL A   1      29.620  26.989  25.700  1.00  0.00     0.164 HD
ATOM     18  O   UNL A   1      29.793  24.886  26.669  1.00  0.00    -0.267 OA
BRANCH  16  19
ATOM     19  C   UNL A   1      31.462  24.305  25.125  1.00  0.00     0.141 A 
ATOM     20  C   UNL A   1      30.966  23.470  24.134  1.00  0.00     0.102 A 
ATOM     21  N   UNL A   1      32.814  24.096  25.385  1.00  0.00    -0.215 NA
ATOM     22  S   UNL A   1      32.207  22.473  23.503  1.00  0.00    -0.104 S 
ATOM     23  C   UNL A   1      33.334  23.266  24.503  1.00  0.00     0.190 A 
BRANCH  23  24
ATOM     24  N   UNL A   1      34.697  23.165  24.322  1.00  0.00    -0.302 N 
ATOM     25  C   UNL A   1      35.472  22.030  24.447  1.00  0.00     0.223 C 
ATOM     26  H   UNL A   1      35.169  23.994  24.075  1.00  0.00     0.172 HD
ATOM     27  C   UNL A   1      36.867  22.188  23.878  1.00  0.00     0.114 C 
ATOM     28  O   UNL A   1      35.126  20.941  24.896  1.00  0.00    -0.275 OA
ENDBRANCH  23  24
ENDBRANCH  16  19
ENDBRANCH  10  15
ENDBRANCH   8  10
ENDBRANCH   7   8
ENDBRANCH   6   7
ENDBRANCH   5   6
ENDBRANCH   4   5
ENDBRANCH   3   4
ENDBRANCH   2   3
ENDBRANCH   1   2
BRANCH   1  29
ATOM     29  C   UNL A   1      33.629  35.055  30.054  1.00  0.00     0.188 C 
BRANCH  29  30
ATOM     30  C   UNL A   1      32.610  36.162  30.343  1.00  0.00     0.188 C 
BRANCH  30  31
ATOM     31  O   UNL A   1      32.673  36.636  31.679  1.00  0.00    -0.376 OA
BRANCH  31  32
ATOM     32  C   UNL A   1      33.954  36.720  32.294  1.00  0.00     0.202 C 
BRANCH  32  33
ATOM     33  C   UNL A   1      34.190  35.924  33.591  1.00  0.00     0.261 C 
BRANCH  33  34
ATOM     34  O   UNL A   1      34.630  34.553  33.486  1.00  0.00    -0.460 OA
BRANCH  34  35
ATOM     35  C   UNL A   1      35.523  34.047  34.365  1.00  0.00     0.338 C 
ATOM     36  O   UNL A   1      35.352  33.868  35.557  1.00  0.00    -0.246 OA
BRANCH  35  37
ATOM     37  C   UNL A   1      36.661  33.496  33.587  1.00  0.00     0.060 A 
ATOM     38  C   UNL A   1      37.568  32.638  34.227  1.00  0.00     0.016 A 
ATOM     39  C   UNL A   1      36.828  33.807  32.235  1.00  0.00     0.016 A 
ATOM     40  C   UNL A   1      38.668  32.130  33.533  1.00  0.00     0.010 A 
ATOM     41  C   UNL A   1      37.947  33.325  31.549  1.00  0.00     0.010 A 
ATOM     42  C   UNL A   1      38.895  32.520  32.207  1.00  0.00    -0.014 A 
BRANCH  42  43
ATOM     43  C   UNL A   1      40.248  32.341  31.618  1.00  0.00     0.031 A 
ATOM     44  C   UNL A   1      41.284  33.387  31.941  1.00  0.00     0.074 A 
ATOM     45  C   UNL A   1      40.566  31.287  30.846  1.00  0.00     0.049 A 
ATOM     46  N   UNL A   1      42.514  33.507  31.514  1.00  0.00    -0.248 NA
ATOM     47  C   UNL A   1      40.866  34.444  32.876  1.00  0.00     0.031 C 
ATOM     48  C   UNL A   1      39.674  30.178  30.515  1.00  0.00     0.029 A 
ATOM     49  N   UNL A   1      41.736  30.983  30.193  1.00  0.00    -0.354 N 
ATOM     50  C   UNL A   1      43.012  34.655  32.122  1.00  0.00     0.074 A 
ATOM     51  C   UNL A   1      41.942  35.212  32.919  1.00  0.00     0.031 C 
ATOM     52  C   UNL A   1      40.328  29.319  29.712  1.00  0.00     0.029 A 
ATOM     53  C   UNL A   1      41.670  29.836  29.437  1.00  0.00     0.049 A 
ATOM     54  H   UNL A   1      42.548  31.537  30.261  1.00  0.00     0.167 HD
ATOM     55  C   UNL A   1      44.252  35.195  32.029  1.00  0.00     0.034 A 
ATOM     56  C   UNL A   1      42.577  29.288  28.602  1.00  0.00     0.034 A 
ATOM     57  C   UNL A   1      45.303  34.641  31.214  1.00  0.00     0.049 A 
ATOM     58  C   UNL A   1      43.919  29.967  28.427  1.00  0.00     0.074 A 
ATOM     59  C   UNL A   1      46.596  35.103  31.046  1.00  0.00     0.029 A 
ATOM     60  N   UNL A   1      45.177  33.512  30.417  1.00  0.00    -0.354 N 
ATOM     61  N   UNL A   1      44.380  31.053  29.007  1.00  0.00    -0.248 NA
ATOM     62  C   UNL A   1      44.862  29.345  27.487  1.00  0.00     0.031 C 
ATOM     63  C   UNL A   1      47.225  34.302  30.089  1.00  0.00     0.029 A 
ATOM     64  C   UNL A   1      46.357  33.285  29.725  1.00  0.00     0.049 A 
ATOM     65  H   UNL A   1      44.369  32.954  30.352  1.00  0.00     0.167 HD
ATOM     66  C   UNL A   1      45.680  31.217  28.530  1.00  0.00     0.074 A 
ATOM     67  C   UNL A   1      45.930  30.116  27.623  1.00  0.00     0.031 C 
ATOM     68  C   UNL A   1      46.589  32.184  28.818  1.00  0.00     0.034 A 
BRANCH  55  69
ATOM     69  C   UNL A   1      44.500  36.484  32.775  1.00  0.00     0.023 A 
ATOM     70  C   UNL A   1      44.044  37.723  32.290  1.00  0.00     0.031 A 
ATOM     71  C   UNL A   1      45.249  36.478  33.965  1.00  0.00     0.131 A 
ATOM     72  C   UNL A   1      44.404  38.907  32.950  1.00  0.00     0.055 A 
ATOM     73  C   UNL A   1      45.531  37.653  34.663  1.00  0.00     0.041 A 
ATOM     74  F   UNL A   1      45.735  35.329  34.460  1.00  0.00    -0.206 F 
ATOM     75  C   UNL A   1      45.123  38.879  34.148  1.00  0.00     0.022 A 
BRANCH  72  76
ATOM     76  S   UNL A   1      44.056  40.492  32.139  1.00  0.00     0.124 S 
ATOM     77  O   UNL A   1      42.597  40.469  32.062  1.00  0.00    -0.237 OA
ATOM     78  O   UNL A   1      44.632  41.456  33.068  1.00  0.00    -0.237 OA
ATOM     79  O   UNL A   1      44.741  40.376  30.853  1.00  0.00    -0.744 OA
ENDBRANCH  72  76
ENDBRANCH  55  69
BRANCH  56  80
ATOM     80  C   UNL A   1      42.252  28.056  27.822  1.00  0.00     0.023 A 
ATOM     81  C   UNL A   1      42.652  26.784  28.266  1.00  0.00     0.031 A 
ATOM     82  C   UNL A   1      41.601  28.140  26.577  1.00  0.00     0.131 A 
ATOM     83  C   UNL A   1      42.445  25.658  27.451  1.00  0.00     0.055 A 
ATOM     84  C   UNL A   1      41.346  27.010  25.797  1.00  0.00     0.041 A 
ATOM     85  F   UNL A   1      41.205  29.330  26.097  1.00  0.00    -0.206 F 
ATOM     86  C   UNL A   1      41.781  25.761  26.227  1.00  0.00     0.022 A 
BRANCH  83  87
ATOM     87  S   UNL A   1      43.144  24.067  27.971  1.00  0.00     0.124 S 
ATOM     88  O   UNL A   1      44.438  24.078  27.297  1.00  0.00    -0.237 OA
ATOM     89  O   UNL A   1      43.174  24.210  29.422  1.00  0.00    -0.237 OA
ATOM     90  O   UNL A   1      42.183  23.091  27.462  1.00  0.00    -0.744 OA
ENDBRANCH  83  87
ENDBRANCH  56  80
BRANCH  68  91
ATOM     91  C   UNL A   1      47.957  32.062  28.188  1.00  0.00     0.023 A 
ATOM     92  C   UNL A   1      48.947  31.213  28.713  1.00  0.00     0.031 A 
ATOM     93  C   UNL A   1      48.271  32.810  27.039  1.00  0.00     0.131 A 
ATOM     94  C   UNL A   1      50.219  31.173  28.122  1.00  0.00     0.055 A 
ATOM     95  C   UNL A   1      49.517  32.718  26.417  1.00  0.00     0.041 A 
ATOM     96  F   UNL A   1      47.366  33.639  26.493  1.00  0.00    -0.206 F 
ATOM     97  C   UNL A   1      50.504  31.906  26.966  1.00  0.00     0.022 A 
BRANCH  94  98
ATOM     98  S   UNL A   1      51.530  30.220  28.936  1.00  0.00     0.124 S 
ATOM     99  O   UNL A   1      51.209  28.855  28.531  1.00  0.00    -0.237 OA
ATOM    100  O   UNL A   1      52.739  30.790  28.351  1.00  0.00    -0.237 OA
ATOM    101  O   UNL A   1      51.334  30.509  30.355  1.00  0.00    -0.744 OA
ENDBRANCH  94  98
ENDBRANCH  68  91
ENDBRANCH  42  43
ENDBRANCH  35  37
ENDBRANCH  34  35
ENDBRANCH  33  34
ENDBRANCH  32  33
ENDBRANCH  31  32
ENDBRANCH  30  31
ENDBRANCH  29  30
ENDBRANCH   1  29
TORSDOF 28
ENDMDL
