MODEL 1
REMARK VINA RESULT:     -10.3      0.000      0.000
REMARK SMILES CN(CC(=O)OCCOCCOCCOCCOC(=O)c1ccc(-c2c3nc(c(-c4cc(S(=O)(=O)[O-])ccc4F)c4ccc([nH]4)c(-c4cc(S(=O)(=O)[O-])ccc4F)c4nc(c(-c5cc(S(=O)(=O)[O-])ccc5F)c5ccc2[nH]5)C=C4)C=C3)cc1)c1nc2cc(N)ccc2[nH]1
REMARK SMILES IDX 12 1 11 2 10 3 9 4 8 5 7 6 6 7 4 8 5 9 3 10 2 11 1 12 84 13
REMARK SMILES IDX 85 14 93 15 86 16 92 17 87 19 91 20 88 21 90 22 89 23 13 26
REMARK SMILES IDX 14 27 15 28 16 29 17 30 18 31 19 32 20 33 21 34 22 35 83 36
REMARK SMILES IDX 23 37 82 38 24 39 25 40 26 41 76 42 27 43 81 44 75 45 77 46
REMARK SMILES IDX 28 47 80 48 74 49 73 50 29 52 61 53 41 54 60 55 42 56 45 57
REMARK SMILES IDX 59 58 78 59 43 60 44 61 58 63 79 64 46 65 30 66 31 67 39 68
REMARK SMILES IDX 32 69 38 70 40 71 37 72 33 73 34 74 35 75 36 76 62 77 63 78
REMARK SMILES IDX 71 79 64 80 70 81 72 82 69 83 65 84 66 85 67 86 68 87 47 88
REMARK SMILES IDX 48 89 56 90 49 91 55 92 57 93 54 94 50 95 51 96 52 97 53 98
REMARK H PARENT 93 18 89 24 89 25 77 51 45 62
REMARK Flexibility Score: inf
ROOT
ATOM      1  O   UNL A   1      43.472  19.708  24.794  1.00  0.00    -0.377 OA
ENDROOT
BRANCH   1   2
ATOM      2  C   UNL A   1      43.018  19.970  26.103  1.00  0.00     0.188 C 
BRANCH   2   3
ATOM      3  C   UNL A   1      41.883  19.082  26.637  1.00  0.00     0.188 C 
BRANCH   3   4
ATOM      4  O   UNL A   1      40.775  19.639  27.336  1.00  0.00    -0.376 OA
BRANCH   4   5
ATOM      5  C   UNL A   1      40.482  21.014  27.178  1.00  0.00     0.202 C 
BRANCH   5   6
ATOM      6  C   UNL A   1      39.615  21.427  25.974  1.00  0.00     0.261 C 
BRANCH   6   7
ATOM      7  O   UNL A   1      38.254  21.844  26.242  1.00  0.00    -0.462 OA
BRANCH   7   8
ATOM      8  C   UNL A   1      37.854  23.032  25.701  1.00  0.00     0.325 C 
ATOM      9  O   UNL A   1      38.410  24.102  25.948  1.00  0.00    -0.250 OA
BRANCH   8  10
ATOM     10  C   UNL A   1      36.534  22.983  24.910  1.00  0.00     0.241 C 
BRANCH  10  11
ATOM     11  N   UNL A   1      35.255  22.672  25.596  1.00  0.00    -0.334 N 
ATOM     12  C   UNL A   1      34.776  23.594  26.613  1.00  0.00     0.147 C 
BRANCH  11  13
ATOM     13  C   UNL A   1      34.587  21.527  25.290  1.00  0.00     0.204 A 
ATOM     14  N   UNL A   1      33.380  21.418  24.785  1.00  0.00    -0.213 NA
ATOM     15  N   UNL A   1      35.168  20.277  25.384  1.00  0.00    -0.324 N 
ATOM     16  C   UNL A   1      33.283  20.127  24.316  1.00  0.00     0.093 A 
ATOM     17  C   UNL A   1      34.373  19.371  24.724  1.00  0.00     0.067 A 
ATOM     18  H   UNL A   1      36.011  20.070  25.848  1.00  0.00     0.170 HD
ATOM     19  C   UNL A   1      32.337  19.555  23.448  1.00  0.00     0.056 A 
ATOM     20  C   UNL A   1      34.530  18.022  24.396  1.00  0.00     0.030 A 
ATOM     21  C   UNL A   1      32.565  18.264  22.950  1.00  0.00     0.034 A 
ATOM     22  C   UNL A   1      33.591  17.484  23.499  1.00  0.00     0.028 A 
BRANCH  21  23
ATOM     23  N   UNL A   1      31.728  17.737  21.969  1.00  0.00    -0.399 N 
ATOM     24  H   UNL A   1      31.751  18.100  21.055  1.00  0.00     0.156 HD
ATOM     25  H   UNL A   1      31.114  17.001  22.191  1.00  0.00     0.156 HD
ENDBRANCH  21  23
ENDBRANCH  11  13
ENDBRANCH  10  11
ENDBRANCH   8  10
ENDBRANCH   7   8
ENDBRANCH   6   7
ENDBRANCH   5   6
ENDBRANCH   4   5
ENDBRANCH   3   4
ENDBRANCH   2   3
ENDBRANCH   1   2
BRANCH   1  26
ATOM     26  C   UNL A   1      44.758  19.152  24.609  1.00  0.00     0.188 C 
BRANCH  26  27
ATOM     27  C   UNL A   1      45.946  19.972  25.118  1.00  0.00     0.188 C 
BRANCH  27  28
ATOM     28  O   UNL A   1      46.137  21.306  24.641  1.00  0.00    -0.376 OA
BRANCH  28  29
ATOM     29  C   UNL A   1      45.287  22.357  25.083  1.00  0.00     0.202 C 
BRANCH  29  30
ATOM     30  C   UNL A   1      44.652  23.196  23.984  1.00  0.00     0.261 C 
BRANCH  30  31
ATOM     31  O   UNL A   1      43.763  24.128  24.608  1.00  0.00    -0.460 OA
BRANCH  31  32
ATOM     32  C   UNL A   1      44.396  25.179  25.172  1.00  0.00     0.338 C 
ATOM     33  O   UNL A   1      45.443  25.681  24.799  1.00  0.00    -0.246 OA
BRANCH  32  34
ATOM     34  C   UNL A   1      43.486  25.796  26.161  1.00  0.00     0.060 A 
ATOM     35  C   UNL A   1      43.437  27.196  26.205  1.00  0.00     0.016 A 
ATOM     36  C   UNL A   1      42.660  25.029  26.994  1.00  0.00     0.016 A 
ATOM     37  C   UNL A   1      42.614  27.837  27.122  1.00  0.00     0.010 A 
ATOM     38  C   UNL A   1      41.851  25.670  27.928  1.00  0.00     0.010 A 
ATOM     39  C   UNL A   1      41.873  27.071  28.026  1.00  0.00    -0.014 A 
BRANCH  39  40
ATOM     40  C   UNL A   1      41.397  27.699  29.272  1.00  0.00     0.031 A 
ATOM     41  C   UNL A   1      40.084  28.428  29.204  1.00  0.00     0.074 A 
ATOM     42  C   UNL A   1      42.107  27.625  30.408  1.00  0.00     0.049 A 
ATOM     43  N   UNL A   1      39.485  29.153  30.107  1.00  0.00    -0.248 NA
ATOM     44  C   UNL A   1      39.358  28.330  27.926  1.00  0.00     0.031 C 
ATOM     45  C   UNL A   1      43.352  26.878  30.579  1.00  0.00     0.029 A 
ATOM     46  N   UNL A   1      41.881  28.196  31.631  1.00  0.00    -0.354 N 
ATOM     47  C   UNL A   1      38.317  29.610  29.501  1.00  0.00     0.074 A 
ATOM     48  C   UNL A   1      38.315  29.111  28.146  1.00  0.00     0.031 C 
ATOM     49  C   UNL A   1      43.786  27.047  31.841  1.00  0.00     0.029 A 
ATOM     50  C   UNL A   1      42.877  27.951  32.544  1.00  0.00     0.049 A 
ATOM     51  H   UNL A   1      41.080  28.731  31.836  1.00  0.00     0.167 HD
ATOM     52  C   UNL A   1      37.339  30.377  30.036  1.00  0.00     0.034 A 
ATOM     53  C   UNL A   1      43.038  28.435  33.791  1.00  0.00     0.034 A 
ATOM     54  C   UNL A   1      37.393  30.879  31.384  1.00  0.00     0.049 A 
ATOM     55  C   UNL A   1      41.994  29.386  34.331  1.00  0.00     0.074 A 
ATOM     56  C   UNL A   1      36.473  31.665  32.052  1.00  0.00     0.029 A 
ATOM     57  N   UNL A   1      38.446  30.657  32.266  1.00  0.00    -0.354 N 
ATOM     58  N   UNL A   1      40.893  29.818  33.756  1.00  0.00    -0.248 NA
ATOM     59  C   UNL A   1      42.214  29.916  35.681  1.00  0.00     0.031 C 
ATOM     60  C   UNL A   1      37.008  31.987  33.303  1.00  0.00     0.029 A 
ATOM     61  C   UNL A   1      38.218  31.326  33.455  1.00  0.00     0.049 A 
ATOM     62  H   UNL A   1      39.238  30.106  32.071  1.00  0.00     0.167 HD
ATOM     63  C   UNL A   1      40.267  30.633  34.696  1.00  0.00     0.074 A 
ATOM     64  C   UNL A   1      41.118  30.638  35.869  1.00  0.00     0.031 C 
ATOM     65  C   UNL A   1      39.090  31.307  34.608  1.00  0.00     0.034 A 
BRANCH  52  66
ATOM     66  C   UNL A   1      36.198  30.772  29.130  1.00  0.00     0.023 A 
ATOM     67  C   UNL A   1      35.291  29.826  28.620  1.00  0.00     0.031 A 
ATOM     68  C   UNL A   1      36.062  32.105  28.703  1.00  0.00     0.131 A 
ATOM     69  C   UNL A   1      34.357  30.206  27.644  1.00  0.00     0.055 A 
ATOM     70  C   UNL A   1      35.068  32.495  27.805  1.00  0.00     0.041 A 
ATOM     71  F   UNL A   1      36.917  33.049  29.128  1.00  0.00    -0.206 F 
ATOM     72  C   UNL A   1      34.220  31.538  27.254  1.00  0.00     0.022 A 
BRANCH  69  73
ATOM     73  S   UNL A   1      33.453  28.904  26.759  1.00  0.00     0.124 S 
ATOM     74  O   UNL A   1      33.076  29.593  25.526  1.00  0.00    -0.237 OA
ATOM     75  O   UNL A   1      34.458  27.857  26.624  1.00  0.00    -0.237 OA
ATOM     76  O   UNL A   1      32.340  28.591  27.653  1.00  0.00    -0.744 OA
ENDBRANCH  69  73
ENDBRANCH  52  66
BRANCH  53  77
ATOM     77  C   UNL A   1      44.230  28.057  34.603  1.00  0.00     0.023 A 
ATOM     78  C   UNL A   1      44.172  26.987  35.507  1.00  0.00     0.031 A 
ATOM     79  C   UNL A   1      45.433  28.781  34.516  1.00  0.00     0.131 A 
ATOM     80  C   UNL A   1      45.280  26.693  36.318  1.00  0.00     0.055 A 
ATOM     81  C   UNL A   1      46.551  28.451  35.284  1.00  0.00     0.041 A 
ATOM     82  F   UNL A   1      45.544  29.817  33.667  1.00  0.00    -0.206 F 
ATOM     83  C   UNL A   1      46.475  27.407  36.201  1.00  0.00     0.022 A 
BRANCH  80  84
ATOM     84  S   UNL A   1      45.110  25.408  37.586  1.00  0.00     0.124 S 
ATOM     85  O   UNL A   1      44.503  24.322  36.826  1.00  0.00    -0.237 OA
ATOM     86  O   UNL A   1      46.495  25.209  38.001  1.00  0.00    -0.237 OA
ATOM     87  O   UNL A   1      44.245  26.031  38.586  1.00  0.00    -0.744 OA
ENDBRANCH  80  84
ENDBRANCH  53  77
BRANCH  65  88
ATOM     88  C   UNL A   1      38.622  32.046  35.835  1.00  0.00     0.023 A 
ATOM     89  C   UNL A   1      38.061  31.380  36.937  1.00  0.00     0.031 A 
ATOM     90  C   UNL A   1      38.788  33.440  35.914  1.00  0.00     0.131 A 
ATOM     91  C   UNL A   1      37.653  32.116  38.059  1.00  0.00     0.055 A 
ATOM     92  C   UNL A   1      38.436  34.159  37.056  1.00  0.00     0.041 A 
ATOM     93  F   UNL A   1      39.320  34.123  34.887  1.00  0.00    -0.206 F 
ATOM     94  C   UNL A   1      37.857  33.497  38.134  1.00  0.00     0.022 A 
BRANCH  91  95
ATOM     95  S   UNL A   1      36.795  31.252  39.403  1.00  0.00     0.124 S 
ATOM     96  O   UNL A   1      37.749  31.374  40.499  1.00  0.00    -0.237 OA
ATOM     97  O   UNL A   1      35.566  32.026  39.539  1.00  0.00    -0.237 OA
ATOM     98  O   UNL A   1      36.618  29.897  38.881  1.00  0.00    -0.744 OA
ENDBRANCH  91  95
ENDBRANCH  65  88
ENDBRANCH  39  40
ENDBRANCH  32  34
ENDBRANCH  31  32
ENDBRANCH  30  31
ENDBRANCH  29  30
ENDBRANCH  28  29
ENDBRANCH  27  28
ENDBRANCH  26  27
ENDBRANCH   1  26
TORSDOF 26
ENDMDL
MODEL 2
REMARK VINA RESULT:      -9.6      1.856      2.158
REMARK SMILES CN(CC(=O)OCCOCCOCCOCCOC(=O)c1ccc(-c2c3nc(c(-c4cc(S(=O)(=O)[O-])ccc4F)c4ccc([nH]4)c(-c4cc(S(=O)(=O)[O-])ccc4F)c4nc(c(-c5cc(S(=O)(=O)[O-])ccc5F)c5ccc2[nH]5)C=C4)C=C3)cc1)c1nc2cc(N)ccc2[nH]1
REMARK SMILES IDX 12 1 11 2 10 3 9 4 8 5 7 6 6 7 4 8 5 9 3 10 2 11 1 12 84 13
REMARK SMILES IDX 85 14 93 15 86 16 92 17 87 19 91 20 88 21 90 22 89 23 13 26
REMARK SMILES IDX 14 27 15 28 16 29 17 30 18 31 19 32 20 33 21 34 22 35 83 36
REMARK SMILES IDX 23 37 82 38 24 39 25 40 26 41 76 42 27 43 81 44 75 45 77 46
REMARK SMILES IDX 28 47 80 48 74 49 73 50 29 52 61 53 41 54 60 55 42 56 45 57
REMARK SMILES IDX 59 58 78 59 43 60 44 61 58 63 79 64 46 65 30 66 31 67 39 68
REMARK SMILES IDX 32 69 38 70 40 71 37 72 33 73 34 74 35 75 36 76 62 77 63 78
REMARK SMILES IDX 71 79 64 80 70 81 72 82 69 83 65 84 66 85 67 86 68 87 47 88
REMARK SMILES IDX 48 89 56 90 49 91 55 92 57 93 54 94 50 95 51 96 52 97 53 98
REMARK H PARENT 93 18 89 24 89 25 77 51 45 62
REMARK Flexibility Score: inf
ROOT
ATOM      1  O   UNL A   1      43.804  19.712  24.586  1.00  0.00    -0.377 OA
ENDROOT
BRANCH   1   2
ATOM      2  C   UNL A   1      43.092  20.138  25.726  1.00  0.00     0.188 C 
BRANCH   2   3
ATOM      3  C   UNL A   1      41.986  19.205  26.246  1.00  0.00     0.188 C 
BRANCH   3   4
ATOM      4  O   UNL A   1      40.730  19.107  25.584  1.00  0.00    -0.376 OA
BRANCH   4   5
ATOM      5  C   UNL A   1      39.594  19.714  26.170  1.00  0.00     0.202 C 
BRANCH   5   6
ATOM      6  C   UNL A   1      39.283  21.172  25.783  1.00  0.00     0.261 C 
BRANCH   6   7
ATOM      7  O   UNL A   1      37.895  21.524  25.565  1.00  0.00    -0.462 OA
BRANCH   7   8
ATOM      8  C   UNL A   1      37.579  22.851  25.613  1.00  0.00     0.325 C 
ATOM      9  O   UNL A   1      38.195  23.662  26.305  1.00  0.00    -0.250 OA
BRANCH   8  10
ATOM     10  C   UNL A   1      36.273  23.243  24.896  1.00  0.00     0.241 C 
BRANCH  10  11
ATOM     11  N   UNL A   1      34.956  22.923  25.500  1.00  0.00    -0.334 N 
ATOM     12  C   UNL A   1      34.354  23.896  26.397  1.00  0.00     0.147 C 
BRANCH  11  13
ATOM     13  C   UNL A   1      34.367  21.726  25.236  1.00  0.00     0.204 A 
ATOM     14  N   UNL A   1      33.166  21.518  24.745  1.00  0.00    -0.213 NA
ATOM     15  N   UNL A   1      35.032  20.522  25.365  1.00  0.00    -0.324 N 
ATOM     16  C   UNL A   1      33.155  20.210  24.317  1.00  0.00     0.093 A 
ATOM     17  C   UNL A   1      34.297  19.543  24.740  1.00  0.00     0.067 A 
ATOM     18  H   UNL A   1      35.890  20.388  25.829  1.00  0.00     0.170 HD
ATOM     19  C   UNL A   1      32.245  19.547  23.476  1.00  0.00     0.056 A 
ATOM     20  C   UNL A   1      34.544  18.198  24.454  1.00  0.00     0.030 A 
ATOM     21  C   UNL A   1      32.558  18.259  23.017  1.00  0.00     0.034 A 
ATOM     22  C   UNL A   1      33.639  17.569  23.582  1.00  0.00     0.028 A 
BRANCH  21  23
ATOM     23  N   UNL A   1      31.753  17.645  22.060  1.00  0.00    -0.399 N 
ATOM     24  H   UNL A   1      31.335  18.183  21.350  1.00  0.00     0.156 HD
ATOM     25  H   UNL A   1      31.603  16.673  22.094  1.00  0.00     0.156 HD
ENDBRANCH  21  23
ENDBRANCH  11  13
ENDBRANCH  10  11
ENDBRANCH   8  10
ENDBRANCH   7   8
ENDBRANCH   6   7
ENDBRANCH   5   6
ENDBRANCH   4   5
ENDBRANCH   3   4
ENDBRANCH   2   3
ENDBRANCH   1   2
BRANCH   1  26
ATOM     26  C   UNL A   1      45.086  19.138  24.749  1.00  0.00     0.188 C 
BRANCH  26  27
ATOM     27  C   UNL A   1      46.185  20.048  25.300  1.00  0.00     0.188 C 
BRANCH  27  28
ATOM     28  O   UNL A   1      46.399  21.332  24.710  1.00  0.00    -0.376 OA
BRANCH  28  29
ATOM     29  C   UNL A   1      45.604  22.445  25.099  1.00  0.00     0.202 C 
BRANCH  29  30
ATOM     30  C   UNL A   1      45.274  23.437  23.994  1.00  0.00     0.261 C 
BRANCH  30  31
ATOM     31  O   UNL A   1      44.483  24.482  24.569  1.00  0.00    -0.460 OA
BRANCH  31  32
ATOM     32  C   UNL A   1      45.167  25.257  25.438  1.00  0.00     0.338 C 
ATOM     33  O   UNL A   1      46.339  25.583  25.351  1.00  0.00    -0.246 OA
BRANCH  32  34
ATOM     34  C   UNL A   1      44.203  25.868  26.377  1.00  0.00     0.060 A 
ATOM     35  C   UNL A   1      44.186  27.267  26.464  1.00  0.00     0.016 A 
ATOM     36  C   UNL A   1      43.298  25.099  27.122  1.00  0.00     0.016 A 
ATOM     37  C   UNL A   1      43.315  27.902  27.340  1.00  0.00     0.010 A 
ATOM     38  C   UNL A   1      42.439  25.733  28.015  1.00  0.00     0.010 A 
ATOM     39  C   UNL A   1      42.490  27.128  28.161  1.00  0.00    -0.014 A 
BRANCH  39  40
ATOM     40  C   UNL A   1      41.940  27.731  29.390  1.00  0.00     0.031 A 
ATOM     41  C   UNL A   1      40.615  28.431  29.265  1.00  0.00     0.074 A 
ATOM     42  C   UNL A   1      42.595  27.657  30.558  1.00  0.00     0.049 A 
ATOM     43  N   UNL A   1      39.957  29.131  30.146  1.00  0.00    -0.248 NA
ATOM     44  C   UNL A   1      39.955  28.334  27.952  1.00  0.00     0.031 C 
ATOM     45  C   UNL A   1      43.846  26.935  30.782  1.00  0.00     0.029 A 
ATOM     46  N   UNL A   1      42.296  28.207  31.775  1.00  0.00    -0.354 N 
ATOM     47  C   UNL A   1      38.810  29.570  29.489  1.00  0.00     0.074 A 
ATOM     48  C   UNL A   1      38.885  29.089  28.129  1.00  0.00     0.031 C 
ATOM     49  C   UNL A   1      44.214  27.098  32.065  1.00  0.00     0.029 A 
ATOM     50  C   UNL A   1      43.252  27.973  32.733  1.00  0.00     0.049 A 
ATOM     51  H   UNL A   1      41.474  28.722  31.947  1.00  0.00     0.167 HD
ATOM     52  C   UNL A   1      37.790  30.310  29.984  1.00  0.00     0.034 A 
ATOM     53  C   UNL A   1      43.340  28.445  33.992  1.00  0.00     0.034 A 
ATOM     54  C   UNL A   1      37.766  30.795  31.339  1.00  0.00     0.049 A 
ATOM     55  C   UNL A   1      42.250  29.365  34.491  1.00  0.00     0.074 A 
ATOM     56  C   UNL A   1      36.798  31.552  31.970  1.00  0.00     0.029 A 
ATOM     57  N   UNL A   1      38.780  30.585  32.269  1.00  0.00    -0.354 N 
ATOM     58  N   UNL A   1      41.169  29.780  33.868  1.00  0.00    -0.248 NA
ATOM     59  C   UNL A   1      42.392  29.883  35.857  1.00  0.00     0.031 C 
ATOM     60  C   UNL A   1      37.263  31.870  33.249  1.00  0.00     0.029 A 
ATOM     61  C   UNL A   1      38.479  31.233  33.453  1.00  0.00     0.049 A 
ATOM     62  H   UNL A   1      39.592  30.053  32.107  1.00  0.00     0.167 HD
ATOM     63  C   UNL A   1      40.480  30.570  34.785  1.00  0.00     0.074 A 
ATOM     64  C   UNL A   1      41.272  30.579  35.999  1.00  0.00     0.031 C 
ATOM     65  C   UNL A   1      39.294  31.219  34.647  1.00  0.00     0.034 A 
BRANCH  52  66
ATOM     66  C   UNL A   1      36.686  30.691  29.027  1.00  0.00     0.023 A 
ATOM     67  C   UNL A   1      36.276  32.026  28.858  1.00  0.00     0.031 A 
ATOM     68  C   UNL A   1      35.976  29.695  28.333  1.00  0.00     0.131 A 
ATOM     69  C   UNL A   1      35.134  32.316  28.096  1.00  0.00     0.055 A 
ATOM     70  C   UNL A   1      34.900  30.001  27.500  1.00  0.00     0.041 A 
ATOM     71  F   UNL A   1      36.298  28.400  28.478  1.00  0.00    -0.206 F 
ATOM     72  C   UNL A   1      34.460  31.317  27.393  1.00  0.00     0.022 A 
BRANCH  69  73
ATOM     73  S   UNL A   1      34.434  33.989  28.190  1.00  0.00     0.124 S 
ATOM     74  O   UNL A   1      33.010  33.723  27.998  1.00  0.00    -0.237 OA
ATOM     75  O   UNL A   1      34.830  34.422  29.524  1.00  0.00    -0.237 OA
ATOM     76  O   UNL A   1      35.082  34.693  27.085  1.00  0.00    -0.744 OA
ENDBRANCH  69  73
ENDBRANCH  52  66
BRANCH  53  77
ATOM     77  C   UNL A   1      44.499  28.082  34.857  1.00  0.00     0.023 A 
ATOM     78  C   UNL A   1      45.704  28.795  34.779  1.00  0.00     0.031 A 
ATOM     79  C   UNL A   1      44.433  26.996  35.749  1.00  0.00     0.131 A 
ATOM     80  C   UNL A   1      46.808  28.393  35.547  1.00  0.00     0.055 A 
ATOM     81  C   UNL A   1      45.517  26.632  36.551  1.00  0.00     0.041 A 
ATOM     82  F   UNL A   1      43.304  26.278  35.864  1.00  0.00    -0.206 F 
ATOM     83  C   UNL A   1      46.718  27.326  36.445  1.00  0.00     0.022 A 
BRANCH  80  84
ATOM     84  S   UNL A   1      48.393  29.237  35.297  1.00  0.00     0.124 S 
ATOM     85  O   UNL A   1      49.162  28.218  34.591  1.00  0.00    -0.237 OA
ATOM     86  O   UNL A   1      47.994  30.401  34.511  1.00  0.00    -0.237 OA
ATOM     87  O   UNL A   1      48.841  29.529  36.657  1.00  0.00    -0.744 OA
ENDBRANCH  80  84
ENDBRANCH  53  77
BRANCH  65  88
ATOM     88  C   UNL A   1      38.750  31.932  35.858  1.00  0.00     0.023 A 
ATOM     89  C   UNL A   1      38.083  31.248  36.888  1.00  0.00     0.031 A 
ATOM     90  C   UNL A   1      38.948  33.317  35.999  1.00  0.00     0.131 A 
ATOM     91  C   UNL A   1      37.607  31.959  37.999  1.00  0.00     0.055 A 
ATOM     92  C   UNL A   1      38.526  34.009  37.133  1.00  0.00     0.041 A 
ATOM     93  F   UNL A   1      39.581  34.016  35.042  1.00  0.00    -0.206 F 
ATOM     94  C   UNL A   1      37.844  33.331  38.138  1.00  0.00     0.022 A 
BRANCH  91  95
ATOM     95  S   UNL A   1      36.619  31.080  39.239  1.00  0.00     0.124 S 
ATOM     96  O   UNL A   1      36.248  29.864  38.523  1.00  0.00    -0.237 OA
ATOM     97  O   UNL A   1      37.567  30.911  40.335  1.00  0.00    -0.237 OA
ATOM     98  O   UNL A   1      35.515  32.000  39.513  1.00  0.00    -0.744 OA
ENDBRANCH  91  95
ENDBRANCH  65  88
ENDBRANCH  39  40
ENDBRANCH  32  34
ENDBRANCH  31  32
ENDBRANCH  30  31
ENDBRANCH  29  30
ENDBRANCH  28  29
ENDBRANCH  27  28
ENDBRANCH  26  27
ENDBRANCH   1  26
TORSDOF 26
ENDMDL
MODEL 3
REMARK VINA RESULT:      -9.5      3.502      9.757
REMARK SMILES CN(CC(=O)OCCOCCOCCOCCOC(=O)c1ccc(-c2c3nc(c(-c4cc(S(=O)(=O)[O-])ccc4F)c4ccc([nH]4)c(-c4cc(S(=O)(=O)[O-])ccc4F)c4nc(c(-c5cc(S(=O)(=O)[O-])ccc5F)c5ccc2[nH]5)C=C4)C=C3)cc1)c1nc2cc(N)ccc2[nH]1
REMARK SMILES IDX 12 1 11 2 10 3 9 4 8 5 7 6 6 7 4 8 5 9 3 10 2 11 1 12 84 13
REMARK SMILES IDX 85 14 93 15 86 16 92 17 87 19 91 20 88 21 90 22 89 23 13 26
REMARK SMILES IDX 14 27 15 28 16 29 17 30 18 31 19 32 20 33 21 34 22 35 83 36
REMARK SMILES IDX 23 37 82 38 24 39 25 40 26 41 76 42 27 43 81 44 75 45 77 46
REMARK SMILES IDX 28 47 80 48 74 49 73 50 29 52 61 53 41 54 60 55 42 56 45 57
REMARK SMILES IDX 59 58 78 59 43 60 44 61 58 63 79 64 46 65 30 66 31 67 39 68
REMARK SMILES IDX 32 69 38 70 40 71 37 72 33 73 34 74 35 75 36 76 62 77 63 78
REMARK SMILES IDX 71 79 64 80 70 81 72 82 69 83 65 84 66 85 67 86 68 87 47 88
REMARK SMILES IDX 48 89 56 90 49 91 55 92 57 93 54 94 50 95 51 96 52 97 53 98
REMARK H PARENT 93 18 89 24 89 25 77 51 45 62
REMARK Flexibility Score: inf
ROOT
ATOM      1  O   UNL A   1      33.591  28.049  23.979  1.00  0.00    -0.377 OA
ENDROOT
BRANCH   1   2
ATOM      2  C   UNL A   1      33.516  26.712  23.534  1.00  0.00     0.188 C 
BRANCH   2   3
ATOM      3  C   UNL A   1      32.636  25.754  24.354  1.00  0.00     0.188 C 
BRANCH   3   4
ATOM      4  O   UNL A   1      32.385  24.423  23.915  1.00  0.00    -0.376 OA
BRANCH   4   5
ATOM      5  C   UNL A   1      31.062  23.923  23.957  1.00  0.00     0.202 C 
BRANCH   5   6
ATOM      6  C   UNL A   1      30.580  23.284  25.272  1.00  0.00     0.261 C 
BRANCH   6   7
ATOM      7  O   UNL A   1      31.551  22.543  26.051  1.00  0.00    -0.462 OA
BRANCH   7   8
ATOM      8  C   UNL A   1      32.247  23.240  26.995  1.00  0.00     0.325 C 
ATOM      9  O   UNL A   1      31.773  24.197  27.607  1.00  0.00    -0.250 OA
BRANCH   8  10
ATOM     10  C   UNL A   1      33.740  22.879  27.113  1.00  0.00     0.241 C 
BRANCH  10  11
ATOM     11  N   UNL A   1      34.561  22.665  25.895  1.00  0.00    -0.334 N 
ATOM     12  C   UNL A   1      35.524  23.690  25.525  1.00  0.00     0.147 C 
BRANCH  11  13
ATOM     13  C   UNL A   1      34.371  21.549  25.141  1.00  0.00     0.204 A 
ATOM     14  N   UNL A   1      34.974  20.389  25.266  1.00  0.00    -0.213 NA
ATOM     15  N   UNL A   1      33.398  21.466  24.165  1.00  0.00    -0.324 N 
ATOM     16  C   UNL A   1      34.215  19.491  24.551  1.00  0.00     0.093 A 
ATOM     17  C   UNL A   1      33.246  20.148  23.806  1.00  0.00     0.067 A 
ATOM     18  H   UNL A   1      32.898  22.225  23.787  1.00  0.00     0.170 HD
ATOM     19  C   UNL A   1      34.232  18.086  24.568  1.00  0.00     0.056 A 
ATOM     20  C   UNL A   1      32.338  19.481  22.979  1.00  0.00     0.030 A 
ATOM     21  C   UNL A   1      33.217  17.385  23.900  1.00  0.00     0.034 A 
ATOM     22  C   UNL A   1      32.351  18.077  23.042  1.00  0.00     0.028 A 
BRANCH  21  23
ATOM     23  N   UNL A   1      33.121  16.002  24.032  1.00  0.00    -0.399 N 
ATOM     24  H   UNL A   1      33.924  15.469  24.229  1.00  0.00     0.156 HD
ATOM     25  H   UNL A   1      32.249  15.558  23.929  1.00  0.00     0.156 HD
ENDBRANCH  21  23
ENDBRANCH  11  13
ENDBRANCH  10  11
ENDBRANCH   8  10
ENDBRANCH   7   8
ENDBRANCH   6   7
ENDBRANCH   5   6
ENDBRANCH   4   5
ENDBRANCH   3   4
ENDBRANCH   2   3
ENDBRANCH   1   2
BRANCH   1  26
ATOM     26  C   UNL A   1      32.601  28.969  23.562  1.00  0.00     0.188 C 
BRANCH  26  27
ATOM     27  C   UNL A   1      31.435  29.213  24.521  1.00  0.00     0.188 C 
BRANCH  27  28
ATOM     28  O   UNL A   1      31.681  29.282  25.927  1.00  0.00    -0.376 OA
BRANCH  28  29
ATOM     29  C   UNL A   1      32.167  30.482  26.515  1.00  0.00     0.202 C 
BRANCH  29  30
ATOM     30  C   UNL A   1      33.652  30.500  26.843  1.00  0.00     0.261 C 
BRANCH  30  31
ATOM     31  O   UNL A   1      33.812  31.165  28.101  1.00  0.00    -0.460 OA
BRANCH  31  32
ATOM     32  C   UNL A   1      34.972  31.849  28.203  1.00  0.00     0.338 C 
ATOM     33  O   UNL A   1      35.095  33.057  28.318  1.00  0.00    -0.246 OA
BRANCH  32  34
ATOM     34  C   UNL A   1      36.067  30.879  28.418  1.00  0.00     0.060 A 
ATOM     35  C   UNL A   1      35.960  30.021  29.521  1.00  0.00     0.016 A 
ATOM     36  C   UNL A   1      37.151  30.771  27.537  1.00  0.00     0.016 A 
ATOM     37  C   UNL A   1      36.963  29.098  29.788  1.00  0.00     0.010 A 
ATOM     38  C   UNL A   1      38.168  29.861  27.814  1.00  0.00     0.010 A 
ATOM     39  C   UNL A   1      38.096  29.067  28.970  1.00  0.00    -0.014 A 
BRANCH  39  40
ATOM     40  C   UNL A   1      39.338  28.469  29.494  1.00  0.00     0.031 A 
ATOM     41  C   UNL A   1      39.911  29.084  30.740  1.00  0.00     0.074 A 
ATOM     42  C   UNL A   1      39.926  27.429  28.883  1.00  0.00     0.049 A 
ATOM     43  N   UNL A   1      41.034  28.833  31.353  1.00  0.00    -0.248 NA
ATOM     44  C   UNL A   1      39.101  30.142  31.370  1.00  0.00     0.031 C 
ATOM     45  C   UNL A   1      39.398  26.727  27.714  1.00  0.00     0.029 A 
ATOM     46  N   UNL A   1      41.103  26.790  29.162  1.00  0.00    -0.354 N 
ATOM     47  C   UNL A   1      41.072  29.711  32.433  1.00  0.00     0.074 A 
ATOM     48  C   UNL A   1      39.880  30.524  32.366  1.00  0.00     0.031 C 
ATOM     49  C   UNL A   1      40.261  25.755  27.369  1.00  0.00     0.029 A 
ATOM     50  C   UNL A   1      41.419  25.802  28.261  1.00  0.00     0.049 A 
ATOM     51  H   UNL A   1      41.670  27.018  29.934  1.00  0.00     0.167 HD
ATOM     52  C   UNL A   1      42.023  29.824  33.391  1.00  0.00     0.034 A 
ATOM     53  C   UNL A   1      42.534  25.053  28.163  1.00  0.00     0.034 A 
ATOM     54  C   UNL A   1      43.212  29.014  33.406  1.00  0.00     0.049 A 
ATOM     55  C   UNL A   1      43.637  25.274  29.173  1.00  0.00     0.074 A 
ATOM     56  C   UNL A   1      44.253  29.023  34.314  1.00  0.00     0.029 A 
ATOM     57  N   UNL A   1      43.527  28.059  32.444  1.00  0.00    -0.354 N 
ATOM     58  N   UNL A   1      43.672  26.106  30.191  1.00  0.00    -0.248 NA
ATOM     59  C   UNL A   1      44.849  24.460  29.021  1.00  0.00     0.031 C 
ATOM     60  C   UNL A   1      45.234  28.137  33.857  1.00  0.00     0.029 A 
ATOM     61  C   UNL A   1      44.765  27.504  32.715  1.00  0.00     0.049 A 
ATOM     62  H   UNL A   1      42.953  27.815  31.683  1.00  0.00     0.167 HD
ATOM     63  C   UNL A   1      44.890  25.880  30.827  1.00  0.00     0.074 A 
ATOM     64  C   UNL A   1      45.562  24.841  30.072  1.00  0.00     0.031 C 
ATOM     65  C   UNL A   1      45.405  26.465  31.940  1.00  0.00     0.034 A 
BRANCH  52  66
ATOM     66  C   UNL A   1      41.835  30.908  34.425  1.00  0.00     0.023 A 
ATOM     67  C   UNL A   1      42.216  32.240  34.183  1.00  0.00     0.031 A 
ATOM     68  C   UNL A   1      41.344  30.589  35.703  1.00  0.00     0.131 A 
ATOM     69  C   UNL A   1      42.188  33.177  35.228  1.00  0.00     0.055 A 
ATOM     70  C   UNL A   1      41.229  31.548  36.710  1.00  0.00     0.041 A 
ATOM     71  F   UNL A   1      40.995  29.329  36.006  1.00  0.00    -0.206 F 
ATOM     72  C   UNL A   1      41.672  32.847  36.482  1.00  0.00     0.022 A 
BRANCH  69  73
ATOM     73  S   UNL A   1      43.011  34.776  34.978  1.00  0.00     0.124 S 
ATOM     74  O   UNL A   1      42.311  35.287  33.802  1.00  0.00    -0.237 OA
ATOM     75  O   UNL A   1      42.744  35.468  36.233  1.00  0.00    -0.237 OA
ATOM     76  O   UNL A   1      44.408  34.410  34.751  1.00  0.00    -0.744 OA
ENDBRANCH  69  73
ENDBRANCH  52  66
BRANCH  53  77
ATOM     77  C   UNL A   1      42.679  24.050  27.070  1.00  0.00     0.023 A 
ATOM     78  C   UNL A   1      42.118  22.770  27.191  1.00  0.00     0.031 A 
ATOM     79  C   UNL A   1      43.412  24.340  25.905  1.00  0.00     0.131 A 
ATOM     80  C   UNL A   1      42.328  21.814  26.185  1.00  0.00     0.055 A 
ATOM     81  C   UNL A   1      43.574  23.404  24.882  1.00  0.00     0.041 A 
ATOM     82  F   UNL A   1      43.973  25.549  25.737  1.00  0.00    -0.206 F 
ATOM     83  C   UNL A   1      43.039  22.127  25.024  1.00  0.00     0.022 A 
BRANCH  80  84
ATOM     84  S   UNL A   1      41.725  20.126  26.453  1.00  0.00     0.124 S 
ATOM     85  O   UNL A   1      40.280  20.316  26.392  1.00  0.00    -0.237 OA
ATOM     86  O   UNL A   1      42.328  19.408  25.335  1.00  0.00    -0.237 OA
ATOM     87  O   UNL A   1      42.254  19.781  27.771  1.00  0.00    -0.744 OA
ENDBRANCH  80  84
ENDBRANCH  53  77
BRANCH  65  88
ATOM     88  C   UNL A   1      46.726  25.945  32.447  1.00  0.00     0.023 A 
ATOM     89  C   UNL A   1      46.805  24.912  33.395  1.00  0.00     0.031 A 
ATOM     90  C   UNL A   1      47.925  26.468  31.930  1.00  0.00     0.131 A 
ATOM     91  C   UNL A   1      48.061  24.458  33.824  1.00  0.00     0.055 A 
ATOM     92  C   UNL A   1      49.170  25.971  32.315  1.00  0.00     0.041 A 
ATOM     93  F   UNL A   1      47.902  27.456  31.020  1.00  0.00    -0.206 F 
ATOM     94  C   UNL A   1      49.243  24.966  33.274  1.00  0.00     0.022 A 
BRANCH  91  95
ATOM     95  S   UNL A   1      48.136  23.233  35.158  1.00  0.00     0.124 S 
ATOM     96  O   UNL A   1      48.988  23.901  36.136  1.00  0.00    -0.237 OA
ATOM     97  O   UNL A   1      46.734  23.086  35.530  1.00  0.00    -0.237 OA
ATOM     98  O   UNL A   1      48.732  22.062  34.514  1.00  0.00    -0.744 OA
ENDBRANCH  91  95
ENDBRANCH  65  88
ENDBRANCH  39  40
ENDBRANCH  32  34
ENDBRANCH  31  32
ENDBRANCH  30  31
ENDBRANCH  29  30
ENDBRANCH  28  29
ENDBRANCH  27  28
ENDBRANCH  26  27
ENDBRANCH   1  26
TORSDOF 26
ENDMDL
