MODEL 1
REMARK VINA RESULT:      -7.9      0.000      0.000
REMARK SMILES CCOc1cccc(-c2ccc([C@@H](C)C(=O)OCCOCCOCCOCCOC(=O)c3ccc(-c4c5nc(c(-c6cc(S(=O)(=O)[O-])ccc6F)c6ccc([nH]6)c(-c6cc(S(=O)(=O)[O-])ccc6F)c6nc(c(-c7cc(S(=O)(=O)[O-])ccc7F)c7ccc4[nH]7)C=C6)C=C5)cc3)cc2F)c1
REMARK SMILES IDX 22 1 21 2 20 3 19 4 18 5 17 6 15 7 16 8 13 9 14 10 12 11
REMARK SMILES IDX 9 12 10 13 96 14 11 15 95 16 97 17 8 18 4 19 5 20 98 21 6 22
REMARK SMILES IDX 7 23 3 24 2 25 1 26 23 27 24 28 25 29 26 30 27 31 28 32
REMARK SMILES IDX 29 33 30 34 31 35 32 36 33 37 94 38 34 39 93 40 35 41 36 42
REMARK SMILES IDX 37 43 87 44 38 45 92 46 86 47 88 48 39 49 91 50 85 51 84 52
REMARK SMILES IDX 40 54 72 55 52 56 71 57 53 58 56 59 70 60 89 61 54 62 55 63
REMARK SMILES IDX 69 65 90 66 57 67 41 68 42 69 50 70 43 71 49 72 51 73 48 74
REMARK SMILES IDX 44 75 45 76 46 77 47 78 73 79 74 80 82 81 75 82 81 83 83 84
REMARK SMILES IDX 80 85 76 86 77 87 78 88 79 89 58 90 59 91 67 92 60 93 66 94
REMARK SMILES IDX 68 95 65 96 61 97 62 98 63 99 64 100
REMARK H PARENT 88 53 56 64
REMARK Flexibility Score: inf
ROOT
ATOM      1  C   UNL A   1      36.174  33.855  33.727  1.00  0.00     0.188 C 
ENDROOT
BRANCH   1   2
ATOM      2  C   UNL A   1      37.537  33.184  33.491  1.00  0.00     0.188 C 
BRANCH   2   3
ATOM      3  O   UNL A   1      38.650  33.438  34.339  1.00  0.00    -0.376 OA
BRANCH   3   4
ATOM      4  C   UNL A   1      39.529  32.389  34.716  1.00  0.00     0.202 C 
BRANCH   4   5
ATOM      5  C   UNL A   1      39.052  31.275  35.667  1.00  0.00     0.261 C 
BRANCH   5   6
ATOM      6  O   UNL A   1      39.308  29.914  35.260  1.00  0.00    -0.463 OA
BRANCH   6   7
ATOM      7  C   UNL A   1      40.590  29.497  35.338  1.00  0.00     0.313 C 
ATOM      8  O   UNL A   1      41.360  29.833  36.240  1.00  0.00    -0.252 OA
BRANCH   7   9
ATOM      9  C   UNL A   1      41.072  28.585  34.211  1.00  0.00     0.126 C 
ATOM     10  C   UNL A   1      39.878  28.246  33.325  1.00  0.00     0.025 C 
BRANCH   9  11
ATOM     11  C   UNL A   1      41.924  27.346  34.484  1.00  0.00    -0.031 A 
ATOM     12  C   UNL A   1      43.415  24.950  35.073  1.00  0.00     0.018 A 
ATOM     13  C   UNL A   1      44.007  26.060  34.440  1.00  0.00     0.012 A 
ATOM     14  C   UNL A   1      42.058  25.072  35.396  1.00  0.00     0.131 A 
ATOM     15  C   UNL A   1      43.279  27.237  34.153  1.00  0.00     0.005 A 
ATOM     16  C   UNL A   1      41.331  26.238  35.124  1.00  0.00     0.044 A 
ATOM     17  F   UNL A   1      41.410  24.062  35.998  1.00  0.00    -0.206 F 
BRANCH  12  18
ATOM     18  C   UNL A   1      44.195  23.734  35.409  1.00  0.00    -0.012 A 
ATOM     19  C   UNL A   1      45.771  22.518  36.834  1.00  0.00     0.119 A 
ATOM     20  C   UNL A   1      45.744  21.427  35.974  1.00  0.00     0.046 A 
ATOM     21  C   UNL A   1      45.018  23.666  36.550  1.00  0.00     0.055 A 
ATOM     22  C   UNL A   1      44.945  21.473  34.837  1.00  0.00     0.004 A 
ATOM     23  C   UNL A   1      44.178  22.612  34.561  1.00  0.00     0.009 A 
BRANCH  19  24
ATOM     24  O   UNL A   1      46.673  22.494  37.865  1.00  0.00    -0.494 OA
BRANCH  24  25
ATOM     25  C   UNL A   1      46.073  22.690  39.150  1.00  0.00     0.226 C 
ATOM     26  C   UNL A   1      46.042  21.380  39.908  1.00  0.00     0.049 C 
ENDBRANCH  24  25
ENDBRANCH  19  24
ENDBRANCH  12  18
ENDBRANCH   9  11
ENDBRANCH   7   9
ENDBRANCH   6   7
ENDBRANCH   5   6
ENDBRANCH   4   5
ENDBRANCH   3   4
ENDBRANCH   2   3
ENDBRANCH   1   2
BRANCH   1  27
ATOM     27  O   UNL A   1      36.045  35.168  33.224  1.00  0.00    -0.377 OA
BRANCH  27  28
ATOM     28  C   UNL A   1      34.770  35.536  32.719  1.00  0.00     0.188 C 
BRANCH  28  29
ATOM     29  C   UNL A   1      33.932  34.428  32.055  1.00  0.00     0.188 C 
BRANCH  29  30
ATOM     30  O   UNL A   1      33.486  34.747  30.740  1.00  0.00    -0.376 OA
BRANCH  30  31
ATOM     31  C   UNL A   1      34.263  34.276  29.649  1.00  0.00     0.202 C 
BRANCH  31  32
ATOM     32  C   UNL A   1      35.275  33.157  29.933  1.00  0.00     0.261 C 
BRANCH  32  33
ATOM     33  O   UNL A   1      34.804  31.805  29.813  1.00  0.00    -0.460 OA
BRANCH  33  34
ATOM     34  C   UNL A   1      35.063  31.163  28.657  1.00  0.00     0.338 C 
ATOM     35  O   UNL A   1      34.432  31.277  27.614  1.00  0.00    -0.246 OA
BRANCH  34  36
ATOM     36  C   UNL A   1      36.365  30.469  28.774  1.00  0.00     0.060 A 
ATOM     37  C   UNL A   1      36.636  29.787  29.966  1.00  0.00     0.016 A 
ATOM     38  C   UNL A   1      37.320  30.499  27.753  1.00  0.00     0.016 A 
ATOM     39  C   UNL A   1      37.875  29.178  30.162  1.00  0.00     0.010 A 
ATOM     40  C   UNL A   1      38.576  29.905  27.961  1.00  0.00     0.010 A 
ATOM     41  C   UNL A   1      38.873  29.276  29.184  1.00  0.00    -0.014 A 
BRANCH  41  42
ATOM     42  C   UNL A   1      40.259  28.876  29.551  1.00  0.00     0.031 A 
ATOM     43  C   UNL A   1      40.875  27.682  28.867  1.00  0.00     0.074 A 
ATOM     44  C   UNL A   1      41.000  29.625  30.390  1.00  0.00     0.049 A 
ATOM     45  N   UNL A   1      42.092  27.209  28.950  1.00  0.00    -0.248 NA
ATOM     46  C   UNL A   1      39.997  26.925  27.963  1.00  0.00     0.031 C 
ATOM     47  C   UNL A   1      40.534  30.827  31.079  1.00  0.00     0.029 A 
ATOM     48  N   UNL A   1      42.308  29.495  30.789  1.00  0.00    -0.354 N 
ATOM     49  C   UNL A   1      42.130  26.105  28.104  1.00  0.00     0.074 A 
ATOM     50  C   UNL A   1      40.798  25.952  27.558  1.00  0.00     0.031 C 
ATOM     51  C   UNL A   1      41.545  31.331  31.809  1.00  0.00     0.029 A 
ATOM     52  C   UNL A   1      42.720  30.473  31.664  1.00  0.00     0.049 A 
ATOM     53  H   UNL A   1      42.895  28.769  30.478  1.00  0.00     0.167 HD
ATOM     54  C   UNL A   1      43.179  25.301  27.799  1.00  0.00     0.034 A 
ATOM     55  C   UNL A   1      43.905  30.652  32.284  1.00  0.00     0.034 A 
ATOM     56  C   UNL A   1      44.500  25.453  28.363  1.00  0.00     0.049 A 
ATOM     57  C   UNL A   1      45.037  29.692  31.994  1.00  0.00     0.074 A 
ATOM     58  C   UNL A   1      45.636  24.702  28.114  1.00  0.00     0.029 A 
ATOM     59  N   UNL A   1      44.860  26.410  29.304  1.00  0.00    -0.354 N 
ATOM     60  N   UNL A   1      45.064  28.665  31.173  1.00  0.00    -0.248 NA
ATOM     61  C   UNL A   1      46.301  29.929  32.701  1.00  0.00     0.031 C 
ATOM     62  C   UNL A   1      46.654  25.148  28.965  1.00  0.00     0.029 A 
ATOM     63  C   UNL A   1      46.186  26.241  29.677  1.00  0.00     0.049 A 
ATOM     64  H   UNL A   1      44.261  27.108  29.656  1.00  0.00     0.167 HD
ATOM     65  C   UNL A   1      46.357  28.153  31.249  1.00  0.00     0.074 A 
ATOM     66  C   UNL A   1      47.084  29.003  32.169  1.00  0.00     0.031 C 
ATOM     67  C   UNL A   1      46.897  27.076  30.618  1.00  0.00     0.034 A 
BRANCH  54  68
ATOM     68  C   UNL A   1      42.921  24.150  26.853  1.00  0.00     0.023 A 
ATOM     69  C   UNL A   1      42.095  23.066  27.205  1.00  0.00     0.031 A 
ATOM     70  C   UNL A   1      43.534  24.122  25.588  1.00  0.00     0.131 A 
ATOM     71  C   UNL A   1      41.964  21.972  26.336  1.00  0.00     0.055 A 
ATOM     72  C   UNL A   1      43.332  23.070  24.693  1.00  0.00     0.041 A 
ATOM     73  F   UNL A   1      44.354  25.112  25.205  1.00  0.00    -0.206 F 
ATOM     74  C   UNL A   1      42.555  21.979  25.070  1.00  0.00     0.022 A 
BRANCH  71  75
ATOM     75  S   UNL A   1      41.140  20.474  26.942  1.00  0.00     0.124 S 
ATOM     76  O   UNL A   1      42.144  19.451  26.659  1.00  0.00    -0.237 OA
ATOM     77  O   UNL A   1      40.920  20.783  28.349  1.00  0.00    -0.237 OA
ATOM     78  O   UNL A   1      39.932  20.392  26.123  1.00  0.00    -0.744 OA
ENDBRANCH  71  75
ENDBRANCH  54  68
BRANCH  55  79
ATOM     79  C   UNL A   1      44.087  31.758  33.272  1.00  0.00     0.023 A 
ATOM     80  C   UNL A   1      44.237  33.093  32.863  1.00  0.00     0.031 A 
ATOM     81  C   UNL A   1      44.180  31.479  34.649  1.00  0.00     0.131 A 
ATOM     82  C   UNL A   1      44.520  34.089  33.812  1.00  0.00     0.055 A 
ATOM     83  C   UNL A   1      44.401  32.481  35.594  1.00  0.00     0.041 A 
ATOM     84  F   UNL A   1      44.052  30.219  35.097  1.00  0.00    -0.206 F 
ATOM     85  C   UNL A   1      44.586  33.794  35.176  1.00  0.00     0.022 A 
BRANCH  82  86
ATOM     86  S   UNL A   1      44.894  35.767  33.230  1.00  0.00     0.124 S 
ATOM     87  O   UNL A   1      45.086  36.480  34.487  1.00  0.00    -0.237 OA
ATOM     88  O   UNL A   1      46.092  35.548  32.426  1.00  0.00    -0.237 OA
ATOM     89  O   UNL A   1      43.698  36.139  32.476  1.00  0.00    -0.744 OA
ENDBRANCH  82  86
ENDBRANCH  55  79
BRANCH  67  90
ATOM     90  C   UNL A   1      48.358  26.785  30.887  1.00  0.00     0.023 A 
ATOM     91  C   UNL A   1      48.759  25.740  31.738  1.00  0.00     0.031 A 
ATOM     92  C   UNL A   1      49.363  27.593  30.324  1.00  0.00     0.131 A 
ATOM     93  C   UNL A   1      50.112  25.588  32.074  1.00  0.00     0.055 A 
ATOM     94  C   UNL A   1      50.717  27.384  30.595  1.00  0.00     0.041 A 
ATOM     95  F   UNL A   1      49.046  28.609  29.504  1.00  0.00    -0.206 F 
ATOM     96  C   UNL A   1      51.096  26.390  31.492  1.00  0.00     0.022 A 
BRANCH  93  97
ATOM     97  S   UNL A   1      50.553  24.425  33.395  1.00  0.00     0.124 S 
ATOM     98  O   UNL A   1      50.993  23.259  32.636  1.00  0.00    -0.237 OA
ATOM     99  O   UNL A   1      51.597  25.150  34.113  1.00  0.00    -0.237 OA
ATOM    100  O   UNL A   1      49.302  24.251  34.130  1.00  0.00    -0.744 OA
ENDBRANCH  93  97
ENDBRANCH  67  90
ENDBRANCH  41  42
ENDBRANCH  34  36
ENDBRANCH  33  34
ENDBRANCH  32  33
ENDBRANCH  31  32
ENDBRANCH  30  31
ENDBRANCH  29  30
ENDBRANCH  28  29
ENDBRANCH  27  28
ENDBRANCH   1  27
TORSDOF 27
ENDMDL
MODEL 2
REMARK VINA RESULT:      -7.8      1.840      2.142
REMARK SMILES CCOc1cccc(-c2ccc([C@@H](C)C(=O)OCCOCCOCCOCCOC(=O)c3ccc(-c4c5nc(c(-c6cc(S(=O)(=O)[O-])ccc6F)c6ccc([nH]6)c(-c6cc(S(=O)(=O)[O-])ccc6F)c6nc(c(-c7cc(S(=O)(=O)[O-])ccc7F)c7ccc4[nH]7)C=C6)C=C5)cc3)cc2F)c1
REMARK SMILES IDX 22 1 21 2 20 3 19 4 18 5 17 6 15 7 16 8 13 9 14 10 12 11
REMARK SMILES IDX 9 12 10 13 96 14 11 15 95 16 97 17 8 18 4 19 5 20 98 21 6 22
REMARK SMILES IDX 7 23 3 24 2 25 1 26 23 27 24 28 25 29 26 30 27 31 28 32
REMARK SMILES IDX 29 33 30 34 31 35 32 36 33 37 94 38 34 39 93 40 35 41 36 42
REMARK SMILES IDX 37 43 87 44 38 45 92 46 86 47 88 48 39 49 91 50 85 51 84 52
REMARK SMILES IDX 40 54 72 55 52 56 71 57 53 58 56 59 70 60 89 61 54 62 55 63
REMARK SMILES IDX 69 65 90 66 57 67 41 68 42 69 50 70 43 71 49 72 51 73 48 74
REMARK SMILES IDX 44 75 45 76 46 77 47 78 73 79 74 80 82 81 75 82 81 83 83 84
REMARK SMILES IDX 80 85 76 86 77 87 78 88 79 89 58 90 59 91 67 92 60 93 66 94
REMARK SMILES IDX 68 95 65 96 61 97 62 98 63 99 64 100
REMARK H PARENT 88 53 56 64
REMARK Flexibility Score: inf
ROOT
ATOM      1  C   UNL A   1      36.202  33.868  33.847  1.00  0.00     0.188 C 
ENDROOT
BRANCH   1   2
ATOM      2  C   UNL A   1      37.516  33.103  33.627  1.00  0.00     0.188 C 
BRANCH   2   3
ATOM      3  O   UNL A   1      38.693  33.415  34.361  1.00  0.00    -0.376 OA
BRANCH   3   4
ATOM      4  C   UNL A   1      39.410  32.399  35.048  1.00  0.00     0.202 C 
BRANCH   4   5
ATOM      5  C   UNL A   1      38.664  31.217  35.694  1.00  0.00     0.261 C 
BRANCH   5   6
ATOM      6  O   UNL A   1      38.867  29.915  35.104  1.00  0.00    -0.463 OA
BRANCH   6   7
ATOM      7  C   UNL A   1      40.075  29.347  35.310  1.00  0.00     0.313 C 
ATOM      8  O   UNL A   1      40.709  29.462  36.360  1.00  0.00    -0.252 OA
BRANCH   7   9
ATOM      9  C   UNL A   1      40.654  28.553  34.140  1.00  0.00     0.126 C 
ATOM     10  C   UNL A   1      39.513  28.190  33.196  1.00  0.00     0.025 C 
BRANCH   9  11
ATOM     11  C   UNL A   1      41.590  27.365  34.356  1.00  0.00    -0.031 A 
ATOM     12  C   UNL A   1      43.254  25.064  34.856  1.00  0.00     0.018 A 
ATOM     13  C   UNL A   1      43.703  26.156  34.088  1.00  0.00     0.012 A 
ATOM     14  C   UNL A   1      41.951  25.154  35.359  1.00  0.00     0.131 A 
ATOM     15  C   UNL A   1      42.890  27.286  33.844  1.00  0.00     0.005 A 
ATOM     16  C   UNL A   1      41.141  26.275  35.130  1.00  0.00     0.044 A 
ATOM     17  F   UNL A   1      41.437  24.158  36.098  1.00  0.00    -0.206 F 
BRANCH  12  18
ATOM     18  C   UNL A   1      44.126  23.900  35.143  1.00  0.00    -0.012 A 
ATOM     19  C   UNL A   1      45.565  22.612  36.649  1.00  0.00     0.119 A 
ATOM     20  C   UNL A   1      45.863  21.712  35.633  1.00  0.00     0.046 A 
ATOM     21  C   UNL A   1      44.719  23.703  36.406  1.00  0.00     0.055 A 
ATOM     22  C   UNL A   1      45.297  21.889  34.375  1.00  0.00     0.004 A 
ATOM     23  C   UNL A   1      44.437  22.969  34.136  1.00  0.00     0.009 A 
BRANCH  19  24
ATOM     24  O   UNL A   1      46.248  22.488  37.830  1.00  0.00    -0.494 OA
BRANCH  24  25
ATOM     25  C   UNL A   1      46.895  23.698  38.241  1.00  0.00     0.226 C 
ATOM     26  C   UNL A   1      48.267  23.787  37.611  1.00  0.00     0.049 C 
ENDBRANCH  24  25
ENDBRANCH  19  24
ENDBRANCH  12  18
ENDBRANCH   9  11
ENDBRANCH   7   9
ENDBRANCH   6   7
ENDBRANCH   5   6
ENDBRANCH   4   5
ENDBRANCH   3   4
ENDBRANCH   2   3
ENDBRANCH   1   2
BRANCH   1  27
ATOM     27  O   UNL A   1      36.127  35.141  33.240  1.00  0.00    -0.377 OA
BRANCH  27  28
ATOM     28  C   UNL A   1      34.858  35.537  32.742  1.00  0.00     0.188 C 
BRANCH  28  29
ATOM     29  C   UNL A   1      33.953  34.433  32.167  1.00  0.00     0.188 C 
BRANCH  29  30
ATOM     30  O   UNL A   1      33.424  34.728  30.878  1.00  0.00    -0.376 OA
BRANCH  30  31
ATOM     31  C   UNL A   1      34.141  34.256  29.747  1.00  0.00     0.202 C 
BRANCH  31  32
ATOM     32  C   UNL A   1      35.166  33.136  29.978  1.00  0.00     0.261 C 
BRANCH  32  33
ATOM     33  O   UNL A   1      34.713  31.787  29.782  1.00  0.00    -0.460 OA
BRANCH  33  34
ATOM     34  C   UNL A   1      35.026  31.195  28.612  1.00  0.00     0.338 C 
ATOM     35  O   UNL A   1      34.421  31.327  27.556  1.00  0.00    -0.246 OA
BRANCH  34  36
ATOM     36  C   UNL A   1      36.347  30.541  28.743  1.00  0.00     0.060 A 
ATOM     37  C   UNL A   1      36.568  29.736  29.866  1.00  0.00     0.016 A 
ATOM     38  C   UNL A   1      37.366  30.724  27.802  1.00  0.00     0.016 A 
ATOM     39  C   UNL A   1      37.817  29.154  30.080  1.00  0.00     0.010 A 
ATOM     40  C   UNL A   1      38.630  30.156  28.031  1.00  0.00     0.010 A 
ATOM     41  C   UNL A   1      38.873  29.400  29.193  1.00  0.00    -0.014 A 
BRANCH  41  42
ATOM     42  C   UNL A   1      40.247  29.012  29.610  1.00  0.00     0.031 A 
ATOM     43  C   UNL A   1      40.933  27.880  28.887  1.00  0.00     0.074 A 
ATOM     44  C   UNL A   1      40.921  29.722  30.535  1.00  0.00     0.049 A 
ATOM     45  N   UNL A   1      42.156  27.432  29.007  1.00  0.00    -0.248 NA
ATOM     46  C   UNL A   1      40.126  27.162  27.889  1.00  0.00     0.031 C 
ATOM     47  C   UNL A   1      40.385  30.865  31.272  1.00  0.00     0.029 A 
ATOM     48  N   UNL A   1      42.209  29.599  30.997  1.00  0.00    -0.354 N 
ATOM     49  C   UNL A   1      42.271  26.387  28.096  1.00  0.00     0.074 A 
ATOM     50  C   UNL A   1      40.974  26.237  27.468  1.00  0.00     0.031 C 
ATOM     51  C   UNL A   1      41.340  31.346  32.087  1.00  0.00     0.029 A 
ATOM     52  C   UNL A   1      42.546  30.528  31.954  1.00  0.00     0.049 A 
ATOM     53  H   UNL A   1      42.832  28.908  30.674  1.00  0.00     0.167 HD
ATOM     54  C   UNL A   1      43.356  25.630  27.800  1.00  0.00     0.034 A 
ATOM     55  C   UNL A   1      43.690  30.694  32.649  1.00  0.00     0.034 A 
ATOM     56  C   UNL A   1      44.639  25.777  28.445  1.00  0.00     0.049 A 
ATOM     57  C   UNL A   1      44.862  29.783  32.362  1.00  0.00     0.074 A 
ATOM     58  C   UNL A   1      45.808  25.072  28.212  1.00  0.00     0.029 A 
ATOM     59  N   UNL A   1      44.922  26.680  29.463  1.00  0.00    -0.354 N 
ATOM     60  N   UNL A   1      44.961  28.813  31.480  1.00  0.00    -0.248 NA
ATOM     61  C   UNL A   1      46.079  30.004  33.152  1.00  0.00     0.031 C 
ATOM     62  C   UNL A   1      46.766  25.487  29.145  1.00  0.00     0.029 A 
ATOM     63  C   UNL A   1      46.230  26.519  29.898  1.00  0.00     0.049 A 
ATOM     64  H   UNL A   1      44.286  27.339  29.825  1.00  0.00     0.167 HD
ATOM     65  C   UNL A   1      46.263  28.328  31.596  1.00  0.00     0.074 A 
ATOM     66  C   UNL A   1      46.915  29.135  32.607  1.00  0.00     0.031 C 
ATOM     67  C   UNL A   1      46.866  27.308  30.928  1.00  0.00     0.034 A 
BRANCH  54  68
ATOM     68  C   UNL A   1      43.182  24.537  26.770  1.00  0.00     0.023 A 
ATOM     69  C   UNL A   1      42.442  23.370  27.039  1.00  0.00     0.031 A 
ATOM     70  C   UNL A   1      43.789  24.650  25.507  1.00  0.00     0.131 A 
ATOM     71  C   UNL A   1      42.391  22.338  26.089  1.00  0.00     0.055 A 
ATOM     72  C   UNL A   1      43.663  23.657  24.535  1.00  0.00     0.041 A 
ATOM     73  F   UNL A   1      44.530  25.726  25.200  1.00  0.00    -0.206 F 
ATOM     74  C   UNL A   1      42.973  22.485  24.829  1.00  0.00     0.022 A 
BRANCH  71  75
ATOM     75  S   UNL A   1      41.685  20.740  26.580  1.00  0.00     0.124 S 
ATOM     76  O   UNL A   1      42.183  19.861  25.524  1.00  0.00    -0.237 OA
ATOM     77  O   UNL A   1      42.258  20.537  27.905  1.00  0.00    -0.237 OA
ATOM     78  O   UNL A   1      40.243  20.979  26.552  1.00  0.00    -0.744 OA
ENDBRANCH  71  75
ENDBRANCH  54  68
BRANCH  55  79
ATOM     79  C   UNL A   1      43.787  31.738  33.714  1.00  0.00     0.023 A 
ATOM     80  C   UNL A   1      43.582  31.428  35.068  1.00  0.00     0.031 A 
ATOM     81  C   UNL A   1      44.024  33.083  33.377  1.00  0.00     0.131 A 
ATOM     82  C   UNL A   1      43.569  32.455  36.028  1.00  0.00     0.055 A 
ATOM     83  C   UNL A   1      44.071  34.091  34.342  1.00  0.00     0.041 A 
ATOM     84  F   UNL A   1      44.220  33.439  32.097  1.00  0.00    -0.206 F 
ATOM     85  C   UNL A   1      43.829  33.781  35.675  1.00  0.00     0.022 A 
BRANCH  82  86
ATOM     86  S   UNL A   1      43.115  32.045  37.737  1.00  0.00     0.124 S 
ATOM     87  O   UNL A   1      44.074  32.839  38.496  1.00  0.00    -0.237 OA
ATOM     88  O   UNL A   1      41.725  32.487  37.794  1.00  0.00    -0.237 OA
ATOM     89  O   UNL A   1      43.311  30.598  37.802  1.00  0.00    -0.744 OA
ENDBRANCH  82  86
ENDBRANCH  55  79
BRANCH  67  90
ATOM     90  C   UNL A   1      48.318  27.036  31.259  1.00  0.00     0.023 A 
ATOM     91  C   UNL A   1      49.365  27.649  30.546  1.00  0.00     0.031 A 
ATOM     92  C   UNL A   1      48.661  26.118  32.266  1.00  0.00     0.131 A 
ATOM     93  C   UNL A   1      50.694  27.268  30.787  1.00  0.00     0.055 A 
ATOM     94  C   UNL A   1      49.990  25.804  32.559  1.00  0.00     0.041 A 
ATOM     95  F   UNL A   1      47.708  25.498  32.981  1.00  0.00    -0.206 F 
ATOM     96  C   UNL A   1      51.015  26.365  31.802  1.00  0.00     0.022 A 
BRANCH  93  97
ATOM     97  S   UNL A   1      51.983  27.856  29.654  1.00  0.00     0.124 S 
ATOM     98  O   UNL A   1      51.195  28.498  28.607  1.00  0.00    -0.237 OA
ATOM     99  O   UNL A   1      52.762  28.749  30.505  1.00  0.00    -0.237 OA
ATOM    100  O   UNL A   1      52.669  26.630  29.249  1.00  0.00    -0.744 OA
ENDBRANCH  93  97
ENDBRANCH  67  90
ENDBRANCH  41  42
ENDBRANCH  34  36
ENDBRANCH  33  34
ENDBRANCH  32  33
ENDBRANCH  31  32
ENDBRANCH  30  31
ENDBRANCH  29  30
ENDBRANCH  28  29
ENDBRANCH  27  28
ENDBRANCH   1  27
TORSDOF 27
ENDMDL
MODEL 3
REMARK VINA RESULT:      -7.1      2.578      3.365
REMARK SMILES CCOc1cccc(-c2ccc([C@@H](C)C(=O)OCCOCCOCCOCCOC(=O)c3ccc(-c4c5nc(c(-c6cc(S(=O)(=O)[O-])ccc6F)c6ccc([nH]6)c(-c6cc(S(=O)(=O)[O-])ccc6F)c6nc(c(-c7cc(S(=O)(=O)[O-])ccc7F)c7ccc4[nH]7)C=C6)C=C5)cc3)cc2F)c1
REMARK SMILES IDX 22 1 21 2 20 3 19 4 18 5 17 6 15 7 16 8 13 9 14 10 12 11
REMARK SMILES IDX 9 12 10 13 96 14 11 15 95 16 97 17 8 18 4 19 5 20 98 21 6 22
REMARK SMILES IDX 7 23 3 24 2 25 1 26 23 27 24 28 25 29 26 30 27 31 28 32
REMARK SMILES IDX 29 33 30 34 31 35 32 36 33 37 94 38 34 39 93 40 35 41 36 42
REMARK SMILES IDX 37 43 87 44 38 45 92 46 86 47 88 48 39 49 91 50 85 51 84 52
REMARK SMILES IDX 40 54 72 55 52 56 71 57 53 58 56 59 70 60 89 61 54 62 55 63
REMARK SMILES IDX 69 65 90 66 57 67 41 68 42 69 50 70 43 71 49 72 51 73 48 74
REMARK SMILES IDX 44 75 45 76 46 77 47 78 73 79 74 80 82 81 75 82 81 83 83 84
REMARK SMILES IDX 80 85 76 86 77 87 78 88 79 89 58 90 59 91 67 92 60 93 66 94
REMARK SMILES IDX 68 95 65 96 61 97 62 98 63 99 64 100
REMARK H PARENT 88 53 56 64
REMARK Flexibility Score: inf
ROOT
ATOM      1  C   UNL A   1      35.692  34.507  33.755  1.00  0.00     0.188 C 
ENDROOT
BRANCH   1   2
ATOM      2  C   UNL A   1      37.170  34.094  33.846  1.00  0.00     0.188 C 
BRANCH   2   3
ATOM      3  O   UNL A   1      37.805  33.870  35.099  1.00  0.00    -0.376 OA
BRANCH   3   4
ATOM      4  C   UNL A   1      38.889  32.959  35.210  1.00  0.00     0.202 C 
BRANCH   4   5
ATOM      5  C   UNL A   1      38.879  31.635  34.424  1.00  0.00     0.261 C 
BRANCH   5   6
ATOM      6  O   UNL A   1      40.107  30.875  34.407  1.00  0.00    -0.463 OA
BRANCH   6   7
ATOM      7  C   UNL A   1      40.360  30.123  35.500  1.00  0.00     0.313 C 
ATOM      8  O   UNL A   1      39.481  29.703  36.254  1.00  0.00    -0.252 OA
BRANCH   7   9
ATOM      9  C   UNL A   1      41.830  29.826  35.787  1.00  0.00     0.126 C 
ATOM     10  C   UNL A   1      42.677  30.907  35.123  1.00  0.00     0.025 C 
BRANCH   9  11
ATOM     11  C   UNL A   1      42.433  28.440  35.563  1.00  0.00    -0.031 A 
ATOM     12  C   UNL A   1      43.472  25.770  35.240  1.00  0.00     0.018 A 
ATOM     13  C   UNL A   1      44.070  26.883  34.617  1.00  0.00     0.012 A 
ATOM     14  C   UNL A   1      42.341  26.031  36.021  1.00  0.00     0.131 A 
ATOM     15  C   UNL A   1      43.564  28.193  34.776  1.00  0.00     0.005 A 
ATOM     16  C   UNL A   1      41.838  27.328  36.193  1.00  0.00     0.044 A 
ATOM     17  F   UNL A   1      41.704  25.030  36.650  1.00  0.00    -0.206 F 
BRANCH  12  18
ATOM     18  C   UNL A   1      44.033  24.404  35.102  1.00  0.00    -0.012 A 
ATOM     19  C   UNL A   1      45.649  22.672  35.721  1.00  0.00     0.119 A 
ATOM     20  C   UNL A   1      45.140  21.817  34.752  1.00  0.00     0.046 A 
ATOM     21  C   UNL A   1      45.114  23.957  35.887  1.00  0.00     0.055 A 
ATOM     22  C   UNL A   1      44.077  22.238  33.959  1.00  0.00     0.004 A 
ATOM     23  C   UNL A   1      43.530  23.515  34.135  1.00  0.00     0.009 A 
BRANCH  19  24
ATOM     24  O   UNL A   1      46.782  22.280  36.384  1.00  0.00    -0.494 OA
BRANCH  24  25
ATOM     25  C   UNL A   1      46.575  21.156  37.246  1.00  0.00     0.226 C 
ATOM     26  C   UNL A   1      47.594  21.172  38.365  1.00  0.00     0.049 C 
ENDBRANCH  24  25
ENDBRANCH  19  24
ENDBRANCH  12  18
ENDBRANCH   9  11
ENDBRANCH   7   9
ENDBRANCH   6   7
ENDBRANCH   5   6
ENDBRANCH   4   5
ENDBRANCH   3   4
ENDBRANCH   2   3
ENDBRANCH   1   2
BRANCH   1  27
ATOM     27  O   UNL A   1      35.452  35.804  33.252  1.00  0.00    -0.377 OA
BRANCH  27  28
ATOM     28  C   UNL A   1      34.099  36.147  32.990  1.00  0.00     0.188 C 
BRANCH  28  29
ATOM     29  C   UNL A   1      33.192  35.040  32.420  1.00  0.00     0.188 C 
BRANCH  29  30
ATOM     30  O   UNL A   1      32.561  35.383  31.190  1.00  0.00    -0.376 OA
BRANCH  30  31
ATOM     31  C   UNL A   1      33.274  35.126  29.990  1.00  0.00     0.202 C 
BRANCH  31  32
ATOM     32  C   UNL A   1      34.441  34.132  30.060  1.00  0.00     0.261 C 
BRANCH  32  33
ATOM     33  O   UNL A   1      34.107  32.736  30.126  1.00  0.00    -0.460 OA
BRANCH  33  34
ATOM     34  C   UNL A   1      34.543  31.950  29.122  1.00  0.00     0.338 C 
ATOM     35  O   UNL A   1      33.943  31.713  28.083  1.00  0.00    -0.246 OA
BRANCH  34  36
ATOM     36  C   UNL A   1      35.959  31.597  29.369  1.00  0.00     0.060 A 
ATOM     37  C   UNL A   1      36.286  31.036  30.609  1.00  0.00     0.016 A 
ATOM     38  C   UNL A   1      36.961  31.828  28.421  1.00  0.00     0.016 A 
ATOM     39  C   UNL A   1      37.613  30.752  30.926  1.00  0.00     0.010 A 
ATOM     40  C   UNL A   1      38.301  31.563  28.750  1.00  0.00     0.010 A 
ATOM     41  C   UNL A   1      38.637  31.061  30.021  1.00  0.00    -0.014 A 
BRANCH  41  42
ATOM     42  C   UNL A   1      40.042  31.021  30.508  1.00  0.00     0.031 A 
ATOM     43  C   UNL A   1      40.904  29.839  30.142  1.00  0.00     0.074 A 
ATOM     44  C   UNL A   1      40.581  32.065  31.166  1.00  0.00     0.049 A 
ATOM     45  N   UNL A   1      42.177  29.632  30.366  1.00  0.00    -0.248 NA
ATOM     46  C   UNL A   1      40.237  28.746  29.420  1.00  0.00     0.031 C 
ATOM     47  C   UNL A   1      39.866  33.284  31.539  1.00  0.00     0.029 A 
ATOM     48  N   UNL A   1      41.861  32.276  31.618  1.00  0.00    -0.354 N 
ATOM     49  C   UNL A   1      42.466  28.392  29.807  1.00  0.00     0.074 A 
ATOM     50  C   UNL A   1      41.222  27.873  29.277  1.00  0.00     0.031 C 
ATOM     51  C   UNL A   1      40.719  34.121  32.155  1.00  0.00     0.029 A 
ATOM     52  C   UNL A   1      42.034  33.487  32.248  1.00  0.00     0.049 A 
ATOM     53  H   UNL A   1      42.587  31.620  31.503  1.00  0.00     0.167 HD
ATOM     54  C   UNL A   1      43.658  27.749  29.728  1.00  0.00     0.034 A 
ATOM     55  C   UNL A   1      43.124  34.019  32.839  1.00  0.00     0.034 A 
ATOM     56  C   UNL A   1      44.889  28.269  30.275  1.00  0.00     0.049 A 
ATOM     57  C   UNL A   1      44.423  33.247  32.814  1.00  0.00     0.074 A 
ATOM     58  C   UNL A   1      46.153  27.707  30.240  1.00  0.00     0.029 A 
ATOM     59  N   UNL A   1      45.011  29.465  30.972  1.00  0.00    -0.354 N 
ATOM     60  N   UNL A   1      44.686  32.084  32.260  1.00  0.00    -0.248 NA
ATOM     61  C   UNL A   1      45.575  33.870  33.478  1.00  0.00     0.031 C 
ATOM     62  C   UNL A   1      47.016  28.516  30.988  1.00  0.00     0.029 A 
ATOM     63  C   UNL A   1      46.316  29.635  31.409  1.00  0.00     0.049 A 
ATOM     64  H   UNL A   1      44.276  30.101  31.133  1.00  0.00     0.167 HD
ATOM     65  C   UNL A   1      46.041  31.852  32.489  1.00  0.00     0.074 A 
ATOM     66  C   UNL A   1      46.542  33.010  33.201  1.00  0.00     0.031 C 
ATOM     67  C   UNL A   1      46.804  30.780  32.144  1.00  0.00     0.034 A 
BRANCH  54  68
ATOM     68  C   UNL A   1      43.671  26.386  29.075  1.00  0.00     0.023 A 
ATOM     69  C   UNL A   1      43.631  26.228  27.678  1.00  0.00     0.031 A 
ATOM     70  C   UNL A   1      43.696  25.223  29.864  1.00  0.00     0.131 A 
ATOM     71  C   UNL A   1      43.544  24.944  27.118  1.00  0.00     0.055 A 
ATOM     72  C   UNL A   1      43.694  23.946  29.300  1.00  0.00     0.041 A 
ATOM     73  F   UNL A   1      43.707  25.306  31.204  1.00  0.00    -0.206 F 
ATOM     74  C   UNL A   1      43.603  23.801  27.919  1.00  0.00     0.022 A 
BRANCH  71  75
ATOM     75  S   UNL A   1      43.195  24.790  25.344  1.00  0.00     0.124 S 
ATOM     76  O   UNL A   1      42.192  25.834  25.150  1.00  0.00    -0.237 OA
ATOM     77  O   UNL A   1      44.500  25.036  24.745  1.00  0.00    -0.237 OA
ATOM     78  O   UNL A   1      42.693  23.423  25.211  1.00  0.00    -0.744 OA
ENDBRANCH  71  75
ENDBRANCH  54  68
BRANCH  55  79
ATOM     79  C   UNL A   1      43.041  35.335  33.542  1.00  0.00     0.023 A 
ATOM     80  C   UNL A   1      43.373  36.537  32.897  1.00  0.00     0.031 A 
ATOM     81  C   UNL A   1      42.687  35.397  34.903  1.00  0.00     0.131 A 
ATOM     82  C   UNL A   1      43.393  37.740  33.622  1.00  0.00     0.055 A 
ATOM     83  C   UNL A   1      42.648  36.604  35.604  1.00  0.00     0.041 A 
ATOM     84  F   UNL A   1      42.366  34.279  35.574  1.00  0.00    -0.206 F 
ATOM     85  C   UNL A   1      43.016  37.783  34.966  1.00  0.00     0.022 A 
BRANCH  82  86
ATOM     86  S   UNL A   1      44.009  39.240  32.806  1.00  0.00     0.124 S 
ATOM     87  O   UNL A   1      44.803  39.848  33.866  1.00  0.00    -0.237 OA
ATOM     88  O   UNL A   1      44.754  38.687  31.680  1.00  0.00    -0.237 OA
ATOM     89  O   UNL A   1      42.786  39.958  32.450  1.00  0.00    -0.744 OA
ENDBRANCH  82  86
ENDBRANCH  55  79
BRANCH  67  90
ATOM     90  C   UNL A   1      48.271  30.836  32.513  1.00  0.00     0.023 A 
ATOM     91  C   UNL A   1      48.746  30.319  33.732  1.00  0.00     0.031 A 
ATOM     92  C   UNL A   1      49.199  31.455  31.657  1.00  0.00     0.131 A 
ATOM     93  C   UNL A   1      50.086  30.513  34.100  1.00  0.00     0.055 A 
ATOM     94  C   UNL A   1      50.550  31.571  31.993  1.00  0.00     0.041 A 
ATOM     95  F   UNL A   1      48.809  31.970  30.480  1.00  0.00    -0.206 F 
ATOM     96  C   UNL A   1      50.996  31.117  33.230  1.00  0.00     0.022 A 
BRANCH  93  97
ATOM     97  S   UNL A   1      50.588  30.098  35.794  1.00  0.00     0.124 S 
ATOM     98  O   UNL A   1      50.417  31.374  36.480  1.00  0.00    -0.237 OA
ATOM     99  O   UNL A   1      49.639  29.049  36.152  1.00  0.00    -0.237 OA
ATOM    100  O   UNL A   1      51.973  29.657  35.643  1.00  0.00    -0.744 OA
ENDBRANCH  93  97
ENDBRANCH  67  90
ENDBRANCH  41  42
ENDBRANCH  34  36
ENDBRANCH  33  34
ENDBRANCH  32  33
ENDBRANCH  31  32
ENDBRANCH  30  31
ENDBRANCH  29  30
ENDBRANCH  28  29
ENDBRANCH  27  28
ENDBRANCH   1  27
TORSDOF 27
ENDMDL
