MODEL 1
REMARK VINA RESULT:      -8.6      0.000      0.000
REMARK SMILES O=C(CSCc1ccc(Cl)s1)Nc1ccsc1C(=O)OCCOCCOCCOCCOC(=O)c1ccc(-c2c3nc(c(-c4cc(S(=O)(=O)[O-])ccc4F)c4ccc([nH]4)c(-c4cc(S(=O)(=O)[O-])ccc4F)c4nc(c(-c5cc(S(=O)(=O)[O-])ccc5F)c5ccc2[nH]5)C=C4)C=C3)cc1
REMARK SMILES IDX 25 1 24 2 23 3 22 4 21 5 20 6 18 7 19 8 17 9 13 10 14 11
REMARK SMILES IDX 15 12 16 13 12 14 1 15 2 16 3 18 4 19 5 20 6 21 7 22 11 23
REMARK SMILES IDX 8 24 9 25 10 26 26 27 27 28 28 29 29 30 30 31 31 32 32 33
REMARK SMILES IDX 33 34 34 35 35 36 36 37 97 38 37 39 96 40 38 41 39 42 40 43
REMARK SMILES IDX 90 44 41 45 95 46 89 47 91 48 42 49 94 50 88 51 87 52 43 54
REMARK SMILES IDX 75 55 55 56 74 57 56 58 59 59 73 60 92 61 57 62 58 63 72 65
REMARK SMILES IDX 93 66 60 67 44 68 45 69 53 70 46 71 52 72 54 73 51 74 47 75
REMARK SMILES IDX 48 76 49 77 50 78 76 79 77 80 85 81 78 82 84 83 86 84 83 85
REMARK SMILES IDX 79 86 80 87 81 88 82 89 61 90 62 91 70 92 63 93 69 94 71 95
REMARK SMILES IDX 68 96 64 97 65 98 66 99 67 100
REMARK H PARENT 12 17 91 53 59 64
REMARK Flexibility Score: inf
ROOT
ATOM      1  C   UNL A   1      43.415  18.118  26.063  1.00  0.00     0.188 C 
ENDROOT
BRANCH   1   2
ATOM      2  C   UNL A   1      42.260  19.061  26.440  1.00  0.00     0.188 C 
BRANCH   2   3
ATOM      3  O   UNL A   1      41.048  18.753  25.757  1.00  0.00    -0.376 OA
BRANCH   3   4
ATOM      4  C   UNL A   1      39.986  19.697  25.857  1.00  0.00     0.202 C 
BRANCH   4   5
ATOM      5  C   UNL A   1      38.582  19.244  25.417  1.00  0.00     0.261 C 
BRANCH   5   6
ATOM      6  O   UNL A   1      37.871  20.157  24.562  1.00  0.00    -0.459 OA
BRANCH   6   7
ATOM      7  C   UNL A   1      36.644  20.590  24.973  1.00  0.00     0.350 C 
ATOM      8  O   UNL A   1      35.657  19.888  25.040  1.00  0.00    -0.245 OA
BRANCH   7   9
ATOM      9  C   UNL A   1      36.776  21.967  25.438  1.00  0.00     0.136 A 
ATOM     10  C   UNL A   1      35.839  22.991  25.541  1.00  0.00     0.066 A 
ATOM     11  C   UNL A   1      36.467  24.222  25.917  1.00  0.00     0.039 A 
ATOM     12  C   UNL A   1      37.826  24.103  26.093  1.00  0.00     0.068 A 
ATOM     13  S   UNL A   1      38.354  22.501  25.865  1.00  0.00    -0.135 S 
BRANCH  10  14
ATOM     14  N   UNL A   1      34.478  22.804  25.289  1.00  0.00    -0.324 N 
ATOM     15  O   UNL A   1      34.256  23.943  23.272  1.00  0.00    -0.274 OA
ATOM     16  C   UNL A   1      33.769  23.330  24.220  1.00  0.00     0.234 C 
ATOM     17  H   UNL A   1      33.975  22.249  25.928  1.00  0.00     0.170 HD
BRANCH  16  18
ATOM     18  C   UNL A   1      32.260  23.184  24.357  1.00  0.00     0.170 C 
BRANCH  18  19
ATOM     19  S   UNL A   1      31.677  23.366  26.067  1.00  0.00    -0.146 SA
BRANCH  19  20
ATOM     20  C   UNL A   1      31.786  25.171  26.272  1.00  0.00     0.116 C 
BRANCH  20  21
ATOM     21  C   UNL A   1      30.981  25.936  25.267  1.00  0.00     0.016 A 
ATOM     22  C   UNL A   1      29.645  25.783  24.933  1.00  0.00     0.018 A 
ATOM     23  S   UNL A   1      31.725  27.141  24.292  1.00  0.00    -0.128 S 
ATOM     24  C   UNL A   1      29.241  26.655  23.878  1.00  0.00     0.033 A 
ATOM     25  C   UNL A   1      30.281  27.447  23.468  1.00  0.00     0.093 A 
ATOM     26  Cl  UNL A   1      30.238  28.652  22.245  1.00  0.00    -0.072 Cl
ENDBRANCH  20  21
ENDBRANCH  19  20
ENDBRANCH  18  19
ENDBRANCH  16  18
ENDBRANCH  10  14
ENDBRANCH   7   9
ENDBRANCH   6   7
ENDBRANCH   5   6
ENDBRANCH   4   5
ENDBRANCH   3   4
ENDBRANCH   2   3
ENDBRANCH   1   2
BRANCH   1  27
ATOM     27  O   UNL A   1      44.593  18.827  25.709  1.00  0.00    -0.377 OA
BRANCH  27  28
ATOM     28  C   UNL A   1      44.453  19.835  24.708  1.00  0.00     0.188 C 
BRANCH  28  29
ATOM     29  C   UNL A   1      44.721  21.314  25.054  1.00  0.00     0.188 C 
BRANCH  29  30
ATOM     30  O   UNL A   1      44.145  22.228  24.116  1.00  0.00    -0.376 OA
BRANCH  30  31
ATOM     31  C   UNL A   1      43.820  23.521  24.622  1.00  0.00     0.202 C 
BRANCH  31  32
ATOM     32  C   UNL A   1      42.806  23.495  25.775  1.00  0.00     0.261 C 
BRANCH  32  33
ATOM     33  O   UNL A   1      42.653  24.745  26.467  1.00  0.00    -0.460 OA
BRANCH  33  34
ATOM     34  C   UNL A   1      41.973  25.716  25.815  1.00  0.00     0.338 C 
ATOM     35  O   UNL A   1      41.078  25.562  25.006  1.00  0.00    -0.246 OA
BRANCH  34  36
ATOM     36  C   UNL A   1      42.362  27.016  26.396  1.00  0.00     0.060 A 
ATOM     37  C   UNL A   1      43.305  27.026  27.430  1.00  0.00     0.016 A 
ATOM     38  C   UNL A   1      41.789  28.207  25.945  1.00  0.00     0.016 A 
ATOM     39  C   UNL A   1      43.646  28.230  28.046  1.00  0.00     0.010 A 
ATOM     40  C   UNL A   1      42.119  29.409  26.576  1.00  0.00     0.010 A 
ATOM     41  C   UNL A   1      43.027  29.423  27.650  1.00  0.00    -0.014 A 
BRANCH  41  42
ATOM     42  C   UNL A   1      43.206  30.646  28.470  1.00  0.00     0.031 A 
ATOM     43  C   UNL A   1      44.308  31.605  28.103  1.00  0.00     0.074 A 
ATOM     44  C   UNL A   1      42.389  30.913  29.505  1.00  0.00     0.049 A 
ATOM     45  N   UNL A   1      44.633  32.746  28.652  1.00  0.00    -0.248 NA
ATOM     46  C   UNL A   1      45.161  31.218  26.968  1.00  0.00     0.031 C 
ATOM     47  C   UNL A   1      41.288  30.062  29.955  1.00  0.00     0.029 A 
ATOM     48  N   UNL A   1      42.365  31.978  30.370  1.00  0.00    -0.354 N 
ATOM     49  C   UNL A   1      45.728  33.214  27.934  1.00  0.00     0.074 A 
ATOM     50  C   UNL A   1      46.034  32.214  26.933  1.00  0.00     0.031 C 
ATOM     51  C   UNL A   1      40.699  30.637  31.018  1.00  0.00     0.029 A 
ATOM     52  C   UNL A   1      41.391  31.884  31.338  1.00  0.00     0.049 A 
ATOM     53  H   UNL A   1      42.986  32.740  30.304  1.00  0.00     0.167 HD
ATOM     54  C   UNL A   1      46.408  34.376  28.086  1.00  0.00     0.034 A 
ATOM     55  C   UNL A   1      41.103  32.706  32.368  1.00  0.00     0.034 A 
ATOM     56  C   UNL A   1      46.096  35.366  29.087  1.00  0.00     0.049 A 
ATOM     57  C   UNL A   1      41.900  33.980  32.536  1.00  0.00     0.074 A 
ATOM     58  C   UNL A   1      46.691  36.599  29.293  1.00  0.00     0.029 A 
ATOM     59  N   UNL A   1      45.117  35.230  30.061  1.00  0.00    -0.354 N 
ATOM     60  N   UNL A   1      42.892  34.439  31.808  1.00  0.00    -0.248 NA
ATOM     61  C   UNL A   1      41.524  34.852  33.658  1.00  0.00     0.031 C 
ATOM     62  C   UNL A   1      46.119  37.176  30.432  1.00  0.00     0.029 A 
ATOM     63  C   UNL A   1      45.117  36.338  30.894  1.00  0.00     0.049 A 
ATOM     64  H   UNL A   1      44.510  34.459  30.147  1.00  0.00     0.167 HD
ATOM     65  C   UNL A   1      43.241  35.665  32.372  1.00  0.00     0.074 A 
ATOM     66  C   UNL A   1      42.338  35.883  33.482  1.00  0.00     0.031 C 
ATOM     67  C   UNL A   1      44.221  36.533  32.010  1.00  0.00     0.034 A 
BRANCH  54  68
ATOM     68  C   UNL A   1      47.589  34.613  27.178  1.00  0.00     0.023 A 
ATOM     69  C   UNL A   1      48.892  34.233  27.541  1.00  0.00     0.031 A 
ATOM     70  C   UNL A   1      47.405  35.241  25.933  1.00  0.00     0.131 A 
ATOM     71  C   UNL A   1      49.970  34.537  26.693  1.00  0.00     0.055 A 
ATOM     72  C   UNL A   1      48.471  35.479  25.065  1.00  0.00     0.041 A 
ATOM     73  F   UNL A   1      46.184  35.645  25.547  1.00  0.00    -0.206 F 
ATOM     74  C   UNL A   1      49.764  35.137  25.448  1.00  0.00     0.022 A 
BRANCH  71  75
ATOM     75  S   UNL A   1      51.656  34.243  27.292  1.00  0.00     0.124 S 
ATOM     76  O   UNL A   1      52.097  33.166  26.408  1.00  0.00    -0.237 OA
ATOM     77  O   UNL A   1      52.294  35.537  27.089  1.00  0.00    -0.237 OA
ATOM     78  O   UNL A   1      51.461  33.854  28.687  1.00  0.00    -0.744 OA
ENDBRANCH  71  75
ENDBRANCH  54  68
BRANCH  55  79
ATOM     79  C   UNL A   1      40.042  32.346  33.353  1.00  0.00     0.023 A 
ATOM     80  C   UNL A   1      38.773  32.949  33.317  1.00  0.00     0.031 A 
ATOM     81  C   UNL A   1      40.314  31.448  34.401  1.00  0.00     0.131 A 
ATOM     82  C   UNL A   1      37.847  32.689  34.340  1.00  0.00     0.055 A 
ATOM     83  C   UNL A   1      39.370  31.152  35.385  1.00  0.00     0.041 A 
ATOM     84  F   UNL A   1      41.511  30.844  34.483  1.00  0.00    -0.206 F 
ATOM     85  C   UNL A   1      38.132  31.787  35.367  1.00  0.00     0.022 A 
BRANCH  82  86
ATOM     86  S   UNL A   1      36.293  33.628  34.364  1.00  0.00     0.124 S 
ATOM     87  O   UNL A   1      35.442  32.817  33.502  1.00  0.00    -0.237 OA
ATOM     88  O   UNL A   1      35.959  33.621  35.785  1.00  0.00    -0.237 OA
ATOM     89  O   UNL A   1      36.674  34.930  33.821  1.00  0.00    -0.744 OA
ENDBRANCH  82  86
ENDBRANCH  55  79
BRANCH  67  90
ATOM     90  C   UNL A   1      44.338  37.807  32.810  1.00  0.00     0.023 A 
ATOM     91  C   UNL A   1      43.577  38.948  32.496  1.00  0.00     0.031 A 
ATOM     92  C   UNL A   1      45.239  37.890  33.887  1.00  0.00     0.131 A 
ATOM     93  C   UNL A   1      43.777  40.140  33.209  1.00  0.00     0.055 A 
ATOM     94  C   UNL A   1      45.387  39.061  34.632  1.00  0.00     0.041 A 
ATOM     95  F   UNL A   1      45.991  36.833  34.232  1.00  0.00    -0.206 F 
ATOM     96  C   UNL A   1      44.666  40.200  34.285  1.00  0.00     0.022 A 
BRANCH  93  97
ATOM     97  S   UNL A   1      42.934  41.644  32.643  1.00  0.00     0.124 S 
ATOM     98  O   UNL A   1      41.807  41.724  33.565  1.00  0.00    -0.237 OA
ATOM     99  O   UNL A   1      43.967  42.661  32.807  1.00  0.00    -0.237 OA
ATOM    100  O   UNL A   1      42.582  41.338  31.257  1.00  0.00    -0.744 OA
ENDBRANCH  93  97
ENDBRANCH  67  90
ENDBRANCH  41  42
ENDBRANCH  34  36
ENDBRANCH  33  34
ENDBRANCH  32  33
ENDBRANCH  31  32
ENDBRANCH  30  31
ENDBRANCH  29  30
ENDBRANCH  28  29
ENDBRANCH  27  28
ENDBRANCH   1  27
TORSDOF 28
ENDMDL
MODEL 2
REMARK VINA RESULT:      -8.3      5.498     13.288
REMARK SMILES O=C(CSCc1ccc(Cl)s1)Nc1ccsc1C(=O)OCCOCCOCCOCCOC(=O)c1ccc(-c2c3nc(c(-c4cc(S(=O)(=O)[O-])ccc4F)c4ccc([nH]4)c(-c4cc(S(=O)(=O)[O-])ccc4F)c4nc(c(-c5cc(S(=O)(=O)[O-])ccc5F)c5ccc2[nH]5)C=C4)C=C3)cc1
REMARK SMILES IDX 25 1 24 2 23 3 22 4 21 5 20 6 18 7 19 8 17 9 13 10 14 11
REMARK SMILES IDX 15 12 16 13 12 14 1 15 2 16 3 18 4 19 5 20 6 21 7 22 11 23
REMARK SMILES IDX 8 24 9 25 10 26 26 27 27 28 28 29 29 30 30 31 31 32 32 33
REMARK SMILES IDX 33 34 34 35 35 36 36 37 97 38 37 39 96 40 38 41 39 42 40 43
REMARK SMILES IDX 90 44 41 45 95 46 89 47 91 48 42 49 94 50 88 51 87 52 43 54
REMARK SMILES IDX 75 55 55 56 74 57 56 58 59 59 73 60 92 61 57 62 58 63 72 65
REMARK SMILES IDX 93 66 60 67 44 68 45 69 53 70 46 71 52 72 54 73 51 74 47 75
REMARK SMILES IDX 48 76 49 77 50 78 76 79 77 80 85 81 78 82 84 83 86 84 83 85
REMARK SMILES IDX 79 86 80 87 81 88 82 89 61 90 62 91 70 92 63 93 69 94 71 95
REMARK SMILES IDX 68 96 64 97 65 98 66 99 67 100
REMARK H PARENT 12 17 91 53 59 64
REMARK Flexibility Score: inf
ROOT
ATOM      1  C   UNL A   1      33.175  36.861  32.293  1.00  0.00     0.188 C 
ENDROOT
BRANCH   1   2
ATOM      2  C   UNL A   1      34.164  35.683  32.258  1.00  0.00     0.188 C 
BRANCH   2   3
ATOM      3  O   UNL A   1      34.890  35.533  33.475  1.00  0.00    -0.376 OA
BRANCH   3   4
ATOM      4  C   UNL A   1      36.048  34.703  33.444  1.00  0.00     0.202 C 
BRANCH   4   5
ATOM      5  C   UNL A   1      36.147  33.574  34.485  1.00  0.00     0.261 C 
BRANCH   5   6
ATOM      6  O   UNL A   1      37.416  32.899  34.556  1.00  0.00    -0.459 OA
BRANCH   6   7
ATOM      7  C   UNL A   1      37.787  32.366  35.756  1.00  0.00     0.350 C 
ATOM      8  O   UNL A   1      37.744  31.183  36.021  1.00  0.00    -0.245 OA
BRANCH   7   9
ATOM      9  C   UNL A   1      38.360  33.430  36.574  1.00  0.00     0.136 A 
ATOM     10  C   UNL A   1      39.353  34.365  36.294  1.00  0.00     0.066 A 
ATOM     11  C   UNL A   1      39.686  35.122  37.463  1.00  0.00     0.039 A 
ATOM     12  C   UNL A   1      38.953  34.757  38.569  1.00  0.00     0.068 A 
ATOM     13  S   UNL A   1      37.818  33.544  38.202  1.00  0.00    -0.135 S 
BRANCH  10  14
ATOM     14  N   UNL A   1      39.930  34.505  35.029  1.00  0.00    -0.324 N 
ATOM     15  O   UNL A   1      42.188  34.525  35.590  1.00  0.00    -0.274 OA
ATOM     16  C   UNL A   1      41.285  34.633  34.763  1.00  0.00     0.234 C 
ATOM     17  H   UNL A   1      39.320  34.516  34.256  1.00  0.00     0.170 HD
BRANCH  16  18
ATOM     18  C   UNL A   1      41.590  35.041  33.329  1.00  0.00     0.170 C 
BRANCH  18  19
ATOM     19  S   UNL A   1      43.105  36.030  33.175  1.00  0.00    -0.146 SA
BRANCH  19  20
ATOM     20  C   UNL A   1      43.405  35.910  31.383  1.00  0.00     0.116 C 
BRANCH  20  21
ATOM     21  C   UNL A   1      43.682  34.515  30.916  1.00  0.00     0.016 A 
ATOM     22  C   UNL A   1      44.806  33.736  31.137  1.00  0.00     0.018 A 
ATOM     23  S   UNL A   1      42.555  33.696  29.907  1.00  0.00    -0.128 S 
ATOM     24  C   UNL A   1      44.736  32.472  30.476  1.00  0.00     0.033 A 
ATOM     25  C   UNL A   1      43.553  32.337  29.797  1.00  0.00     0.093 A 
ATOM     26  Cl  UNL A   1      43.039  30.975  28.886  1.00  0.00    -0.072 Cl
ENDBRANCH  20  21
ENDBRANCH  19  20
ENDBRANCH  18  19
ENDBRANCH  16  18
ENDBRANCH  10  14
ENDBRANCH   7   9
ENDBRANCH   6   7
ENDBRANCH   5   6
ENDBRANCH   4   5
ENDBRANCH   3   4
ENDBRANCH   2   3
ENDBRANCH   1   2
BRANCH   1  27
ATOM     27  O   UNL A   1      32.884  37.355  30.994  1.00  0.00    -0.377 OA
BRANCH  27  28
ATOM     28  C   UNL A   1      32.882  36.399  29.934  1.00  0.00     0.188 C 
BRANCH  28  29
ATOM     29  C   UNL A   1      33.772  36.615  28.693  1.00  0.00     0.188 C 
BRANCH  29  30
ATOM     30  O   UNL A   1      34.280  35.397  28.142  1.00  0.00    -0.376 OA
BRANCH  30  31
ATOM     31  C   UNL A   1      33.461  34.243  28.311  1.00  0.00     0.202 C 
BRANCH  31  32
ATOM     32  C   UNL A   1      34.253  32.961  28.606  1.00  0.00     0.261 C 
BRANCH  32  33
ATOM     33  O   UNL A   1      35.391  33.143  29.464  1.00  0.00    -0.460 OA
BRANCH  33  34
ATOM     34  C   UNL A   1      35.420  32.403  30.595  1.00  0.00     0.338 C 
ATOM     35  O   UNL A   1      34.511  32.251  31.390  1.00  0.00    -0.246 OA
BRANCH  34  36
ATOM     36  C   UNL A   1      36.683  31.640  30.612  1.00  0.00     0.060 A 
ATOM     37  C   UNL A   1      36.753  30.490  31.406  1.00  0.00     0.016 A 
ATOM     38  C   UNL A   1      37.790  32.064  29.874  1.00  0.00     0.016 A 
ATOM     39  C   UNL A   1      37.952  29.782  31.497  1.00  0.00     0.010 A 
ATOM     40  C   UNL A   1      38.994  31.363  29.981  1.00  0.00     0.010 A 
ATOM     41  C   UNL A   1      39.090  30.237  30.817  1.00  0.00    -0.014 A 
BRANCH  41  42
ATOM     42  C   UNL A   1      40.409  29.629  31.116  1.00  0.00     0.031 A 
ATOM     43  C   UNL A   1      40.924  28.539  30.213  1.00  0.00     0.074 A 
ATOM     44  C   UNL A   1      41.149  30.055  32.156  1.00  0.00     0.049 A 
ATOM     45  N   UNL A   1      42.055  27.887  30.259  1.00  0.00    -0.248 NA
ATOM     46  C   UNL A   1      40.035  28.128  29.114  1.00  0.00     0.031 C 
ATOM     47  C   UNL A   1      40.758  31.102  33.099  1.00  0.00     0.029 A 
ATOM     48  N   UNL A   1      42.386  29.652  32.595  1.00  0.00    -0.354 N 
ATOM     49  C   UNL A   1      42.017  26.986  29.200  1.00  0.00     0.074 A 
ATOM     50  C   UNL A   1      40.733  27.152  28.552  1.00  0.00     0.031 C 
ATOM     51  C   UNL A   1      41.736  31.255  34.011  1.00  0.00     0.029 A 
ATOM     52  C   UNL A   1      42.811  30.305  33.730  1.00  0.00     0.049 A 
ATOM     53  H   UNL A   1      42.920  28.961  32.140  1.00  0.00     0.167 HD
ATOM     54  C   UNL A   1      42.969  26.110  28.797  1.00  0.00     0.034 A 
ATOM     55  C   UNL A   1      43.934  30.143  34.460  1.00  0.00     0.034 A 
ATOM     56  C   UNL A   1      44.244  25.952  29.449  1.00  0.00     0.049 A 
ATOM     57  C   UNL A   1      44.965  29.134  34.008  1.00  0.00     0.074 A 
ATOM     58  C   UNL A   1      45.299  25.129  29.090  1.00  0.00     0.029 A 
ATOM     59  N   UNL A   1      44.634  26.615  30.605  1.00  0.00    -0.354 N 
ATOM     60  N   UNL A   1      44.941  28.335  32.966  1.00  0.00    -0.248 NA
ATOM     61  C   UNL A   1      46.181  29.019  34.825  1.00  0.00     0.031 C 
ATOM     62  C   UNL A   1      46.295  25.243  30.066  1.00  0.00     0.029 A 
ATOM     63  C   UNL A   1      45.895  26.191  30.994  1.00  0.00     0.049 A 
ATOM     64  H   UNL A   1      44.093  27.288  31.077  1.00  0.00     0.167 HD
ATOM     65  C   UNL A   1      46.149  27.641  32.992  1.00  0.00     0.074 A 
ATOM     66  C   UNL A   1      46.886  28.134  34.136  1.00  0.00     0.031 C 
ATOM     67  C   UNL A   1      46.611  26.680  32.150  1.00  0.00     0.034 A 
BRANCH  54  68
ATOM     68  C   UNL A   1      42.641  25.222  27.622  1.00  0.00     0.023 A 
ATOM     69  C   UNL A   1      41.870  24.056  27.766  1.00  0.00     0.031 A 
ATOM     70  C   UNL A   1      43.122  25.544  26.340  1.00  0.00     0.131 A 
ATOM     71  C   UNL A   1      41.651  23.223  26.657  1.00  0.00     0.055 A 
ATOM     72  C   UNL A   1      42.842  24.748  25.229  1.00  0.00     0.041 A 
ATOM     73  F   UNL A   1      43.883  26.633  26.151  1.00  0.00    -0.206 F 
ATOM     74  C   UNL A   1      42.112  23.574  25.386  1.00  0.00     0.022 A 
BRANCH  71  75
ATOM     75  S   UNL A   1      40.852  21.617  26.921  1.00  0.00     0.124 S 
ATOM     76  O   UNL A   1      39.569  21.812  26.249  1.00  0.00    -0.237 OA
ATOM     77  O   UNL A   1      41.777  20.693  26.276  1.00  0.00    -0.237 OA
ATOM     78  O   UNL A   1      40.774  21.508  28.377  1.00  0.00    -0.744 OA
ENDBRANCH  71  75
ENDBRANCH  54  68
BRANCH  55  79
ATOM     79  C   UNL A   1      44.138  30.916  35.719  1.00  0.00     0.023 A 
ATOM     80  C   UNL A   1      44.834  32.136  35.725  1.00  0.00     0.031 A 
ATOM     81  C   UNL A   1      43.708  30.398  36.954  1.00  0.00     0.131 A 
ATOM     82  C   UNL A   1      45.128  32.768  36.944  1.00  0.00     0.055 A 
ATOM     83  C   UNL A   1      43.955  31.058  38.159  1.00  0.00     0.041 A 
ATOM     84  F   UNL A   1      43.039  29.235  37.006  1.00  0.00    -0.206 F 
ATOM     85  C   UNL A   1      44.684  32.243  38.159  1.00  0.00     0.022 A 
BRANCH  82  86
ATOM     86  S   UNL A   1      46.189  34.241  36.927  1.00  0.00     0.124 S 
ATOM     87  O   UNL A   1      46.380  34.487  38.351  1.00  0.00    -0.237 OA
ATOM     88  O   UNL A   1      47.358  33.760  36.197  1.00  0.00    -0.237 OA
ATOM     89  O   UNL A   1      45.381  35.234  36.223  1.00  0.00    -0.744 OA
ENDBRANCH  82  86
ENDBRANCH  55  79
BRANCH  67  90
ATOM     90  C   UNL A   1      47.988  26.129  32.427  1.00  0.00     0.023 A 
ATOM     91  C   UNL A   1      48.177  24.982  33.220  1.00  0.00     0.031 A 
ATOM     92  C   UNL A   1      49.128  26.771  31.912  1.00  0.00     0.131 A 
ATOM     93  C   UNL A   1      49.477  24.551  33.528  1.00  0.00     0.055 A 
ATOM     94  C   UNL A   1      50.416  26.300  32.170  1.00  0.00     0.041 A 
ATOM     95  F   UNL A   1      49.008  27.869  31.149  1.00  0.00    -0.206 F 
ATOM     96  C   UNL A   1      50.598  25.193  32.995  1.00  0.00     0.022 A 
BRANCH  93  97
ATOM     97  S   UNL A   1      49.686  23.200  34.720  1.00  0.00     0.124 S 
ATOM     98  O   UNL A   1      48.321  23.005  35.199  1.00  0.00    -0.237 OA
ATOM     99  O   UNL A   1      50.229  22.131  33.888  1.00  0.00    -0.237 OA
ATOM    100  O   UNL A   1      50.616  23.751  35.704  1.00  0.00    -0.744 OA
ENDBRANCH  93  97
ENDBRANCH  67  90
ENDBRANCH  41  42
ENDBRANCH  34  36
ENDBRANCH  33  34
ENDBRANCH  32  33
ENDBRANCH  31  32
ENDBRANCH  30  31
ENDBRANCH  29  30
ENDBRANCH  28  29
ENDBRANCH  27  28
ENDBRANCH   1  27
TORSDOF 28
ENDMDL
MODEL 3
REMARK VINA RESULT:      -7.9      6.084     13.200
REMARK SMILES O=C(CSCc1ccc(Cl)s1)Nc1ccsc1C(=O)OCCOCCOCCOCCOC(=O)c1ccc(-c2c3nc(c(-c4cc(S(=O)(=O)[O-])ccc4F)c4ccc([nH]4)c(-c4cc(S(=O)(=O)[O-])ccc4F)c4nc(c(-c5cc(S(=O)(=O)[O-])ccc5F)c5ccc2[nH]5)C=C4)C=C3)cc1
REMARK SMILES IDX 25 1 24 2 23 3 22 4 21 5 20 6 18 7 19 8 17 9 13 10 14 11
REMARK SMILES IDX 15 12 16 13 12 14 1 15 2 16 3 18 4 19 5 20 6 21 7 22 11 23
REMARK SMILES IDX 8 24 9 25 10 26 26 27 27 28 28 29 29 30 30 31 31 32 32 33
REMARK SMILES IDX 33 34 34 35 35 36 36 37 97 38 37 39 96 40 38 41 39 42 40 43
REMARK SMILES IDX 90 44 41 45 95 46 89 47 91 48 42 49 94 50 88 51 87 52 43 54
REMARK SMILES IDX 75 55 55 56 74 57 56 58 59 59 73 60 92 61 57 62 58 63 72 65
REMARK SMILES IDX 93 66 60 67 44 68 45 69 53 70 46 71 52 72 54 73 51 74 47 75
REMARK SMILES IDX 48 76 49 77 50 78 76 79 77 80 85 81 78 82 84 83 86 84 83 85
REMARK SMILES IDX 79 86 80 87 81 88 82 89 61 90 62 91 70 92 63 93 69 94 71 95
REMARK SMILES IDX 68 96 64 97 65 98 66 99 67 100
REMARK H PARENT 12 17 91 53 59 64
REMARK Flexibility Score: inf
ROOT
ATOM      1  C   UNL A   1      33.864  36.056  31.933  1.00  0.00     0.188 C 
ENDROOT
BRANCH   1   2
ATOM      2  C   UNL A   1      34.887  34.932  32.169  1.00  0.00     0.188 C 
BRANCH   2   3
ATOM      3  O   UNL A   1      35.461  34.971  33.473  1.00  0.00    -0.376 OA
BRANCH   3   4
ATOM      4  C   UNL A   1      36.642  34.203  33.687  1.00  0.00     0.202 C 
BRANCH   4   5
ATOM      5  C   UNL A   1      36.687  33.292  34.927  1.00  0.00     0.261 C 
BRANCH   5   6
ATOM      6  O   UNL A   1      37.990  32.801  35.293  1.00  0.00    -0.459 OA
BRANCH   6   7
ATOM      7  C   UNL A   1      38.066  31.901  36.315  1.00  0.00     0.350 C 
ATOM      8  O   UNL A   1      38.152  30.700  36.165  1.00  0.00    -0.245 OA
BRANCH   7   9
ATOM      9  C   UNL A   1      38.170  32.639  37.570  1.00  0.00     0.136 A 
ATOM     10  C   UNL A   1      39.052  33.636  37.974  1.00  0.00     0.066 A 
ATOM     11  C   UNL A   1      38.858  33.960  39.356  1.00  0.00     0.039 A 
ATOM     12  C   UNL A   1      37.857  33.225  39.948  1.00  0.00     0.068 A 
ATOM     13  S   UNL A   1      37.099  32.182  38.837  1.00  0.00    -0.135 S 
BRANCH  10  14
ATOM     14  N   UNL A   1      39.995  34.210  37.118  1.00  0.00    -0.324 N 
ATOM     15  O   UNL A   1      41.605  34.894  38.653  1.00  0.00    -0.274 OA
ATOM     16  C   UNL A   1      41.165  34.844  37.505  1.00  0.00     0.234 C 
ATOM     17  H   UNL A   1      39.812  34.161  36.152  1.00  0.00     0.170 HD
BRANCH  16  18
ATOM     18  C   UNL A   1      41.850  35.604  36.378  1.00  0.00     0.170 C 
BRANCH  18  19
ATOM     19  S   UNL A   1      40.824  35.745  34.886  1.00  0.00    -0.146 SA
BRANCH  19  20
ATOM     20  C   UNL A   1      41.191  34.159  34.072  1.00  0.00     0.116 C 
BRANCH  20  21
ATOM     21  C   UNL A   1      41.216  34.246  32.578  1.00  0.00     0.016 A 
ATOM     22  C   UNL A   1      40.250  33.840  31.671  1.00  0.00     0.018 A 
ATOM     23  S   UNL A   1      42.606  34.851  31.765  1.00  0.00    -0.128 S 
ATOM     24  C   UNL A   1      40.658  34.026  30.316  1.00  0.00     0.033 A 
ATOM     25  C   UNL A   1      41.907  34.584  30.250  1.00  0.00     0.093 A 
ATOM     26  Cl  UNL A   1      42.774  35.001  28.827  1.00  0.00    -0.072 Cl
ENDBRANCH  20  21
ENDBRANCH  19  20
ENDBRANCH  18  19
ENDBRANCH  16  18
ENDBRANCH  10  14
ENDBRANCH   7   9
ENDBRANCH   6   7
ENDBRANCH   5   6
ENDBRANCH   4   5
ENDBRANCH   3   4
ENDBRANCH   2   3
ENDBRANCH   1   2
BRANCH   1  27
ATOM     27  O   UNL A   1      33.685  36.338  30.553  1.00  0.00    -0.377 OA
BRANCH  27  28
ATOM     28  C   UNL A   1      33.598  35.212  29.679  1.00  0.00     0.188 C 
BRANCH  28  29
ATOM     29  C   UNL A   1      34.292  35.243  28.302  1.00  0.00     0.188 C 
BRANCH  29  30
ATOM     30  O   UNL A   1      34.697  33.951  27.843  1.00  0.00    -0.376 OA
BRANCH  30  31
ATOM     31  C   UNL A   1      33.923  32.849  28.311  1.00  0.00     0.202 C 
BRANCH  31  32
ATOM     32  C   UNL A   1      34.763  31.619  28.684  1.00  0.00     0.261 C 
BRANCH  32  33
ATOM     33  O   UNL A   1      36.050  31.920  29.249  1.00  0.00    -0.460 OA
BRANCH  33  34
ATOM     34  C   UNL A   1      36.319  31.382  30.460  1.00  0.00     0.338 C 
ATOM     35  O   UNL A   1      35.561  31.309  31.410  1.00  0.00    -0.246 OA
BRANCH  34  36
ATOM     36  C   UNL A   1      37.631  30.712  30.383  1.00  0.00     0.060 A 
ATOM     37  C   UNL A   1      37.893  29.661  31.269  1.00  0.00     0.016 A 
ATOM     38  C   UNL A   1      38.600  31.129  29.468  1.00  0.00     0.016 A 
ATOM     39  C   UNL A   1      39.147  29.050  31.269  1.00  0.00     0.010 A 
ATOM     40  C   UNL A   1      39.861  30.526  29.482  1.00  0.00     0.010 A 
ATOM     41  C   UNL A   1      40.150  29.505  30.403  1.00  0.00    -0.014 A 
BRANCH  41  42
ATOM     42  C   UNL A   1      41.542  29.023  30.582  1.00  0.00     0.031 A 
ATOM     43  C   UNL A   1      42.066  27.966  29.646  1.00  0.00     0.074 A 
ATOM     44  C   UNL A   1      42.335  29.533  31.542  1.00  0.00     0.049 A 
ATOM     45  N   UNL A   1      43.251  27.417  29.592  1.00  0.00    -0.248 NA
ATOM     46  C   UNL A   1      41.119  27.455  28.641  1.00  0.00     0.031 C 
ATOM     47  C   UNL A   1      41.941  30.560  32.506  1.00  0.00     0.029 A 
ATOM     48  N   UNL A   1      43.638  29.252  31.865  1.00  0.00    -0.354 N 
ATOM     49  C   UNL A   1      43.196  26.496  28.551  1.00  0.00     0.074 A 
ATOM     50  C   UNL A   1      41.847  26.534  28.027  1.00  0.00     0.031 C 
ATOM     51  C   UNL A   1      42.981  30.817  33.319  1.00  0.00     0.029 A 
ATOM     52  C   UNL A   1      44.107  29.962  32.947  1.00  0.00     0.049 A 
ATOM     53  H   UNL A   1      44.188  28.602  31.370  1.00  0.00     0.167 HD
ATOM     54  C   UNL A   1      44.181  25.701  28.070  1.00  0.00     0.034 A 
ATOM     55  C   UNL A   1      45.303  29.915  33.569  1.00  0.00     0.034 A 
ATOM     56  C   UNL A   1      45.521  25.669  28.600  1.00  0.00     0.049 A 
ATOM     57  C   UNL A   1      46.374  28.993  33.032  1.00  0.00     0.074 A 
ATOM     58  C   UNL A   1      46.607  24.937  28.151  1.00  0.00     0.029 A 
ATOM     59  N   UNL A   1      45.956  26.387  29.705  1.00  0.00    -0.354 N 
ATOM     60  N   UNL A   1      46.325  28.175  32.007  1.00  0.00    -0.248 NA
ATOM     61  C   UNL A   1      47.667  29.004  33.731  1.00  0.00     0.031 C 
ATOM     62  C   UNL A   1      47.676  25.159  29.027  1.00  0.00     0.029 A 
ATOM     63  C   UNL A   1      47.281  26.085  29.978  1.00  0.00     0.049 A 
ATOM     64  H   UNL A   1      45.403  27.019  30.220  1.00  0.00     0.167 HD
ATOM     65  C   UNL A   1      47.589  27.591  31.926  1.00  0.00     0.074 A 
ATOM     66  C   UNL A   1      48.382  28.171  32.988  1.00  0.00     0.031 C 
ATOM     67  C   UNL A   1      48.055  26.659  31.054  1.00  0.00     0.034 A 
BRANCH  54  68
ATOM     68  C   UNL A   1      43.827  24.764  26.942  1.00  0.00     0.023 A 
ATOM     69  C   UNL A   1      43.074  23.596  27.156  1.00  0.00     0.031 A 
ATOM     70  C   UNL A   1      44.262  25.040  25.633  1.00  0.00     0.131 A 
ATOM     71  C   UNL A   1      42.829  22.718  26.088  1.00  0.00     0.055 A 
ATOM     72  C   UNL A   1      43.957  24.199  24.563  1.00  0.00     0.041 A 
ATOM     73  F   UNL A   1      45.004  26.129  25.377  1.00  0.00    -0.206 F 
ATOM     74  C   UNL A   1      43.246  23.023  24.790  1.00  0.00     0.022 A 
BRANCH  71  75
ATOM     75  S   UNL A   1      42.058  21.115  26.440  1.00  0.00     0.124 S 
ATOM     76  O   UNL A   1      42.763  20.238  25.508  1.00  0.00    -0.237 OA
ATOM     77  O   UNL A   1      42.361  20.922  27.853  1.00  0.00    -0.237 OA
ATOM     78  O   UNL A   1      40.647  21.338  26.128  1.00  0.00    -0.744 OA
ENDBRANCH  71  75
ENDBRANCH  54  68
BRANCH  55  79
ATOM     79  C   UNL A   1      45.554  30.728  34.794  1.00  0.00     0.023 A 
ATOM     80  C   UNL A   1      45.358  30.196  36.080  1.00  0.00     0.031 A 
ATOM     81  C   UNL A   1      45.918  32.083  34.692  1.00  0.00     0.131 A 
ATOM     82  C   UNL A   1      45.470  31.027  37.205  1.00  0.00     0.055 A 
ATOM     83  C   UNL A   1      46.082  32.892  35.818  1.00  0.00     0.041 A 
ATOM     84  F   UNL A   1      46.117  32.643  33.487  1.00  0.00    -0.206 F 
ATOM     85  C   UNL A   1      45.841  32.368  37.084  1.00  0.00     0.022 A 
BRANCH  82  86
ATOM     86  S   UNL A   1      45.026  30.354  38.832  1.00  0.00     0.124 S 
ATOM     87  O   UNL A   1      44.656  28.984  38.495  1.00  0.00    -0.237 OA
ATOM     88  O   UNL A   1      46.270  30.518  39.576  1.00  0.00    -0.237 OA
ATOM     89  O   UNL A   1      43.924  31.211  39.265  1.00  0.00    -0.744 OA
ENDBRANCH  82  86
ENDBRANCH  55  79
BRANCH  67  90
ATOM     90  C   UNL A   1      49.496  26.238  31.206  1.00  0.00     0.023 A 
ATOM     91  C   UNL A   1      49.855  25.086  31.929  1.00  0.00     0.031 A 
ATOM     92  C   UNL A   1      50.525  27.011  30.640  1.00  0.00     0.131 A 
ATOM     93  C   UNL A   1      51.210  24.776  32.122  1.00  0.00     0.055 A 
ATOM     94  C   UNL A   1      51.869  26.662  30.782  1.00  0.00     0.041 A 
ATOM     95  F   UNL A   1      50.241  28.121  29.940  1.00  0.00    -0.206 F 
ATOM     96  C   UNL A   1      52.220  25.547  31.539  1.00  0.00     0.022 A 
BRANCH  93  97
ATOM     97  S   UNL A   1      51.640  23.407  33.231  1.00  0.00     0.124 S 
ATOM     98  O   UNL A   1      50.699  22.372  32.815  1.00  0.00    -0.237 OA
ATOM     99  O   UNL A   1      53.040  23.166  32.901  1.00  0.00    -0.237 OA
ATOM    100  O   UNL A   1      51.405  23.959  34.565  1.00  0.00    -0.744 OA
ENDBRANCH  93  97
ENDBRANCH  67  90
ENDBRANCH  41  42
ENDBRANCH  34  36
ENDBRANCH  33  34
ENDBRANCH  32  33
ENDBRANCH  31  32
ENDBRANCH  30  31
ENDBRANCH  29  30
ENDBRANCH  28  29
ENDBRANCH  27  28
ENDBRANCH   1  27
TORSDOF 28
ENDMDL
