MODEL 1
REMARK VINA RESULT:      -8.7      0.000      0.000
REMARK SMILES O=C(Nc1ccc(C(=O)OCCOCCOCCOCCOC(=O)c2ccc(-c3c4nc(c(-c5cc(S(=O)(=O)[O-])ccc5F)c5ccc([nH]5)c(-c5cc(S(=O)(=O)[O-])ccc5F)c5nc(c(-c6cc(S(=O)(=O)[O-])ccc6F)c6ccc3[nH]6)C=C5)C=C4)cc2)cc1)c1cc(F)cc(Br)c1
REMARK SMILES IDX 17 1 16 2 15 3 14 4 13 5 12 6 11 7 10 8 8 9 9 10 7 11 4 12
REMARK SMILES IDX 5 13 89 14 6 15 88 16 3 17 1 18 2 19 90 21 91 22 97 23 92 24
REMARK SMILES IDX 95 25 93 26 94 27 96 28 18 29 19 30 20 31 21 32 22 33 23 34
REMARK SMILES IDX 24 35 25 36 26 37 87 38 27 39 86 40 28 41 29 42 30 43 80 44
REMARK SMILES IDX 31 45 85 46 79 47 81 48 32 49 84 50 78 51 77 52 33 54 65 55
REMARK SMILES IDX 45 56 64 57 46 58 49 59 63 60 82 61 47 62 48 63 62 65 83 66
REMARK SMILES IDX 50 67 34 68 35 69 43 70 36 71 42 72 44 73 41 74 37 75 38 76
REMARK SMILES IDX 39 77 40 78 66 79 67 80 75 81 68 82 74 83 76 84 73 85 69 86
REMARK SMILES IDX 70 87 71 88 72 89 51 90 52 91 60 92 53 93 59 94 61 95 58 96
REMARK SMILES IDX 54 97 55 98 56 99 57 100
REMARK H PARENT 3 20 81 53 49 64
REMARK Flexibility Score: inf
ROOT
ATOM      1  C   UNL A   1      32.973  35.915  32.029  1.00  0.00     0.188 C 
ENDROOT
BRANCH   1   2
ATOM      2  O   UNL A   1      33.171  36.208  30.645  1.00  0.00    -0.377 OA
BRANCH   2   3
ATOM      3  C   UNL A   1      32.909  35.210  29.673  1.00  0.00     0.188 C 
BRANCH   3   4
ATOM      4  C   UNL A   1      34.049  34.819  28.712  1.00  0.00     0.188 C 
BRANCH   4   5
ATOM      5  O   UNL A   1      33.826  33.602  28.021  1.00  0.00    -0.376 OA
BRANCH   5   6
ATOM      6  C   UNL A   1      34.813  32.586  28.062  1.00  0.00     0.202 C 
BRANCH   6   7
ATOM      7  C   UNL A   1      34.379  31.112  28.080  1.00  0.00     0.261 C 
BRANCH   7   8
ATOM      8  O   UNL A   1      34.082  30.538  26.805  1.00  0.00    -0.460 OA
BRANCH   8   9
ATOM      9  C   UNL A   1      32.783  30.460  26.458  1.00  0.00     0.338 C 
ATOM     10  O   UNL A   1      31.874  31.179  26.836  1.00  0.00    -0.246 OA
BRANCH   9  11
ATOM     11  C   UNL A   1      32.664  29.474  25.358  1.00  0.00     0.060 A 
ATOM     12  C   UNL A   1      32.585  27.782  23.160  1.00  0.00     0.041 A 
ATOM     13  C   UNL A   1      33.753  27.857  23.917  1.00  0.00     0.027 A 
ATOM     14  C   UNL A   1      31.406  28.379  23.623  1.00  0.00     0.027 A 
ATOM     15  C   UNL A   1      33.802  28.737  24.999  1.00  0.00     0.018 A 
ATOM     16  C   UNL A   1      31.445  29.239  24.716  1.00  0.00     0.018 A 
BRANCH  12  17
ATOM     17  N   UNL A   1      32.690  27.272  21.856  1.00  0.00    -0.322 N 
ATOM     18  O   UNL A   1      33.050  25.623  20.329  1.00  0.00    -0.269 OA
ATOM     19  C   UNL A   1      32.903  25.948  21.504  1.00  0.00     0.255 C 
ATOM     20  H   UNL A   1      32.604  27.919  21.119  1.00  0.00     0.170 HD
BRANCH  19  21
ATOM     21  C   UNL A   1      32.871  24.888  22.549  1.00  0.00     0.044 A 
ATOM     22  C   UNL A   1      31.658  24.433  23.085  1.00  0.00     0.053 A 
ATOM     23  C   UNL A   1      34.082  24.403  23.047  1.00  0.00     0.029 A 
ATOM     24  C   UNL A   1      31.675  23.609  24.204  1.00  0.00     0.125 A 
ATOM     25  C   UNL A   1      34.071  23.545  24.149  1.00  0.00     0.021 A 
ATOM     26  F   UNL A   1      30.516  23.271  24.785  1.00  0.00    -0.207 F 
ATOM     27  C   UNL A   1      32.871  23.169  24.752  1.00  0.00     0.055 A 
ATOM     28  Br  UNL A   1      35.707  22.918  24.857  1.00  0.00    -0.051 Br
ENDBRANCH  19  21
ENDBRANCH  12  17
ENDBRANCH   9  11
ENDBRANCH   8   9
ENDBRANCH   7   8
ENDBRANCH   6   7
ENDBRANCH   5   6
ENDBRANCH   4   5
ENDBRANCH   3   4
ENDBRANCH   2   3
ENDBRANCH   1   2
BRANCH   1  29
ATOM     29  C   UNL A   1      34.126  35.431  32.943  1.00  0.00     0.188 C 
BRANCH  29  30
ATOM     30  O   UNL A   1      34.926  34.391  32.402  1.00  0.00    -0.376 OA
BRANCH  30  31
ATOM     31  C   UNL A   1      34.353  33.096  32.353  1.00  0.00     0.202 C 
BRANCH  31  32
ATOM     32  C   UNL A   1      35.204  32.003  31.692  1.00  0.00     0.261 C 
BRANCH  32  33
ATOM     33  O   UNL A   1      36.531  32.388  31.300  1.00  0.00    -0.460 OA
BRANCH  33  34
ATOM     34  C   UNL A   1      37.554  31.574  31.646  1.00  0.00     0.338 C 
ATOM     35  O   UNL A   1      37.859  30.515  31.123  1.00  0.00    -0.246 OA
BRANCH  34  36
ATOM     36  C   UNL A   1      38.357  32.296  32.655  1.00  0.00     0.060 A 
ATOM     37  C   UNL A   1      39.491  31.686  33.210  1.00  0.00     0.016 A 
ATOM     38  C   UNL A   1      38.017  33.603  33.007  1.00  0.00     0.016 A 
ATOM     39  C   UNL A   1      40.294  32.391  34.112  1.00  0.00     0.010 A 
ATOM     40  C   UNL A   1      38.804  34.295  33.929  1.00  0.00     0.010 A 
ATOM     41  C   UNL A   1      39.942  33.691  34.494  1.00  0.00    -0.014 A 
BRANCH  41  42
ATOM     42  C   UNL A   1      40.672  34.396  35.579  1.00  0.00     0.031 A 
ATOM     43  C   UNL A   1      40.231  34.172  36.998  1.00  0.00     0.074 A 
ATOM     44  C   UNL A   1      41.670  35.256  35.303  1.00  0.00     0.049 A 
ATOM     45  N   UNL A   1      40.600  34.789  38.089  1.00  0.00    -0.248 NA
ATOM     46  C   UNL A   1      39.234  33.110  37.213  1.00  0.00     0.031 C 
ATOM     47  C   UNL A   1      42.218  35.516  33.972  1.00  0.00     0.029 A 
ATOM     48  N   UNL A   1      42.383  36.095  36.127  1.00  0.00    -0.354 N 
ATOM     49  C   UNL A   1      39.864  34.212  39.117  1.00  0.00     0.074 A 
ATOM     50  C   UNL A   1      39.025  33.196  38.519  1.00  0.00     0.031 C 
ATOM     51  C   UNL A   1      43.156  36.475  34.066  1.00  0.00     0.029 A 
ATOM     52  C   UNL A   1      43.237  36.938  35.451  1.00  0.00     0.049 A 
ATOM     53  H   UNL A   1      42.292  36.093  37.107  1.00  0.00     0.167 HD
ATOM     54  C   UNL A   1      39.883  34.513  40.438  1.00  0.00     0.034 A 
ATOM     55  C   UNL A   1      43.955  37.994  35.890  1.00  0.00     0.034 A 
ATOM     56  C   UNL A   1      40.726  35.529  41.016  1.00  0.00     0.049 A 
ATOM     57  C   UNL A   1      43.885  38.368  37.356  1.00  0.00     0.074 A 
ATOM     58  C   UNL A   1      40.862  35.873  42.350  1.00  0.00     0.029 A 
ATOM     59  N   UNL A   1      41.552  36.382  40.298  1.00  0.00    -0.354 N 
ATOM     60  N   UNL A   1      43.217  37.786  38.328  1.00  0.00    -0.248 NA
ATOM     61  C   UNL A   1      44.659  39.542  37.787  1.00  0.00     0.031 C 
ATOM     62  C   UNL A   1      41.696  36.991  42.429  1.00  0.00     0.029 A 
ATOM     63  C   UNL A   1      42.154  37.290  41.156  1.00  0.00     0.049 A 
ATOM     64  H   UNL A   1      41.690  36.349  39.324  1.00  0.00     0.167 HD
ATOM     65  C   UNL A   1      43.516  38.509  39.482  1.00  0.00     0.074 A 
ATOM     66  C   UNL A   1      44.440  39.552  39.093  1.00  0.00     0.031 C 
ATOM     67  C   UNL A   1      43.069  38.329  40.751  1.00  0.00     0.034 A 
BRANCH  54  68
ATOM     68  C   UNL A   1      38.922  33.787  41.343  1.00  0.00     0.023 A 
ATOM     69  C   UNL A   1      39.182  32.498  41.833  1.00  0.00     0.031 A 
ATOM     70  C   UNL A   1      37.735  34.424  41.750  1.00  0.00     0.131 A 
ATOM     71  C   UNL A   1      38.249  31.870  42.674  1.00  0.00     0.055 A 
ATOM     72  C   UNL A   1      36.844  33.822  42.640  1.00  0.00     0.041 A 
ATOM     73  F   UNL A   1      37.424  35.647  41.291  1.00  0.00    -0.206 F 
ATOM     74  C   UNL A   1      37.097  32.535  43.103  1.00  0.00     0.022 A 
BRANCH  71  75
ATOM     75  S   UNL A   1      38.514  30.136  43.130  1.00  0.00     0.124 S 
ATOM     76  O   UNL A   1      38.432  29.472  41.832  1.00  0.00    -0.237 OA
ATOM     77  O   UNL A   1      39.836  30.169  43.747  1.00  0.00    -0.237 OA
ATOM     78  O   UNL A   1      37.408  29.847  44.041  1.00  0.00    -0.744 OA
ENDBRANCH  71  75
ENDBRANCH  54  68
BRANCH  55  79
ATOM     79  C   UNL A   1      44.738  38.844  34.940  1.00  0.00     0.023 A 
ATOM     80  C   UNL A   1      44.142  39.924  34.267  1.00  0.00     0.031 A 
ATOM     81  C   UNL A   1      46.066  38.519  34.606  1.00  0.00     0.131 A 
ATOM     82  C   UNL A   1      44.845  40.589  33.249  1.00  0.00     0.055 A 
ATOM     83  C   UNL A   1      46.785  39.232  33.645  1.00  0.00     0.041 A 
ATOM     84  F   UNL A   1      46.686  37.489  35.205  1.00  0.00    -0.206 F 
ATOM     85  C   UNL A   1      46.167  40.262  32.945  1.00  0.00     0.022 A 
BRANCH  82  86
ATOM     86  S   UNL A   1      43.953  41.798  32.229  1.00  0.00     0.124 S 
ATOM     87  O   UNL A   1      44.734  41.776  30.997  1.00  0.00    -0.237 OA
ATOM     88  O   UNL A   1      42.622  41.207  32.155  1.00  0.00    -0.237 OA
ATOM     89  O   UNL A   1      44.045  43.031  33.005  1.00  0.00    -0.744 OA
ENDBRANCH  82  86
ENDBRANCH  55  79
BRANCH  67  90
ATOM     90  C   UNL A   1      43.604  39.258  41.816  1.00  0.00     0.023 A 
ATOM     91  C   UNL A   1      42.950  40.457  42.149  1.00  0.00     0.031 A 
ATOM     92  C   UNL A   1      44.776  38.927  42.519  1.00  0.00     0.131 A 
ATOM     93  C   UNL A   1      43.497  41.303  43.125  1.00  0.00     0.055 A 
ATOM     94  C   UNL A   1      45.280  39.741  43.534  1.00  0.00     0.041 A 
ATOM     95  F   UNL A   1      45.443  37.795  42.241  1.00  0.00    -0.206 F 
ATOM     96  C   UNL A   1      44.646  40.943  43.834  1.00  0.00     0.022 A 
BRANCH  93  97
ATOM     97  S   UNL A   1      42.729  42.923  43.406  1.00  0.00     0.124 S 
ATOM     98  O   UNL A   1      43.645  43.816  42.704  1.00  0.00    -0.237 OA
ATOM     99  O   UNL A   1      41.413  42.755  42.799  1.00  0.00    -0.237 OA
ATOM    100  O   UNL A   1      42.728  43.054  44.862  1.00  0.00    -0.744 OA
ENDBRANCH  93  97
ENDBRANCH  67  90
ENDBRANCH  41  42
ENDBRANCH  34  36
ENDBRANCH  33  34
ENDBRANCH  32  33
ENDBRANCH  31  32
ENDBRANCH  30  31
ENDBRANCH  29  30
ENDBRANCH   1  29
TORSDOF 25
ENDMDL
MODEL 2
REMARK VINA RESULT:      -8.7      6.800     11.961
REMARK SMILES O=C(Nc1ccc(C(=O)OCCOCCOCCOCCOC(=O)c2ccc(-c3c4nc(c(-c5cc(S(=O)(=O)[O-])ccc5F)c5ccc([nH]5)c(-c5cc(S(=O)(=O)[O-])ccc5F)c5nc(c(-c6cc(S(=O)(=O)[O-])ccc6F)c6ccc3[nH]6)C=C5)C=C4)cc2)cc1)c1cc(F)cc(Br)c1
REMARK SMILES IDX 17 1 16 2 15 3 14 4 13 5 12 6 11 7 10 8 8 9 9 10 7 11 4 12
REMARK SMILES IDX 5 13 89 14 6 15 88 16 3 17 1 18 2 19 90 21 91 22 97 23 92 24
REMARK SMILES IDX 95 25 93 26 94 27 96 28 18 29 19 30 20 31 21 32 22 33 23 34
REMARK SMILES IDX 24 35 25 36 26 37 87 38 27 39 86 40 28 41 29 42 30 43 80 44
REMARK SMILES IDX 31 45 85 46 79 47 81 48 32 49 84 50 78 51 77 52 33 54 65 55
REMARK SMILES IDX 45 56 64 57 46 58 49 59 63 60 82 61 47 62 48 63 62 65 83 66
REMARK SMILES IDX 50 67 34 68 35 69 43 70 36 71 42 72 44 73 41 74 37 75 38 76
REMARK SMILES IDX 39 77 40 78 66 79 67 80 75 81 68 82 74 83 76 84 73 85 69 86
REMARK SMILES IDX 70 87 71 88 72 89 51 90 52 91 60 92 53 93 59 94 61 95 58 96
REMARK SMILES IDX 54 97 55 98 56 99 57 100
REMARK H PARENT 3 20 81 53 49 64
REMARK Flexibility Score: inf
ROOT
ATOM      1  C   UNL A   1      46.298  21.225  24.544  1.00  0.00     0.188 C 
ENDROOT
BRANCH   1   2
ATOM      2  O   UNL A   1      46.351  20.258  25.593  1.00  0.00    -0.377 OA
BRANCH   2   3
ATOM      3  C   UNL A   1      45.952  18.922  25.336  1.00  0.00     0.188 C 
BRANCH   3   4
ATOM      4  C   UNL A   1      44.470  18.661  24.999  1.00  0.00     0.188 C 
BRANCH   4   5
ATOM      5  O   UNL A   1      43.576  18.991  26.048  1.00  0.00    -0.376 OA
BRANCH   5   6
ATOM      6  C   UNL A   1      42.309  19.544  25.738  1.00  0.00     0.202 C 
BRANCH   6   7
ATOM      7  C   UNL A   1      41.600  20.431  26.772  1.00  0.00     0.261 C 
BRANCH   7   8
ATOM      8  O   UNL A   1      41.099  21.677  26.280  1.00  0.00    -0.460 OA
BRANCH   8   9
ATOM      9  C   UNL A   1      40.167  22.298  27.027  1.00  0.00     0.338 C 
ATOM     10  O   UNL A   1      40.319  22.805  28.125  1.00  0.00    -0.246 OA
BRANCH   9  11
ATOM     11  C   UNL A   1      38.951  22.459  26.196  1.00  0.00     0.060 A 
ATOM     12  C   UNL A   1      36.819  22.713  24.438  1.00  0.00     0.041 A 
ATOM     13  C   UNL A   1      37.311  21.442  24.728  1.00  0.00     0.027 A 
ATOM     14  C   UNL A   1      37.243  23.820  25.182  1.00  0.00     0.027 A 
ATOM     15  C   UNL A   1      38.407  21.321  25.582  1.00  0.00     0.018 A 
ATOM     16  C   UNL A   1      38.321  23.699  26.054  1.00  0.00     0.018 A 
BRANCH  12  17
ATOM     17  N   UNL A   1      36.055  22.861  23.269  1.00  0.00    -0.322 N 
ATOM     18  O   UNL A   1      34.136  23.289  22.121  1.00  0.00    -0.269 OA
ATOM     19  C   UNL A   1      34.730  23.263  23.196  1.00  0.00     0.255 C 
ATOM     20  H   UNL A   1      36.505  22.658  22.417  1.00  0.00     0.170 HD
BRANCH  19  21
ATOM     21  C   UNL A   1      34.034  23.753  24.419  1.00  0.00     0.044 A 
ATOM     22  C   UNL A   1      33.394  22.864  25.294  1.00  0.00     0.053 A 
ATOM     23  C   UNL A   1      33.962  25.129  24.641  1.00  0.00     0.029 A 
ATOM     24  C   UNL A   1      32.575  23.370  26.296  1.00  0.00     0.125 A 
ATOM     25  C   UNL A   1      33.162  25.611  25.679  1.00  0.00     0.021 A 
ATOM     26  F   UNL A   1      31.872  22.520  27.057  1.00  0.00    -0.207 F 
ATOM     27  C   UNL A   1      32.441  24.737  26.491  1.00  0.00     0.055 A 
ATOM     28  Br  UNL A   1      33.024  27.474  25.960  1.00  0.00    -0.051 Br
ENDBRANCH  19  21
ENDBRANCH  12  17
ENDBRANCH   9  11
ENDBRANCH   8   9
ENDBRANCH   7   8
ENDBRANCH   6   7
ENDBRANCH   5   6
ENDBRANCH   4   5
ENDBRANCH   3   4
ENDBRANCH   2   3
ENDBRANCH   1   2
BRANCH   1  29
ATOM     29  C   UNL A   1      46.048  22.728  24.820  1.00  0.00     0.188 C 
BRANCH  29  30
ATOM     30  O   UNL A   1      46.527  23.198  26.070  1.00  0.00    -0.376 OA
BRANCH  30  31
ATOM     31  C   UNL A   1      45.594  23.267  27.135  1.00  0.00     0.202 C 
BRANCH  31  32
ATOM     32  C   UNL A   1      45.422  24.640  27.796  1.00  0.00     0.261 C 
BRANCH  32  33
ATOM     33  O   UNL A   1      45.539  25.778  26.928  1.00  0.00    -0.460 OA
BRANCH  33  34
ATOM     34  C   UNL A   1      44.399  26.349  26.475  1.00  0.00     0.338 C 
ATOM     35  O   UNL A   1      43.523  25.815  25.817  1.00  0.00    -0.246 OA
BRANCH  34  36
ATOM     36  C   UNL A   1      44.317  27.693  27.086  1.00  0.00     0.060 A 
ATOM     37  C   UNL A   1      45.153  28.021  28.163  1.00  0.00     0.016 A 
ATOM     38  C   UNL A   1      43.451  28.646  26.550  1.00  0.00     0.016 A 
ATOM     39  C   UNL A   1      45.130  29.312  28.698  1.00  0.00     0.010 A 
ATOM     40  C   UNL A   1      43.409  29.927  27.105  1.00  0.00     0.010 A 
ATOM     41  C   UNL A   1      44.242  30.266  28.187  1.00  0.00    -0.014 A 
BRANCH  41  42
ATOM     42  C   UNL A   1      44.069  31.585  28.848  1.00  0.00     0.031 A 
ATOM     43  C   UNL A   1      44.990  32.706  28.454  1.00  0.00     0.074 A 
ATOM     44  C   UNL A   1      43.148  31.766  29.813  1.00  0.00     0.049 A 
ATOM     45  N   UNL A   1      45.141  33.885  28.996  1.00  0.00    -0.248 NA
ATOM     46  C   UNL A   1      45.863  32.459  27.294  1.00  0.00     0.031 C 
ATOM     47  C   UNL A   1      42.168  30.770  30.243  1.00  0.00     0.029 A 
ATOM     48  N   UNL A   1      42.908  32.846  30.629  1.00  0.00    -0.354 N 
ATOM     49  C   UNL A   1      46.142  34.512  28.264  1.00  0.00     0.074 A 
ATOM     50  C   UNL A   1      46.564  33.582  27.240  1.00  0.00     0.031 C 
ATOM     51  C   UNL A   1      41.455  31.273  31.266  1.00  0.00     0.029 A 
ATOM     52  C   UNL A   1      41.964  32.602  31.603  1.00  0.00     0.049 A 
ATOM     53  H   UNL A   1      43.366  33.711  30.528  1.00  0.00     0.167 HD
ATOM     54  C   UNL A   1      46.664  35.750  28.441  1.00  0.00     0.034 A 
ATOM     55  C   UNL A   1      41.596  33.342  32.671  1.00  0.00     0.034 A 
ATOM     56  C   UNL A   1      46.231  36.663  29.467  1.00  0.00     0.049 A 
ATOM     57  C   UNL A   1      42.265  34.682  32.899  1.00  0.00     0.074 A 
ATOM     58  C   UNL A   1      46.656  37.961  29.695  1.00  0.00     0.029 A 
ATOM     59  N   UNL A   1      45.298  36.371  30.452  1.00  0.00    -0.354 N 
ATOM     60  N   UNL A   1      43.181  35.284  32.173  1.00  0.00    -0.248 NA
ATOM     61  C   UNL A   1      41.856  35.441  34.090  1.00  0.00     0.031 C 
ATOM     62  C   UNL A   1      46.052  38.418  30.869  1.00  0.00     0.029 A 
ATOM     63  C   UNL A   1      45.179  37.443  31.324  1.00  0.00     0.049 A 
ATOM     64  H   UNL A   1      44.795  35.528  30.522  1.00  0.00     0.167 HD
ATOM     65  C   UNL A   1      43.432  36.499  32.808  1.00  0.00     0.074 A 
ATOM     66  C   UNL A   1      42.558  36.557  33.958  1.00  0.00     0.031 C 
ATOM     67  C   UNL A   1      44.306  37.482  32.472  1.00  0.00     0.034 A 
BRANCH  54  68
ATOM     68  C   UNL A   1      47.807  36.169  27.553  1.00  0.00     0.023 A 
ATOM     69  C   UNL A   1      49.148  35.931  27.895  1.00  0.00     0.031 A 
ATOM     70  C   UNL A   1      47.538  36.788  26.318  1.00  0.00     0.131 A 
ATOM     71  C   UNL A   1      50.172  36.344  27.027  1.00  0.00     0.055 A 
ATOM     72  C   UNL A   1      48.557  37.134  25.430  1.00  0.00     0.041 A 
ATOM     73  F   UNL A   1      46.275  37.062  25.953  1.00  0.00    -0.206 F 
ATOM     74  C   UNL A   1      49.884  36.917  25.785  1.00  0.00     0.022 A 
BRANCH  71  75
ATOM     75  S   UNL A   1      51.893  36.205  27.581  1.00  0.00     0.124 S 
ATOM     76  O   UNL A   1      52.429  35.226  26.639  1.00  0.00    -0.237 OA
ATOM     77  O   UNL A   1      52.385  37.570  27.432  1.00  0.00    -0.237 OA
ATOM     78  O   UNL A   1      51.773  35.732  28.959  1.00  0.00    -0.744 OA
ENDBRANCH  71  75
ENDBRANCH  54  68
BRANCH  55  79
ATOM     79  C   UNL A   1      40.614  32.818  33.671  1.00  0.00     0.023 A 
ATOM     80  C   UNL A   1      39.254  33.160  33.604  1.00  0.00     0.031 A 
ATOM     81  C   UNL A   1      41.043  32.056  34.774  1.00  0.00     0.131 A 
ATOM     82  C   UNL A   1      38.389  32.805  34.653  1.00  0.00     0.055 A 
ATOM     83  C   UNL A   1      40.164  31.644  35.777  1.00  0.00     0.041 A 
ATOM     84  F   UNL A   1      42.334  31.708  34.901  1.00  0.00    -0.206 F 
ATOM     85  C   UNL A   1      38.831  32.036  35.730  1.00  0.00     0.022 A 
BRANCH  82  86
ATOM     86  S   UNL A   1      36.707  33.490  34.658  1.00  0.00     0.124 S 
ATOM     87  O   UNL A   1      36.378  33.450  36.079  1.00  0.00    -0.237 OA
ATOM     88  O   UNL A   1      36.918  34.814  34.085  1.00  0.00    -0.237 OA
ATOM     89  O   UNL A   1      35.960  32.558  33.817  1.00  0.00    -0.744 OA
ENDBRANCH  82  86
ENDBRANCH  55  79
BRANCH  67  90
ATOM     90  C   UNL A   1      44.332  38.718  33.339  1.00  0.00     0.023 A 
ATOM     91  C   UNL A   1      45.127  38.796  34.495  1.00  0.00     0.031 A 
ATOM     92  C   UNL A   1      43.559  39.842  32.992  1.00  0.00     0.131 A 
ATOM     93  C   UNL A   1      45.098  39.953  35.287  1.00  0.00     0.055 A 
ATOM     94  C   UNL A   1      43.584  41.014  33.748  1.00  0.00     0.041 A 
ATOM     95  F   UNL A   1      42.779  39.823  31.899  1.00  0.00    -0.206 F 
ATOM     96  C   UNL A   1      44.348  41.070  34.910  1.00  0.00     0.022 A 
BRANCH  93  97
ATOM     97  S   UNL A   1      45.997  39.956  36.864  1.00  0.00     0.124 S 
ATOM     98  O   UNL A   1      46.350  41.364  37.007  1.00  0.00    -0.237 OA
ATOM     99  O   UNL A   1      44.994  39.452  37.797  1.00  0.00    -0.237 OA
ATOM    100  O   UNL A   1      47.122  39.055  36.619  1.00  0.00    -0.744 OA
ENDBRANCH  93  97
ENDBRANCH  67  90
ENDBRANCH  41  42
ENDBRANCH  34  36
ENDBRANCH  33  34
ENDBRANCH  32  33
ENDBRANCH  31  32
ENDBRANCH  30  31
ENDBRANCH  29  30
ENDBRANCH   1  29
TORSDOF 25
ENDMDL
MODEL 3
REMARK VINA RESULT:      -8.6      8.244     11.589
REMARK SMILES O=C(Nc1ccc(C(=O)OCCOCCOCCOCCOC(=O)c2ccc(-c3c4nc(c(-c5cc(S(=O)(=O)[O-])ccc5F)c5ccc([nH]5)c(-c5cc(S(=O)(=O)[O-])ccc5F)c5nc(c(-c6cc(S(=O)(=O)[O-])ccc6F)c6ccc3[nH]6)C=C5)C=C4)cc2)cc1)c1cc(F)cc(Br)c1
REMARK SMILES IDX 17 1 16 2 15 3 14 4 13 5 12 6 11 7 10 8 8 9 9 10 7 11 4 12
REMARK SMILES IDX 5 13 89 14 6 15 88 16 3 17 1 18 2 19 90 21 91 22 97 23 92 24
REMARK SMILES IDX 95 25 93 26 94 27 96 28 18 29 19 30 20 31 21 32 22 33 23 34
REMARK SMILES IDX 24 35 25 36 26 37 87 38 27 39 86 40 28 41 29 42 30 43 80 44
REMARK SMILES IDX 31 45 85 46 79 47 81 48 32 49 84 50 78 51 77 52 33 54 65 55
REMARK SMILES IDX 45 56 64 57 46 58 49 59 63 60 82 61 47 62 48 63 62 65 83 66
REMARK SMILES IDX 50 67 34 68 35 69 43 70 36 71 42 72 44 73 41 74 37 75 38 76
REMARK SMILES IDX 39 77 40 78 66 79 67 80 75 81 68 82 74 83 76 84 73 85 69 86
REMARK SMILES IDX 70 87 71 88 72 89 51 90 52 91 60 92 53 93 59 94 61 95 58 96
REMARK SMILES IDX 54 97 55 98 56 99 57 100
REMARK H PARENT 3 20 81 53 49 64
REMARK Flexibility Score: inf
ROOT
ATOM      1  C   UNL A   1      37.913  28.885  29.570  1.00  0.00     0.188 C 
ENDROOT
BRANCH   1   2
ATOM      2  O   UNL A   1      39.041  29.456  28.907  1.00  0.00    -0.377 OA
BRANCH   2   3
ATOM      3  C   UNL A   1      39.907  28.624  28.153  1.00  0.00     0.188 C 
BRANCH   3   4
ATOM      4  C   UNL A   1      39.549  27.130  28.031  1.00  0.00     0.188 C 
BRANCH   4   5
ATOM      5  O   UNL A   1      40.416  26.399  27.180  1.00  0.00    -0.376 OA
BRANCH   5   6
ATOM      6  C   UNL A   1      39.940  25.231  26.535  1.00  0.00     0.202 C 
BRANCH   6   7
ATOM      7  C   UNL A   1      38.696  24.519  27.086  1.00  0.00     0.261 C 
BRANCH   7   8
ATOM      8  O   UNL A   1      37.703  24.168  26.119  1.00  0.00    -0.460 OA
BRANCH   8   9
ATOM      9  C   UNL A   1      37.739  22.912  25.634  1.00  0.00     0.338 C 
ATOM     10  O   UNL A   1      38.618  22.083  25.797  1.00  0.00    -0.246 OA
BRANCH   9  11
ATOM     11  C   UNL A   1      36.416  22.617  25.035  1.00  0.00     0.060 A 
ATOM     12  C   UNL A   1      33.891  22.313  23.924  1.00  0.00     0.041 A 
ATOM     13  C   UNL A   1      34.918  22.837  23.141  1.00  0.00     0.027 A 
ATOM     14  C   UNL A   1      34.175  21.748  25.173  1.00  0.00     0.027 A 
ATOM     15  C   UNL A   1      36.177  23.024  23.714  1.00  0.00     0.018 A 
ATOM     16  C   UNL A   1      35.436  21.911  25.740  1.00  0.00     0.018 A 
BRANCH  12  17
ATOM     17  N   UNL A   1      32.572  22.553  23.506  1.00  0.00    -0.322 N 
ATOM     18  O   UNL A   1      30.698  23.825  23.282  1.00  0.00    -0.269 OA
ATOM     19  C   UNL A   1      31.877  23.747  23.618  1.00  0.00     0.255 C 
ATOM     20  H   UNL A   1      32.095  21.798  23.092  1.00  0.00     0.170 HD
BRANCH  19  21
ATOM     21  C   UNL A   1      32.583  24.978  24.071  1.00  0.00     0.044 A 
ATOM     22  C   UNL A   1      32.724  25.273  25.434  1.00  0.00     0.053 A 
ATOM     23  C   UNL A   1      33.038  25.880  23.108  1.00  0.00     0.029 A 
ATOM     24  C   UNL A   1      33.189  26.526  25.813  1.00  0.00     0.125 A 
ATOM     25  C   UNL A   1      33.536  27.118  23.516  1.00  0.00     0.021 A 
ATOM     26  F   UNL A   1      33.214  26.849  27.113  1.00  0.00    -0.207 F 
ATOM     27  C   UNL A   1      33.586  27.460  24.867  1.00  0.00     0.055 A 
ATOM     28  Br  UNL A   1      34.114  28.364  22.218  1.00  0.00    -0.051 Br
ENDBRANCH  19  21
ENDBRANCH  12  17
ENDBRANCH   9  11
ENDBRANCH   8   9
ENDBRANCH   7   8
ENDBRANCH   6   7
ENDBRANCH   5   6
ENDBRANCH   4   5
ENDBRANCH   3   4
ENDBRANCH   2   3
ENDBRANCH   1   2
BRANCH   1  29
ATOM     29  C   UNL A   1      37.939  28.523  31.075  1.00  0.00     0.188 C 
BRANCH  29  30
ATOM     30  O   UNL A   1      37.083  29.304  31.896  1.00  0.00    -0.376 OA
BRANCH  30  31
ATOM     31  C   UNL A   1      36.995  30.688  31.603  1.00  0.00     0.202 C 
BRANCH  31  32
ATOM     32  C   UNL A   1      37.193  31.645  32.786  1.00  0.00     0.261 C 
BRANCH  32  33
ATOM     33  O   UNL A   1      38.054  32.770  32.550  1.00  0.00    -0.460 OA
BRANCH  33  34
ATOM     34  C   UNL A   1      37.712  33.634  31.567  1.00  0.00     0.338 C 
ATOM     35  O   UNL A   1      36.623  34.154  31.394  1.00  0.00    -0.246 OA
BRANCH  34  36
ATOM     36  C   UNL A   1      38.956  33.982  30.847  1.00  0.00     0.060 A 
ATOM     37  C   UNL A   1      38.899  34.349  29.495  1.00  0.00     0.016 A 
ATOM     38  C   UNL A   1      40.171  34.001  31.533  1.00  0.00     0.016 A 
ATOM     39  C   UNL A   1      40.062  34.747  28.830  1.00  0.00     0.010 A 
ATOM     40  C   UNL A   1      41.336  34.372  30.858  1.00  0.00     0.010 A 
ATOM     41  C   UNL A   1      41.291  34.739  29.501  1.00  0.00    -0.014 A 
BRANCH  41  42
ATOM     42  C   UNL A   1      42.563  34.985  28.775  1.00  0.00     0.031 A 
ATOM     43  C   UNL A   1      43.546  33.855  28.655  1.00  0.00     0.074 A 
ATOM     44  C   UNL A   1      42.859  36.201  28.278  1.00  0.00     0.049 A 
ATOM     45  N   UNL A   1      44.777  33.869  28.217  1.00  0.00    -0.248 NA
ATOM     46  C   UNL A   1      43.078  32.531  29.097  1.00  0.00     0.031 C 
ATOM     47  C   UNL A   1      41.964  37.358  28.290  1.00  0.00     0.029 A 
ATOM     48  N   UNL A   1      44.009  36.674  27.694  1.00  0.00    -0.354 N 
ATOM     49  C   UNL A   1      45.241  32.566  28.352  1.00  0.00     0.074 A 
ATOM     50  C   UNL A   1      44.161  31.788  28.917  1.00  0.00     0.031 C 
ATOM     51  C   UNL A   1      42.612  38.416  27.769  1.00  0.00     0.029 A 
ATOM     52  C   UNL A   1      43.983  38.028  27.441  1.00  0.00     0.049 A 
ATOM     53  H   UNL A   1      44.779  36.100  27.477  1.00  0.00     0.167 HD
ATOM     54  C   UNL A   1      46.464  32.071  28.041  1.00  0.00     0.034 A 
ATOM     55  C   UNL A   1      44.968  38.864  27.045  1.00  0.00     0.034 A 
ATOM     56  C   UNL A   1      47.529  32.862  27.479  1.00  0.00     0.049 A 
ATOM     57  C   UNL A   1      46.351  38.300  26.795  1.00  0.00     0.074 A 
ATOM     58  C   UNL A   1      48.785  32.444  27.076  1.00  0.00     0.029 A 
ATOM     59  N   UNL A   1      47.477  34.232  27.267  1.00  0.00    -0.354 N 
ATOM     60  N   UNL A   1      46.767  37.056  26.886  1.00  0.00    -0.248 NA
ATOM     61  C   UNL A   1      47.400  39.250  26.394  1.00  0.00     0.031 C 
ATOM     62  C   UNL A   1      49.523  33.573  26.709  1.00  0.00     0.029 A 
ATOM     63  C   UNL A   1      48.700  34.684  26.794  1.00  0.00     0.049 A 
ATOM     64  H   UNL A   1      46.689  34.800  27.428  1.00  0.00     0.167 HD
ATOM     65  C   UNL A   1      48.113  37.078  26.527  1.00  0.00     0.074 A 
ATOM     66  C   UNL A   1      48.435  38.448  26.196  1.00  0.00     0.031 C 
ATOM     67  C   UNL A   1      49.007  36.057  26.474  1.00  0.00     0.034 A 
BRANCH  54  68
ATOM     68  C   UNL A   1      46.744  30.626  28.361  1.00  0.00     0.023 A 
ATOM     69  C   UNL A   1      47.244  30.217  29.608  1.00  0.00     0.031 A 
ATOM     70  C   UNL A   1      46.467  29.635  27.402  1.00  0.00     0.131 A 
ATOM     71  C   UNL A   1      47.486  28.855  29.850  1.00  0.00     0.055 A 
ATOM     72  C   UNL A   1      46.646  28.277  27.672  1.00  0.00     0.041 A 
ATOM     73  F   UNL A   1      46.012  29.972  26.184  1.00  0.00    -0.206 F 
ATOM     74  C   UNL A   1      47.163  27.882  28.901  1.00  0.00     0.022 A 
BRANCH  71  75
ATOM     75  S   UNL A   1      48.315  28.377  31.390  1.00  0.00     0.124 S 
ATOM     76  O   UNL A   1      48.739  29.674  31.912  1.00  0.00    -0.237 OA
ATOM     77  O   UNL A   1      47.250  27.708  32.128  1.00  0.00    -0.237 OA
ATOM     78  O   UNL A   1      49.402  27.510  30.940  1.00  0.00    -0.744 OA
ENDBRANCH  71  75
ENDBRANCH  54  68
BRANCH  55  79
ATOM     79  C   UNL A   1      44.732  40.338  26.941  1.00  0.00     0.023 A 
ATOM     80  C   UNL A   1      44.226  40.914  25.764  1.00  0.00     0.031 A 
ATOM     81  C   UNL A   1      45.116  41.206  27.980  1.00  0.00     0.131 A 
ATOM     82  C   UNL A   1      44.185  42.311  25.629  1.00  0.00     0.055 A 
ATOM     83  C   UNL A   1      45.005  42.593  27.867  1.00  0.00     0.041 A 
ATOM     84  F   UNL A   1      45.619  40.717  29.125  1.00  0.00    -0.206 F 
ATOM     85  C   UNL A   1      44.555  43.154  26.678  1.00  0.00     0.022 A 
BRANCH  82  86
ATOM     86  S   UNL A   1      43.776  43.013  24.004  1.00  0.00     0.124 S 
ATOM     87  O   UNL A   1      42.362  42.676  23.886  1.00  0.00    -0.237 OA
ATOM     88  O   UNL A   1      44.085  44.425  24.199  1.00  0.00    -0.237 OA
ATOM     89  O   UNL A   1      44.666  42.299  23.093  1.00  0.00    -0.744 OA
ENDBRANCH  82  86
ENDBRANCH  55  79
BRANCH  67  90
ATOM     90  C   UNL A   1      50.407  36.379  26.006  1.00  0.00     0.023 A 
ATOM     91  C   UNL A   1      51.476  36.514  26.908  1.00  0.00     0.031 A 
ATOM     92  C   UNL A   1      50.675  36.538  24.634  1.00  0.00     0.131 A 
ATOM     93  C   UNL A   1      52.754  36.842  26.432  1.00  0.00     0.055 A 
ATOM     94  C   UNL A   1      51.961  36.800  24.161  1.00  0.00     0.041 A 
ATOM     95  F   UNL A   1      49.691  36.422  23.728  1.00  0.00    -0.206 F 
ATOM     96  C   UNL A   1      53.007  36.965  25.064  1.00  0.00     0.022 A 
BRANCH  93  97
ATOM     97  S   UNL A   1      54.072  37.183  27.632  1.00  0.00     0.124 S 
ATOM     98  O   UNL A   1      54.485  35.837  28.016  1.00  0.00    -0.237 OA
ATOM     99  O   UNL A   1      55.032  37.942  26.836  1.00  0.00    -0.237 OA
ATOM    100  O   UNL A   1      53.395  37.947  28.678  1.00  0.00    -0.744 OA
ENDBRANCH  93  97
ENDBRANCH  67  90
ENDBRANCH  41  42
ENDBRANCH  34  36
ENDBRANCH  33  34
ENDBRANCH  32  33
ENDBRANCH  31  32
ENDBRANCH  30  31
ENDBRANCH  29  30
ENDBRANCH   1  29
TORSDOF 25
ENDMDL
