MODEL 1
REMARK VINA RESULT:      -9.0      0.000      0.000
REMARK SMILES NC(=O)c1ccsc1NS(=O)(=O)c1ccc(C(=O)OCCOCCOCCOCCOC(=O)c2ccc(-c3c4nc(c(-c5cc(S(=O)(=O)[O-])ccc5F)c5ccc([nH]5)c(-c5cc(S(=O)(=O)[O-])ccc5F)c5nc(c(-c6cc(S(=O)(=O)[O-])ccc6F)c6ccc3[nH]6)C=C5)C=C4)cc2)cc1
REMARK SMILES IDX 24 1 23 2 22 3 21 4 20 5 19 6 17 7 18 8 16 9 13 10 14 11
REMARK SMILES IDX 98 12 15 13 97 14 10 15 11 16 12 17 9 18 8 20 4 21 5 22 6 23
REMARK SMILES IDX 7 24 2 25 1 26 3 29 25 30 26 31 27 32 28 33 29 34 30 35
REMARK SMILES IDX 31 36 32 37 33 38 34 39 35 40 96 41 36 42 95 43 37 44 38 45
REMARK SMILES IDX 39 46 89 47 40 48 94 49 88 50 90 51 41 52 93 53 87 54 86 55
REMARK SMILES IDX 42 57 74 58 54 59 73 60 55 61 58 62 72 63 91 64 56 65 57 66
REMARK SMILES IDX 71 68 92 69 59 70 43 71 44 72 52 73 45 74 51 75 53 76 50 77
REMARK SMILES IDX 46 78 47 79 48 80 49 81 75 82 76 83 84 84 77 85 83 86 85 87
REMARK SMILES IDX 82 88 78 89 79 90 80 91 81 92 60 93 61 94 69 95 62 96 68 97
REMARK SMILES IDX 70 98 67 99 63 100 64 101 65 102 66 103
REMARK H PARENT 9 19 1 27 1 28 90 56 58 67
REMARK Flexibility Score: inf
ROOT
ATOM      1  C   UNL A   1      40.926  19.340  26.027  1.00  0.00     0.188 C 
ENDROOT
BRANCH   1   2
ATOM      2  C   UNL A   1      40.842  20.587  26.930  1.00  0.00     0.188 C 
BRANCH   2   3
ATOM      3  O   UNL A   1      40.370  21.744  26.266  1.00  0.00    -0.376 OA
BRANCH   3   4
ATOM      4  C   UNL A   1      38.996  22.087  26.271  1.00  0.00     0.202 C 
BRANCH   4   5
ATOM      5  C   UNL A   1      37.958  21.505  25.294  1.00  0.00     0.261 C 
BRANCH   5   6
ATOM      6  O   UNL A   1      36.604  21.435  25.736  1.00  0.00    -0.460 OA
BRANCH   6   7
ATOM      7  C   UNL A   1      35.759  20.690  25.001  1.00  0.00     0.338 C 
ATOM      8  O   UNL A   1      35.781  19.484  24.840  1.00  0.00    -0.246 OA
BRANCH   7   9
ATOM      9  C   UNL A   1      34.645  21.562  24.570  1.00  0.00     0.060 A 
ATOM     10  C   UNL A   1      32.643  23.400  24.092  1.00  0.00     0.087 A 
ATOM     11  C   UNL A   1      33.952  23.717  23.711  1.00  0.00     0.023 A 
ATOM     12  C   UNL A   1      32.300  22.107  24.511  1.00  0.00     0.023 A 
ATOM     13  C   UNL A   1      34.963  22.803  23.993  1.00  0.00     0.017 A 
ATOM     14  C   UNL A   1      33.311  21.177  24.747  1.00  0.00     0.017 A 
BRANCH  10  15
ATOM     15  S   UNL A   1      31.437  24.691  24.187  1.00  0.00     0.262 S 
ATOM     16  O   UNL A   1      31.028  24.811  25.571  1.00  0.00    -0.201 OA
ATOM     17  O   UNL A   1      30.449  24.415  23.161  1.00  0.00    -0.201 OA
BRANCH  15  18
ATOM     18  N   UNL A   1      32.163  26.161  23.764  1.00  0.00    -0.270 N 
ATOM     19  H   UNL A   1      33.103  26.134  23.473  1.00  0.00     0.181 HD
BRANCH  18  20
ATOM     20  C   UNL A   1      31.517  27.451  23.796  1.00  0.00     0.115 A 
ATOM     21  C   UNL A   1      31.764  28.387  24.802  1.00  0.00     0.074 A 
ATOM     22  C   UNL A   1      30.921  29.550  24.635  1.00  0.00     0.028 A 
ATOM     23  C   UNL A   1      30.156  29.491  23.494  1.00  0.00     0.068 A 
ATOM     24  S   UNL A   1      30.595  28.153  22.545  1.00  0.00    -0.125 S 
BRANCH  21  25
ATOM     25  C   UNL A   1      32.751  28.181  25.858  1.00  0.00     0.251 C 
ATOM     26  N   UNL A   1      32.520  28.799  27.051  1.00  0.00    -0.366 N 
ATOM     27  H   UNL A   1      33.156  28.690  27.793  1.00  0.00     0.159 HD
ATOM     28  H   UNL A   1      31.715  29.355  27.169  1.00  0.00     0.159 HD
ATOM     29  O   UNL A   1      33.755  27.484  25.713  1.00  0.00    -0.269 OA
ENDBRANCH  21  25
ENDBRANCH  18  20
ENDBRANCH  15  18
ENDBRANCH  10  15
ENDBRANCH   7   9
ENDBRANCH   6   7
ENDBRANCH   5   6
ENDBRANCH   4   5
ENDBRANCH   3   4
ENDBRANCH   2   3
ENDBRANCH   1   2
BRANCH   1  30
ATOM     30  O   UNL A   1      42.105  19.237  25.251  1.00  0.00    -0.377 OA
BRANCH  30  31
ATOM     31  C   UNL A   1      43.177  18.419  25.717  1.00  0.00     0.188 C 
BRANCH  31  32
ATOM     32  C   UNL A   1      44.659  18.873  25.687  1.00  0.00     0.188 C 
BRANCH  32  33
ATOM     33  O   UNL A   1      45.135  19.303  24.419  1.00  0.00    -0.376 OA
BRANCH  33  34
ATOM     34  C   UNL A   1      46.049  20.382  24.381  1.00  0.00     0.202 C 
BRANCH  34  35
ATOM     35  C   UNL A   1      45.817  21.504  25.402  1.00  0.00     0.261 C 
BRANCH  35  36
ATOM     36  O   UNL A   1      45.382  22.760  24.864  1.00  0.00    -0.460 OA
BRANCH  36  37
ATOM     37  C   UNL A   1      44.055  23.024  24.914  1.00  0.00     0.338 C 
ATOM     38  O   UNL A   1      43.153  22.294  24.560  1.00  0.00    -0.246 OA
BRANCH  37  39
ATOM     39  C   UNL A   1      43.887  24.288  25.663  1.00  0.00     0.060 A 
ATOM     40  C   UNL A   1      43.359  25.406  25.004  1.00  0.00     0.016 A 
ATOM     41  C   UNL A   1      44.228  24.357  27.015  1.00  0.00     0.016 A 
ATOM     42  C   UNL A   1      43.198  26.608  25.694  1.00  0.00     0.010 A 
ATOM     43  C   UNL A   1      44.086  25.567  27.697  1.00  0.00     0.010 A 
ATOM     44  C   UNL A   1      43.599  26.706  27.032  1.00  0.00    -0.014 A 
BRANCH  44  45
ATOM     45  C   UNL A   1      43.694  28.037  27.680  1.00  0.00     0.031 A 
ATOM     46  C   UNL A   1      42.444  28.629  28.274  1.00  0.00     0.074 A 
ATOM     47  C   UNL A   1      44.860  28.702  27.754  1.00  0.00     0.049 A 
ATOM     48  N   UNL A   1      42.258  29.797  28.831  1.00  0.00    -0.248 NA
ATOM     49  C   UNL A   1      41.243  27.783  28.224  1.00  0.00     0.031 C 
ATOM     50  C   UNL A   1      46.143  28.211  27.257  1.00  0.00     0.029 A 
ATOM     51  N   UNL A   1      45.149  29.941  28.269  1.00  0.00    -0.354 N 
ATOM     52  C   UNL A   1      40.915  29.830  29.194  1.00  0.00     0.074 A 
ATOM     53  C   UNL A   1      40.330  28.583  28.752  1.00  0.00     0.031 C 
ATOM     54  C   UNL A   1      47.083  29.148  27.480  1.00  0.00     0.029 A 
ATOM     55  C   UNL A   1      46.459  30.319  28.094  1.00  0.00     0.049 A 
ATOM     56  H   UNL A   1      44.481  30.506  28.721  1.00  0.00     0.167 HD
ATOM     57  C   UNL A   1      40.237  30.807  29.847  1.00  0.00     0.034 A 
ATOM     58  C   UNL A   1      47.074  31.489  28.368  1.00  0.00     0.034 A 
ATOM     59  C   UNL A   1      40.833  32.054  30.258  1.00  0.00     0.049 A 
ATOM     60  C   UNL A   1      46.277  32.607  28.998  1.00  0.00     0.074 A 
ATOM     61  C   UNL A   1      40.245  33.111  30.930  1.00  0.00     0.029 A 
ATOM     62  N   UNL A   1      42.151  32.425  30.017  1.00  0.00    -0.354 N 
ATOM     63  N   UNL A   1      45.010  32.628  29.347  1.00  0.00    -0.248 NA
ATOM     64  C   UNL A   1      46.995  33.859  29.276  1.00  0.00     0.031 C 
ATOM     65  C   UNL A   1      41.179  34.149  31.019  1.00  0.00     0.029 A 
ATOM     66  C   UNL A   1      42.382  33.709  30.491  1.00  0.00     0.049 A 
ATOM     67  H   UNL A   1      42.825  31.858  29.575  1.00  0.00     0.167 HD
ATOM     68  C   UNL A   1      44.790  33.882  29.913  1.00  0.00     0.074 A 
ATOM     69  C   UNL A   1      46.058  34.582  29.871  1.00  0.00     0.031 C 
ATOM     70  C   UNL A   1      43.647  34.405  30.428  1.00  0.00     0.034 A 
BRANCH  57  71
ATOM     71  C   UNL A   1      38.764  30.576  30.094  1.00  0.00     0.023 A 
ATOM     72  C   UNL A   1      37.780  31.089  29.230  1.00  0.00     0.031 A 
ATOM     73  C   UNL A   1      38.335  29.880  31.236  1.00  0.00     0.131 A 
ATOM     74  C   UNL A   1      36.423  30.976  29.568  1.00  0.00     0.055 A 
ATOM     75  C   UNL A   1      36.982  29.689  31.520  1.00  0.00     0.041 A 
ATOM     76  F   UNL A   1      39.226  29.389  32.114  1.00  0.00    -0.206 F 
ATOM     77  C   UNL A   1      36.015  30.255  30.693  1.00  0.00     0.022 A 
BRANCH  74  78
ATOM     78  S   UNL A   1      35.211  31.933  28.616  1.00  0.00     0.124 S 
ATOM     79  O   UNL A   1      34.576  32.731  29.662  1.00  0.00    -0.237 OA
ATOM     80  O   UNL A   1      36.054  32.663  27.677  1.00  0.00    -0.237 OA
ATOM     81  O   UNL A   1      34.356  30.907  28.020  1.00  0.00    -0.744 OA
ENDBRANCH  74  78
ENDBRANCH  57  71
BRANCH  58  82
ATOM     82  C   UNL A   1      48.509  31.687  28.004  1.00  0.00     0.023 A 
ATOM     83  C   UNL A   1      49.543  31.159  28.794  1.00  0.00     0.031 A 
ATOM     84  C   UNL A   1      48.866  32.451  26.878  1.00  0.00     0.131 A 
ATOM     85  C   UNL A   1      50.882  31.434  28.469  1.00  0.00     0.055 A 
ATOM     86  C   UNL A   1      50.198  32.674  26.528  1.00  0.00     0.041 A 
ATOM     87  F   UNL A   1      47.918  32.986  26.092  1.00  0.00    -0.206 F 
ATOM     88  C   UNL A   1      51.216  32.173  27.332  1.00  0.00     0.022 A 
BRANCH  85  89
ATOM     89  S   UNL A   1      52.185  30.876  29.600  1.00  0.00     0.124 S 
ATOM     90  O   UNL A   1      52.809  32.138  29.979  1.00  0.00    -0.237 OA
ATOM     91  O   UNL A   1      51.415  30.203  30.642  1.00  0.00    -0.237 OA
ATOM     92  O   UNL A   1      53.005  29.998  28.769  1.00  0.00    -0.744 OA
ENDBRANCH  85  89
ENDBRANCH  58  82
BRANCH  70  93
ATOM     93  C   UNL A   1      43.728  35.790  31.031  1.00  0.00     0.023 A 
ATOM     94  C   UNL A   1      43.737  35.999  32.421  1.00  0.00     0.031 A 
ATOM     95  C   UNL A   1      43.793  36.920  30.196  1.00  0.00     0.131 A 
ATOM     96  C   UNL A   1      43.751  37.306  32.932  1.00  0.00     0.055 A 
ATOM     97  C   UNL A   1      43.879  38.215  30.711  1.00  0.00     0.041 A 
ATOM     98  F   UNL A   1      43.782  36.785  28.859  1.00  0.00    -0.206 F 
ATOM     99  C   UNL A   1      43.843  38.413  32.087  1.00  0.00     0.022 A 
BRANCH  96 100
ATOM    100  S   UNL A   1      43.540  37.545  34.718  1.00  0.00     0.124 S 
ATOM    101  O   UNL A   1      43.997  36.265  35.252  1.00  0.00    -0.237 OA
ATOM    102  O   UNL A   1      44.403  38.692  34.985  1.00  0.00    -0.237 OA
ATOM    103  O   UNL A   1      42.108  37.801  34.864  1.00  0.00    -0.744 OA
ENDBRANCH  96 100
ENDBRANCH  70  93
ENDBRANCH  44  45
ENDBRANCH  37  39
ENDBRANCH  36  37
ENDBRANCH  35  36
ENDBRANCH  34  35
ENDBRANCH  33  34
ENDBRANCH  32  33
ENDBRANCH  31  32
ENDBRANCH  30  31
ENDBRANCH   1  30
TORSDOF 27
ENDMDL
MODEL 2
REMARK VINA RESULT:      -9.0      2.718      7.679
REMARK SMILES NC(=O)c1ccsc1NS(=O)(=O)c1ccc(C(=O)OCCOCCOCCOCCOC(=O)c2ccc(-c3c4nc(c(-c5cc(S(=O)(=O)[O-])ccc5F)c5ccc([nH]5)c(-c5cc(S(=O)(=O)[O-])ccc5F)c5nc(c(-c6cc(S(=O)(=O)[O-])ccc6F)c6ccc3[nH]6)C=C5)C=C4)cc2)cc1
REMARK SMILES IDX 24 1 23 2 22 3 21 4 20 5 19 6 17 7 18 8 16 9 13 10 14 11
REMARK SMILES IDX 98 12 15 13 97 14 10 15 11 16 12 17 9 18 8 20 4 21 5 22 6 23
REMARK SMILES IDX 7 24 2 25 1 26 3 29 25 30 26 31 27 32 28 33 29 34 30 35
REMARK SMILES IDX 31 36 32 37 33 38 34 39 35 40 96 41 36 42 95 43 37 44 38 45
REMARK SMILES IDX 39 46 89 47 40 48 94 49 88 50 90 51 41 52 93 53 87 54 86 55
REMARK SMILES IDX 42 57 74 58 54 59 73 60 55 61 58 62 72 63 91 64 56 65 57 66
REMARK SMILES IDX 71 68 92 69 59 70 43 71 44 72 52 73 45 74 51 75 53 76 50 77
REMARK SMILES IDX 46 78 47 79 48 80 49 81 75 82 76 83 84 84 77 85 83 86 85 87
REMARK SMILES IDX 82 88 78 89 79 90 80 91 81 92 60 93 61 94 69 95 62 96 68 97
REMARK SMILES IDX 70 98 67 99 63 100 64 101 65 102 66 103
REMARK H PARENT 9 19 1 27 1 28 90 56 58 67
REMARK Flexibility Score: inf
ROOT
ATOM      1  C   UNL A   1      42.591  20.204  26.124  1.00  0.00     0.188 C 
ENDROOT
BRANCH   1   2
ATOM      2  C   UNL A   1      41.669  19.550  27.173  1.00  0.00     0.188 C 
BRANCH   2   3
ATOM      3  O   UNL A   1      40.727  20.440  27.741  1.00  0.00    -0.376 OA
BRANCH   3   4
ATOM      4  C   UNL A   1      40.839  21.841  27.567  1.00  0.00     0.202 C 
BRANCH   4   5
ATOM      5  C   UNL A   1      40.093  22.637  26.481  1.00  0.00     0.261 C 
BRANCH   5   6
ATOM      6  O   UNL A   1      38.690  22.417  26.351  1.00  0.00    -0.460 OA
BRANCH   6   7
ATOM      7  C   UNL A   1      37.910  23.506  26.225  1.00  0.00     0.338 C 
ATOM      8  O   UNL A   1      38.208  24.664  26.454  1.00  0.00    -0.246 OA
BRANCH   7   9
ATOM      9  C   UNL A   1      36.660  23.091  25.551  1.00  0.00     0.060 A 
ATOM     10  C   UNL A   1      34.260  22.704  24.246  1.00  0.00     0.087 A 
ATOM     11  C   UNL A   1      35.410  22.932  23.483  1.00  0.00     0.023 A 
ATOM     12  C   UNL A   1      34.336  22.462  25.625  1.00  0.00     0.023 A 
ATOM     13  C   UNL A   1      36.610  23.167  24.148  1.00  0.00     0.017 A 
ATOM     14  C   UNL A   1      35.551  22.652  26.283  1.00  0.00     0.017 A 
BRANCH  10  15
ATOM     15  S   UNL A   1      32.673  22.871  23.483  1.00  0.00     0.262 S 
ATOM     16  O   UNL A   1      31.685  22.332  24.395  1.00  0.00    -0.201 OA
ATOM     17  O   UNL A   1      32.794  22.326  22.144  1.00  0.00    -0.201 OA
BRANCH  15  18
ATOM     18  N   UNL A   1      32.317  24.515  23.296  1.00  0.00    -0.270 N 
ATOM     19  H   UNL A   1      31.753  24.772  22.531  1.00  0.00     0.181 HD
BRANCH  18  20
ATOM     20  C   UNL A   1      32.774  25.573  24.165  1.00  0.00     0.115 A 
ATOM     21  C   UNL A   1      33.401  26.722  23.680  1.00  0.00     0.074 A 
ATOM     22  C   UNL A   1      33.830  27.568  24.772  1.00  0.00     0.028 A 
ATOM     23  C   UNL A   1      33.443  27.087  26.000  1.00  0.00     0.068 A 
ATOM     24  S   UNL A   1      32.414  25.747  25.823  1.00  0.00    -0.125 S 
BRANCH  21  25
ATOM     25  C   UNL A   1      33.578  26.994  22.257  1.00  0.00     0.251 C 
ATOM     26  N   UNL A   1      33.745  28.296  21.891  1.00  0.00    -0.366 N 
ATOM     27  H   UNL A   1      33.868  28.529  20.943  1.00  0.00     0.159 HD
ATOM     28  H   UNL A   1      33.744  29.004  22.577  1.00  0.00     0.159 HD
ATOM     29  O   UNL A   1      33.583  26.111  21.399  1.00  0.00    -0.269 OA
ENDBRANCH  21  25
ENDBRANCH  18  20
ENDBRANCH  15  18
ENDBRANCH  10  15
ENDBRANCH   7   9
ENDBRANCH   6   7
ENDBRANCH   5   6
ENDBRANCH   4   5
ENDBRANCH   3   4
ENDBRANCH   2   3
ENDBRANCH   1   2
BRANCH   1  30
ATOM     30  O   UNL A   1      42.944  19.374  25.033  1.00  0.00    -0.377 OA
BRANCH  30  31
ATOM     31  C   UNL A   1      44.252  18.805  24.984  1.00  0.00     0.188 C 
BRANCH  31  32
ATOM     32  C   UNL A   1      45.455  19.514  24.310  1.00  0.00     0.188 C 
BRANCH  32  33
ATOM     33  O   UNL A   1      45.593  20.894  24.617  1.00  0.00    -0.376 OA
BRANCH  33  34
ATOM     34  C   UNL A   1      44.980  21.833  23.753  1.00  0.00     0.202 C 
BRANCH  34  35
ATOM     35  C   UNL A   1      44.443  23.111  24.412  1.00  0.00     0.261 C 
BRANCH  35  36
ATOM     36  O   UNL A   1      45.335  24.233  24.421  1.00  0.00    -0.460 OA
BRANCH  36  37
ATOM     37  C   UNL A   1      46.073  24.422  25.540  1.00  0.00     0.338 C 
ATOM     38  O   UNL A   1      47.017  23.757  25.912  1.00  0.00    -0.246 OA
BRANCH  37  39
ATOM     39  C   UNL A   1      45.647  25.708  26.135  1.00  0.00     0.060 A 
ATOM     40  C   UNL A   1      45.072  26.684  25.310  1.00  0.00     0.016 A 
ATOM     41  C   UNL A   1      45.794  25.934  27.505  1.00  0.00     0.016 A 
ATOM     42  C   UNL A   1      44.669  27.904  25.853  1.00  0.00     0.010 A 
ATOM     43  C   UNL A   1      45.410  27.164  28.042  1.00  0.00     0.010 A 
ATOM     44  C   UNL A   1      44.874  28.166  27.214  1.00  0.00    -0.014 A 
BRANCH  44  45
ATOM     45  C   UNL A   1      44.711  29.546  27.734  1.00  0.00     0.031 A 
ATOM     46  C   UNL A   1      45.851  30.512  27.555  1.00  0.00     0.074 A 
ATOM     47  C   UNL A   1      43.577  29.940  28.340  1.00  0.00     0.049 A 
ATOM     48  N   UNL A   1      45.976  31.742  27.978  1.00  0.00    -0.248 NA
ATOM     49  C   UNL A   1      47.008  30.011  26.799  1.00  0.00     0.031 C 
ATOM     50  C   UNL A   1      42.390  29.110  28.530  1.00  0.00     0.029 A 
ATOM     51  N   UNL A   1      43.245  31.141  28.916  1.00  0.00    -0.354 N 
ATOM     52  C   UNL A   1      47.229  32.164  27.544  1.00  0.00     0.074 A 
ATOM     53  C   UNL A   1      47.838  31.040  26.866  1.00  0.00     0.031 C 
ATOM     54  C   UNL A   1      41.462  29.824  29.191  1.00  0.00     0.029 A 
ATOM     55  C   UNL A   1      42.005  31.144  29.510  1.00  0.00     0.049 A 
ATOM     56  H   UNL A   1      43.839  31.926  28.906  1.00  0.00     0.167 HD
ATOM     57  C   UNL A   1      47.811  33.380  27.688  1.00  0.00     0.034 A 
ATOM     58  C   UNL A   1      41.395  32.091  30.253  1.00  0.00     0.034 A 
ATOM     59  C   UNL A   1      47.197  34.481  28.390  1.00  0.00     0.049 A 
ATOM     60  C   UNL A   1      42.104  33.403  30.495  1.00  0.00     0.074 A 
ATOM     61  C   UNL A   1      47.691  35.757  28.592  1.00  0.00     0.029 A 
ATOM     62  N   UNL A   1      45.961  34.431  29.024  1.00  0.00    -0.354 N 
ATOM     63  N   UNL A   1      43.285  33.798  30.073  1.00  0.00    -0.248 NA
ATOM     64  C   UNL A   1      41.396  34.400  31.309  1.00  0.00     0.031 C 
ATOM     65  C   UNL A   1      46.797  36.448  29.417  1.00  0.00     0.029 A 
ATOM     66  C   UNL A   1      45.697  35.640  29.652  1.00  0.00     0.049 A 
ATOM     67  H   UNL A   1      45.360  33.651  29.027  1.00  0.00     0.167 HD
ATOM     68  C   UNL A   1      43.444  35.099  30.546  1.00  0.00     0.074 A 
ATOM     69  C   UNL A   1      42.233  35.425  31.272  1.00  0.00     0.031 C 
ATOM     70  C   UNL A   1      44.492  35.949  30.388  1.00  0.00     0.034 A 
BRANCH  57  71
ATOM     71  C   UNL A   1      49.203  33.548  27.126  1.00  0.00     0.023 A 
ATOM     72  C   UNL A   1      50.348  33.210  27.869  1.00  0.00     0.031 A 
ATOM     73  C   UNL A   1      49.392  34.104  25.849  1.00  0.00     0.131 A 
ATOM     74  C   UNL A   1      51.624  33.513  27.369  1.00  0.00     0.055 A 
ATOM     75  C   UNL A   1      50.665  34.317  25.317  1.00  0.00     0.041 A 
ATOM     76  F   UNL A   1      48.339  34.472  25.100  1.00  0.00    -0.206 F 
ATOM     77  C   UNL A   1      51.792  34.039  26.086  1.00  0.00     0.022 A 
BRANCH  74  78
ATOM     78  S   UNL A   1      53.047  33.375  28.486  1.00  0.00     0.124 S 
ATOM     79  O   UNL A   1      54.166  33.492  27.554  1.00  0.00    -0.237 OA
ATOM     80  O   UNL A   1      52.847  34.500  29.392  1.00  0.00    -0.237 OA
ATOM     81  O   UNL A   1      52.882  32.052  29.087  1.00  0.00    -0.744 OA
ENDBRANCH  74  78
ENDBRANCH  57  71
BRANCH  58  82
ATOM     82  C   UNL A   1      40.061  31.822  30.866  1.00  0.00     0.023 A 
ATOM     83  C   UNL A   1      39.921  30.956  31.963  1.00  0.00     0.031 A 
ATOM     84  C   UNL A   1      38.894  32.397  30.329  1.00  0.00     0.131 A 
ATOM     85  C   UNL A   1      38.642  30.662  32.463  1.00  0.00     0.055 A 
ATOM     86  C   UNL A   1      37.631  32.144  30.865  1.00  0.00     0.041 A 
ATOM     87  F   UNL A   1      38.968  33.225  29.275  1.00  0.00    -0.206 F 
ATOM     88  C   UNL A   1      37.499  31.262  31.933  1.00  0.00     0.022 A 
BRANCH  85  89
ATOM     89  S   UNL A   1      38.485  29.416  33.771  1.00  0.00     0.124 S 
ATOM     90  O   UNL A   1      37.364  28.617  33.288  1.00  0.00    -0.237 OA
ATOM     91  O   UNL A   1      39.795  28.772  33.737  1.00  0.00    -0.237 OA
ATOM     92  O   UNL A   1      38.216  30.210  34.967  1.00  0.00    -0.744 OA
ENDBRANCH  85  89
ENDBRANCH  58  82
BRANCH  70  93
ATOM     93  C   UNL A   1      44.354  37.336  30.976  1.00  0.00     0.023 A 
ATOM     94  C   UNL A   1      43.790  38.400  30.252  1.00  0.00     0.031 A 
ATOM     95  C   UNL A   1      44.800  37.596  32.286  1.00  0.00     0.131 A 
ATOM     96  C   UNL A   1      43.739  39.684  30.818  1.00  0.00     0.055 A 
ATOM     97  C   UNL A   1      44.682  38.858  32.869  1.00  0.00     0.041 A 
ATOM     98  F   UNL A   1      45.353  36.620  33.026  1.00  0.00    -0.206 F 
ATOM     99  C   UNL A   1      44.162  39.914  32.129  1.00  0.00     0.022 A 
BRANCH  96 100
ATOM    100  S   UNL A   1      43.210  41.075  29.780  1.00  0.00     0.124 S 
ATOM    101  O   UNL A   1      44.488  41.611  29.318  1.00  0.00    -0.237 OA
ATOM    102  O   UNL A   1      42.391  40.416  28.767  1.00  0.00    -0.237 OA
ATOM    103  O   UNL A   1      42.477  41.935  30.706  1.00  0.00    -0.744 OA
ENDBRANCH  96 100
ENDBRANCH  70  93
ENDBRANCH  44  45
ENDBRANCH  37  39
ENDBRANCH  36  37
ENDBRANCH  35  36
ENDBRANCH  34  35
ENDBRANCH  33  34
ENDBRANCH  32  33
ENDBRANCH  31  32
ENDBRANCH  30  31
ENDBRANCH   1  30
TORSDOF 27
ENDMDL
MODEL 3
REMARK VINA RESULT:      -8.9      1.919      2.275
REMARK SMILES NC(=O)c1ccsc1NS(=O)(=O)c1ccc(C(=O)OCCOCCOCCOCCOC(=O)c2ccc(-c3c4nc(c(-c5cc(S(=O)(=O)[O-])ccc5F)c5ccc([nH]5)c(-c5cc(S(=O)(=O)[O-])ccc5F)c5nc(c(-c6cc(S(=O)(=O)[O-])ccc6F)c6ccc3[nH]6)C=C5)C=C4)cc2)cc1
REMARK SMILES IDX 24 1 23 2 22 3 21 4 20 5 19 6 17 7 18 8 16 9 13 10 14 11
REMARK SMILES IDX 98 12 15 13 97 14 10 15 11 16 12 17 9 18 8 20 4 21 5 22 6 23
REMARK SMILES IDX 7 24 2 25 1 26 3 29 25 30 26 31 27 32 28 33 29 34 30 35
REMARK SMILES IDX 31 36 32 37 33 38 34 39 35 40 96 41 36 42 95 43 37 44 38 45
REMARK SMILES IDX 39 46 89 47 40 48 94 49 88 50 90 51 41 52 93 53 87 54 86 55
REMARK SMILES IDX 42 57 74 58 54 59 73 60 55 61 58 62 72 63 91 64 56 65 57 66
REMARK SMILES IDX 71 68 92 69 59 70 43 71 44 72 52 73 45 74 51 75 53 76 50 77
REMARK SMILES IDX 46 78 47 79 48 80 49 81 75 82 76 83 84 84 77 85 83 86 85 87
REMARK SMILES IDX 82 88 78 89 79 90 80 91 81 92 60 93 61 94 69 95 62 96 68 97
REMARK SMILES IDX 70 98 67 99 63 100 64 101 65 102 66 103
REMARK H PARENT 9 19 1 27 1 28 90 56 58 67
REMARK Flexibility Score: inf
ROOT
ATOM      1  C   UNL A   1      40.611  19.922  26.509  1.00  0.00     0.188 C 
ENDROOT
BRANCH   1   2
ATOM      2  C   UNL A   1      41.077  21.172  27.283  1.00  0.00     0.188 C 
BRANCH   2   3
ATOM      3  O   UNL A   1      40.752  22.394  26.648  1.00  0.00    -0.376 OA
BRANCH   3   4
ATOM      4  C   UNL A   1      39.417  22.860  26.588  1.00  0.00     0.202 C 
BRANCH   4   5
ATOM      5  C   UNL A   1      38.406  22.444  25.504  1.00  0.00     0.261 C 
BRANCH   5   6
ATOM      6  O   UNL A   1      37.197  21.821  25.936  1.00  0.00    -0.460 OA
BRANCH   6   7
ATOM      7  C   UNL A   1      36.641  20.923  25.103  1.00  0.00     0.338 C 
ATOM      8  O   UNL A   1      36.898  19.737  25.011  1.00  0.00    -0.246 OA
BRANCH   7   9
ATOM      9  C   UNL A   1      35.492  21.575  24.438  1.00  0.00     0.060 A 
ATOM     10  C   UNL A   1      33.362  23.052  23.493  1.00  0.00     0.087 A 
ATOM     11  C   UNL A   1      34.660  23.483  23.201  1.00  0.00     0.023 A 
ATOM     12  C   UNL A   1      33.123  21.795  24.065  1.00  0.00     0.023 A 
ATOM     13  C   UNL A   1      35.731  22.756  23.715  1.00  0.00     0.017 A 
ATOM     14  C   UNL A   1      34.200  21.046  24.537  1.00  0.00     0.017 A 
BRANCH  10  15
ATOM     15  S   UNL A   1      32.012  24.175  23.273  1.00  0.00     0.262 S 
ATOM     16  O   UNL A   1      30.786  23.407  23.332  1.00  0.00    -0.201 OA
ATOM     17  O   UNL A   1      32.315  24.966  22.096  1.00  0.00    -0.201 OA
BRANCH  15  18
ATOM     18  N   UNL A   1      31.973  25.256  24.575  1.00  0.00    -0.270 N 
ATOM     19  H   UNL A   1      31.871  24.875  25.477  1.00  0.00     0.181 HD
BRANCH  18  20
ATOM     20  C   UNL A   1      32.076  26.693  24.471  1.00  0.00     0.115 A 
ATOM     21  C   UNL A   1      30.980  27.502  24.170  1.00  0.00     0.074 A 
ATOM     22  C   UNL A   1      31.386  28.884  24.044  1.00  0.00     0.028 A 
ATOM     23  C   UNL A   1      32.716  29.075  24.333  1.00  0.00     0.068 A 
ATOM     24  S   UNL A   1      33.411  27.647  24.937  1.00  0.00    -0.125 S 
BRANCH  21  25
ATOM     25  C   UNL A   1      29.624  26.983  24.016  1.00  0.00     0.251 C 
ATOM     26  N   UNL A   1      29.304  25.865  24.727  1.00  0.00    -0.366 N 
ATOM     27  H   UNL A   1      28.402  25.478  24.656  1.00  0.00     0.159 HD
ATOM     28  H   UNL A   1      29.976  25.446  25.313  1.00  0.00     0.159 HD
ATOM     29  O   UNL A   1      28.782  27.508  23.287  1.00  0.00    -0.269 OA
ENDBRANCH  21  25
ENDBRANCH  18  20
ENDBRANCH  15  18
ENDBRANCH  10  15
ENDBRANCH   7   9
ENDBRANCH   6   7
ENDBRANCH   5   6
ENDBRANCH   4   5
ENDBRANCH   3   4
ENDBRANCH   2   3
ENDBRANCH   1   2
BRANCH   1  30
ATOM     30  O   UNL A   1      41.508  19.459  25.516  1.00  0.00    -0.377 OA
BRANCH  30  31
ATOM     31  C   UNL A   1      42.519  18.517  25.875  1.00  0.00     0.188 C 
BRANCH  31  32
ATOM     32  C   UNL A   1      44.022  18.737  25.569  1.00  0.00     0.188 C 
BRANCH  32  33
ATOM     33  O   UNL A   1      44.301  19.385  24.335  1.00  0.00    -0.376 OA
BRANCH  33  34
ATOM     34  C   UNL A   1      45.422  20.247  24.273  1.00  0.00     0.202 C 
BRANCH  34  35
ATOM     35  C   UNL A   1      45.517  21.315  25.371  1.00  0.00     0.261 C 
BRANCH  35  36
ATOM     36  O   UNL A   1      45.485  22.677  24.924  1.00  0.00    -0.460 OA
BRANCH  36  37
ATOM     37  C   UNL A   1      44.268  23.205  24.651  1.00  0.00     0.338 C 
ATOM     38  O   UNL A   1      43.393  22.708  23.974  1.00  0.00    -0.246 OA
BRANCH  37  39
ATOM     39  C   UNL A   1      44.118  24.416  25.489  1.00  0.00     0.060 A 
ATOM     40  C   UNL A   1      43.365  25.492  25.002  1.00  0.00     0.016 A 
ATOM     41  C   UNL A   1      44.699  24.472  26.756  1.00  0.00     0.016 A 
ATOM     42  C   UNL A   1      43.216  26.643  25.776  1.00  0.00     0.010 A 
ATOM     43  C   UNL A   1      44.567  25.634  27.520  1.00  0.00     0.010 A 
ATOM     44  C   UNL A   1      43.850  26.736  27.021  1.00  0.00    -0.014 A 
BRANCH  44  45
ATOM     45  C   UNL A   1      43.931  28.045  27.715  1.00  0.00     0.031 A 
ATOM     46  C   UNL A   1      42.667  28.624  28.290  1.00  0.00     0.074 A 
ATOM     47  C   UNL A   1      45.098  28.701  27.845  1.00  0.00     0.049 A 
ATOM     48  N   UNL A   1      42.469  29.774  28.878  1.00  0.00    -0.248 NA
ATOM     49  C   UNL A   1      41.464  27.786  28.176  1.00  0.00     0.031 C 
ATOM     50  C   UNL A   1      46.393  28.219  27.371  1.00  0.00     0.029 A 
ATOM     51  N   UNL A   1      45.377  29.921  28.409  1.00  0.00    -0.354 N 
ATOM     52  C   UNL A   1      41.116  29.802  29.201  1.00  0.00     0.074 A 
ATOM     53  C   UNL A   1      40.539  28.573  28.701  1.00  0.00     0.031 C 
ATOM     54  C   UNL A   1      47.329  29.144  27.653  1.00  0.00     0.029 A 
ATOM     55  C   UNL A   1      46.693  30.298  28.286  1.00  0.00     0.049 A 
ATOM     56  H   UNL A   1      44.697  30.475  28.858  1.00  0.00     0.167 HD
ATOM     57  C   UNL A   1      40.422  30.760  29.865  1.00  0.00     0.034 A 
ATOM     58  C   UNL A   1      47.304  31.455  28.615  1.00  0.00     0.034 A 
ATOM     59  C   UNL A   1      41.011  31.991  30.334  1.00  0.00     0.049 A 
ATOM     60  C   UNL A   1      46.493  32.557  29.257  1.00  0.00     0.074 A 
ATOM     61  C   UNL A   1      40.407  33.028  31.022  1.00  0.00     0.029 A 
ATOM     62  N   UNL A   1      42.337  32.362  30.145  1.00  0.00    -0.354 N 
ATOM     63  N   UNL A   1      45.216  32.572  29.568  1.00  0.00    -0.248 NA
ATOM     64  C   UNL A   1      47.207  33.795  29.597  1.00  0.00     0.031 C 
ATOM     65  C   UNL A   1      41.342  34.058  31.173  1.00  0.00     0.029 A 
ATOM     66  C   UNL A   1      42.558  33.629  30.667  1.00  0.00     0.049 A 
ATOM     67  H   UNL A   1      43.021  31.807  29.705  1.00  0.00     0.167 HD
ATOM     68  C   UNL A   1      44.984  33.808  30.168  1.00  0.00     0.074 A 
ATOM     69  C   UNL A   1      46.255  34.503  30.187  1.00  0.00     0.031 C 
ATOM     70  C   UNL A   1      43.827  34.320  30.665  1.00  0.00     0.034 A 
BRANCH  57  71
ATOM     71  C   UNL A   1      38.942  30.530  30.059  1.00  0.00     0.023 A 
ATOM     72  C   UNL A   1      37.987  31.072  29.181  1.00  0.00     0.031 A 
ATOM     73  C   UNL A   1      38.475  29.803  31.168  1.00  0.00     0.131 A 
ATOM     74  C   UNL A   1      36.619  30.955  29.474  1.00  0.00     0.055 A 
ATOM     75  C   UNL A   1      37.113  29.610  31.404  1.00  0.00     0.041 A 
ATOM     76  F   UNL A   1      39.337  29.283  32.058  1.00  0.00    -0.206 F 
ATOM     77  C   UNL A   1      36.174  30.204  30.565  1.00  0.00     0.022 A 
BRANCH  74  78
ATOM     78  S   UNL A   1      35.441  31.944  28.512  1.00  0.00     0.124 S 
ATOM     79  O   UNL A   1      36.312  32.969  27.943  1.00  0.00    -0.237 OA
ATOM     80  O   UNL A   1      34.902  30.968  27.573  1.00  0.00    -0.237 OA
ATOM     81  O   UNL A   1      34.498  32.428  29.520  1.00  0.00    -0.744 OA
ENDBRANCH  74  78
ENDBRANCH  57  71
BRANCH  58  82
ATOM     82  C   UNL A   1      48.750  31.657  28.302  1.00  0.00     0.023 A 
ATOM     83  C   UNL A   1      49.159  32.448  27.217  1.00  0.00     0.031 A 
ATOM     84  C   UNL A   1      49.746  31.020  29.064  1.00  0.00     0.131 A 
ATOM     85  C   UNL A   1      50.524  32.551  26.901  1.00  0.00     0.055 A 
ATOM     86  C   UNL A   1      51.104  31.170  28.780  1.00  0.00     0.041 A 
ATOM     87  F   UNL A   1      49.411  30.245  30.108  1.00  0.00    -0.206 F 
ATOM     88  C   UNL A   1      51.499  31.931  27.685  1.00  0.00     0.022 A 
BRANCH  85  89
ATOM     89  S   UNL A   1      51.006  33.445  25.398  1.00  0.00     0.124 S 
ATOM     90  O   UNL A   1      52.080  34.298  25.892  1.00  0.00    -0.237 OA
ATOM     91  O   UNL A   1      51.406  32.356  24.513  1.00  0.00    -0.237 OA
ATOM     92  O   UNL A   1      49.782  34.142  25.010  1.00  0.00    -0.744 OA
ENDBRANCH  85  89
ENDBRANCH  58  82
BRANCH  70  93
ATOM     93  C   UNL A   1      43.896  35.685  31.314  1.00  0.00     0.023 A 
ATOM     94  C   UNL A   1      43.796  36.872  30.568  1.00  0.00     0.031 A 
ATOM     95  C   UNL A   1      44.069  35.796  32.707  1.00  0.00     0.131 A 
ATOM     96  C   UNL A   1      43.928  38.114  31.207  1.00  0.00     0.055 A 
ATOM     97  C   UNL A   1      44.128  37.035  33.346  1.00  0.00     0.041 A 
ATOM     98  F   UNL A   1      44.177  34.698  33.473  1.00  0.00    -0.206 F 
ATOM     99  C   UNL A   1      44.071  38.204  32.593  1.00  0.00     0.022 A 
BRANCH  96 100
ATOM    100  S   UNL A   1      44.015  39.614  30.190  1.00  0.00     0.124 S 
ATOM    101  O   UNL A   1      43.170  39.258  29.053  1.00  0.00    -0.237 OA
ATOM    102  O   UNL A   1      43.481  40.633  31.087  1.00  0.00    -0.237 OA
ATOM    103  O   UNL A   1      45.439  39.741  29.887  1.00  0.00    -0.744 OA
ENDBRANCH  96 100
ENDBRANCH  70  93
ENDBRANCH  44  45
ENDBRANCH  37  39
ENDBRANCH  36  37
ENDBRANCH  35  36
ENDBRANCH  34  35
ENDBRANCH  33  34
ENDBRANCH  32  33
ENDBRANCH  31  32
ENDBRANCH  30  31
ENDBRANCH   1  30
TORSDOF 27
ENDMDL
