MODEL 1
REMARK VINA RESULT:      -8.1      0.000      0.000
REMARK SMILES NC(=O)[C@@H]1CCC[N@H+]1[C@@H](C(=O)OCCOCCOCCOCCOC(=O)c1ccc(-c2c3nc(c(-c4cc(S(=O)(=O)[O-])ccc4F)c4ccc([nH]4)c(-c4cc(S(=O)(=O)[O-])ccc4F)c4nc(c(-c5cc(S(=O)(=O)[O-])ccc5F)c5ccc2[nH]5)C=C4)C=C3)cc1)c1c[nH]c2cc(OCc3ccccc3)ccc12
REMARK SMILES IDX 17 1 16 2 15 3 14 4 13 5 12 6 10 7 11 8 9 9 8 10 4 11 5 12
REMARK SMILES IDX 6 13 7 14 2 16 1 17 3 20 90 21 91 22 106 23 92 24 93 25
REMARK SMILES IDX 105 26 94 28 104 29 95 30 96 31 97 32 98 33 99 34 103 35
REMARK SMILES IDX 100 36 102 37 101 38 18 39 19 40 20 41 21 42 22 43 23 44
REMARK SMILES IDX 24 45 25 46 26 47 27 48 28 49 89 50 29 51 88 52 30 53 31 54
REMARK SMILES IDX 32 55 82 56 33 57 87 58 81 59 83 60 34 61 86 62 80 63 79 64
REMARK SMILES IDX 35 66 67 67 47 68 66 69 48 70 51 71 65 72 84 73 49 74 50 75
REMARK SMILES IDX 64 77 85 78 52 79 36 80 37 81 45 82 38 83 44 84 46 85 43 86
REMARK SMILES IDX 39 87 40 88 41 89 42 90 68 91 69 92 77 93 70 94 76 95 78 96
REMARK SMILES IDX 75 97 71 98 72 99 73 100 74 101 53 102 54 103 62 104 55 105
REMARK SMILES IDX 61 106 63 107 60 108 56 109 57 110 58 111 59 112
REMARK H PARENT 8 15 1 18 1 19 92 27 83 65 51 76
REMARK Flexibility Score: inf
ROOT
ATOM      1  C   UNL A   1      40.752  24.760  27.693  1.00  0.00     0.188 C 
ENDROOT
BRANCH   1   2
ATOM      2  C   UNL A   1      39.845  23.623  27.216  1.00  0.00     0.188 C 
BRANCH   2   3
ATOM      3  O   UNL A   1      38.482  23.865  26.894  1.00  0.00    -0.376 OA
BRANCH   3   4
ATOM      4  C   UNL A   1      37.819  22.982  26.003  1.00  0.00     0.202 C 
BRANCH   4   5
ATOM      5  C   UNL A   1      36.780  23.570  25.032  1.00  0.00     0.261 C 
BRANCH   5   6
ATOM      6  O   UNL A   1      35.456  23.749  25.567  1.00  0.00    -0.459 OA
BRANCH   6   7
ATOM      7  C   UNL A   1      34.839  22.725  26.247  1.00  0.00     0.370 C 
ATOM      8  O   UNL A   1      34.923  22.577  27.463  1.00  0.00    -0.245 OA
BRANCH   7   9
ATOM      9  C   UNL A   1      34.021  21.769  25.298  1.00  0.00     0.329 C 
BRANCH   9  10
ATOM     10  N   UNL A   1      34.707  20.454  25.089  1.00  0.00    -0.309 N 
ATOM     11  C   UNL A   1      34.121  19.363  24.286  1.00  0.00     0.275 C 
ATOM     12  C   UNL A   1      34.996  18.217  24.802  1.00  0.00     0.081 C 
ATOM     13  C   UNL A   1      36.388  18.822  24.878  1.00  0.00     0.068 C 
ATOM     14  C   UNL A   1      36.145  20.328  24.901  1.00  0.00     0.264 C 
ATOM     15  H   UNL A   1      34.461  20.357  26.074  1.00  0.00     0.349 HD
BRANCH  11  16
ATOM     16  C   UNL A   1      32.614  19.120  24.415  1.00  0.00     0.275 C 
ATOM     17  N   UNL A   1      32.032  18.300  23.490  1.00  0.00    -0.365 N 
ATOM     18  H   UNL A   1      31.065  18.115  23.535  1.00  0.00     0.159 HD
ATOM     19  H   UNL A   1      32.577  17.893  22.779  1.00  0.00     0.159 HD
ATOM     20  O   UNL A   1      31.905  19.713  25.227  1.00  0.00    -0.268 OA
ENDBRANCH  11  16
ENDBRANCH   9  10
BRANCH   9  21
ATOM     21  C   UNL A   1      33.581  22.431  23.938  1.00  0.00     0.046 A 
ATOM     22  C   UNL A   1      34.462  22.692  22.894  1.00  0.00     0.094 A 
ATOM     23  C   UNL A   1      32.521  23.343  23.562  1.00  0.00     0.009 A 
ATOM     24  N   UNL A   1      34.471  24.059  22.805  1.00  0.00    -0.361 N 
ATOM     25  C   UNL A   1      33.200  24.480  23.111  1.00  0.00     0.050 A 
ATOM     26  C   UNL A   1      31.112  23.432  23.551  1.00  0.00     0.015 A 
ATOM     27  H   UNL A   1      35.239  24.628  22.569  1.00  0.00     0.166 HD
ATOM     28  C   UNL A   1      32.611  25.739  23.020  1.00  0.00     0.073 A 
ATOM     29  C   UNL A   1      30.476  24.676  23.324  1.00  0.00     0.047 A 
ATOM     30  C   UNL A   1      31.226  25.836  23.171  1.00  0.00     0.121 A 
BRANCH  30  31
ATOM     31  O   UNL A   1      30.790  27.127  23.154  1.00  0.00    -0.489 OA
BRANCH  31  32
ATOM     32  C   UNL A   1      30.104  27.714  24.257  1.00  0.00     0.265 C 
BRANCH  32  33
ATOM     33  C   UNL A   1      31.107  28.240  25.257  1.00  0.00    -0.011 A 
ATOM     34  C   UNL A   1      31.380  27.535  26.439  1.00  0.00     0.007 A 
ATOM     35  C   UNL A   1      31.755  29.465  25.041  1.00  0.00     0.007 A 
ATOM     36  C   UNL A   1      32.295  28.037  27.368  1.00  0.00     0.000 A 
ATOM     37  C   UNL A   1      32.672  29.962  25.965  1.00  0.00     0.000 A 
ATOM     38  C   UNL A   1      32.942  29.248  27.128  1.00  0.00     0.000 A 
ENDBRANCH  32  33
ENDBRANCH  31  32
ENDBRANCH  30  31
ENDBRANCH   9  21
ENDBRANCH   7   9
ENDBRANCH   6   7
ENDBRANCH   5   6
ENDBRANCH   4   5
ENDBRANCH   3   4
ENDBRANCH   2   3
ENDBRANCH   1   2
BRANCH   1  39
ATOM     39  O   UNL A   1      40.749  25.886  26.844  1.00  0.00    -0.377 OA
BRANCH  39  40
ATOM     40  C   UNL A   1      41.647  25.809  25.760  1.00  0.00     0.188 C 
BRANCH  40  41
ATOM     41  C   UNL A   1      42.568  24.586  25.817  1.00  0.00     0.188 C 
BRANCH  41  42
ATOM     42  O   UNL A   1      43.615  24.705  26.782  1.00  0.00    -0.376 OA
BRANCH  42  43
ATOM     43  C   UNL A   1      44.450  23.572  26.994  1.00  0.00     0.202 C 
BRANCH  43  44
ATOM     44  C   UNL A   1      45.817  23.806  27.665  1.00  0.00     0.261 C 
BRANCH  44  45
ATOM     45  O   UNL A   1      46.928  24.045  26.784  1.00  0.00    -0.460 OA
BRANCH  45  46
ATOM     46  C   UNL A   1      46.727  24.826  25.703  1.00  0.00     0.338 C 
ATOM     47  O   UNL A   1      46.453  24.464  24.571  1.00  0.00    -0.246 OA
BRANCH  46  48
ATOM     48  C   UNL A   1      46.647  26.215  26.185  1.00  0.00     0.060 A 
ATOM     49  C   UNL A   1      47.281  26.538  27.391  1.00  0.00     0.016 A 
ATOM     50  C   UNL A   1      45.987  27.196  25.440  1.00  0.00     0.016 A 
ATOM     51  C   UNL A   1      47.256  27.845  27.863  1.00  0.00     0.010 A 
ATOM     52  C   UNL A   1      45.917  28.497  25.940  1.00  0.00     0.010 A 
ATOM     53  C   UNL A   1      46.526  28.814  27.167  1.00  0.00    -0.014 A 
BRANCH  53  54
ATOM     54  C   UNL A   1      46.174  30.062  27.877  1.00  0.00     0.031 A 
ATOM     55  C   UNL A   1      47.178  31.180  27.838  1.00  0.00     0.074 A 
ATOM     56  C   UNL A   1      44.979  30.220  28.470  1.00  0.00     0.049 A 
ATOM     57  N   UNL A   1      47.125  32.366  28.381  1.00  0.00    -0.248 NA
ATOM     58  C   UNL A   1      48.411  30.919  27.076  1.00  0.00     0.031 C 
ATOM     59  C   UNL A   1      43.909  29.225  28.491  1.00  0.00     0.029 A 
ATOM     60  N   UNL A   1      44.466  31.285  29.163  1.00  0.00    -0.354 N 
ATOM     61  C   UNL A   1      48.314  32.994  28.023  1.00  0.00     0.074 A 
ATOM     62  C   UNL A   1      49.083  32.044  27.252  1.00  0.00     0.031 C 
ATOM     63  C   UNL A   1      42.865  29.726  29.178  1.00  0.00     0.029 A 
ATOM     64  C   UNL A   1      43.211  31.058  29.674  1.00  0.00     0.049 A 
ATOM     65  H   UNL A   1      44.951  32.134  29.284  1.00  0.00     0.167 HD
ATOM     66  C   UNL A   1      48.720  34.254  28.309  1.00  0.00     0.034 A 
ATOM     67  C   UNL A   1      42.446  31.832  30.471  1.00  0.00     0.034 A 
ATOM     68  C   UNL A   1      47.945  35.173  29.101  1.00  0.00     0.049 A 
ATOM     69  C   UNL A   1      42.971  33.192  30.874  1.00  0.00     0.074 A 
ATOM     70  C   UNL A   1      48.256  36.468  29.471  1.00  0.00     0.029 A 
ATOM     71  N   UNL A   1      46.706  34.885  29.662  1.00  0.00    -0.354 N 
ATOM     72  N   UNL A   1      44.100  33.776  30.541  1.00  0.00    -0.248 NA
ATOM     73  C   UNL A   1      42.114  34.000  31.752  1.00  0.00     0.031 C 
ATOM     74  C   UNL A   1      47.247  36.933  30.320  1.00  0.00     0.029 A 
ATOM     75  C   UNL A   1      46.258  35.964  30.406  1.00  0.00     0.049 A 
ATOM     76  H   UNL A   1      46.218  34.037  29.547  1.00  0.00     0.167 HD
ATOM     77  C   UNL A   1      44.070  35.034  31.139  1.00  0.00     0.074 A 
ATOM     78  C   UNL A   1      42.808  35.125  31.843  1.00  0.00     0.031 C 
ATOM     79  C   UNL A   1      44.996  36.028  31.106  1.00  0.00     0.034 A 
BRANCH  66  80
ATOM     80  C   UNL A   1      50.088  34.667  27.820  1.00  0.00     0.023 A 
ATOM     81  C   UNL A   1      50.284  35.217  26.540  1.00  0.00     0.031 A 
ATOM     82  C   UNL A   1      51.218  34.457  28.627  1.00  0.00     0.131 A 
ATOM     83  C   UNL A   1      51.586  35.469  26.081  1.00  0.00     0.055 A 
ATOM     84  C   UNL A   1      52.503  34.790  28.196  1.00  0.00     0.041 A 
ATOM     85  F   UNL A   1      51.096  33.903  29.843  1.00  0.00    -0.206 F 
ATOM     86  C   UNL A   1      52.694  35.286  26.909  1.00  0.00     0.022 A 
BRANCH  83  87
ATOM     87  S   UNL A   1      51.822  35.892  24.332  1.00  0.00     0.124 S 
ATOM     88  O   UNL A   1      50.501  36.399  23.970  1.00  0.00    -0.237 OA
ATOM     89  O   UNL A   1      52.892  36.881  24.388  1.00  0.00    -0.237 OA
ATOM     90  O   UNL A   1      52.182  34.617  23.717  1.00  0.00    -0.744 OA
ENDBRANCH  83  87
ENDBRANCH  66  80
BRANCH  67  91
ATOM     91  C   UNL A   1      41.135  31.335  30.983  1.00  0.00     0.023 A 
ATOM     92  C   UNL A   1      39.934  31.621  30.314  1.00  0.00     0.031 A 
ATOM     93  C   UNL A   1      41.059  30.617  32.190  1.00  0.00     0.131 A 
ATOM     94  C   UNL A   1      38.708  31.235  30.882  1.00  0.00     0.055 A 
ATOM     95  C   UNL A   1      39.842  30.185  32.720  1.00  0.00     0.041 A 
ATOM     96  F   UNL A   1      42.175  30.318  32.876  1.00  0.00    -0.206 F 
ATOM     97  C   UNL A   1      38.655  30.507  32.071  1.00  0.00     0.022 A 
BRANCH  94  98
ATOM     98  S   UNL A   1      37.172  31.786  30.087  1.00  0.00     0.124 S 
ATOM     99  O   UNL A   1      37.675  32.386  28.857  1.00  0.00    -0.237 OA
ATOM    100  O   UNL A   1      36.442  30.532  29.940  1.00  0.00    -0.237 OA
ATOM    101  O   UNL A   1      36.609  32.725  31.056  1.00  0.00    -0.744 OA
ENDBRANCH  94  98
ENDBRANCH  67  91
BRANCH  79 102
ATOM    102  C   UNL A   1      44.648  37.319  31.808  1.00  0.00     0.023 A 
ATOM    103  C   UNL A   1      44.912  37.516  33.175  1.00  0.00     0.031 A 
ATOM    104  C   UNL A   1      44.046  38.370  31.093  1.00  0.00     0.131 A 
ATOM    105  C   UNL A   1      44.523  38.713  33.795  1.00  0.00     0.055 A 
ATOM    106  C   UNL A   1      43.725  39.585  31.699  1.00  0.00     0.041 A 
ATOM    107  F   UNL A   1      43.770  38.237  29.786  1.00  0.00    -0.206 F 
ATOM    108  C   UNL A   1      43.950  39.756  33.062  1.00  0.00     0.022 A 
BRANCH 105 109
ATOM    109  S   UNL A   1      44.686  38.853  35.596  1.00  0.00     0.124 S 
ATOM    110  O   UNL A   1      43.891  37.719  36.060  1.00  0.00    -0.237 OA
ATOM    111  O   UNL A   1      46.128  38.741  35.789  1.00  0.00    -0.237 OA
ATOM    112  O   UNL A   1      44.120  40.168  35.890  1.00  0.00    -0.744 OA
ENDBRANCH 105 109
ENDBRANCH  79 102
ENDBRANCH  53  54
ENDBRANCH  46  48
ENDBRANCH  45  46
ENDBRANCH  44  45
ENDBRANCH  43  44
ENDBRANCH  42  43
ENDBRANCH  41  42
ENDBRANCH  40  41
ENDBRANCH  39  40
ENDBRANCH   1  39
TORSDOF 29
ENDMDL
MODEL 2
REMARK VINA RESULT:      -7.8      7.858     11.284
REMARK SMILES NC(=O)[C@@H]1CCC[N@H+]1[C@@H](C(=O)OCCOCCOCCOCCOC(=O)c1ccc(-c2c3nc(c(-c4cc(S(=O)(=O)[O-])ccc4F)c4ccc([nH]4)c(-c4cc(S(=O)(=O)[O-])ccc4F)c4nc(c(-c5cc(S(=O)(=O)[O-])ccc5F)c5ccc2[nH]5)C=C4)C=C3)cc1)c1c[nH]c2cc(OCc3ccccc3)ccc12
REMARK SMILES IDX 17 1 16 2 15 3 14 4 13 5 12 6 10 7 11 8 9 9 8 10 4 11 5 12
REMARK SMILES IDX 6 13 7 14 2 16 1 17 3 20 90 21 91 22 106 23 92 24 93 25
REMARK SMILES IDX 105 26 94 28 104 29 95 30 96 31 97 32 98 33 99 34 103 35
REMARK SMILES IDX 100 36 102 37 101 38 18 39 19 40 20 41 21 42 22 43 23 44
REMARK SMILES IDX 24 45 25 46 26 47 27 48 28 49 89 50 29 51 88 52 30 53 31 54
REMARK SMILES IDX 32 55 82 56 33 57 87 58 81 59 83 60 34 61 86 62 80 63 79 64
REMARK SMILES IDX 35 66 67 67 47 68 66 69 48 70 51 71 65 72 84 73 49 74 50 75
REMARK SMILES IDX 64 77 85 78 52 79 36 80 37 81 45 82 38 83 44 84 46 85 43 86
REMARK SMILES IDX 39 87 40 88 41 89 42 90 68 91 69 92 77 93 70 94 76 95 78 96
REMARK SMILES IDX 75 97 71 98 72 99 73 100 74 101 53 102 54 103 62 104 55 105
REMARK SMILES IDX 61 106 63 107 60 108 56 109 57 110 58 111 59 112
REMARK H PARENT 8 15 1 18 1 19 92 27 83 65 51 76
REMARK Flexibility Score: inf
ROOT
ATOM      1  C   UNL A   1      46.581  27.493  32.154  1.00  0.00     0.188 C 
ENDROOT
BRANCH   1   2
ATOM      2  C   UNL A   1      46.646  25.985  31.900  1.00  0.00     0.188 C 
BRANCH   2   3
ATOM      3  O   UNL A   1      45.964  25.074  32.750  1.00  0.00    -0.376 OA
BRANCH   3   4
ATOM      4  C   UNL A   1      44.584  24.827  32.529  1.00  0.00     0.202 C 
BRANCH   4   5
ATOM      5  C   UNL A   1      44.191  23.687  31.573  1.00  0.00     0.261 C 
BRANCH   5   6
ATOM      6  O   UNL A   1      43.708  24.097  30.280  1.00  0.00    -0.459 OA
BRANCH   6   7
ATOM      7  C   UNL A   1      44.476  23.894  29.157  1.00  0.00     0.370 C 
ATOM      8  O   UNL A   1      45.600  24.366  29.016  1.00  0.00    -0.245 OA
BRANCH   7   9
ATOM      9  C   UNL A   1      43.755  22.996  28.080  1.00  0.00     0.329 C 
BRANCH   9  10
ATOM     10  N   UNL A   1      43.943  23.518  26.689  1.00  0.00    -0.309 N 
ATOM     11  C   UNL A   1      43.600  22.735  25.486  1.00  0.00     0.275 C 
ATOM     12  C   UNL A   1      44.397  23.549  24.462  1.00  0.00     0.081 C 
ATOM     13  C   UNL A   1      44.154  24.992  24.868  1.00  0.00     0.068 C 
ATOM     14  C   UNL A   1      43.692  24.904  26.320  1.00  0.00     0.264 C 
ATOM     15  H   UNL A   1      44.921  23.384  26.948  1.00  0.00     0.349 HD
BRANCH  11  16
ATOM     16  C   UNL A   1      43.925  21.238  25.500  1.00  0.00     0.275 C 
ATOM     17  N   UNL A   1      45.246  20.885  25.485  1.00  0.00    -0.365 N 
ATOM     18  H   UNL A   1      45.501  19.934  25.493  1.00  0.00     0.159 HD
ATOM     19  H   UNL A   1      45.941  21.581  25.466  1.00  0.00     0.159 HD
ATOM     20  O   UNL A   1      43.066  20.363  25.405  1.00  0.00    -0.268 OA
ENDBRANCH  11  16
ENDBRANCH   9  10
BRANCH   9  21
ATOM     21  C   UNL A   1      42.244  22.691  28.400  1.00  0.00     0.046 A 
ATOM     22  C   UNL A   1      41.757  21.413  28.650  1.00  0.00     0.094 A 
ATOM     23  C   UNL A   1      40.994  23.336  28.053  1.00  0.00     0.009 A 
ATOM     24  N   UNL A   1      40.908  21.173  27.603  1.00  0.00    -0.361 N 
ATOM     25  C   UNL A   1      40.320  22.375  27.292  1.00  0.00     0.050 A 
ATOM     26  C   UNL A   1      40.321  24.567  28.213  1.00  0.00     0.015 A 
ATOM     27  H   UNL A   1      40.750  20.309  27.160  1.00  0.00     0.166 HD
ATOM     28  C   UNL A   1      39.271  22.680  26.427  1.00  0.00     0.073 A 
ATOM     29  C   UNL A   1      39.167  24.856  27.447  1.00  0.00     0.047 A 
ATOM     30  C   UNL A   1      38.716  23.960  26.484  1.00  0.00     0.121 A 
BRANCH  30  31
ATOM     31  O   UNL A   1      37.766  24.157  25.526  1.00  0.00    -0.489 OA
BRANCH  31  32
ATOM     32  C   UNL A   1      37.181  23.079  24.800  1.00  0.00     0.265 C 
BRANCH  32  33
ATOM     33  C   UNL A   1      35.676  23.223  24.801  1.00  0.00    -0.011 A 
ATOM     34  C   UNL A   1      35.062  24.333  25.401  1.00  0.00     0.007 A 
ATOM     35  C   UNL A   1      34.864  22.228  24.237  1.00  0.00     0.007 A 
ATOM     36  C   UNL A   1      33.670  24.450  25.413  1.00  0.00     0.000 A 
ATOM     37  C   UNL A   1      33.476  22.349  24.245  1.00  0.00     0.000 A 
ATOM     38  C   UNL A   1      32.878  23.459  24.833  1.00  0.00     0.000 A 
ENDBRANCH  32  33
ENDBRANCH  31  32
ENDBRANCH  30  31
ENDBRANCH   9  21
ENDBRANCH   7   9
ENDBRANCH   6   7
ENDBRANCH   5   6
ENDBRANCH   4   5
ENDBRANCH   3   4
ENDBRANCH   2   3
ENDBRANCH   1   2
BRANCH   1  39
ATOM     39  O   UNL A   1      45.673  28.174  31.318  1.00  0.00    -0.377 OA
BRANCH  39  40
ATOM     40  C   UNL A   1      46.066  29.479  30.959  1.00  0.00     0.188 C 
BRANCH  40  41
ATOM     41  C   UNL A   1      45.284  30.044  29.767  1.00  0.00     0.188 C 
BRANCH  41  42
ATOM     42  O   UNL A   1      43.931  30.377  30.079  1.00  0.00    -0.376 OA
BRANCH  42  43
ATOM     43  C   UNL A   1      43.165  31.039  29.079  1.00  0.00     0.202 C 
BRANCH  43  44
ATOM     44  C   UNL A   1      41.656  30.739  29.017  1.00  0.00     0.261 C 
BRANCH  44  45
ATOM     45  O   UNL A   1      40.885  31.101  30.175  1.00  0.00    -0.460 OA
BRANCH  45  46
ATOM     46  C   UNL A   1      40.278  30.117  30.869  1.00  0.00     0.338 C 
ATOM     47  O   UNL A   1      39.693  29.146  30.416  1.00  0.00    -0.246 OA
BRANCH  46  48
ATOM     48  C   UNL A   1      40.664  30.284  32.280  1.00  0.00     0.060 A 
ATOM     49  C   UNL A   1      41.669  31.209  32.589  1.00  0.00     0.016 A 
ATOM     50  C   UNL A   1      40.017  29.567  33.290  1.00  0.00     0.016 A 
ATOM     51  C   UNL A   1      42.039  31.419  33.912  1.00  0.00     0.010 A 
ATOM     52  C   UNL A   1      40.426  29.739  34.613  1.00  0.00     0.010 A 
ATOM     53  C   UNL A   1      41.458  30.644  34.921  1.00  0.00    -0.014 A 
BRANCH  53  54
ATOM     54  C   UNL A   1      42.136  30.587  36.233  1.00  0.00     0.031 A 
ATOM     55  C   UNL A   1      43.203  29.543  36.410  1.00  0.00     0.074 A 
ATOM     56  C   UNL A   1      41.866  31.477  37.202  1.00  0.00     0.049 A 
ATOM     57  N   UNL A   1      43.939  29.274  37.454  1.00  0.00    -0.248 NA
ATOM     58  C   UNL A   1      43.475  28.688  35.242  1.00  0.00     0.031 C 
ATOM     59  C   UNL A   1      40.907  32.576  37.097  1.00  0.00     0.029 A 
ATOM     60  N   UNL A   1      42.381  31.597  38.466  1.00  0.00    -0.354 N 
ATOM     61  C   UNL A   1      44.764  28.221  37.067  1.00  0.00     0.074 A 
ATOM     62  C   UNL A   1      44.408  27.878  35.709  1.00  0.00     0.031 C 
ATOM     63  C   UNL A   1      40.896  33.254  38.259  1.00  0.00     0.029 A 
ATOM     64  C   UNL A   1      41.816  32.614  39.198  1.00  0.00     0.049 A 
ATOM     65  H   UNL A   1      43.090  31.010  38.817  1.00  0.00     0.167 HD
ATOM     66  C   UNL A   1      45.735  27.606  37.783  1.00  0.00     0.034 A 
ATOM     67  C   UNL A   1      42.007  32.964  40.487  1.00  0.00     0.034 A 
ATOM     68  C   UNL A   1      46.051  27.952  39.145  1.00  0.00     0.049 A 
ATOM     69  C   UNL A   1      43.015  32.186  41.304  1.00  0.00     0.074 A 
ATOM     70  C   UNL A   1      47.001  27.391  39.979  1.00  0.00     0.029 A 
ATOM     71  N   UNL A   1      45.410  28.942  39.880  1.00  0.00    -0.354 N 
ATOM     72  N   UNL A   1      43.784  31.186  40.936  1.00  0.00    -0.248 NA
ATOM     73  C   UNL A   1      43.186  32.589  42.705  1.00  0.00     0.031 C 
ATOM     74  C   UNL A   1      46.879  27.985  41.239  1.00  0.00     0.029 A 
ATOM     75  C   UNL A   1      45.918  28.983  41.168  1.00  0.00     0.049 A 
ATOM     76  H   UNL A   1      44.699  29.530  39.535  1.00  0.00     0.167 HD
ATOM     77  C   UNL A   1      44.556  30.867  42.051  1.00  0.00     0.074 A 
ATOM     78  C   UNL A   1      44.165  31.788  43.098  1.00  0.00     0.031 C 
ATOM     79  C   UNL A   1      45.507  29.907  42.199  1.00  0.00     0.034 A 
BRANCH  66  80
ATOM     80  C   UNL A   1      46.457  26.457  37.122  1.00  0.00     0.023 A 
ATOM     81  C   UNL A   1      47.671  26.639  36.434  1.00  0.00     0.031 A 
ATOM     82  C   UNL A   1      45.895  25.169  37.135  1.00  0.00     0.131 A 
ATOM     83  C   UNL A   1      48.242  25.569  35.729  1.00  0.00     0.055 A 
ATOM     84  C   UNL A   1      46.514  24.089  36.503  1.00  0.00     0.041 A 
ATOM     85  F   UNL A   1      44.722  24.942  37.746  1.00  0.00    -0.206 F 
ATOM     86  C   UNL A   1      47.687  24.289  35.782  1.00  0.00     0.022 A 
BRANCH  83  87
ATOM     87  S   UNL A   1      49.634  25.908  34.615  1.00  0.00     0.124 S 
ATOM     88  O   UNL A   1      49.328  27.264  34.165  1.00  0.00    -0.237 OA
ATOM     89  O   UNL A   1      50.786  25.773  35.499  1.00  0.00    -0.237 OA
ATOM     90  O   UNL A   1      49.509  24.877  33.588  1.00  0.00    -0.744 OA
ENDBRANCH  83  87
ENDBRANCH  66  80
BRANCH  67  91
ATOM     91  C   UNL A   1      41.206  34.062  41.104  1.00  0.00     0.023 A 
ATOM     92  C   UNL A   1      40.000  33.798  41.771  1.00  0.00     0.031 A 
ATOM     93  C   UNL A   1      41.608  35.403  40.979  1.00  0.00     0.131 A 
ATOM     94  C   UNL A   1      39.214  34.863  42.243  1.00  0.00     0.055 A 
ATOM     95  C   UNL A   1      40.852  36.455  41.501  1.00  0.00     0.041 A 
ATOM     96  F   UNL A   1      42.752  35.716  40.348  1.00  0.00    -0.206 F 
ATOM     97  C   UNL A   1      39.639  36.187  42.125  1.00  0.00     0.022 A 
BRANCH  94  98
ATOM     98  S   UNL A   1      37.574  34.495  42.928  1.00  0.00     0.124 S 
ATOM     99  O   UNL A   1      37.391  35.598  43.863  1.00  0.00    -0.237 OA
ATOM    100  O   UNL A   1      36.736  34.518  41.734  1.00  0.00    -0.237 OA
ATOM    101  O   UNL A   1      37.750  33.180  43.539  1.00  0.00    -0.744 OA
ENDBRANCH  94  98
ENDBRANCH  67  91
BRANCH  79 102
ATOM    102  C   UNL A   1      46.225  29.846  43.525  1.00  0.00     0.023 A 
ATOM    103  C   UNL A   1      45.787  29.014  44.570  1.00  0.00     0.031 A 
ATOM    104  C   UNL A   1      47.373  30.630  43.741  1.00  0.00     0.131 A 
ATOM    105  C   UNL A   1      46.457  29.030  45.802  1.00  0.00     0.055 A 
ATOM    106  C   UNL A   1      48.076  30.590  44.946  1.00  0.00     0.041 A 
ATOM    107  F   UNL A   1      47.836  31.444  42.779  1.00  0.00    -0.206 F 
ATOM    108  C   UNL A   1      47.610  29.797  45.990  1.00  0.00     0.022 A 
BRANCH 105 109
ATOM    109  S   UNL A   1      45.744  28.109  47.193  1.00  0.00     0.124 S 
ATOM    110  O   UNL A   1      46.791  28.230  48.203  1.00  0.00    -0.237 OA
ATOM    111  O   UNL A   1      44.514  28.848  47.459  1.00  0.00    -0.237 OA
ATOM    112  O   UNL A   1      45.557  26.764  46.653  1.00  0.00    -0.744 OA
ENDBRANCH 105 109
ENDBRANCH  79 102
ENDBRANCH  53  54
ENDBRANCH  46  48
ENDBRANCH  45  46
ENDBRANCH  44  45
ENDBRANCH  43  44
ENDBRANCH  42  43
ENDBRANCH  41  42
ENDBRANCH  40  41
ENDBRANCH  39  40
ENDBRANCH   1  39
TORSDOF 29
ENDMDL
MODEL 3
REMARK VINA RESULT:      -7.7      1.805      4.422
REMARK SMILES NC(=O)[C@@H]1CCC[N@H+]1[C@@H](C(=O)OCCOCCOCCOCCOC(=O)c1ccc(-c2c3nc(c(-c4cc(S(=O)(=O)[O-])ccc4F)c4ccc([nH]4)c(-c4cc(S(=O)(=O)[O-])ccc4F)c4nc(c(-c5cc(S(=O)(=O)[O-])ccc5F)c5ccc2[nH]5)C=C4)C=C3)cc1)c1c[nH]c2cc(OCc3ccccc3)ccc12
REMARK SMILES IDX 17 1 16 2 15 3 14 4 13 5 12 6 10 7 11 8 9 9 8 10 4 11 5 12
REMARK SMILES IDX 6 13 7 14 2 16 1 17 3 20 90 21 91 22 106 23 92 24 93 25
REMARK SMILES IDX 105 26 94 28 104 29 95 30 96 31 97 32 98 33 99 34 103 35
REMARK SMILES IDX 100 36 102 37 101 38 18 39 19 40 20 41 21 42 22 43 23 44
REMARK SMILES IDX 24 45 25 46 26 47 27 48 28 49 89 50 29 51 88 52 30 53 31 54
REMARK SMILES IDX 32 55 82 56 33 57 87 58 81 59 83 60 34 61 86 62 80 63 79 64
REMARK SMILES IDX 35 66 67 67 47 68 66 69 48 70 51 71 65 72 84 73 49 74 50 75
REMARK SMILES IDX 64 77 85 78 52 79 36 80 37 81 45 82 38 83 44 84 46 85 43 86
REMARK SMILES IDX 39 87 40 88 41 89 42 90 68 91 69 92 77 93 70 94 76 95 78 96
REMARK SMILES IDX 75 97 71 98 72 99 73 100 74 101 53 102 54 103 62 104 55 105
REMARK SMILES IDX 61 106 63 107 60 108 56 109 57 110 58 111 59 112
REMARK H PARENT 8 15 1 18 1 19 92 27 83 65 51 76
REMARK Flexibility Score: inf
ROOT
ATOM      1  C   UNL A   1      40.299  24.732  27.696  1.00  0.00     0.188 C 
ENDROOT
BRANCH   1   2
ATOM      2  C   UNL A   1      39.044  24.862  26.830  1.00  0.00     0.188 C 
BRANCH   2   3
ATOM      3  O   UNL A   1      38.269  23.719  26.494  1.00  0.00    -0.376 OA
BRANCH   3   4
ATOM      4  C   UNL A   1      36.979  23.903  25.934  1.00  0.00     0.202 C 
BRANCH   4   5
ATOM      5  C   UNL A   1      35.923  22.806  26.156  1.00  0.00     0.261 C 
BRANCH   5   6
ATOM      6  O   UNL A   1      35.346  22.245  24.963  1.00  0.00    -0.459 OA
BRANCH   6   7
ATOM      7  C   UNL A   1      35.348  22.961  23.789  1.00  0.00     0.370 C 
ATOM      8  O   UNL A   1      36.330  23.056  23.060  1.00  0.00    -0.245 OA
BRANCH   7   9
ATOM      9  C   UNL A   1      33.957  23.640  23.488  1.00  0.00     0.329 C 
BRANCH   9  10
ATOM     10  N   UNL A   1      33.871  25.026  24.049  1.00  0.00    -0.309 N 
ATOM     11  C   UNL A   1      33.056  26.091  23.432  1.00  0.00     0.275 C 
ATOM     12  C   UNL A   1      33.703  27.292  24.128  1.00  0.00     0.081 C 
ATOM     13  C   UNL A   1      33.894  26.827  25.562  1.00  0.00     0.068 C 
ATOM     14  C   UNL A   1      33.834  25.305  25.477  1.00  0.00     0.264 C 
ATOM     15  H   UNL A   1      34.829  25.049  23.700  1.00  0.00     0.349 HD
BRANCH  11  16
ATOM     16  C   UNL A   1      33.043  26.175  21.902  1.00  0.00     0.275 C 
ATOM     17  N   UNL A   1      32.306  25.240  21.231  1.00  0.00    -0.365 N 
ATOM     18  H   UNL A   1      32.269  25.257  20.246  1.00  0.00     0.159 HD
ATOM     19  H   UNL A   1      31.812  24.551  21.730  1.00  0.00     0.159 HD
ATOM     20  O   UNL A   1      33.748  26.958  21.266  1.00  0.00    -0.268 OA
ENDBRANCH  11  16
ENDBRANCH   9  10
BRANCH   9  21
ATOM     21  C   UNL A   1      32.711  22.762  23.882  1.00  0.00     0.046 A 
ATOM     22  C   UNL A   1      31.966  22.965  25.038  1.00  0.00     0.094 A 
ATOM     23  C   UNL A   1      32.318  21.395  23.607  1.00  0.00     0.009 A 
ATOM     24  N   UNL A   1      32.179  21.828  25.771  1.00  0.00    -0.361 N 
ATOM     25  C   UNL A   1      32.283  20.796  24.871  1.00  0.00     0.050 A 
ATOM     26  C   UNL A   1      32.019  20.544  22.521  1.00  0.00     0.015 A 
ATOM     27  H   UNL A   1      32.245  21.763  26.751  1.00  0.00     0.166 HD
ATOM     28  C   UNL A   1      32.340  19.417  25.067  1.00  0.00     0.073 A 
ATOM     29  C   UNL A   1      31.933  19.144  22.713  1.00  0.00     0.047 A 
ATOM     30  C   UNL A   1      32.201  18.583  23.956  1.00  0.00     0.121 A 
BRANCH  30  31
ATOM     31  O   UNL A   1      32.369  17.267  24.270  1.00  0.00    -0.489 OA
BRANCH  31  32
ATOM     32  C   UNL A   1      33.419  16.479  23.714  1.00  0.00     0.265 C 
BRANCH  32  33
ATOM     33  C   UNL A   1      34.721  16.804  24.409  1.00  0.00    -0.011 A 
ATOM     34  C   UNL A   1      35.350  15.858  25.232  1.00  0.00     0.007 A 
ATOM     35  C   UNL A   1      35.304  18.072  24.275  1.00  0.00     0.007 A 
ATOM     36  C   UNL A   1      36.545  16.171  25.885  1.00  0.00     0.000 A 
ATOM     37  C   UNL A   1      36.498  18.382  24.923  1.00  0.00     0.000 A 
ATOM     38  C   UNL A   1      37.119  17.432  25.728  1.00  0.00     0.000 A 
ENDBRANCH  32  33
ENDBRANCH  31  32
ENDBRANCH  30  31
ENDBRANCH   9  21
ENDBRANCH   7   9
ENDBRANCH   6   7
ENDBRANCH   5   6
ENDBRANCH   4   5
ENDBRANCH   3   4
ENDBRANCH   2   3
ENDBRANCH   1   2
BRANCH   1  39
ATOM     39  O   UNL A   1      41.011  25.938  27.853  1.00  0.00    -0.377 OA
BRANCH  39  40
ATOM     40  C   UNL A   1      41.867  26.262  26.780  1.00  0.00     0.188 C 
BRANCH  40  41
ATOM     41  C   UNL A   1      42.582  25.045  26.183  1.00  0.00     0.188 C 
BRANCH  41  42
ATOM     42  O   UNL A   1      43.600  24.510  27.030  1.00  0.00    -0.376 OA
BRANCH  42  43
ATOM     43  C   UNL A   1      44.442  23.496  26.492  1.00  0.00     0.202 C 
BRANCH  43  44
ATOM     44  C   UNL A   1      45.838  23.318  27.117  1.00  0.00     0.261 C 
BRANCH  44  45
ATOM     45  O   UNL A   1      46.943  23.866  26.379  1.00  0.00    -0.460 OA
BRANCH  45  46
ATOM     46  C   UNL A   1      46.673  24.708  25.360  1.00  0.00     0.338 C 
ATOM     47  O   UNL A   1      46.350  24.411  24.222  1.00  0.00    -0.246 OA
BRANCH  46  48
ATOM     48  C   UNL A   1      46.591  26.062  25.932  1.00  0.00     0.060 A 
ATOM     49  C   UNL A   1      47.211  26.302  27.165  1.00  0.00     0.016 A 
ATOM     50  C   UNL A   1      45.943  27.093  25.246  1.00  0.00     0.016 A 
ATOM     51  C   UNL A   1      47.183  27.575  27.722  1.00  0.00     0.010 A 
ATOM     52  C   UNL A   1      45.870  28.358  25.830  1.00  0.00     0.010 A 
ATOM     53  C   UNL A   1      46.464  28.591  27.084  1.00  0.00    -0.014 A 
BRANCH  53  54
ATOM     54  C   UNL A   1      46.107  29.790  27.870  1.00  0.00     0.031 A 
ATOM     55  C   UNL A   1      47.095  30.923  27.883  1.00  0.00     0.074 A 
ATOM     56  C   UNL A   1      44.919  29.897  28.487  1.00  0.00     0.049 A 
ATOM     57  N   UNL A   1      47.035  32.074  28.495  1.00  0.00    -0.248 NA
ATOM     58  C   UNL A   1      48.321  30.723  27.090  1.00  0.00     0.031 C 
ATOM     59  C   UNL A   1      43.861  28.887  28.465  1.00  0.00     0.029 A 
ATOM     60  N   UNL A   1      44.402  30.912  29.249  1.00  0.00    -0.354 N 
ATOM     61  C   UNL A   1      48.211  32.738  28.159  1.00  0.00     0.074 A 
ATOM     62  C   UNL A   1      48.980  31.845  27.323  1.00  0.00     0.031 C 
ATOM     63  C   UNL A   1      42.821  29.333  29.194  1.00  0.00     0.029 A 
ATOM     64  C   UNL A   1      43.157  30.638  29.763  1.00  0.00     0.049 A 
ATOM     65  H   UNL A   1      44.877  31.759  29.413  1.00  0.00     0.167 HD
ATOM     66  C   UNL A   1      48.604  33.985  28.512  1.00  0.00     0.034 A 
ATOM     67  C   UNL A   1      42.394  31.354  30.615  1.00  0.00     0.034 A 
ATOM     68  C   UNL A   1      47.829  34.844  29.368  1.00  0.00     0.049 A 
ATOM     69  C   UNL A   1      42.907  32.695  31.090  1.00  0.00     0.074 A 
ATOM     70  C   UNL A   1      48.128  36.120  29.809  1.00  0.00     0.029 A 
ATOM     71  N   UNL A   1      46.602  34.507  29.928  1.00  0.00    -0.354 N 
ATOM     72  N   UNL A   1      44.023  33.313  30.776  1.00  0.00    -0.248 NA
ATOM     73  C   UNL A   1      42.053  33.438  32.025  1.00  0.00     0.031 C 
ATOM     74  C   UNL A   1      47.126  36.520  30.698  1.00  0.00     0.029 A 
ATOM     75  C   UNL A   1      46.151  35.534  30.740  1.00  0.00     0.049 A 
ATOM     76  H   UNL A   1      46.123  33.661  29.770  1.00  0.00     0.167 HD
ATOM     77  C   UNL A   1      43.986  34.533  31.447  1.00  0.00     0.074 A 
ATOM     78  C   UNL A   1      42.733  34.565  32.173  1.00  0.00     0.031 C 
ATOM     79  C   UNL A   1      44.899  35.540  31.460  1.00  0.00     0.034 A 
BRANCH  66  80
ATOM     80  C   UNL A   1      49.959  34.444  28.030  1.00  0.00     0.023 A 
ATOM     81  C   UNL A   1      51.115  34.305  28.819  1.00  0.00     0.031 A 
ATOM     82  C   UNL A   1      50.086  35.077  26.782  1.00  0.00     0.131 A 
ATOM     83  C   UNL A   1      52.329  34.858  28.384  1.00  0.00     0.055 A 
ATOM     84  C   UNL A   1      51.315  35.548  26.317  1.00  0.00     0.041 A 
ATOM     85  F   UNL A   1      49.012  35.267  26.000  1.00  0.00    -0.206 F 
ATOM     86  C   UNL A   1      52.443  35.453  27.126  1.00  0.00     0.022 A 
BRANCH  83  87
ATOM     87  S   UNL A   1      53.719  34.927  29.549  1.00  0.00     0.124 S 
ATOM     88  O   UNL A   1      54.688  34.045  28.903  1.00  0.00    -0.237 OA
ATOM     89  O   UNL A   1      54.053  36.346  29.558  1.00  0.00    -0.237 OA
ATOM     90  O   UNL A   1      53.150  34.411  30.792  1.00  0.00    -0.744 OA
ENDBRANCH  83  87
ENDBRANCH  66  80
BRANCH  67  91
ATOM     91  C   UNL A   1      41.097  30.810  31.115  1.00  0.00     0.023 A 
ATOM     92  C   UNL A   1      39.917  30.929  30.364  1.00  0.00     0.031 A 
ATOM     93  C   UNL A   1      41.008  30.216  32.387  1.00  0.00     0.131 A 
ATOM     94  C   UNL A   1      38.693  30.508  30.911  1.00  0.00     0.055 A 
ATOM     95  C   UNL A   1      39.799  29.745  32.902  1.00  0.00     0.041 A 
ATOM     96  F   UNL A   1      42.104  30.077  33.151  1.00  0.00    -0.206 F 
ATOM     97  C   UNL A   1      38.629  29.903  32.167  1.00  0.00     0.022 A 
BRANCH  94  98
ATOM     98  S   UNL A   1      37.167  30.852  29.991  1.00  0.00     0.124 S 
ATOM     99  O   UNL A   1      36.461  29.582  30.105  1.00  0.00    -0.237 OA
ATOM    100  O   UNL A   1      36.607  31.969  30.744  1.00  0.00    -0.237 OA
ATOM    101  O   UNL A   1      37.647  31.183  28.651  1.00  0.00    -0.744 OA
ENDBRANCH  94  98
ENDBRANCH  67  91
BRANCH  79 102
ATOM    102  C   UNL A   1      44.544  36.782  32.242  1.00  0.00     0.023 A 
ATOM    103  C   UNL A   1      44.767  36.878  33.626  1.00  0.00     0.031 A 
ATOM    104  C   UNL A   1      43.978  37.891  31.585  1.00  0.00     0.131 A 
ATOM    105  C   UNL A   1      44.373  38.033  34.318  1.00  0.00     0.055 A 
ATOM    106  C   UNL A   1      43.653  39.064  32.267  1.00  0.00     0.041 A 
ATOM    107  F   UNL A   1      43.743  37.854  30.264  1.00  0.00    -0.206 F 
ATOM    108  C   UNL A   1      43.836  39.134  33.644  1.00  0.00     0.022 A 
BRANCH 105 109
ATOM    109  S   UNL A   1      44.479  38.042  36.129  1.00  0.00     0.124 S 
ATOM    110  O   UNL A   1      43.267  37.322  36.507  1.00  0.00    -0.237 OA
ATOM    111  O   UNL A   1      45.737  37.343  36.371  1.00  0.00    -0.237 OA
ATOM    112  O   UNL A   1      44.485  39.465  36.465  1.00  0.00    -0.744 OA
ENDBRANCH 105 109
ENDBRANCH  79 102
ENDBRANCH  53  54
ENDBRANCH  46  48
ENDBRANCH  45  46
ENDBRANCH  44  45
ENDBRANCH  43  44
ENDBRANCH  42  43
ENDBRANCH  41  42
ENDBRANCH  40  41
ENDBRANCH  39  40
ENDBRANCH   1  39
TORSDOF 29
ENDMDL
