MODEL 1
REMARK VINA RESULT:      -9.7      0.000      0.000
REMARK SMILES COc1ccc(-c2[nH]nc3nc(-c4ccc(C(F)(F)F)cc4)cc(C(=O)OCCOCCOCCOCCOC(=O)c4ccc(-c5c6nc(c(-c7cc(S(=O)(=O)[O-])ccc7F)c7ccc([nH]7)c(-c7cc(S(=O)(=O)[O-])ccc7F)c7nc(c(-c8cc(S(=O)(=O)[O-])ccc8F)c8ccc5[nH]8)C=C7)C=C6)cc4)c23)cc1
REMARK SMILES IDX 34 1 33 2 32 3 31 4 30 5 29 6 28 7 27 8 25 9 26 10 24 11
REMARK SMILES IDX 7 12 8 13 105 14 9 15 10 17 11 18 23 19 12 20 6 21 3 22 4 23
REMARK SMILES IDX 107 24 5 25 106 26 2 27 1 28 13 29 14 30 22 31 15 32 21 33
REMARK SMILES IDX 16 34 17 35 18 36 19 37 20 38 35 39 36 40 37 41 38 42 39 43
REMARK SMILES IDX 40 44 41 45 42 46 43 47 104 48 44 49 103 50 45 51 46 52
REMARK SMILES IDX 47 53 97 54 48 55 102 56 96 57 98 58 49 59 101 60 95 61
REMARK SMILES IDX 94 62 50 64 82 65 62 66 81 67 63 68 66 69 80 70 99 71 64 72
REMARK SMILES IDX 65 73 79 75 100 76 67 77 51 78 52 79 60 80 53 81 59 82 61 83
REMARK SMILES IDX 58 84 54 85 55 86 56 87 57 88 83 89 84 90 92 91 85 92 91 93
REMARK SMILES IDX 93 94 90 95 86 96 87 97 88 98 89 99 68 100 69 101 77 102
REMARK SMILES IDX 70 103 76 104 78 105 75 106 71 107 72 108 73 109 74 110
REMARK H PARENT 8 16 98 63 66 74
REMARK Flexibility Score: inf
ROOT
ATOM      1  C   UNL A   1      37.799  22.207  25.698  1.00  0.00     0.188 C 
ENDROOT
BRANCH   1   2
ATOM      2  O   UNL A   1      37.458  23.499  25.196  1.00  0.00    -0.377 OA
BRANCH   2   3
ATOM      3  C   UNL A   1      36.121  23.929  25.429  1.00  0.00     0.188 C 
BRANCH   3   4
ATOM      4  C   UNL A   1      35.530  23.495  26.767  1.00  0.00     0.188 C 
BRANCH   4   5
ATOM      5  O   UNL A   1      35.030  22.169  26.787  1.00  0.00    -0.376 OA
BRANCH   5   6
ATOM      6  C   UNL A   1      34.192  21.717  27.839  1.00  0.00     0.202 C 
BRANCH   6   7
ATOM      7  C   UNL A   1      32.776  22.298  27.928  1.00  0.00     0.261 C 
BRANCH   7   8
ATOM      8  O   UNL A   1      32.526  23.367  26.998  1.00  0.00    -0.460 OA
BRANCH   8   9
ATOM      9  C   UNL A   1      31.573  23.174  26.058  1.00  0.00     0.339 C 
ATOM     10  O   UNL A   1      30.644  22.389  26.144  1.00  0.00    -0.246 OA
BRANCH   9  11
ATOM     11  C   UNL A   1      31.815  24.142  24.967  1.00  0.00     0.075 A 
ATOM     12  C   UNL A   1      33.378  22.874  23.431  1.00  0.00     0.075 A 
ATOM     13  N   UNL A   1      34.073  23.320  22.328  1.00  0.00    -0.275 N 
ATOM     14  C   UNL A   1      32.693  23.991  23.884  1.00  0.00     0.061 A 
ATOM     15  N   UNL A   1      33.781  24.572  21.948  1.00  0.00    -0.154 NA
ATOM     16  H   UNL A   1      34.733  22.763  21.856  1.00  0.00     0.190 HD
ATOM     17  C   UNL A   1      32.881  24.967  22.847  1.00  0.00     0.182 A 
ATOM     18  N   UNL A   1      32.176  26.121  22.789  1.00  0.00    -0.226 NA
ATOM     19  C   UNL A   1      31.061  25.332  24.838  1.00  0.00     0.045 A 
ATOM     20  C   UNL A   1      31.249  26.258  23.777  1.00  0.00     0.074 A 
BRANCH  12  21
ATOM     21  C   UNL A   1      33.343  21.448  23.731  1.00  0.00     0.001 A 
ATOM     22  C   UNL A   1      33.353  18.693  24.323  1.00  0.00     0.118 A 
ATOM     23  C   UNL A   1      32.234  19.297  23.742  1.00  0.00     0.047 A 
ATOM     24  C   UNL A   1      34.458  19.478  24.639  1.00  0.00     0.047 A 
ATOM     25  C   UNL A   1      32.221  20.669  23.458  1.00  0.00     0.014 A 
ATOM     26  C   UNL A   1      34.451  20.847  24.346  1.00  0.00     0.014 A 
BRANCH  22  27
ATOM     27  O   UNL A   1      33.242  17.343  24.516  1.00  0.00    -0.497 OA
ATOM     28  C   UNL A   1      32.193  16.899  25.370  1.00  0.00     0.278 C 
ENDBRANCH  22  27
ENDBRANCH  12  21
BRANCH  20  29
ATOM     29  C   UNL A   1      30.436  27.499  23.682  1.00  0.00     0.000 A 
ATOM     30  C   UNL A   1      29.062  27.453  23.374  1.00  0.00     0.011 A 
ATOM     31  C   UNL A   1      31.011  28.771  23.847  1.00  0.00     0.011 A 
ATOM     32  C   UNL A   1      28.310  28.624  23.193  1.00  0.00     0.014 A 
ATOM     33  C   UNL A   1      30.265  29.942  23.667  1.00  0.00     0.014 A 
ATOM     34  C   UNL A   1      28.911  29.882  23.317  1.00  0.00     0.056 A 
BRANCH  34  35
ATOM     35  C   UNL A   1      28.124  31.140  23.038  1.00  0.00     0.416 C 
ATOM     36  F   UNL A   1      26.796  30.991  23.305  1.00  0.00    -0.166 F 
ATOM     37  F   UNL A   1      28.540  32.203  23.778  1.00  0.00    -0.166 F 
ATOM     38  F   UNL A   1      28.192  31.542  21.736  1.00  0.00    -0.166 F 
ENDBRANCH  34  35
ENDBRANCH  20  29
ENDBRANCH   9  11
ENDBRANCH   8   9
ENDBRANCH   7   8
ENDBRANCH   6   7
ENDBRANCH   5   6
ENDBRANCH   4   5
ENDBRANCH   3   4
ENDBRANCH   2   3
ENDBRANCH   1   2
BRANCH   1  39
ATOM     39  C   UNL A   1      39.304  21.817  25.780  1.00  0.00     0.188 C 
BRANCH  39  40
ATOM     40  O   UNL A   1      39.576  20.529  26.340  1.00  0.00    -0.376 OA
BRANCH  40  41
ATOM     41  C   UNL A   1      40.869  19.959  26.165  1.00  0.00     0.202 C 
BRANCH  41  42
ATOM     42  C   UNL A   1      41.905  20.161  27.276  1.00  0.00     0.261 C 
BRANCH  42  43
ATOM     43  O   UNL A   1      42.054  21.503  27.682  1.00  0.00    -0.460 OA
BRANCH  43  44
ATOM     44  C   UNL A   1      43.101  22.149  27.142  1.00  0.00     0.338 C 
ATOM     45  O   UNL A   1      43.380  22.223  25.954  1.00  0.00    -0.246 OA
BRANCH  44  46
ATOM     46  C   UNL A   1      43.895  22.723  28.231  1.00  0.00     0.060 A 
ATOM     47  C   UNL A   1      43.217  22.913  29.433  1.00  0.00     0.016 A 
ATOM     48  C   UNL A   1      45.089  23.390  27.916  1.00  0.00     0.016 A 
ATOM     49  C   UNL A   1      43.524  24.040  30.145  1.00  0.00     0.010 A 
ATOM     50  C   UNL A   1      45.378  24.529  28.612  1.00  0.00     0.010 A 
ATOM     51  C   UNL A   1      44.505  24.893  29.630  1.00  0.00    -0.014 A 
BRANCH  51  52
ATOM     52  C   UNL A   1      44.589  26.216  30.183  1.00  0.00     0.031 A 
ATOM     53  C   UNL A   1      44.853  26.199  31.627  1.00  0.00     0.074 A 
ATOM     54  C   UNL A   1      44.501  27.314  29.411  1.00  0.00     0.049 A 
ATOM     55  N   UNL A   1      44.020  26.455  32.576  1.00  0.00    -0.248 NA
ATOM     56  C   UNL A   1      46.116  25.593  32.073  1.00  0.00     0.031 C 
ATOM     57  C   UNL A   1      44.513  27.406  27.949  1.00  0.00     0.029 A 
ATOM     58  N   UNL A   1      44.495  28.611  29.799  1.00  0.00    -0.354 N 
ATOM     59  C   UNL A   1      44.748  26.287  33.743  1.00  0.00     0.074 A 
ATOM     60  C   UNL A   1      45.902  25.512  33.385  1.00  0.00     0.031 C 
ATOM     61  C   UNL A   1      44.765  28.688  27.593  1.00  0.00     0.029 A 
ATOM     62  C   UNL A   1      44.812  29.512  28.793  1.00  0.00     0.049 A 
ATOM     63  H   UNL A   1      44.283  28.892  30.718  1.00  0.00     0.167 HD
ATOM     64  C   UNL A   1      44.495  27.055  34.835  1.00  0.00     0.034 A 
ATOM     65  C   UNL A   1      45.194  30.805  28.971  1.00  0.00     0.034 A 
ATOM     66  C   UNL A   1      43.191  27.678  34.738  1.00  0.00     0.049 A 
ATOM     67  C   UNL A   1      44.723  31.206  30.328  1.00  0.00     0.074 A 
ATOM     68  C   UNL A   1      41.906  27.193  34.583  1.00  0.00     0.029 A 
ATOM     69  N   UNL A   1      43.128  29.010  34.384  1.00  0.00    -0.354 N 
ATOM     70  N   UNL A   1      43.459  31.299  30.648  1.00  0.00    -0.248 NA
ATOM     71  C   UNL A   1      45.623  30.997  31.457  1.00  0.00     0.031 C 
ATOM     72  C   UNL A   1      41.272  28.101  33.685  1.00  0.00     0.029 A 
ATOM     73  C   UNL A   1      42.170  29.133  33.404  1.00  0.00     0.049 A 
ATOM     74  H   UNL A   1      43.668  29.740  34.763  1.00  0.00     0.167 HD
ATOM     75  C   UNL A   1      43.359  30.738  31.915  1.00  0.00     0.074 A 
ATOM     76  C   UNL A   1      44.736  30.658  32.400  1.00  0.00     0.031 C 
ATOM     77  C   UNL A   1      42.215  30.114  32.332  1.00  0.00     0.034 A 
BRANCH  64  78
ATOM     78  C   UNL A   1      45.566  27.539  35.782  1.00  0.00     0.023 A 
ATOM     79  C   UNL A   1      45.352  27.299  37.150  1.00  0.00     0.031 A 
ATOM     80  C   UNL A   1      46.617  28.438  35.475  1.00  0.00     0.131 A 
ATOM     81  C   UNL A   1      46.070  28.007  38.126  1.00  0.00     0.055 A 
ATOM     82  C   UNL A   1      47.378  29.083  36.451  1.00  0.00     0.041 A 
ATOM     83  F   UNL A   1      46.915  28.825  34.230  1.00  0.00    -0.206 F 
ATOM     84  C   UNL A   1      47.084  28.898  37.787  1.00  0.00     0.022 A 
BRANCH  81  85
ATOM     85  S   UNL A   1      45.518  27.879  39.842  1.00  0.00     0.124 S 
ATOM     86  O   UNL A   1      44.565  26.777  39.762  1.00  0.00    -0.237 OA
ATOM     87  O   UNL A   1      46.772  27.599  40.536  1.00  0.00    -0.237 OA
ATOM     88  O   UNL A   1      44.936  29.192  40.108  1.00  0.00    -0.744 OA
ENDBRANCH  81  85
ENDBRANCH  64  78
BRANCH  65  89
ATOM     89  C   UNL A   1      46.240  31.533  28.197  1.00  0.00     0.023 A 
ATOM     90  C   UNL A   1      45.963  32.678  27.421  1.00  0.00     0.031 A 
ATOM     91  C   UNL A   1      47.608  31.223  28.393  1.00  0.00     0.131 A 
ATOM     92  C   UNL A   1      47.022  33.443  26.873  1.00  0.00     0.055 A 
ATOM     93  C   UNL A   1      48.648  31.975  27.842  1.00  0.00     0.041 A 
ATOM     94  F   UNL A   1      47.989  30.224  29.203  1.00  0.00    -0.206 F 
ATOM     95  C   UNL A   1      48.358  33.095  27.084  1.00  0.00     0.022 A 
BRANCH  92  96
ATOM     96  S   UNL A   1      46.676  34.973  25.944  1.00  0.00     0.124 S 
ATOM     97  O   UNL A   1      47.973  35.639  25.951  1.00  0.00    -0.237 OA
ATOM     98  O   UNL A   1      46.214  34.463  24.659  1.00  0.00    -0.237 OA
ATOM     99  O   UNL A   1      45.643  35.633  26.745  1.00  0.00    -0.744 OA
ENDBRANCH  92  96
ENDBRANCH  65  89
BRANCH  77 100
ATOM    100  C   UNL A   1      40.956  30.273  31.497  1.00  0.00     0.023 A 
ATOM    101  C   UNL A   1      40.716  29.623  30.265  1.00  0.00     0.031 A 
ATOM    102  C   UNL A   1      39.899  31.015  32.056  1.00  0.00     0.131 A 
ATOM    103  C   UNL A   1      39.457  29.738  29.638  1.00  0.00     0.055 A 
ATOM    104  C   UNL A   1      38.650  31.108  31.444  1.00  0.00     0.041 A 
ATOM    105  F   UNL A   1      40.052  31.632  33.239  1.00  0.00    -0.206 F 
ATOM    106  C   UNL A   1      38.426  30.474  30.228  1.00  0.00     0.022 A 
BRANCH 103 107
ATOM    107  S   UNL A   1      39.139  28.939  28.031  1.00  0.00     0.124 S 
ATOM    108  O   UNL A   1      38.797  27.568  28.393  1.00  0.00    -0.237 OA
ATOM    109  O   UNL A   1      38.053  29.748  27.486  1.00  0.00    -0.237 OA
ATOM    110  O   UNL A   1      40.414  29.080  27.322  1.00  0.00    -0.744 OA
ENDBRANCH 103 107
ENDBRANCH  77 100
ENDBRANCH  51  52
ENDBRANCH  44  46
ENDBRANCH  43  44
ENDBRANCH  42  43
ENDBRANCH  41  42
ENDBRANCH  40  41
ENDBRANCH  39  40
ENDBRANCH   1  39
TORSDOF 27
ENDMDL
MODEL 2
REMARK VINA RESULT:      -9.5      4.414      9.203
REMARK SMILES COc1ccc(-c2[nH]nc3nc(-c4ccc(C(F)(F)F)cc4)cc(C(=O)OCCOCCOCCOCCOC(=O)c4ccc(-c5c6nc(c(-c7cc(S(=O)(=O)[O-])ccc7F)c7ccc([nH]7)c(-c7cc(S(=O)(=O)[O-])ccc7F)c7nc(c(-c8cc(S(=O)(=O)[O-])ccc8F)c8ccc5[nH]8)C=C7)C=C6)cc4)c23)cc1
REMARK SMILES IDX 34 1 33 2 32 3 31 4 30 5 29 6 28 7 27 8 25 9 26 10 24 11
REMARK SMILES IDX 7 12 8 13 105 14 9 15 10 17 11 18 23 19 12 20 6 21 3 22 4 23
REMARK SMILES IDX 107 24 5 25 106 26 2 27 1 28 13 29 14 30 22 31 15 32 21 33
REMARK SMILES IDX 16 34 17 35 18 36 19 37 20 38 35 39 36 40 37 41 38 42 39 43
REMARK SMILES IDX 40 44 41 45 42 46 43 47 104 48 44 49 103 50 45 51 46 52
REMARK SMILES IDX 47 53 97 54 48 55 102 56 96 57 98 58 49 59 101 60 95 61
REMARK SMILES IDX 94 62 50 64 82 65 62 66 81 67 63 68 66 69 80 70 99 71 64 72
REMARK SMILES IDX 65 73 79 75 100 76 67 77 51 78 52 79 60 80 53 81 59 82 61 83
REMARK SMILES IDX 58 84 54 85 55 86 56 87 57 88 83 89 84 90 92 91 85 92 91 93
REMARK SMILES IDX 93 94 90 95 86 96 87 97 88 98 89 99 68 100 69 101 77 102
REMARK SMILES IDX 70 103 76 104 78 105 75 106 71 107 72 108 73 109 74 110
REMARK H PARENT 8 16 98 63 66 74
REMARK Flexibility Score: inf
ROOT
ATOM      1  C   UNL A   1      31.640  29.297  24.982  1.00  0.00     0.188 C 
ENDROOT
BRANCH   1   2
ATOM      2  O   UNL A   1      31.266  28.523  23.843  1.00  0.00    -0.377 OA
BRANCH   2   3
ATOM      3  C   UNL A   1      30.545  27.324  24.109  1.00  0.00     0.188 C 
BRANCH   3   4
ATOM      4  C   UNL A   1      31.280  26.037  23.747  1.00  0.00     0.188 C 
BRANCH   4   5
ATOM      5  O   UNL A   1      32.541  26.233  23.130  1.00  0.00    -0.376 OA
BRANCH   5   6
ATOM      6  C   UNL A   1      33.737  26.231  23.892  1.00  0.00     0.202 C 
BRANCH   6   7
ATOM      7  C   UNL A   1      33.783  25.361  25.154  1.00  0.00     0.261 C 
BRANCH   7   8
ATOM      8  O   UNL A   1      35.110  24.958  25.535  1.00  0.00    -0.460 OA
BRANCH   8   9
ATOM      9  C   UNL A   1      35.230  23.970  26.452  1.00  0.00     0.339 C 
ATOM     10  O   UNL A   1      34.324  23.531  27.139  1.00  0.00    -0.246 OA
BRANCH   9  11
ATOM     11  C   UNL A   1      36.621  23.472  26.397  1.00  0.00     0.075 A 
ATOM     12  C   UNL A   1      36.385  21.284  25.147  1.00  0.00     0.075 A 
ATOM     13  N   UNL A   1      37.319  20.294  24.932  1.00  0.00    -0.275 N 
ATOM     14  C   UNL A   1      37.059  22.239  25.893  1.00  0.00     0.061 A 
ATOM     15  N   UNL A   1      38.561  20.595  25.338  1.00  0.00    -0.154 NA
ATOM     16  H   UNL A   1      37.093  19.434  24.512  1.00  0.00     0.190 HD
ATOM     17  C   UNL A   1      38.430  21.814  25.859  1.00  0.00     0.182 A 
ATOM     18  N   UNL A   1      39.452  22.601  26.269  1.00  0.00    -0.226 NA
ATOM     19  C   UNL A   1      37.722  24.283  26.762  1.00  0.00     0.045 A 
ATOM     20  C   UNL A   1      39.071  23.841  26.681  1.00  0.00     0.074 A 
BRANCH  12  21
ATOM     21  C   UNL A   1      35.104  21.228  24.454  1.00  0.00     0.001 A 
ATOM     22  C   UNL A   1      32.620  21.045  23.135  1.00  0.00     0.118 A 
ATOM     23  C   UNL A   1      33.473  22.130  22.911  1.00  0.00     0.047 A 
ATOM     24  C   UNL A   1      32.999  20.064  24.048  1.00  0.00     0.047 A 
ATOM     25  C   UNL A   1      34.703  22.231  23.574  1.00  0.00     0.014 A 
ATOM     26  C   UNL A   1      34.232  20.158  24.704  1.00  0.00     0.014 A 
BRANCH  22  27
ATOM     27  O   UNL A   1      31.468  21.057  22.398  1.00  0.00    -0.497 OA
ATOM     28  C   UNL A   1      31.534  20.500  21.090  1.00  0.00     0.278 C 
ENDBRANCH  22  27
ENDBRANCH  12  21
BRANCH  20  29
ATOM     29  C   UNL A   1      40.198  24.724  27.079  1.00  0.00     0.000 A 
ATOM     30  C   UNL A   1      41.268  24.241  27.857  1.00  0.00     0.011 A 
ATOM     31  C   UNL A   1      40.221  26.088  26.739  1.00  0.00     0.011 A 
ATOM     32  C   UNL A   1      42.288  25.090  28.313  1.00  0.00     0.014 A 
ATOM     33  C   UNL A   1      41.236  26.940  27.192  1.00  0.00     0.014 A 
ATOM     34  C   UNL A   1      42.270  26.455  28.002  1.00  0.00     0.056 A 
BRANCH  34  35
ATOM     35  C   UNL A   1      43.319  27.384  28.562  1.00  0.00     0.416 C 
ATOM     36  F   UNL A   1      44.461  27.386  27.819  1.00  0.00    -0.166 F 
ATOM     37  F   UNL A   1      42.906  28.679  28.623  1.00  0.00    -0.166 F 
ATOM     38  F   UNL A   1      43.709  27.057  29.828  1.00  0.00    -0.166 F 
ENDBRANCH  34  35
ENDBRANCH  20  29
ENDBRANCH   9  11
ENDBRANCH   8   9
ENDBRANCH   7   8
ENDBRANCH   6   7
ENDBRANCH   5   6
ENDBRANCH   4   5
ENDBRANCH   3   4
ENDBRANCH   2   3
ENDBRANCH   1   2
BRANCH   1  39
ATOM     39  C   UNL A   1      32.160  28.552  26.246  1.00  0.00     0.188 C 
BRANCH  39  40
ATOM     40  O   UNL A   1      33.074  29.289  27.063  1.00  0.00    -0.376 OA
BRANCH  40  41
ATOM     41  C   UNL A   1      33.313  30.661  26.767  1.00  0.00     0.202 C 
BRANCH  41  42
ATOM     42  C   UNL A   1      34.105  31.492  27.782  1.00  0.00     0.261 C 
BRANCH  42  43
ATOM     43  O   UNL A   1      35.483  31.579  27.497  1.00  0.00    -0.460 OA
BRANCH  43  44
ATOM     44  C   UNL A   1      36.266  30.749  28.206  1.00  0.00     0.338 C 
ATOM     45  O   UNL A   1      36.723  29.679  27.831  1.00  0.00    -0.246 OA
BRANCH  44  46
ATOM     46  C   UNL A   1      36.449  31.321  29.541  1.00  0.00     0.060 A 
ATOM     47  C   UNL A   1      37.365  32.367  29.626  1.00  0.00     0.016 A 
ATOM     48  C   UNL A   1      36.041  30.574  30.657  1.00  0.00     0.016 A 
ATOM     49  C   UNL A   1      38.150  32.412  30.747  1.00  0.00     0.010 A 
ATOM     50  C   UNL A   1      36.840  30.603  31.764  1.00  0.00     0.010 A 
ATOM     51  C   UNL A   1      37.955  31.431  31.723  1.00  0.00    -0.014 A 
BRANCH  51  52
ATOM     52  C   UNL A   1      38.979  31.275  32.719  1.00  0.00     0.031 A 
ATOM     53  C   UNL A   1      38.734  32.108  33.903  1.00  0.00     0.074 A 
ATOM     54  C   UNL A   1      39.987  30.399  32.566  1.00  0.00     0.049 A 
ATOM     55  N   UNL A   1      39.349  33.190  34.237  1.00  0.00    -0.248 NA
ATOM     56  C   UNL A   1      37.508  31.843  34.670  1.00  0.00     0.031 C 
ATOM     57  C   UNL A   1      40.144  29.353  31.553  1.00  0.00     0.029 A 
ATOM     58  N   UNL A   1      41.049  30.196  33.383  1.00  0.00    -0.354 N 
ATOM     59  C   UNL A   1      38.740  33.596  35.413  1.00  0.00     0.074 A 
ATOM     60  C   UNL A   1      37.480  32.909  35.468  1.00  0.00     0.031 C 
ATOM     61  C   UNL A   1      41.095  28.482  31.967  1.00  0.00     0.029 A 
ATOM     62  C   UNL A   1      41.684  28.976  33.203  1.00  0.00     0.049 A 
ATOM     63  H   UNL A   1      41.345  30.857  34.049  1.00  0.00     0.167 HD
ATOM     64  C   UNL A   1      39.454  34.225  36.383  1.00  0.00     0.034 A 
ATOM     65  C   UNL A   1      42.541  28.386  34.079  1.00  0.00     0.034 A 
ATOM     66  C   UNL A   1      40.695  34.749  35.853  1.00  0.00     0.049 A 
ATOM     67  C   UNL A   1      43.055  29.468  34.968  1.00  0.00     0.074 A 
ATOM     68  C   UNL A   1      41.007  35.627  34.831  1.00  0.00     0.029 A 
ATOM     69  N   UNL A   1      41.861  34.059  36.115  1.00  0.00    -0.354 N 
ATOM     70  N   UNL A   1      43.808  30.448  34.542  1.00  0.00    -0.248 NA
ATOM     71  C   UNL A   1      42.318  29.755  36.195  1.00  0.00     0.031 C 
ATOM     72  C   UNL A   1      42.165  35.076  34.209  1.00  0.00     0.029 A 
ATOM     73  C   UNL A   1      42.548  33.942  34.928  1.00  0.00     0.049 A 
ATOM     74  H   UNL A   1      42.149  33.714  36.990  1.00  0.00     0.167 HD
ATOM     75  C   UNL A   1      43.320  31.586  35.171  1.00  0.00     0.074 A 
ATOM     76  C   UNL A   1      42.468  31.084  36.248  1.00  0.00     0.031 C 
ATOM     77  C   UNL A   1      43.404  32.818  34.584  1.00  0.00     0.034 A 
BRANCH  64  78
ATOM     78  C   UNL A   1      39.211  34.027  37.860  1.00  0.00     0.023 A 
ATOM     79  C   UNL A   1      38.585  32.828  38.239  1.00  0.00     0.031 A 
ATOM     80  C   UNL A   1      39.294  35.020  38.866  1.00  0.00     0.131 A 
ATOM     81  C   UNL A   1      37.988  32.696  39.503  1.00  0.00     0.055 A 
ATOM     82  C   UNL A   1      38.764  34.855  40.147  1.00  0.00     0.041 A 
ATOM     83  F   UNL A   1      39.803  36.239  38.658  1.00  0.00    -0.206 F 
ATOM     84  C   UNL A   1      38.074  33.701  40.461  1.00  0.00     0.022 A 
BRANCH  81  85
ATOM     85  S   UNL A   1      36.934  31.257  39.796  1.00  0.00     0.124 S 
ATOM     86  O   UNL A   1      36.972  30.597  38.495  1.00  0.00    -0.237 OA
ATOM     87  O   UNL A   1      37.643  30.587  40.881  1.00  0.00    -0.237 OA
ATOM     88  O   UNL A   1      35.649  31.850  40.160  1.00  0.00    -0.744 OA
ENDBRANCH  81  85
ENDBRANCH  64  78
BRANCH  65  89
ATOM     89  C   UNL A   1      42.619  26.931  34.397  1.00  0.00     0.023 A 
ATOM     90  C   UNL A   1      43.612  26.081  33.866  1.00  0.00     0.031 A 
ATOM     91  C   UNL A   1      41.817  26.391  35.431  1.00  0.00     0.131 A 
ATOM     92  C   UNL A   1      43.759  24.761  34.357  1.00  0.00     0.055 A 
ATOM     93  C   UNL A   1      41.959  25.085  35.904  1.00  0.00     0.041 A 
ATOM     94  F   UNL A   1      40.917  27.143  36.083  1.00  0.00    -0.206 F 
ATOM     95  C   UNL A   1      42.938  24.264  35.373  1.00  0.00     0.022 A 
BRANCH  92  96
ATOM     96  S   UNL A   1      45.096  23.686  33.741  1.00  0.00     0.124 S 
ATOM     97  O   UNL A   1      45.208  22.691  34.802  1.00  0.00    -0.237 OA
ATOM     98  O   UNL A   1      44.563  23.220  32.467  1.00  0.00    -0.237 OA
ATOM     99  O   UNL A   1      46.240  24.593  33.627  1.00  0.00    -0.744 OA
ENDBRANCH  92  96
ENDBRANCH  65  89
BRANCH  77 100
ATOM    100  C   UNL A   1      44.278  32.978  33.352  1.00  0.00     0.023 A 
ATOM    101  C   UNL A   1      43.829  32.838  32.019  1.00  0.00     0.031 A 
ATOM    102  C   UNL A   1      45.597  33.427  33.548  1.00  0.00     0.131 A 
ATOM    103  C   UNL A   1      44.694  33.138  30.946  1.00  0.00     0.055 A 
ATOM    104  C   UNL A   1      46.442  33.742  32.485  1.00  0.00     0.041 A 
ATOM    105  F   UNL A   1      46.076  33.609  34.790  1.00  0.00    -0.206 F 
ATOM    106  C   UNL A   1      45.995  33.593  31.178  1.00  0.00     0.022 A 
BRANCH 103 107
ATOM    107  S   UNL A   1      44.146  32.929  29.220  1.00  0.00     0.124 S 
ATOM    108  O   UNL A   1      43.940  31.490  29.099  1.00  0.00    -0.237 OA
ATOM    109  O   UNL A   1      42.944  33.755  29.168  1.00  0.00    -0.237 OA
ATOM    110  O   UNL A   1      45.272  33.449  28.440  1.00  0.00    -0.744 OA
ENDBRANCH 103 107
ENDBRANCH  77 100
ENDBRANCH  51  52
ENDBRANCH  44  46
ENDBRANCH  43  44
ENDBRANCH  42  43
ENDBRANCH  41  42
ENDBRANCH  40  41
ENDBRANCH  39  40
ENDBRANCH   1  39
TORSDOF 27
ENDMDL
MODEL 3
REMARK VINA RESULT:      -9.3      6.695     14.469
REMARK SMILES COc1ccc(-c2[nH]nc3nc(-c4ccc(C(F)(F)F)cc4)cc(C(=O)OCCOCCOCCOCCOC(=O)c4ccc(-c5c6nc(c(-c7cc(S(=O)(=O)[O-])ccc7F)c7ccc([nH]7)c(-c7cc(S(=O)(=O)[O-])ccc7F)c7nc(c(-c8cc(S(=O)(=O)[O-])ccc8F)c8ccc5[nH]8)C=C7)C=C6)cc4)c23)cc1
REMARK SMILES IDX 34 1 33 2 32 3 31 4 30 5 29 6 28 7 27 8 25 9 26 10 24 11
REMARK SMILES IDX 7 12 8 13 105 14 9 15 10 17 11 18 23 19 12 20 6 21 3 22 4 23
REMARK SMILES IDX 107 24 5 25 106 26 2 27 1 28 13 29 14 30 22 31 15 32 21 33
REMARK SMILES IDX 16 34 17 35 18 36 19 37 20 38 35 39 36 40 37 41 38 42 39 43
REMARK SMILES IDX 40 44 41 45 42 46 43 47 104 48 44 49 103 50 45 51 46 52
REMARK SMILES IDX 47 53 97 54 48 55 102 56 96 57 98 58 49 59 101 60 95 61
REMARK SMILES IDX 94 62 50 64 82 65 62 66 81 67 63 68 66 69 80 70 99 71 64 72
REMARK SMILES IDX 65 73 79 75 100 76 67 77 51 78 52 79 60 80 53 81 59 82 61 83
REMARK SMILES IDX 58 84 54 85 55 86 56 87 57 88 83 89 84 90 92 91 85 92 91 93
REMARK SMILES IDX 93 94 90 95 86 96 87 97 88 98 89 99 68 100 69 101 77 102
REMARK SMILES IDX 70 103 76 104 78 105 75 106 71 107 72 108 73 109 74 110
REMARK H PARENT 8 16 98 63 66 74
REMARK Flexibility Score: inf
ROOT
ATOM      1  C   UNL A   1      46.204  31.523  26.413  1.00  0.00     0.188 C 
ENDROOT
BRANCH   1   2
ATOM      2  O   UNL A   1      45.280  31.982  25.427  1.00  0.00    -0.377 OA
BRANCH   2   3
ATOM      3  C   UNL A   1      44.433  33.059  25.814  1.00  0.00     0.188 C 
BRANCH   3   4
ATOM      4  C   UNL A   1      43.967  33.955  24.670  1.00  0.00     0.188 C 
BRANCH   4   5
ATOM      5  O   UNL A   1      42.867  34.791  24.987  1.00  0.00    -0.376 OA
BRANCH   5   6
ATOM      6  C   UNL A   1      42.665  35.265  26.309  1.00  0.00     0.202 C 
BRANCH   6   7
ATOM      7  C   UNL A   1      42.862  36.763  26.572  1.00  0.00     0.261 C 
BRANCH   7   8
ATOM      8  O   UNL A   1      43.449  37.056  27.853  1.00  0.00    -0.460 OA
BRANCH   8   9
ATOM      9  C   UNL A   1      43.197  38.268  28.399  1.00  0.00     0.339 C 
ATOM     10  O   UNL A   1      42.429  39.099  27.948  1.00  0.00    -0.246 OA
BRANCH   9  11
ATOM     11  C   UNL A   1      43.946  38.352  29.671  1.00  0.00     0.075 A 
ATOM     12  C   UNL A   1      45.825  39.952  29.111  1.00  0.00     0.075 A 
ATOM     13  N   UNL A   1      46.934  40.293  29.853  1.00  0.00    -0.275 N 
ATOM     14  C   UNL A   1      45.149  39.035  29.900  1.00  0.00     0.061 A 
ATOM     15  N   UNL A   1      46.952  39.796  31.098  1.00  0.00    -0.154 NA
ATOM     16  H   UNL A   1      47.658  40.856  29.497  1.00  0.00     0.190 HD
ATOM     17  C   UNL A   1      45.827  39.086  31.165  1.00  0.00     0.182 A 
ATOM     18  N   UNL A   1      45.331  38.514  32.287  1.00  0.00    -0.226 NA
ATOM     19  C   UNL A   1      43.436  37.817  30.878  1.00  0.00     0.045 A 
ATOM     20  C   UNL A   1      44.118  37.919  32.120  1.00  0.00     0.074 A 
BRANCH  12  21
ATOM     21  C   UNL A   1      45.517  40.693  27.893  1.00  0.00     0.001 A 
ATOM     22  C   UNL A   1      44.975  42.079  25.501  1.00  0.00     0.118 A 
ATOM     23  C   UNL A   1      44.556  42.587  26.734  1.00  0.00     0.047 A 
ATOM     24  C   UNL A   1      45.640  40.856  25.463  1.00  0.00     0.047 A 
ATOM     25  C   UNL A   1      44.813  41.894  27.924  1.00  0.00     0.014 A 
ATOM     26  C   UNL A   1      45.907  40.168  26.652  1.00  0.00     0.014 A 
BRANCH  22  27
ATOM     27  O   UNL A   1      44.687  42.873  24.424  1.00  0.00    -0.497 OA
ATOM     28  C   UNL A   1      45.588  42.817  23.323  1.00  0.00     0.278 C 
ENDBRANCH  22  27
ENDBRANCH  12  21
BRANCH  20  29
ATOM     29  C   UNL A   1      43.548  37.338  33.364  1.00  0.00     0.000 A 
ATOM     30  C   UNL A   1      42.699  36.215  33.327  1.00  0.00     0.011 A 
ATOM     31  C   UNL A   1      43.791  37.912  34.624  1.00  0.00     0.011 A 
ATOM     32  C   UNL A   1      42.086  35.718  34.486  1.00  0.00     0.014 A 
ATOM     33  C   UNL A   1      43.181  37.421  35.785  1.00  0.00     0.014 A 
ATOM     34  C   UNL A   1      42.304  36.331  35.726  1.00  0.00     0.056 A 
BRANCH  34  35
ATOM     35  C   UNL A   1      41.578  35.851  36.959  1.00  0.00     0.416 C 
ATOM     36  F   UNL A   1      42.433  35.433  37.935  1.00  0.00    -0.166 F 
ATOM     37  F   UNL A   1      40.799  36.812  37.527  1.00  0.00    -0.166 F 
ATOM     38  F   UNL A   1      40.751  34.792  36.721  1.00  0.00    -0.166 F 
ENDBRANCH  34  35
ENDBRANCH  20  29
ENDBRANCH   9  11
ENDBRANCH   8   9
ENDBRANCH   7   8
ENDBRANCH   6   7
ENDBRANCH   5   6
ENDBRANCH   4   5
ENDBRANCH   3   4
ENDBRANCH   2   3
ENDBRANCH   1   2
BRANCH   1  39
ATOM     39  C   UNL A   1      46.633  32.507  27.541  1.00  0.00     0.188 C 
BRANCH  39  40
ATOM     40  O   UNL A   1      48.005  32.426  27.939  1.00  0.00    -0.376 OA
BRANCH  40  41
ATOM     41  C   UNL A   1      48.873  33.517  27.654  1.00  0.00     0.202 C 
BRANCH  41  42
ATOM     42  C   UNL A   1      49.125  34.549  28.758  1.00  0.00     0.261 C 
BRANCH  42  43
ATOM     43  O   UNL A   1      47.954  35.167  29.241  1.00  0.00    -0.460 OA
BRANCH  43  44
ATOM     44  C   UNL A   1      47.750  35.051  30.564  1.00  0.00     0.338 C 
ATOM     45  O   UNL A   1      48.607  34.925  31.426  1.00  0.00    -0.246 OA
BRANCH  44  46
ATOM     46  C   UNL A   1      46.306  35.051  30.806  1.00  0.00     0.060 A 
ATOM     47  C   UNL A   1      45.907  34.594  32.060  1.00  0.00     0.016 A 
ATOM     48  C   UNL A   1      45.437  35.110  29.705  1.00  0.00     0.016 A 
ATOM     49  C   UNL A   1      44.762  33.846  32.110  1.00  0.00     0.010 A 
ATOM     50  C   UNL A   1      44.308  34.342  29.750  1.00  0.00     0.010 A 
ATOM     51  C   UNL A   1      44.072  33.624  30.915  1.00  0.00    -0.014 A 
BRANCH  51  52
ATOM     52  C   UNL A   1      43.081  32.583  30.906  1.00  0.00     0.031 A 
ATOM     53  C   UNL A   1      41.746  33.085  31.253  1.00  0.00     0.074 A 
ATOM     54  C   UNL A   1      43.381  31.324  30.544  1.00  0.00     0.049 A 
ATOM     55  N   UNL A   1      41.113  32.915  32.363  1.00  0.00    -0.248 NA
ATOM     56  C   UNL A   1      41.151  34.090  30.360  1.00  0.00     0.031 C 
ATOM     57  C   UNL A   1      44.610  30.817  29.930  1.00  0.00     0.029 A 
ATOM     58  N   UNL A   1      42.572  30.237  30.553  1.00  0.00    -0.354 N 
ATOM     59  C   UNL A   1      39.915  33.592  32.195  1.00  0.00     0.074 A 
ATOM     60  C   UNL A   1      40.117  34.493  31.095  1.00  0.00     0.031 C 
ATOM     61  C   UNL A   1      44.366  29.592  29.405  1.00  0.00     0.029 A 
ATOM     62  C   UNL A   1      43.009  29.192  29.751  1.00  0.00     0.049 A 
ATOM     63  H   UNL A   1      41.745  30.191  31.083  1.00  0.00     0.167 HD
ATOM     64  C   UNL A   1      38.774  33.136  32.775  1.00  0.00     0.034 A 
ATOM     65  C   UNL A   1      42.253  28.145  29.324  1.00  0.00     0.034 A 
ATOM     66  C   UNL A   1      39.073  32.206  33.844  1.00  0.00     0.049 A 
ATOM     67  C   UNL A   1      41.091  28.050  30.253  1.00  0.00     0.074 A 
ATOM     68  C   UNL A   1      39.821  32.287  35.004  1.00  0.00     0.029 A 
ATOM     69  N   UNL A   1      38.916  30.857  33.601  1.00  0.00    -0.354 N 
ATOM     70  N   UNL A   1      41.208  27.741  31.517  1.00  0.00    -0.248 NA
ATOM     71  C   UNL A   1      39.882  28.797  29.918  1.00  0.00     0.031 C 
ATOM     72  C   UNL A   1      40.484  31.030  35.108  1.00  0.00     0.029 A 
ATOM     73  C   UNL A   1      40.046  30.219  34.058  1.00  0.00     0.049 A 
ATOM     74  H   UNL A   1      38.137  30.429  33.178  1.00  0.00     0.167 HD
ATOM     75  C   UNL A   1      40.349  28.603  32.187  1.00  0.00     0.074 A 
ATOM     76  C   UNL A   1      39.489  29.162  31.145  1.00  0.00     0.031 C 
ATOM     77  C   UNL A   1      40.603  29.013  33.467  1.00  0.00     0.034 A 
BRANCH  64  78
ATOM     78  C   UNL A   1      37.412  33.233  32.130  1.00  0.00     0.023 A 
ATOM     79  C   UNL A   1      37.190  32.422  31.005  1.00  0.00     0.031 A 
ATOM     80  C   UNL A   1      36.441  34.238  32.362  1.00  0.00     0.131 A 
ATOM     81  C   UNL A   1      36.131  32.688  30.123  1.00  0.00     0.055 A 
ATOM     82  C   UNL A   1      35.347  34.450  31.522  1.00  0.00     0.041 A 
ATOM     83  F   UNL A   1      36.531  35.135  33.350  1.00  0.00    -0.206 F 
ATOM     84  C   UNL A   1      35.206  33.696  30.374  1.00  0.00     0.022 A 
BRANCH  81  85
ATOM     85  S   UNL A   1      36.103  31.809  28.544  1.00  0.00     0.124 S 
ATOM     86  O   UNL A   1      37.523  31.564  28.319  1.00  0.00    -0.237 OA
ATOM     87  O   UNL A   1      35.290  30.641  28.869  1.00  0.00    -0.237 OA
ATOM     88  O   UNL A   1      35.482  32.770  27.635  1.00  0.00    -0.744 OA
ENDBRANCH  81  85
ENDBRANCH  64  78
BRANCH  65  89
ATOM     89  C   UNL A   1      42.304  27.510  27.975  1.00  0.00     0.023 A 
ATOM     90  C   UNL A   1      42.608  26.145  27.781  1.00  0.00     0.031 A 
ATOM     91  C   UNL A   1      41.827  28.215  26.844  1.00  0.00     0.131 A 
ATOM     92  C   UNL A   1      42.445  25.552  26.505  1.00  0.00     0.055 A 
ATOM     93  C   UNL A   1      41.678  27.628  25.586  1.00  0.00     0.041 A 
ATOM     94  F   UNL A   1      41.404  29.484  26.939  1.00  0.00    -0.206 F 
ATOM     95  C   UNL A   1      41.979  26.289  25.412  1.00  0.00     0.022 A 
BRANCH  92  96
ATOM     96  S   UNL A   1      42.749  23.772  26.264  1.00  0.00     0.124 S 
ATOM     97  O   UNL A   1      41.412  23.206  26.409  1.00  0.00    -0.237 OA
ATOM     98  O   UNL A   1      43.331  23.730  24.928  1.00  0.00    -0.237 OA
ATOM     99  O   UNL A   1      43.678  23.434  27.344  1.00  0.00    -0.744 OA
ENDBRANCH  92  96
ENDBRANCH  65  89
BRANCH  77 100
ATOM    100  C   UNL A   1      41.696  28.309  34.252  1.00  0.00     0.023 A 
ATOM    101  C   UNL A   1      41.556  27.051  34.883  1.00  0.00     0.031 A 
ATOM    102  C   UNL A   1      42.978  28.888  34.237  1.00  0.00     0.131 A 
ATOM    103  C   UNL A   1      42.675  26.428  35.473  1.00  0.00     0.055 A 
ATOM    104  C   UNL A   1      44.086  28.259  34.803  1.00  0.00     0.041 A 
ATOM    105  F   UNL A   1      43.185  30.068  33.629  1.00  0.00    -0.206 F 
ATOM    106  C   UNL A   1      43.937  27.028  35.430  1.00  0.00     0.022 A 
BRANCH 103 107
ATOM    107  S   UNL A   1      42.508  24.825  36.324  1.00  0.00     0.124 S 
ATOM    108  O   UNL A   1      42.505  23.858  35.233  1.00  0.00    -0.237 OA
ATOM    109  O   UNL A   1      43.681  24.806  37.194  1.00  0.00    -0.237 OA
ATOM    110  O   UNL A   1      41.231  24.946  37.033  1.00  0.00    -0.744 OA
ENDBRANCH 103 107
ENDBRANCH  77 100
ENDBRANCH  51  52
ENDBRANCH  44  46
ENDBRANCH  43  44
ENDBRANCH  42  43
ENDBRANCH  41  42
ENDBRANCH  40  41
ENDBRANCH  39  40
ENDBRANCH   1  39
TORSDOF 27
ENDMDL
