MODEL 1
REMARK VINA RESULT:      -5.9      0.000      0.000
REMARK SMILES CCC(CC)(CC)NC(=O)NC[C@@H]1CC[C@H](C(=O)OCCOCCOCCOCCOC(=O)c2ccc(-c3c4nc(c(-c5cc(S(=O)(=O)[O-])ccc5F)c5ccc([nH]5)c(-c5cc(S(=O)(=O)[O-])ccc5F)c5nc(c(-c6cc(S(=O)(=O)[O-])ccc6F)c6ccc3[nH]6)C=C5)C=C4)cc2)O1
REMARK SMILES IDX 24 1 23 2 22 3 21 4 20 5 19 6 17 7 18 8 16 9 13 10 14 11
REMARK SMILES IDX 97 12 15 13 12 14 11 15 8 16 9 17 10 19 3 21 2 22 1 23 4 24
REMARK SMILES IDX 5 25 6 26 7 27 25 28 26 29 27 30 28 31 29 32 30 33 31 34
REMARK SMILES IDX 32 35 33 36 34 37 35 38 96 39 36 40 95 41 37 42 38 43 39 44
REMARK SMILES IDX 89 45 40 46 94 47 88 48 90 49 41 50 93 51 87 52 86 53 42 55
REMARK SMILES IDX 74 56 54 57 73 58 55 59 58 60 72 61 91 62 56 63 57 64 71 66
REMARK SMILES IDX 92 67 59 68 43 69 44 70 52 71 45 72 51 73 53 74 50 75 46 76
REMARK SMILES IDX 47 77 48 78 49 79 75 80 76 81 84 82 77 83 83 84 85 85 82 86
REMARK SMILES IDX 78 87 79 88 80 89 81 90 60 91 61 92 69 93 62 94 68 95 70 96
REMARK SMILES IDX 67 97 63 98 64 99 65 100 66 101
REMARK H PARENT 8 18 11 20 90 54 58 65
REMARK Flexibility Score: inf
ROOT
ATOM      1  C   UNL A   1      36.574  32.393  28.824  1.00  0.00     0.188 C 
ENDROOT
BRANCH   1   2
ATOM      2  C   UNL A   1      37.204  33.760  29.106  1.00  0.00     0.188 C 
BRANCH   2   3
ATOM      3  O   UNL A   1      38.601  33.929  29.261  1.00  0.00    -0.376 OA
BRANCH   3   4
ATOM      4  C   UNL A   1      39.337  33.385  30.346  1.00  0.00     0.202 C 
BRANCH   4   5
ATOM      5  C   UNL A   1      39.988  31.998  30.310  1.00  0.00     0.261 C 
BRANCH   5   6
ATOM      6  O   UNL A   1      39.140  30.918  30.700  1.00  0.00    -0.461 OA
BRANCH   6   7
ATOM      7  C   UNL A   1      39.661  29.671  30.603  1.00  0.00     0.335 C 
ATOM      8  O   UNL A   1      40.820  29.381  30.879  1.00  0.00    -0.249 OA
BRANCH   7   9
ATOM      9  C   UNL A   1      38.685  28.671  29.993  1.00  0.00     0.228 C 
ATOM     10  C   UNL A   1      39.646  27.765  28.109  1.00  0.00     0.138 C 
ATOM     11  C   UNL A   1      38.786  28.917  27.632  1.00  0.00     0.037 C 
ATOM     12  O   UNL A   1      39.624  27.687  29.539  1.00  0.00    -0.361 OA
ATOM     13  C   UNL A   1      37.809  28.963  28.777  1.00  0.00     0.047 C 
BRANCH  10  14
ATOM     14  C   UNL A   1      41.065  27.715  27.556  1.00  0.00     0.149 C 
BRANCH  14  15
ATOM     15  N   UNL A   1      42.107  28.083  28.518  1.00  0.00    -0.336 N 
ATOM     16  N   UNL A   1      44.169  26.856  28.370  1.00  0.00    -0.333 N 
ATOM     17  C   UNL A   1      43.379  27.836  28.816  1.00  0.00     0.315 C 
ATOM     18  H   UNL A   1      45.078  26.970  28.730  1.00  0.00     0.165 HD
ATOM     19  O   UNL A   1      43.894  28.599  29.645  1.00  0.00    -0.249 OA
ATOM     20  H   UNL A   1      41.742  28.732  29.161  1.00  0.00     0.165 HD
BRANCH  16  21
ATOM     21  C   UNL A   1      44.117  25.652  27.506  1.00  0.00     0.041 C 
BRANCH  21  22
ATOM     22  C   UNL A   1      43.074  24.657  28.006  1.00  0.00     0.025 C 
ATOM     23  C   UNL A   1      43.335  24.194  29.461  1.00  0.00     0.006 C 
ENDBRANCH  21  22
BRANCH  21  24
ATOM     24  C   UNL A   1      45.501  24.891  27.592  1.00  0.00     0.025 C 
ATOM     25  C   UNL A   1      45.589  23.618  26.731  1.00  0.00     0.006 C 
ENDBRANCH  21  24
BRANCH  21  26
ATOM     26  C   UNL A   1      43.924  26.054  26.012  1.00  0.00     0.025 C 
ATOM     27  C   UNL A   1      44.911  27.032  25.386  1.00  0.00     0.006 C 
ENDBRANCH  21  26
ENDBRANCH  16  21
ENDBRANCH  14  15
ENDBRANCH  10  14
ENDBRANCH   7   9
ENDBRANCH   6   7
ENDBRANCH   5   6
ENDBRANCH   4   5
ENDBRANCH   3   4
ENDBRANCH   2   3
ENDBRANCH   1   2
BRANCH   1  28
ATOM     28  O   UNL A   1      35.744  31.869  29.839  1.00  0.00    -0.377 OA
BRANCH  28  29
ATOM     29  C   UNL A   1      34.741  32.714  30.396  1.00  0.00     0.188 C 
BRANCH  29  30
ATOM     30  C   UNL A   1      34.861  33.112  31.879  1.00  0.00     0.188 C 
BRANCH  30  31
ATOM     31  O   UNL A   1      35.468  34.377  32.091  1.00  0.00    -0.376 OA
BRANCH  31  32
ATOM     32  C   UNL A   1      36.131  34.645  33.317  1.00  0.00     0.202 C 
BRANCH  32  33
ATOM     33  C   UNL A   1      35.686  33.917  34.597  1.00  0.00     0.261 C 
BRANCH  33  34
ATOM     34  O   UNL A   1      36.367  32.701  34.941  1.00  0.00    -0.460 OA
BRANCH  34  35
ATOM     35  C   UNL A   1      37.169  32.696  36.031  1.00  0.00     0.338 C 
ATOM     36  O   UNL A   1      36.895  33.076  37.143  1.00  0.00    -0.246 OA
BRANCH  35  37
ATOM     37  C   UNL A   1      38.394  31.952  35.659  1.00  0.00     0.060 A 
ATOM     38  C   UNL A   1      39.573  32.153  36.389  1.00  0.00     0.016 A 
ATOM     39  C   UNL A   1      38.371  31.069  34.578  1.00  0.00     0.016 A 
ATOM     40  C   UNL A   1      40.749  31.501  36.014  1.00  0.00     0.010 A 
ATOM     41  C   UNL A   1      39.553  30.438  34.189  1.00  0.00     0.010 A 
ATOM     42  C   UNL A   1      40.755  30.680  34.881  1.00  0.00    -0.014 A 
BRANCH  42  43
ATOM     43  C   UNL A   1      42.033  30.261  34.256  1.00  0.00     0.031 A 
ATOM     44  C   UNL A   1      42.681  31.215  33.290  1.00  0.00     0.074 A 
ATOM     45  C   UNL A   1      42.591  29.065  34.510  1.00  0.00     0.049 A 
ATOM     46  N   UNL A   1      43.679  31.021  32.472  1.00  0.00    -0.248 NA
ATOM     47  C   UNL A   1      42.107  32.569  33.236  1.00  0.00     0.031 C 
ATOM     48  C   UNL A   1      42.103  28.093  35.486  1.00  0.00     0.029 A 
ATOM     49  N   UNL A   1      43.685  28.457  33.945  1.00  0.00    -0.354 N 
ATOM     50  C   UNL A   1      43.846  32.224  31.792  1.00  0.00     0.074 A 
ATOM     51  C   UNL A   1      42.822  33.126  32.272  1.00  0.00     0.031 C 
ATOM     52  C   UNL A   1      42.883  26.997  35.434  1.00  0.00     0.029 A 
ATOM     53  C   UNL A   1      43.886  27.168  34.381  1.00  0.00     0.049 A 
ATOM     54  H   UNL A   1      44.271  28.902  33.290  1.00  0.00     0.167 HD
ATOM     55  C   UNL A   1      44.769  32.543  30.853  1.00  0.00     0.034 A 
ATOM     56  C   UNL A   1      44.748  26.225  33.946  1.00  0.00     0.034 A 
ATOM     57  C   UNL A   1      45.770  31.622  30.377  1.00  0.00     0.049 A 
ATOM     58  C   UNL A   1      45.691  26.560  32.810  1.00  0.00     0.074 A 
ATOM     59  C   UNL A   1      46.748  31.832  29.421  1.00  0.00     0.029 A 
ATOM     60  N   UNL A   1      45.916  30.311  30.815  1.00  0.00    -0.354 N 
ATOM     61  N   UNL A   1      45.819  27.687  32.146  1.00  0.00    -0.248 NA
ATOM     62  C   UNL A   1      46.606  25.499  32.364  1.00  0.00     0.031 C 
ATOM     63  C   UNL A   1      47.430  30.629  29.223  1.00  0.00     0.029 A 
ATOM     64  C   UNL A   1      46.948  29.696  30.128  1.00  0.00     0.049 A 
ATOM     65  H   UNL A   1      45.366  29.884  31.511  1.00  0.00     0.167 HD
ATOM     66  C   UNL A   1      46.867  27.483  31.248  1.00  0.00     0.074 A 
ATOM     67  C   UNL A   1      47.328  26.127  31.446  1.00  0.00     0.031 C 
ATOM     68  C   UNL A   1      47.409  28.345  30.351  1.00  0.00     0.034 A 
BRANCH  55  69
ATOM     69  C   UNL A   1      44.696  33.920  30.244  1.00  0.00     0.023 A 
ATOM     70  C   UNL A   1      43.849  34.207  29.159  1.00  0.00     0.031 A 
ATOM     71  C   UNL A   1      45.502  34.959  30.741  1.00  0.00     0.131 A 
ATOM     72  C   UNL A   1      43.878  35.477  28.566  1.00  0.00     0.055 A 
ATOM     73  C   UNL A   1      45.462  36.246  30.203  1.00  0.00     0.041 A 
ATOM     74  F   UNL A   1      46.353  34.739  31.756  1.00  0.00    -0.206 F 
ATOM     75  C   UNL A   1      44.656  36.508  29.098  1.00  0.00     0.022 A 
BRANCH  72  76
ATOM     76  S   UNL A   1      42.998  35.719  26.999  1.00  0.00     0.124 S 
ATOM     77  O   UNL A   1      43.410  34.538  26.244  1.00  0.00    -0.237 OA
ATOM     78  O   UNL A   1      41.603  35.752  27.422  1.00  0.00    -0.237 OA
ATOM     79  O   UNL A   1      43.530  36.985  26.500  1.00  0.00    -0.744 OA
ENDBRANCH  72  76
ENDBRANCH  55  69
BRANCH  56  80
ATOM     80  C   UNL A   1      44.741  24.854  34.540  1.00  0.00     0.023 A 
ATOM     81  C   UNL A   1      45.380  24.596  35.763  1.00  0.00     0.031 A 
ATOM     82  C   UNL A   1      44.165  23.767  33.858  1.00  0.00     0.131 A 
ATOM     83  C   UNL A   1      45.484  23.278  36.234  1.00  0.00     0.055 A 
ATOM     84  C   UNL A   1      44.211  22.467  34.367  1.00  0.00     0.041 A 
ATOM     85  F   UNL A   1      43.547  23.952  32.681  1.00  0.00    -0.206 F 
ATOM     86  C   UNL A   1      44.889  22.214  35.554  1.00  0.00     0.022 A 
BRANCH  83  87
ATOM     87  S   UNL A   1      46.521  22.960  37.689  1.00  0.00     0.124 S 
ATOM     88  O   UNL A   1      47.835  22.787  37.081  1.00  0.00    -0.237 OA
ATOM     89  O   UNL A   1      46.328  24.179  38.468  1.00  0.00    -0.237 OA
ATOM     90  O   UNL A   1      45.935  21.753  38.265  1.00  0.00    -0.744 OA
ENDBRANCH  83  87
ENDBRANCH  56  80
BRANCH  68  91
ATOM     91  C   UNL A   1      48.627  27.892  29.583  1.00  0.00     0.023 A 
ATOM     92  C   UNL A   1      49.910  27.854  30.153  1.00  0.00     0.031 A 
ATOM     93  C   UNL A   1      48.481  27.447  28.254  1.00  0.00     0.131 A 
ATOM     94  C   UNL A   1      51.001  27.411  29.389  1.00  0.00     0.055 A 
ATOM     95  C   UNL A   1      49.557  26.951  27.520  1.00  0.00     0.041 A 
ATOM     96  F   UNL A   1      47.278  27.465  27.658  1.00  0.00    -0.206 F 
ATOM     97  C   UNL A   1      50.829  26.939  28.084  1.00  0.00     0.022 A 
BRANCH  94  98
ATOM     98  S   UNL A   1      52.669  27.518  30.095  1.00  0.00     0.124 S 
ATOM     99  O   UNL A   1      52.619  28.795  30.799  1.00  0.00    -0.237 OA
ATOM    100  O   UNL A   1      52.729  26.327  30.937  1.00  0.00    -0.237 OA
ATOM    101  O   UNL A   1      53.541  27.491  28.922  1.00  0.00    -0.744 OA
ENDBRANCH  94  98
ENDBRANCH  68  91
ENDBRANCH  42  43
ENDBRANCH  35  37
ENDBRANCH  34  35
ENDBRANCH  33  34
ENDBRANCH  32  33
ENDBRANCH  31  32
ENDBRANCH  30  31
ENDBRANCH  29  30
ENDBRANCH  28  29
ENDBRANCH   1  28
TORSDOF 29
ENDMDL
MODEL 2
REMARK VINA RESULT:      -5.7      1.743      2.164
REMARK SMILES CCC(CC)(CC)NC(=O)NC[C@@H]1CC[C@H](C(=O)OCCOCCOCCOCCOC(=O)c2ccc(-c3c4nc(c(-c5cc(S(=O)(=O)[O-])ccc5F)c5ccc([nH]5)c(-c5cc(S(=O)(=O)[O-])ccc5F)c5nc(c(-c6cc(S(=O)(=O)[O-])ccc6F)c6ccc3[nH]6)C=C5)C=C4)cc2)O1
REMARK SMILES IDX 24 1 23 2 22 3 21 4 20 5 19 6 17 7 18 8 16 9 13 10 14 11
REMARK SMILES IDX 97 12 15 13 12 14 11 15 8 16 9 17 10 19 3 21 2 22 1 23 4 24
REMARK SMILES IDX 5 25 6 26 7 27 25 28 26 29 27 30 28 31 29 32 30 33 31 34
REMARK SMILES IDX 32 35 33 36 34 37 35 38 96 39 36 40 95 41 37 42 38 43 39 44
REMARK SMILES IDX 89 45 40 46 94 47 88 48 90 49 41 50 93 51 87 52 86 53 42 55
REMARK SMILES IDX 74 56 54 57 73 58 55 59 58 60 72 61 91 62 56 63 57 64 71 66
REMARK SMILES IDX 92 67 59 68 43 69 44 70 52 71 45 72 51 73 53 74 50 75 46 76
REMARK SMILES IDX 47 77 48 78 49 79 75 80 76 81 84 82 77 83 83 84 85 85 82 86
REMARK SMILES IDX 78 87 79 88 80 89 81 90 60 91 61 92 69 93 62 94 68 95 70 96
REMARK SMILES IDX 67 97 63 98 64 99 65 100 66 101
REMARK H PARENT 8 18 11 20 90 54 58 65
REMARK Flexibility Score: inf
ROOT
ATOM      1  C   UNL A   1      36.553  33.114  28.586  1.00  0.00     0.188 C 
ENDROOT
BRANCH   1   2
ATOM      2  C   UNL A   1      37.623  33.794  29.445  1.00  0.00     0.188 C 
BRANCH   2   3
ATOM      3  O   UNL A   1      38.905  33.226  29.642  1.00  0.00    -0.376 OA
BRANCH   3   4
ATOM      4  C   UNL A   1      39.214  32.351  30.717  1.00  0.00     0.202 C 
BRANCH   4   5
ATOM      5  C   UNL A   1      39.401  30.839  30.544  1.00  0.00     0.261 C 
BRANCH   5   6
ATOM      6  O   UNL A   1      38.216  30.113  30.218  1.00  0.00    -0.461 OA
BRANCH   6   7
ATOM      7  C   UNL A   1      38.370  28.801  29.917  1.00  0.00     0.335 C 
ATOM      8  O   UNL A   1      38.648  27.931  30.736  1.00  0.00    -0.249 OA
BRANCH   7   9
ATOM      9  C   UNL A   1      38.281  28.526  28.420  1.00  0.00     0.228 C 
ATOM     10  C   UNL A   1      40.170  27.380  27.774  1.00  0.00     0.138 C 
ATOM     11  C   UNL A   1      40.450  28.844  27.503  1.00  0.00     0.037 C 
ATOM     12  O   UNL A   1      38.888  27.226  28.394  1.00  0.00    -0.361 OA
ATOM     13  C   UNL A   1      39.031  29.326  27.358  1.00  0.00     0.047 C 
BRANCH  10  14
ATOM     14  C   UNL A   1      41.258  26.615  28.517  1.00  0.00     0.149 C 
BRANCH  14  15
ATOM     15  N   UNL A   1      42.409  27.429  28.918  1.00  0.00    -0.336 N 
ATOM     16  N   UNL A   1      44.388  27.202  27.573  1.00  0.00    -0.333 N 
ATOM     17  C   UNL A   1      43.633  27.764  28.521  1.00  0.00     0.315 C 
ATOM     18  H   UNL A   1      45.227  27.709  27.472  1.00  0.00     0.165 HD
ATOM     19  O   UNL A   1      44.158  28.703  29.134  1.00  0.00    -0.249 OA
ATOM     20  H   UNL A   1      42.207  27.882  29.768  1.00  0.00     0.165 HD
BRANCH  16  21
ATOM     21  C   UNL A   1      44.371  26.062  26.626  1.00  0.00     0.041 C 
BRANCH  21  22
ATOM     22  C   UNL A   1      44.275  24.730  27.363  1.00  0.00     0.025 C 
ATOM     23  C   UNL A   1      45.315  23.694  26.872  1.00  0.00     0.006 C 
ENDBRANCH  21  22
BRANCH  21  24
ATOM     24  C   UNL A   1      45.746  26.014  25.845  1.00  0.00     0.025 C 
ATOM     25  C   UNL A   1      46.339  27.392  25.505  1.00  0.00     0.006 C 
ENDBRANCH  21  24
BRANCH  21  26
ATOM     26  C   UNL A   1      43.258  26.258  25.550  1.00  0.00     0.025 C 
ATOM     27  C   UNL A   1      42.208  25.168  25.379  1.00  0.00     0.006 C 
ENDBRANCH  21  26
ENDBRANCH  16  21
ENDBRANCH  14  15
ENDBRANCH  10  14
ENDBRANCH   7   9
ENDBRANCH   6   7
ENDBRANCH   5   6
ENDBRANCH   4   5
ENDBRANCH   3   4
ENDBRANCH   2   3
ENDBRANCH   1   2
BRANCH   1  28
ATOM     28  O   UNL A   1      35.577  32.369  29.283  1.00  0.00    -0.377 OA
BRANCH  28  29
ATOM     29  C   UNL A   1      34.550  33.076  29.972  1.00  0.00     0.188 C 
BRANCH  29  30
ATOM     30  C   UNL A   1      34.686  33.265  31.494  1.00  0.00     0.188 C 
BRANCH  30  31
ATOM     31  O   UNL A   1      34.931  34.606  31.891  1.00  0.00    -0.376 OA
BRANCH  31  32
ATOM     32  C   UNL A   1      35.459  34.875  33.181  1.00  0.00     0.202 C 
BRANCH  32  33
ATOM     33  C   UNL A   1      35.291  33.835  34.303  1.00  0.00     0.261 C 
BRANCH  33  34
ATOM     34  O   UNL A   1      36.346  32.878  34.485  1.00  0.00    -0.460 OA
BRANCH  34  35
ATOM     35  C   UNL A   1      37.053  32.908  35.639  1.00  0.00     0.338 C 
ATOM     36  O   UNL A   1      36.678  33.303  36.716  1.00  0.00    -0.246 OA
BRANCH  35  37
ATOM     37  C   UNL A   1      38.318  32.182  35.386  1.00  0.00     0.060 A 
ATOM     38  C   UNL A   1      39.476  32.547  36.087  1.00  0.00     0.016 A 
ATOM     39  C   UNL A   1      38.354  31.152  34.445  1.00  0.00     0.016 A 
ATOM     40  C   UNL A   1      40.688  31.908  35.818  1.00  0.00     0.010 A 
ATOM     41  C   UNL A   1      39.570  30.532  34.158  1.00  0.00     0.010 A 
ATOM     42  C   UNL A   1      40.750  30.933  34.816  1.00  0.00    -0.014 A 
BRANCH  42  43
ATOM     43  C   UNL A   1      42.055  30.494  34.267  1.00  0.00     0.031 A 
ATOM     44  C   UNL A   1      42.668  31.331  33.177  1.00  0.00     0.074 A 
ATOM     45  C   UNL A   1      42.668  29.377  34.695  1.00  0.00     0.049 A 
ATOM     46  N   UNL A   1      43.686  31.072  32.402  1.00  0.00    -0.248 NA
ATOM     47  C   UNL A   1      42.029  32.632  32.923  1.00  0.00     0.031 C 
ATOM     48  C   UNL A   1      42.215  28.533  35.798  1.00  0.00     0.029 A 
ATOM     49  N   UNL A   1      43.798  28.751  34.231  1.00  0.00    -0.354 N 
ATOM     50  C   UNL A   1      43.802  32.171  31.556  1.00  0.00     0.074 A 
ATOM     51  C   UNL A   1      42.728  33.080  31.894  1.00  0.00     0.031 C 
ATOM     52  C   UNL A   1      43.049  27.482  35.910  1.00  0.00     0.029 A 
ATOM     53  C   UNL A   1      44.057  27.550  34.850  1.00  0.00     0.049 A 
ATOM     54  H   UNL A   1      44.370  29.126  33.522  1.00  0.00     0.167 HD
ATOM     55  C   UNL A   1      44.722  32.398  30.587  1.00  0.00     0.034 A 
ATOM     56  C   UNL A   1      44.970  26.599  34.562  1.00  0.00     0.034 A 
ATOM     57  C   UNL A   1      45.773  31.470  30.256  1.00  0.00     0.049 A 
ATOM     58  C   UNL A   1      45.912  26.815  33.395  1.00  0.00     0.074 A 
ATOM     59  C   UNL A   1      46.753  31.590  29.286  1.00  0.00     0.029 A 
ATOM     60  N   UNL A   1      45.978  30.245  30.880  1.00  0.00    -0.354 N 
ATOM     61  N   UNL A   1      45.993  27.839  32.576  1.00  0.00    -0.248 NA
ATOM     62  C   UNL A   1      46.884  25.748  33.113  1.00  0.00     0.031 C 
ATOM     63  C   UNL A   1      47.496  30.407  29.268  1.00  0.00     0.029 A 
ATOM     64  C   UNL A   1      47.048  29.590  30.295  1.00  0.00     0.049 A 
ATOM     65  H   UNL A   1      45.440  29.896  31.626  1.00  0.00     0.167 HD
ATOM     66  C   UNL A   1      47.061  27.561  31.724  1.00  0.00     0.074 A 
ATOM     67  C   UNL A   1      47.586  26.273  32.119  1.00  0.00     0.031 C 
ATOM     68  C   UNL A   1      47.573  28.312  30.715  1.00  0.00     0.034 A 
BRANCH  55  69
ATOM     69  C   UNL A   1      44.589  33.667  29.784  1.00  0.00     0.023 A 
ATOM     70  C   UNL A   1      45.102  34.892  30.245  1.00  0.00     0.031 A 
ATOM     71  C   UNL A   1      43.918  33.658  28.549  1.00  0.00     0.131 A 
ATOM     72  C   UNL A   1      44.877  36.065  29.509  1.00  0.00     0.055 A 
ATOM     73  C   UNL A   1      43.774  34.813  27.779  1.00  0.00     0.041 A 
ATOM     74  F   UNL A   1      43.379  32.524  28.072  1.00  0.00    -0.206 F 
ATOM     75  C   UNL A   1      44.243  36.030  28.265  1.00  0.00     0.022 A 
BRANCH  72  76
ATOM     76  S   UNL A   1      45.294  37.657  30.272  1.00  0.00     0.124 S 
ATOM     77  O   UNL A   1      45.873  38.381  29.143  1.00  0.00    -0.237 OA
ATOM     78  O   UNL A   1      43.997  38.132  30.739  1.00  0.00    -0.237 OA
ATOM     79  O   UNL A   1      46.243  37.295  31.322  1.00  0.00    -0.744 OA
ENDBRANCH  72  76
ENDBRANCH  55  69
BRANCH  56  80
ATOM     80  C   UNL A   1      45.023  25.330  35.347  1.00  0.00     0.023 A 
ATOM     81  C   UNL A   1      45.740  25.258  36.553  1.00  0.00     0.031 A 
ATOM     82  C   UNL A   1      44.426  24.150  34.868  1.00  0.00     0.131 A 
ATOM     83  C   UNL A   1      45.895  24.024  37.203  1.00  0.00     0.055 A 
ATOM     84  C   UNL A   1      44.524  22.939  35.557  1.00  0.00     0.041 A 
ATOM     85  F   UNL A   1      43.733  24.156  33.718  1.00  0.00    -0.206 F 
ATOM     86  C   UNL A   1      45.278  22.867  36.723  1.00  0.00     0.022 A 
BRANCH  83  87
ATOM     87  S   UNL A   1      47.024  23.931  38.620  1.00  0.00     0.124 S 
ATOM     88  O   UNL A   1      46.427  24.898  39.534  1.00  0.00    -0.237 OA
ATOM     89  O   UNL A   1      46.911  22.528  39.004  1.00  0.00    -0.237 OA
ATOM     90  O   UNL A   1      48.313  24.320  38.053  1.00  0.00    -0.744 OA
ENDBRANCH  83  87
ENDBRANCH  56  80
BRANCH  68  91
ATOM     91  C   UNL A   1      48.822  27.815  30.028  1.00  0.00     0.023 A 
ATOM     92  C   UNL A   1      48.783  27.004  28.882  1.00  0.00     0.031 A 
ATOM     93  C   UNL A   1      50.083  28.208  30.517  1.00  0.00     0.131 A 
ATOM     94  C   UNL A   1      49.982  26.585  28.282  1.00  0.00     0.055 A 
ATOM     95  C   UNL A   1      51.269  27.839  29.882  1.00  0.00     0.041 A 
ATOM     96  F   UNL A   1      50.180  28.981  31.611  1.00  0.00    -0.206 F 
ATOM     97  C   UNL A   1      51.223  27.015  28.762  1.00  0.00     0.022 A 
BRANCH  94  98
ATOM     98  S   UNL A   1      49.908  25.412  26.901  1.00  0.00     0.124 S 
ATOM     99  O   UNL A   1      48.843  24.509  27.325  1.00  0.00    -0.237 OA
ATOM    100  O   UNL A   1      49.595  26.280  25.770  1.00  0.00    -0.237 OA
ATOM    101  O   UNL A   1      51.247  24.824  26.877  1.00  0.00    -0.744 OA
ENDBRANCH  94  98
ENDBRANCH  68  91
ENDBRANCH  42  43
ENDBRANCH  35  37
ENDBRANCH  34  35
ENDBRANCH  33  34
ENDBRANCH  32  33
ENDBRANCH  31  32
ENDBRANCH  30  31
ENDBRANCH  29  30
ENDBRANCH  28  29
ENDBRANCH   1  28
TORSDOF 29
ENDMDL
MODEL 3
REMARK VINA RESULT:      -5.7      5.557     10.936
REMARK SMILES CCC(CC)(CC)NC(=O)NC[C@@H]1CC[C@H](C(=O)OCCOCCOCCOCCOC(=O)c2ccc(-c3c4nc(c(-c5cc(S(=O)(=O)[O-])ccc5F)c5ccc([nH]5)c(-c5cc(S(=O)(=O)[O-])ccc5F)c5nc(c(-c6cc(S(=O)(=O)[O-])ccc6F)c6ccc3[nH]6)C=C5)C=C4)cc2)O1
REMARK SMILES IDX 24 1 23 2 22 3 21 4 20 5 19 6 17 7 18 8 16 9 13 10 14 11
REMARK SMILES IDX 97 12 15 13 12 14 11 15 8 16 9 17 10 19 3 21 2 22 1 23 4 24
REMARK SMILES IDX 5 25 6 26 7 27 25 28 26 29 27 30 28 31 29 32 30 33 31 34
REMARK SMILES IDX 32 35 33 36 34 37 35 38 96 39 36 40 95 41 37 42 38 43 39 44
REMARK SMILES IDX 89 45 40 46 94 47 88 48 90 49 41 50 93 51 87 52 86 53 42 55
REMARK SMILES IDX 74 56 54 57 73 58 55 59 58 60 72 61 91 62 56 63 57 64 71 66
REMARK SMILES IDX 92 67 59 68 43 69 44 70 52 71 45 72 51 73 53 74 50 75 46 76
REMARK SMILES IDX 47 77 48 78 49 79 75 80 76 81 84 82 77 83 83 84 85 85 82 86
REMARK SMILES IDX 78 87 79 88 80 89 81 90 60 91 61 92 69 93 62 94 68 95 70 96
REMARK SMILES IDX 67 97 63 98 64 99 65 100 66 101
REMARK H PARENT 8 18 11 20 90 54 58 65
REMARK Flexibility Score: inf
ROOT
ATOM      1  C   UNL A   1      33.879  34.587  31.091  1.00  0.00     0.188 C 
ENDROOT
BRANCH   1   2
ATOM      2  C   UNL A   1      33.363  35.470  29.951  1.00  0.00     0.188 C 
BRANCH   2   3
ATOM      3  O   UNL A   1      33.956  35.465  28.665  1.00  0.00    -0.376 OA
BRANCH   3   4
ATOM      4  C   UNL A   1      34.146  34.286  27.898  1.00  0.00     0.202 C 
BRANCH   4   5
ATOM      5  C   UNL A   1      33.041  33.250  27.658  1.00  0.00     0.261 C 
BRANCH   5   6
ATOM      6  O   UNL A   1      33.414  31.895  27.905  1.00  0.00    -0.461 OA
BRANCH   6   7
ATOM      7  C   UNL A   1      32.888  30.959  27.078  1.00  0.00     0.335 C 
ATOM      8  O   UNL A   1      31.686  30.772  26.919  1.00  0.00    -0.249 OA
BRANCH   7   9
ATOM      9  C   UNL A   1      33.950  30.067  26.446  1.00  0.00     0.228 C 
ATOM     10  C   UNL A   1      32.904  28.278  25.446  1.00  0.00     0.138 C 
ATOM     11  C   UNL A   1      33.312  27.810  26.828  1.00  0.00     0.037 C 
ATOM     12  O   UNL A   1      33.235  29.660  25.272  1.00  0.00    -0.361 OA
ATOM     13  C   UNL A   1      34.451  28.764  27.066  1.00  0.00     0.047 C 
BRANCH  10  14
ATOM     14  C   UNL A   1      31.468  27.978  25.033  1.00  0.00     0.149 C 
BRANCH  14  15
ATOM     15  N   UNL A   1      30.856  26.848  25.736  1.00  0.00    -0.336 N 
ATOM     16  N   UNL A   1      31.496  24.657  24.980  1.00  0.00    -0.333 N 
ATOM     17  C   UNL A   1      30.908  25.521  25.812  1.00  0.00     0.315 C 
ATOM     18  H   UNL A   1      31.409  23.742  25.334  1.00  0.00     0.165 HD
ATOM     19  O   UNL A   1      30.301  25.014  26.765  1.00  0.00    -0.249 OA
ATOM     20  H   UNL A   1      30.177  27.183  26.365  1.00  0.00     0.165 HD
BRANCH  16  21
ATOM     21  C   UNL A   1      32.237  24.633  23.696  1.00  0.00     0.041 C 
BRANCH  21  22
ATOM     22  C   UNL A   1      31.454  25.335  22.592  1.00  0.00     0.025 C 
ATOM     23  C   UNL A   1      32.337  26.272  21.731  1.00  0.00     0.006 C 
ENDBRANCH  21  22
BRANCH  21  24
ATOM     24  C   UNL A   1      32.394  23.134  23.215  1.00  0.00     0.025 C 
ATOM     25  C   UNL A   1      32.136  22.080  24.306  1.00  0.00     0.006 C 
ENDBRANCH  21  24
BRANCH  21  26
ATOM     26  C   UNL A   1      33.682  25.191  23.884  1.00  0.00     0.025 C 
ATOM     27  C   UNL A   1      34.455  24.806  25.139  1.00  0.00     0.006 C 
ENDBRANCH  21  26
ENDBRANCH  16  21
ENDBRANCH  14  15
ENDBRANCH  10  14
ENDBRANCH   7   9
ENDBRANCH   6   7
ENDBRANCH   5   6
ENDBRANCH   4   5
ENDBRANCH   3   4
ENDBRANCH   2   3
ENDBRANCH   1   2
BRANCH   1  28
ATOM     28  O   UNL A   1      34.348  35.264  32.239  1.00  0.00    -0.377 OA
BRANCH  28  29
ATOM     29  C   UNL A   1      34.915  34.492  33.294  1.00  0.00     0.188 C 
BRANCH  29  30
ATOM     30  C   UNL A   1      35.053  32.972  33.095  1.00  0.00     0.188 C 
BRANCH  30  31
ATOM     31  O   UNL A   1      35.866  32.332  34.067  1.00  0.00    -0.376 OA
BRANCH  31  32
ATOM     32  C   UNL A   1      37.212  32.747  34.244  1.00  0.00     0.202 C 
BRANCH  32  33
ATOM     33  C   UNL A   1      38.256  32.424  33.161  1.00  0.00     0.261 C 
BRANCH  33  34
ATOM     34  O   UNL A   1      39.091  33.498  32.702  1.00  0.00    -0.460 OA
BRANCH  34  35
ATOM     35  C   UNL A   1      38.755  34.133  31.555  1.00  0.00     0.338 C 
ATOM     36  O   UNL A   1      37.651  34.475  31.205  1.00  0.00    -0.246 OA
BRANCH  35  37
ATOM     37  C   UNL A   1      40.021  34.511  30.887  1.00  0.00     0.060 A 
ATOM     38  C   UNL A   1      40.014  34.822  29.520  1.00  0.00     0.016 A 
ATOM     39  C   UNL A   1      41.211  34.543  31.616  1.00  0.00     0.016 A 
ATOM     40  C   UNL A   1      41.209  35.126  28.865  1.00  0.00     0.010 A 
ATOM     41  C   UNL A   1      42.407  34.822  30.955  1.00  0.00     0.010 A 
ATOM     42  C   UNL A   1      42.417  35.076  29.570  1.00  0.00    -0.014 A 
BRANCH  42  43
ATOM     43  C   UNL A   1      43.713  35.045  28.850  1.00  0.00     0.031 A 
ATOM     44  C   UNL A   1      44.382  33.708  28.679  1.00  0.00     0.074 A 
ATOM     45  C   UNL A   1      44.297  36.163  28.384  1.00  0.00     0.049 A 
ATOM     46  N   UNL A   1      45.589  33.427  28.269  1.00  0.00    -0.248 NA
ATOM     47  C   UNL A   1      43.574  32.531  29.037  1.00  0.00     0.031 C 
ATOM     48  C   UNL A   1      43.710  37.500  28.416  1.00  0.00     0.029 A 
ATOM     49  N   UNL A   1      45.531  36.348  27.813  1.00  0.00    -0.354 N 
ATOM     50  C   UNL A   1      45.694  32.041  28.334  1.00  0.00     0.074 A 
ATOM     51  C   UNL A   1      44.438  31.545  28.855  1.00  0.00     0.031 C 
ATOM     52  C   UNL A   1      44.596  38.375  27.907  1.00  0.00     0.029 A 
ATOM     53  C   UNL A   1      45.833  37.668  27.570  1.00  0.00     0.049 A 
ATOM     54  H   UNL A   1      46.142  35.607  27.596  1.00  0.00     0.167 HD
ATOM     55  C   UNL A   1      46.743  31.256  27.989  1.00  0.00     0.034 A 
ATOM     56  C   UNL A   1      46.989  38.238  27.169  1.00  0.00     0.034 A 
ATOM     57  C   UNL A   1      47.991  31.773  27.487  1.00  0.00     0.049 A 
ATOM     58  C   UNL A   1      48.191  37.355  26.906  1.00  0.00     0.074 A 
ATOM     59  C   UNL A   1      49.126  31.073  27.118  1.00  0.00     0.029 A 
ATOM     60  N   UNL A   1      48.273  33.119  27.294  1.00  0.00    -0.354 N 
ATOM     61  N   UNL A   1      48.296  36.050  27.004  1.00  0.00    -0.248 NA
ATOM     62  C   UNL A   1      49.431  38.022  26.479  1.00  0.00     0.031 C 
ATOM     63  C   UNL A   1      50.118  31.997  26.780  1.00  0.00     0.029 A 
ATOM     64  C   UNL A   1      49.571  33.270  26.838  1.00  0.00     0.049 A 
ATOM     65  H   UNL A   1      47.642  33.857  27.456  1.00  0.00     0.167 HD
ATOM     66  C   UNL A   1      49.592  35.739  26.594  1.00  0.00     0.074 A 
ATOM     67  C   UNL A   1      50.234  36.991  26.260  1.00  0.00     0.031 C 
ATOM     68  C   UNL A   1      50.192  34.526  26.489  1.00  0.00     0.034 A 
BRANCH  55  69
ATOM     69  C   UNL A   1      46.600  29.770  28.201  1.00  0.00     0.023 A 
ATOM     70  C   UNL A   1      46.922  29.162  29.427  1.00  0.00     0.031 A 
ATOM     71  C   UNL A   1      46.157  28.944  27.153  1.00  0.00     0.131 A 
ATOM     72  C   UNL A   1      46.860  27.767  29.552  1.00  0.00     0.055 A 
ATOM     73  C   UNL A   1      46.013  27.565  27.312  1.00  0.00     0.041 A 
ATOM     74  F   UNL A   1      45.864  29.463  25.950  1.00  0.00    -0.206 F 
ATOM     75  C   UNL A   1      46.379  26.966  28.514  1.00  0.00     0.022 A 
BRANCH  72  76
ATOM     76  S   UNL A   1      47.558  27.002  31.041  1.00  0.00     0.124 S 
ATOM     77  O   UNL A   1      47.202  27.978  32.068  1.00  0.00    -0.237 OA
ATOM     78  O   UNL A   1      46.854  25.726  31.101  1.00  0.00    -0.237 OA
ATOM     79  O   UNL A   1      48.986  26.915  30.744  1.00  0.00    -0.744 OA
ENDBRANCH  72  76
ENDBRANCH  55  69
BRANCH  56  80
ATOM     80  C   UNL A   1      47.100  39.722  27.032  1.00  0.00     0.023 A 
ATOM     81  C   UNL A   1      46.596  40.381  25.899  1.00  0.00     0.031 A 
ATOM     82  C   UNL A   1      47.779  40.494  27.992  1.00  0.00     0.131 A 
ATOM     83  C   UNL A   1      46.833  41.753  25.724  1.00  0.00     0.055 A 
ATOM     84  C   UNL A   1      47.952  41.872  27.846  1.00  0.00     0.041 A 
ATOM     85  F   UNL A   1      48.288  39.918  29.093  1.00  0.00    -0.206 F 
ATOM     86  C   UNL A   1      47.493  42.506  26.696  1.00  0.00     0.022 A 
BRANCH  83  87
ATOM     87  S   UNL A   1      46.376  42.512  24.140  1.00  0.00     0.124 S 
ATOM     88  O   UNL A   1      47.608  42.357  23.375  1.00  0.00    -0.237 OA
ATOM     89  O   UNL A   1      45.251  41.683  23.722  1.00  0.00    -0.237 OA
ATOM     90  O   UNL A   1      46.038  43.885  24.508  1.00  0.00    -0.744 OA
ENDBRANCH  83  87
ENDBRANCH  56  80
BRANCH  68  91
ATOM     91  C   UNL A   1      51.580  34.474  25.897  1.00  0.00     0.023 A 
ATOM     92  C   UNL A   1      51.829  34.018  24.592  1.00  0.00     0.031 A 
ATOM     93  C   UNL A   1      52.674  34.937  26.655  1.00  0.00     0.131 A 
ATOM     94  C   UNL A   1      53.142  34.005  24.096  1.00  0.00     0.055 A 
ATOM     95  C   UNL A   1      53.967  34.978  26.135  1.00  0.00     0.041 A 
ATOM     96  F   UNL A   1      52.494  35.381  27.910  1.00  0.00    -0.206 F 
ATOM     97  C   UNL A   1      54.209  34.502  24.851  1.00  0.00     0.022 A 
BRANCH  94  98
ATOM     98  S   UNL A   1      53.457  33.267  22.469  1.00  0.00     0.124 S 
ATOM     99  O   UNL A   1      53.875  34.424  21.685  1.00  0.00    -0.237 OA
ATOM    100  O   UNL A   1      54.498  32.287  22.766  1.00  0.00    -0.237 OA
ATOM    101  O   UNL A   1      52.163  32.698  22.093  1.00  0.00    -0.744 OA
ENDBRANCH  94  98
ENDBRANCH  68  91
ENDBRANCH  42  43
ENDBRANCH  35  37
ENDBRANCH  34  35
ENDBRANCH  33  34
ENDBRANCH  32  33
ENDBRANCH  31  32
ENDBRANCH  30  31
ENDBRANCH  29  30
ENDBRANCH  28  29
ENDBRANCH   1  28
TORSDOF 29
ENDMDL
