MODEL 1
REMARK VINA RESULT:     -10.5      0.000      0.000
REMARK SMILES N#CCSc1nnnn1-c1ccc(C(=O)OCCOCCOCCOCCOC(=O)c2ccc(-c3c4nc(c(-c5cc(S(=O)(=O)[O-])ccc5F)c5ccc([nH]5)c(-c5cc(S(=O)(=O)[O-])ccc5F)c5nc(c(-c6cc(S(=O)(=O)[O-])ccc6F)c6ccc3[nH]6)C=C5)C=C4)cc2)cc1
REMARK SMILES IDX 21 1 20 2 19 3 18 4 17 5 16 6 14 7 15 8 13 9 10 10 11 11
REMARK SMILES IDX 95 12 12 13 94 14 9 15 5 16 6 17 7 18 8 19 4 20 3 21 2 22
REMARK SMILES IDX 1 23 22 24 23 25 24 26 25 27 26 28 27 29 28 30 29 31 30 32
REMARK SMILES IDX 31 33 32 34 93 35 33 36 92 37 34 38 35 39 36 40 86 41 37 42
REMARK SMILES IDX 91 43 85 44 87 45 38 46 90 47 84 48 83 49 39 51 71 52 51 53
REMARK SMILES IDX 70 54 52 55 55 56 69 57 88 58 53 59 54 60 68 62 89 63 56 64
REMARK SMILES IDX 40 65 41 66 49 67 42 68 48 69 50 70 47 71 43 72 44 73 45 74
REMARK SMILES IDX 46 75 72 76 73 77 81 78 74 79 80 80 82 81 79 82 75 83 76 84
REMARK SMILES IDX 77 85 78 86 57 87 58 88 66 89 59 90 65 91 67 92 64 93 60 94
REMARK SMILES IDX 61 95 62 96 63 97
REMARK H PARENT 87 50 55 61
REMARK Flexibility Score: inf
ROOT
ATOM      1  C   UNL A   1      36.531  21.849  25.520  1.00  0.00     0.188 C 
ENDROOT
BRANCH   1   2
ATOM      2  C   UNL A   1      35.537  20.677  25.338  1.00  0.00     0.188 C 
BRANCH   2   3
ATOM      3  O   UNL A   1      34.202  20.689  25.839  1.00  0.00    -0.376 OA
BRANCH   3   4
ATOM      4  C   UNL A   1      33.187  21.475  25.241  1.00  0.00     0.202 C 
BRANCH   4   5
ATOM      5  C   UNL A   1      32.890  21.293  23.748  1.00  0.00     0.261 C 
BRANCH   5   6
ATOM      6  O   UNL A   1      32.072  22.308  23.165  1.00  0.00    -0.460 OA
BRANCH   6   7
ATOM      7  C   UNL A   1      32.750  23.390  22.721  1.00  0.00     0.338 C 
ATOM      8  O   UNL A   1      33.875  23.424  22.256  1.00  0.00    -0.246 OA
BRANCH   7   9
ATOM      9  C   UNL A   1      31.854  24.565  22.775  1.00  0.00     0.060 A 
ATOM     10  C   UNL A   1      30.393  26.908  22.974  1.00  0.00     0.069 A 
ATOM     11  C   UNL A   1      31.335  26.784  21.951  1.00  0.00     0.029 A 
ATOM     12  C   UNL A   1      30.075  25.817  23.799  1.00  0.00     0.029 A 
ATOM     13  C   UNL A   1      32.096  25.621  21.884  1.00  0.00     0.018 A 
ATOM     14  C   UNL A   1      30.801  24.635  23.689  1.00  0.00     0.018 A 
BRANCH  10  15
ATOM     15  N   UNL A   1      29.939  28.202  23.302  1.00  0.00    -0.187 N 
ATOM     16  C   UNL A   1      30.632  29.201  23.967  1.00  0.00     0.215 A 
ATOM     17  N   UNL A   1      29.950  30.320  23.896  1.00  0.00    -0.101 NA
ATOM     18  N   UNL A   1      28.837  30.029  23.149  1.00  0.00    -0.022 NA
ATOM     19  N   UNL A   1      28.858  28.772  22.722  1.00  0.00    -0.039 NA
BRANCH  16  20
ATOM     20  S   UNL A   1      32.276  29.068  24.508  1.00  0.00    -0.069 SA
BRANCH  20  21
ATOM     21  C   UNL A   1      32.102  29.528  26.250  1.00  0.00     0.198 C 
BRANCH  21  22
ATOM     22  C   UNL A   1      31.787  30.982  26.558  1.00  0.00     0.074 C 
ATOM     23  N   UNL A   1      31.525  32.189  26.814  1.00  0.00    -0.197 NA
ENDBRANCH  21  22
ENDBRANCH  20  21
ENDBRANCH  16  20
ENDBRANCH  10  15
ENDBRANCH   7   9
ENDBRANCH   6   7
ENDBRANCH   5   6
ENDBRANCH   4   5
ENDBRANCH   3   4
ENDBRANCH   2   3
ENDBRANCH   1   2
BRANCH   1  24
ATOM     24  O   UNL A   1      37.893  21.532  25.276  1.00  0.00    -0.377 OA
BRANCH  24  25
ATOM     25  C   UNL A   1      38.821  22.219  26.113  1.00  0.00     0.188 C 
BRANCH  25  26
ATOM     26  C   UNL A   1      40.089  21.432  26.508  1.00  0.00     0.188 C 
BRANCH  26  27
ATOM     27  O   UNL A   1      40.975  22.174  27.345  1.00  0.00    -0.376 OA
BRANCH  27  28
ATOM     28  C   UNL A   1      42.309  22.376  26.898  1.00  0.00     0.202 C 
BRANCH  28  29
ATOM     29  C   UNL A   1      42.475  23.683  26.131  1.00  0.00     0.261 C 
BRANCH  29  30
ATOM     30  O   UNL A   1      41.362  24.557  26.253  1.00  0.00    -0.460 OA
BRANCH  30  31
ATOM     31  C   UNL A   1      41.530  25.802  25.762  1.00  0.00     0.338 C 
ATOM     32  O   UNL A   1      42.339  26.164  24.929  1.00  0.00    -0.246 OA
BRANCH  31  33
ATOM     33  C   UNL A   1      40.615  26.701  26.470  1.00  0.00     0.060 A 
ATOM     34  C   UNL A   1      40.812  28.062  26.244  1.00  0.00     0.016 A 
ATOM     35  C   UNL A   1      39.857  26.213  27.547  1.00  0.00     0.016 A 
ATOM     36  C   UNL A   1      40.505  28.924  27.265  1.00  0.00     0.010 A 
ATOM     37  C   UNL A   1      39.567  27.071  28.574  1.00  0.00     0.010 A 
ATOM     38  C   UNL A   1      40.001  28.388  28.454  1.00  0.00    -0.014 A 
BRANCH  38  39
ATOM     39  C   UNL A   1      40.016  29.244  29.611  1.00  0.00     0.031 A 
ATOM     40  C   UNL A   1      38.813  30.067  29.771  1.00  0.00     0.074 A 
ATOM     41  C   UNL A   1      41.033  29.232  30.488  1.00  0.00     0.049 A 
ATOM     42  N   UNL A   1      38.704  31.342  29.619  1.00  0.00    -0.248 NA
ATOM     43  C   UNL A   1      37.542  29.360  29.968  1.00  0.00     0.031 C 
ATOM     44  C   UNL A   1      42.109  28.244  30.609  1.00  0.00     0.029 A 
ATOM     45  N   UNL A   1      41.243  30.064  31.540  1.00  0.00    -0.354 N 
ATOM     46  C   UNL A   1      37.385  31.631  29.930  1.00  0.00     0.074 A 
ATOM     47  C   UNL A   1      36.683  30.377  29.920  1.00  0.00     0.031 C 
ATOM     48  C   UNL A   1      42.723  28.413  31.802  1.00  0.00     0.029 A 
ATOM     49  C   UNL A   1      42.170  29.590  32.453  1.00  0.00     0.049 A 
ATOM     50  H   UNL A   1      40.778  30.926  31.644  1.00  0.00     0.167 HD
ATOM     51  C   UNL A   1      37.029  32.849  30.418  1.00  0.00     0.034 A 
ATOM     52  C   UNL A   1      42.383  30.080  33.700  1.00  0.00     0.034 A 
ATOM     53  C   UNL A   1      38.040  33.843  30.136  1.00  0.00     0.049 A 
ATOM     54  C   UNL A   1      41.868  31.473  33.727  1.00  0.00     0.074 A 
ATOM     55  C   UNL A   1      38.628  34.317  28.977  1.00  0.00     0.029 A 
ATOM     56  N   UNL A   1      38.868  34.247  31.161  1.00  0.00    -0.354 N 
ATOM     57  N   UNL A   1      42.380  32.450  33.030  1.00  0.00    -0.248 NA
ATOM     58  C   UNL A   1      40.504  31.701  34.186  1.00  0.00     0.031 C 
ATOM     59  C   UNL A   1      39.990  34.560  29.317  1.00  0.00     0.029 A 
ATOM     60  C   UNL A   1      40.154  34.267  30.673  1.00  0.00     0.049 A 
ATOM     61  H   UNL A   1      38.590  34.480  32.076  1.00  0.00     0.167 HD
ATOM     62  C   UNL A   1      41.299  33.212  32.614  1.00  0.00     0.074 A 
ATOM     63  C   UNL A   1      40.188  32.771  33.451  1.00  0.00     0.031 C 
ATOM     64  C   UNL A   1      41.335  33.924  31.447  1.00  0.00     0.034 A 
BRANCH  51  65
ATOM     65  C   UNL A   1      35.926  33.054  31.426  1.00  0.00     0.023 A 
ATOM     66  C   UNL A   1      34.859  33.889  31.050  1.00  0.00     0.031 A 
ATOM     67  C   UNL A   1      35.975  32.702  32.796  1.00  0.00     0.131 A 
ATOM     68  C   UNL A   1      33.963  34.390  32.009  1.00  0.00     0.055 A 
ATOM     69  C   UNL A   1      35.034  33.137  33.732  1.00  0.00     0.041 A 
ATOM     70  F   UNL A   1      36.982  32.004  33.336  1.00  0.00    -0.206 F 
ATOM     71  C   UNL A   1      34.036  34.011  33.347  1.00  0.00     0.022 A 
BRANCH  68  72
ATOM     72  S   UNL A   1      32.818  35.697  31.505  1.00  0.00     0.124 S 
ATOM     73  O   UNL A   1      32.515  35.311  30.131  1.00  0.00    -0.237 OA
ATOM     74  O   UNL A   1      31.740  35.536  32.474  1.00  0.00    -0.237 OA
ATOM     75  O   UNL A   1      33.613  36.914  31.650  1.00  0.00    -0.744 OA
ENDBRANCH  68  72
ENDBRANCH  51  65
BRANCH  52  76
ATOM     76  C   UNL A   1      42.663  29.267  34.910  1.00  0.00     0.023 A 
ATOM     77  C   UNL A   1      41.947  28.096  35.211  1.00  0.00     0.031 A 
ATOM     78  C   UNL A   1      43.813  29.531  35.691  1.00  0.00     0.131 A 
ATOM     79  C   UNL A   1      42.378  27.254  36.260  1.00  0.00     0.055 A 
ATOM     80  C   UNL A   1      44.223  28.707  36.738  1.00  0.00     0.041 A 
ATOM     81  F   UNL A   1      44.628  30.561  35.407  1.00  0.00    -0.206 F 
ATOM     82  C   UNL A   1      43.509  27.557  37.024  1.00  0.00     0.022 A 
BRANCH  79  83
ATOM     83  S   UNL A   1      41.520  25.681  36.574  1.00  0.00     0.124 S 
ATOM     84  O   UNL A   1      42.615  24.720  36.543  1.00  0.00    -0.237 OA
ATOM     85  O   UNL A   1      40.901  25.919  37.873  1.00  0.00    -0.237 OA
ATOM     86  O   UNL A   1      40.578  25.579  35.459  1.00  0.00    -0.744 OA
ENDBRANCH  79  83
ENDBRANCH  52  76
BRANCH  64  87
ATOM     87  C   UNL A   1      42.681  34.161  30.789  1.00  0.00     0.023 A 
ATOM     88  C   UNL A   1      43.200  33.392  29.725  1.00  0.00     0.031 A 
ATOM     89  C   UNL A   1      43.409  35.299  31.185  1.00  0.00     0.131 A 
ATOM     90  C   UNL A   1      44.410  33.765  29.108  1.00  0.00     0.055 A 
ATOM     91  C   UNL A   1      44.598  35.675  30.560  1.00  0.00     0.041 A 
ATOM     92  F   UNL A   1      42.954  36.091  32.170  1.00  0.00    -0.206 F 
ATOM     93  C   UNL A   1      45.107  34.905  29.522  1.00  0.00     0.022 A 
BRANCH  90  94
ATOM     94  S   UNL A   1      45.106  32.766  27.753  1.00  0.00     0.124 S 
ATOM     95  O   UNL A   1      45.142  31.418  28.306  1.00  0.00    -0.237 OA
ATOM     96  O   UNL A   1      44.146  32.991  26.675  1.00  0.00    -0.237 OA
ATOM     97  O   UNL A   1      46.422  33.367  27.528  1.00  0.00    -0.744 OA
ENDBRANCH  90  94
ENDBRANCH  64  87
ENDBRANCH  38  39
ENDBRANCH  31  33
ENDBRANCH  30  31
ENDBRANCH  29  30
ENDBRANCH  28  29
ENDBRANCH  27  28
ENDBRANCH  26  27
ENDBRANCH  25  26
ENDBRANCH  24  25
ENDBRANCH   1  24
TORSDOF 27
ENDMDL
MODEL 2
REMARK VINA RESULT:     -10.0      1.629      2.306
REMARK SMILES N#CCSc1nnnn1-c1ccc(C(=O)OCCOCCOCCOCCOC(=O)c2ccc(-c3c4nc(c(-c5cc(S(=O)(=O)[O-])ccc5F)c5ccc([nH]5)c(-c5cc(S(=O)(=O)[O-])ccc5F)c5nc(c(-c6cc(S(=O)(=O)[O-])ccc6F)c6ccc3[nH]6)C=C5)C=C4)cc2)cc1
REMARK SMILES IDX 21 1 20 2 19 3 18 4 17 5 16 6 14 7 15 8 13 9 10 10 11 11
REMARK SMILES IDX 95 12 12 13 94 14 9 15 5 16 6 17 7 18 8 19 4 20 3 21 2 22
REMARK SMILES IDX 1 23 22 24 23 25 24 26 25 27 26 28 27 29 28 30 29 31 30 32
REMARK SMILES IDX 31 33 32 34 93 35 33 36 92 37 34 38 35 39 36 40 86 41 37 42
REMARK SMILES IDX 91 43 85 44 87 45 38 46 90 47 84 48 83 49 39 51 71 52 51 53
REMARK SMILES IDX 70 54 52 55 55 56 69 57 88 58 53 59 54 60 68 62 89 63 56 64
REMARK SMILES IDX 40 65 41 66 49 67 42 68 48 69 50 70 47 71 43 72 44 73 45 74
REMARK SMILES IDX 46 75 72 76 73 77 81 78 74 79 80 80 82 81 79 82 75 83 76 84
REMARK SMILES IDX 77 85 78 86 57 87 58 88 66 89 59 90 65 91 67 92 64 93 60 94
REMARK SMILES IDX 61 95 62 96 63 97
REMARK H PARENT 87 50 55 61
REMARK Flexibility Score: inf
ROOT
ATOM      1  C   UNL A   1      35.287  20.734  25.004  1.00  0.00     0.188 C 
ENDROOT
BRANCH   1   2
ATOM      2  C   UNL A   1      34.278  19.613  24.664  1.00  0.00     0.188 C 
BRANCH   2   3
ATOM      3  O   UNL A   1      32.927  19.857  24.276  1.00  0.00    -0.376 OA
BRANCH   3   4
ATOM      4  C   UNL A   1      32.599  20.799  23.271  1.00  0.00     0.202 C 
BRANCH   4   5
ATOM      5  C   UNL A   1      32.150  22.205  23.688  1.00  0.00     0.261 C 
BRANCH   5   6
ATOM      6  O   UNL A   1      33.195  23.062  24.148  1.00  0.00    -0.460 OA
BRANCH   6   7
ATOM      7  C   UNL A   1      33.719  23.870  23.198  1.00  0.00     0.338 C 
ATOM      8  O   UNL A   1      34.005  23.579  22.051  1.00  0.00    -0.246 OA
BRANCH   7   9
ATOM      9  C   UNL A   1      33.793  25.245  23.735  1.00  0.00     0.060 A 
ATOM     10  C   UNL A   1      33.674  27.781  24.838  1.00  0.00     0.069 A 
ATOM     11  C   UNL A   1      33.829  26.682  25.686  1.00  0.00     0.029 A 
ATOM     12  C   UNL A   1      33.728  27.631  23.443  1.00  0.00     0.029 A 
ATOM     13  C   UNL A   1      33.844  25.408  25.127  1.00  0.00     0.018 A 
ATOM     14  C   UNL A   1      33.802  26.356  22.890  1.00  0.00     0.018 A 
BRANCH  10  15
ATOM     15  N   UNL A   1      33.239  28.997  25.405  1.00  0.00    -0.187 N 
ATOM     16  C   UNL A   1      32.077  29.698  25.120  1.00  0.00     0.215 A 
ATOM     17  N   UNL A   1      31.931  30.664  25.998  1.00  0.00    -0.101 NA
ATOM     18  N   UNL A   1      32.990  30.545  26.861  1.00  0.00    -0.022 NA
ATOM     19  N   UNL A   1      33.744  29.495  26.557  1.00  0.00    -0.039 NA
BRANCH  16  20
ATOM     20  S   UNL A   1      30.859  29.175  24.001  1.00  0.00    -0.069 SA
BRANCH  20  21
ATOM     21  C   UNL A   1      30.513  27.512  24.623  1.00  0.00     0.198 C 
BRANCH  21  22
ATOM     22  C   UNL A   1      29.183  26.886  24.235  1.00  0.00     0.074 C 
ATOM     23  N   UNL A   1      28.080  26.366  23.912  1.00  0.00    -0.197 NA
ENDBRANCH  21  22
ENDBRANCH  20  21
ENDBRANCH  16  20
ENDBRANCH  10  15
ENDBRANCH   7   9
ENDBRANCH   6   7
ENDBRANCH   5   6
ENDBRANCH   4   5
ENDBRANCH   3   4
ENDBRANCH   2   3
ENDBRANCH   1   2
BRANCH   1  24
ATOM     24  O   UNL A   1      36.647  20.329  25.060  1.00  0.00    -0.377 OA
BRANCH  24  25
ATOM     25  C   UNL A   1      37.584  21.404  25.117  1.00  0.00     0.188 C 
BRANCH  25  26
ATOM     26  C   UNL A   1      39.028  21.023  25.507  1.00  0.00     0.188 C 
BRANCH  26  27
ATOM     27  O   UNL A   1      39.755  22.101  26.096  1.00  0.00    -0.376 OA
BRANCH  27  28
ATOM     28  C   UNL A   1      41.160  21.956  26.253  1.00  0.00     0.202 C 
BRANCH  28  29
ATOM     29  C   UNL A   1      41.871  23.296  26.407  1.00  0.00     0.261 C 
BRANCH  29  30
ATOM     30  O   UNL A   1      40.999  24.362  26.753  1.00  0.00    -0.460 OA
BRANCH  30  31
ATOM     31  C   UNL A   1      41.169  25.512  26.067  1.00  0.00     0.338 C 
ATOM     32  O   UNL A   1      41.934  25.714  25.143  1.00  0.00    -0.246 OA
BRANCH  31  33
ATOM     33  C   UNL A   1      40.323  26.540  26.680  1.00  0.00     0.060 A 
ATOM     34  C   UNL A   1      40.692  27.858  26.418  1.00  0.00     0.016 A 
ATOM     35  C   UNL A   1      39.447  26.189  27.720  1.00  0.00     0.016 A 
ATOM     36  C   UNL A   1      40.426  28.793  27.384  1.00  0.00     0.010 A 
ATOM     37  C   UNL A   1      39.197  27.120  28.693  1.00  0.00     0.010 A 
ATOM     38  C   UNL A   1      39.789  28.371  28.555  1.00  0.00    -0.014 A 
BRANCH  38  39
ATOM     39  C   UNL A   1      39.832  29.270  29.679  1.00  0.00     0.031 A 
ATOM     40  C   UNL A   1      38.635  30.101  29.837  1.00  0.00     0.074 A 
ATOM     41  C   UNL A   1      40.869  29.288  30.532  1.00  0.00     0.049 A 
ATOM     42  N   UNL A   1      38.524  31.369  29.640  1.00  0.00    -0.248 NA
ATOM     43  C   UNL A   1      37.368  29.404  30.090  1.00  0.00     0.031 C 
ATOM     44  C   UNL A   1      41.947  28.304  30.664  1.00  0.00     0.029 A 
ATOM     45  N   UNL A   1      41.106  30.158  31.546  1.00  0.00    -0.354 N 
ATOM     46  C   UNL A   1      37.212  31.673  29.971  1.00  0.00     0.074 A 
ATOM     47  C   UNL A   1      36.508  30.420  30.024  1.00  0.00     0.031 C 
ATOM     48  C   UNL A   1      42.589  28.515  31.835  1.00  0.00     0.029 A 
ATOM     49  C   UNL A   1      42.054  29.717  32.455  1.00  0.00     0.049 A 
ATOM     50  H   UNL A   1      40.644  31.024  31.630  1.00  0.00     0.167 HD
ATOM     51  C   UNL A   1      36.869  32.908  30.421  1.00  0.00     0.034 A 
ATOM     52  C   UNL A   1      42.296  30.252  33.677  1.00  0.00     0.034 A 
ATOM     53  C   UNL A   1      37.875  33.889  30.079  1.00  0.00     0.049 A 
ATOM     54  C   UNL A   1      41.783  31.647  33.664  1.00  0.00     0.074 A 
ATOM     55  C   UNL A   1      38.435  34.319  28.890  1.00  0.00     0.029 A 
ATOM     56  N   UNL A   1      38.727  34.329  31.068  1.00  0.00    -0.354 N 
ATOM     57  N   UNL A   1      42.281  32.596  32.920  1.00  0.00    -0.248 NA
ATOM     58  C   UNL A   1      40.431  31.894  34.147  1.00  0.00     0.031 C 
ATOM     59  C   UNL A   1      39.805  34.571  29.188  1.00  0.00     0.029 A 
ATOM     60  C   UNL A   1      40.001  34.328  30.549  1.00  0.00     0.049 A 
ATOM     61  H   UNL A   1      38.471  34.596  31.980  1.00  0.00     0.167 HD
ATOM     62  C   UNL A   1      41.190  33.345  32.501  1.00  0.00     0.074 A 
ATOM     63  C   UNL A   1      40.099  32.937  33.380  1.00  0.00     0.031 C 
ATOM     64  C   UNL A   1      41.200  34.012  31.308  1.00  0.00     0.034 A 
BRANCH  51  65
ATOM     65  C   UNL A   1      35.790  33.153  31.447  1.00  0.00     0.023 A 
ATOM     66  C   UNL A   1      34.757  34.037  31.094  1.00  0.00     0.031 A 
ATOM     67  C   UNL A   1      35.843  32.787  32.814  1.00  0.00     0.131 A 
ATOM     68  C   UNL A   1      33.898  34.569  32.070  1.00  0.00     0.055 A 
ATOM     69  C   UNL A   1      34.935  33.254  33.766  1.00  0.00     0.041 A 
ATOM     70  F   UNL A   1      36.825  32.039  33.333  1.00  0.00    -0.206 F 
ATOM     71  C   UNL A   1      33.972  34.175  33.403  1.00  0.00     0.022 A 
BRANCH  68  72
ATOM     72  S   UNL A   1      32.805  35.930  31.594  1.00  0.00     0.124 S 
ATOM     73  O   UNL A   1      32.348  35.495  30.278  1.00  0.00    -0.237 OA
ATOM     74  O   UNL A   1      31.814  35.902  32.664  1.00  0.00    -0.237 OA
ATOM     75  O   UNL A   1      33.693  37.089  31.593  1.00  0.00    -0.744 OA
ENDBRANCH  68  72
ENDBRANCH  51  65
BRANCH  52  76
ATOM     76  C   UNL A   1      42.604  29.484  34.910  1.00  0.00     0.023 A 
ATOM     77  C   UNL A   1      41.914  28.310  35.256  1.00  0.00     0.031 A 
ATOM     78  C   UNL A   1      43.757  29.796  35.669  1.00  0.00     0.131 A 
ATOM     79  C   UNL A   1      42.372  27.511  36.327  1.00  0.00     0.055 A 
ATOM     80  C   UNL A   1      44.193  29.014  36.738  1.00  0.00     0.041 A 
ATOM     81  F   UNL A   1      44.548  30.832  35.345  1.00  0.00    -0.206 F 
ATOM     82  C   UNL A   1      43.504  27.860  37.068  1.00  0.00     0.022 A 
BRANCH  79  83
ATOM     83  S   UNL A   1      41.548  25.933  36.700  1.00  0.00     0.124 S 
ATOM     84  O   UNL A   1      40.611  26.314  37.749  1.00  0.00    -0.237 OA
ATOM     85  O   UNL A   1      40.968  25.573  35.411  1.00  0.00    -0.237 OA
ATOM     86  O   UNL A   1      42.646  25.070  37.137  1.00  0.00    -0.744 OA
ENDBRANCH  79  83
ENDBRANCH  52  76
BRANCH  64  87
ATOM     87  C   UNL A   1      42.530  34.222  30.610  1.00  0.00     0.023 A 
ATOM     88  C   UNL A   1      43.388  35.322  30.833  1.00  0.00     0.031 A 
ATOM     89  C   UNL A   1      42.997  33.192  29.773  1.00  0.00     0.131 A 
ATOM     90  C   UNL A   1      44.654  35.366  30.217  1.00  0.00     0.055 A 
ATOM     91  C   UNL A   1      44.259  33.230  29.179  1.00  0.00     0.041 A 
ATOM     92  F   UNL A   1      42.243  32.103  29.547  1.00  0.00    -0.206 F 
ATOM     93  C   UNL A   1      45.091  34.323  29.395  1.00  0.00     0.022 A 
BRANCH  90  94
ATOM     94  S   UNL A   1      45.759  36.792  30.472  1.00  0.00     0.124 S 
ATOM     95  O   UNL A   1      47.093  36.216  30.355  1.00  0.00    -0.237 OA
ATOM     96  O   UNL A   1      45.355  37.695  29.397  1.00  0.00    -0.237 OA
ATOM     97  O   UNL A   1      45.412  37.255  31.816  1.00  0.00    -0.744 OA
ENDBRANCH  90  94
ENDBRANCH  64  87
ENDBRANCH  38  39
ENDBRANCH  31  33
ENDBRANCH  30  31
ENDBRANCH  29  30
ENDBRANCH  28  29
ENDBRANCH  27  28
ENDBRANCH  26  27
ENDBRANCH  25  26
ENDBRANCH  24  25
ENDBRANCH   1  24
TORSDOF 27
ENDMDL
MODEL 3
REMARK VINA RESULT:      -9.5      3.812      9.536
REMARK SMILES N#CCSc1nnnn1-c1ccc(C(=O)OCCOCCOCCOCCOC(=O)c2ccc(-c3c4nc(c(-c5cc(S(=O)(=O)[O-])ccc5F)c5ccc([nH]5)c(-c5cc(S(=O)(=O)[O-])ccc5F)c5nc(c(-c6cc(S(=O)(=O)[O-])ccc6F)c6ccc3[nH]6)C=C5)C=C4)cc2)cc1
REMARK SMILES IDX 21 1 20 2 19 3 18 4 17 5 16 6 14 7 15 8 13 9 10 10 11 11
REMARK SMILES IDX 95 12 12 13 94 14 9 15 5 16 6 17 7 18 8 19 4 20 3 21 2 22
REMARK SMILES IDX 1 23 22 24 23 25 24 26 25 27 26 28 27 29 28 30 29 31 30 32
REMARK SMILES IDX 31 33 32 34 93 35 33 36 92 37 34 38 35 39 36 40 86 41 37 42
REMARK SMILES IDX 91 43 85 44 87 45 38 46 90 47 84 48 83 49 39 51 71 52 51 53
REMARK SMILES IDX 70 54 52 55 55 56 69 57 88 58 53 59 54 60 68 62 89 63 56 64
REMARK SMILES IDX 40 65 41 66 49 67 42 68 48 69 50 70 47 71 43 72 44 73 45 74
REMARK SMILES IDX 46 75 72 76 73 77 81 78 74 79 80 80 82 81 79 82 75 83 76 84
REMARK SMILES IDX 77 85 78 86 57 87 58 88 66 89 59 90 65 91 67 92 64 93 60 94
REMARK SMILES IDX 61 95 62 96 63 97
REMARK H PARENT 87 50 55 61
REMARK Flexibility Score: inf
ROOT
ATOM      1  C   UNL A   1      33.818  36.280  28.910  1.00  0.00     0.188 C 
ENDROOT
BRANCH   1   2
ATOM      2  C   UNL A   1      34.430  34.995  28.306  1.00  0.00     0.188 C 
BRANCH   2   3
ATOM      3  O   UNL A   1      33.691  34.064  27.517  1.00  0.00    -0.376 OA
BRANCH   3   4
ATOM      4  C   UNL A   1      33.253  32.823  28.041  1.00  0.00     0.202 C 
BRANCH   4   5
ATOM      5  C   UNL A   1      33.448  31.554  27.204  1.00  0.00     0.261 C 
BRANCH   5   6
ATOM      6  O   UNL A   1      33.826  30.392  27.944  1.00  0.00    -0.460 OA
BRANCH   6   7
ATOM      7  C   UNL A   1      34.608  29.523  27.264  1.00  0.00     0.338 C 
ATOM      8  O   UNL A   1      35.814  29.381  27.353  1.00  0.00    -0.246 OA
BRANCH   7   9
ATOM      9  C   UNL A   1      33.741  28.651  26.444  1.00  0.00     0.060 A 
ATOM     10  C   UNL A   1      32.239  26.801  25.034  1.00  0.00     0.069 A 
ATOM     11  C   UNL A   1      31.943  27.027  26.380  1.00  0.00     0.029 A 
ATOM     12  C   UNL A   1      33.177  27.596  24.357  1.00  0.00     0.029 A 
ATOM     13  C   UNL A   1      32.730  27.926  27.093  1.00  0.00     0.018 A 
ATOM     14  C   UNL A   1      33.922  28.536  25.064  1.00  0.00     0.018 A 
BRANCH  10  15
ATOM     15  N   UNL A   1      31.747  25.621  24.438  1.00  0.00    -0.187 N 
ATOM     16  C   UNL A   1      32.020  24.311  24.800  1.00  0.00     0.215 A 
ATOM     17  N   UNL A   1      31.215  23.507  24.145  1.00  0.00    -0.101 NA
ATOM     18  N   UNL A   1      30.407  24.322  23.393  1.00  0.00    -0.022 NA
ATOM     19  N   UNL A   1      30.670  25.603  23.620  1.00  0.00    -0.039 NA
BRANCH  16  20
ATOM     20  S   UNL A   1      33.022  23.845  26.138  1.00  0.00    -0.069 SA
BRANCH  20  21
ATOM     21  C   UNL A   1      34.645  23.775  25.342  1.00  0.00     0.198 C 
BRANCH  21  22
ATOM     22  C   UNL A   1      34.674  23.626  23.830  1.00  0.00     0.074 C 
ATOM     23  N   UNL A   1      34.698  23.503  22.575  1.00  0.00    -0.197 NA
ENDBRANCH  21  22
ENDBRANCH  20  21
ENDBRANCH  16  20
ENDBRANCH  10  15
ENDBRANCH   7   9
ENDBRANCH   6   7
ENDBRANCH   5   6
ENDBRANCH   4   5
ENDBRANCH   3   4
ENDBRANCH   2   3
ENDBRANCH   1   2
BRANCH   1  24
ATOM     24  O   UNL A   1      32.745  36.074  29.817  1.00  0.00    -0.377 OA
BRANCH  24  25
ATOM     25  C   UNL A   1      32.874  36.770  31.056  1.00  0.00     0.188 C 
BRANCH  25  26
ATOM     26  C   UNL A   1      32.890  35.893  32.326  1.00  0.00     0.188 C 
BRANCH  26  27
ATOM     27  O   UNL A   1      34.207  35.602  32.793  1.00  0.00    -0.376 OA
BRANCH  27  28
ATOM     28  C   UNL A   1      34.999  34.693  32.041  1.00  0.00     0.202 C 
BRANCH  28  29
ATOM     29  C   UNL A   1      34.241  33.420  31.680  1.00  0.00     0.261 C 
BRANCH  29  30
ATOM     30  O   UNL A   1      35.012  32.499  30.922  1.00  0.00    -0.460 OA
BRANCH  30  31
ATOM     31  C   UNL A   1      35.813  31.674  31.629  1.00  0.00     0.338 C 
ATOM     32  O   UNL A   1      35.840  31.528  32.836  1.00  0.00    -0.246 OA
BRANCH  31  33
ATOM     33  C   UNL A   1      36.735  31.021  30.697  1.00  0.00     0.060 A 
ATOM     34  C   UNL A   1      36.612  29.636  30.599  1.00  0.00     0.016 A 
ATOM     35  C   UNL A   1      37.864  31.717  30.234  1.00  0.00     0.016 A 
ATOM     36  C   UNL A   1      37.745  28.918  30.315  1.00  0.00     0.010 A 
ATOM     37  C   UNL A   1      39.000  30.999  29.969  1.00  0.00     0.010 A 
ATOM     38  C   UNL A   1      38.941  29.618  30.126  1.00  0.00    -0.014 A 
BRANCH  38  39
ATOM     39  C   UNL A   1      40.158  28.852  30.178  1.00  0.00     0.031 A 
ATOM     40  C   UNL A   1      40.666  28.611  31.532  1.00  0.00     0.074 A 
ATOM     41  C   UNL A   1      40.733  28.361  29.068  1.00  0.00     0.049 A 
ATOM     42  N   UNL A   1      41.714  29.119  32.084  1.00  0.00    -0.248 NA
ATOM     43  C   UNL A   1      39.812  27.831  32.436  1.00  0.00     0.031 C 
ATOM     44  C   UNL A   1      40.159  28.259  27.723  1.00  0.00     0.029 A 
ATOM     45  N   UNL A   1      41.934  27.740  28.950  1.00  0.00    -0.354 N 
ATOM     46  C   UNL A   1      41.778  28.537  33.340  1.00  0.00     0.074 A 
ATOM     47  C   UNL A   1      40.491  27.940  33.576  1.00  0.00     0.031 C 
ATOM     48  C   UNL A   1      40.922  27.421  26.986  1.00  0.00     0.029 A 
ATOM     49  C   UNL A   1      42.092  27.043  27.763  1.00  0.00     0.049 A 
ATOM     50  H   UNL A   1      42.630  27.780  29.645  1.00  0.00     0.167 HD
ATOM     51  C   UNL A   1      42.966  28.378  33.980  1.00  0.00     0.034 A 
ATOM     52  C   UNL A   1      43.066  26.138  27.493  1.00  0.00     0.034 A 
ATOM     53  C   UNL A   1      43.980  29.247  33.428  1.00  0.00     0.049 A 
ATOM     54  C   UNL A   1      44.192  26.402  28.426  1.00  0.00     0.074 A 
ATOM     55  C   UNL A   1      44.088  30.616  33.261  1.00  0.00     0.029 A 
ATOM     56  N   UNL A   1      44.938  28.699  32.602  1.00  0.00    -0.354 N 
ATOM     57  N   UNL A   1      44.910  27.492  28.407  1.00  0.00    -0.248 NA
ATOM     58  C   UNL A   1      44.249  25.655  29.675  1.00  0.00     0.031 C 
ATOM     59  C   UNL A   1      44.762  30.792  32.018  1.00  0.00     0.029 A 
ATOM     60  C   UNL A   1      45.071  29.528  31.513  1.00  0.00     0.049 A 
ATOM     61  H   UNL A   1      45.437  27.866  32.763  1.00  0.00     0.167 HD
ATOM     62  C   UNL A   1      45.166  27.786  29.738  1.00  0.00     0.074 A 
ATOM     63  C   UNL A   1      44.837  26.562  30.461  1.00  0.00     0.031 C 
ATOM     64  C   UNL A   1      45.351  29.073  30.161  1.00  0.00     0.034 A 
BRANCH  51  65
ATOM     65  C   UNL A   1      43.280  27.206  34.878  1.00  0.00     0.023 A 
ATOM     66  C   UNL A   1      44.019  26.149  34.319  1.00  0.00     0.031 A 
ATOM     67  C   UNL A   1      42.695  26.945  36.140  1.00  0.00     0.131 A 
ATOM     68  C   UNL A   1      44.088  24.901  34.958  1.00  0.00     0.055 A 
ATOM     69  C   UNL A   1      42.834  25.728  36.810  1.00  0.00     0.041 A 
ATOM     70  F   UNL A   1      41.875  27.804  36.757  1.00  0.00    -0.206 F 
ATOM     71  C   UNL A   1      43.509  24.685  36.206  1.00  0.00     0.022 A 
BRANCH  68  72
ATOM     72  S   UNL A   1      44.786  23.508  34.038  1.00  0.00     0.124 S 
ATOM     73  O   UNL A   1      43.894  23.440  32.885  1.00  0.00    -0.237 OA
ATOM     74  O   UNL A   1      46.143  23.974  33.779  1.00  0.00    -0.237 OA
ATOM     75  O   UNL A   1      44.675  22.396  34.978  1.00  0.00    -0.744 OA
ENDBRANCH  68  72
ENDBRANCH  51  65
BRANCH  52  76
ATOM     76  C   UNL A   1      42.884  24.875  26.736  1.00  0.00     0.023 A 
ATOM     77  C   UNL A   1      43.793  24.450  25.753  1.00  0.00     0.031 A 
ATOM     78  C   UNL A   1      41.894  23.945  27.136  1.00  0.00     0.131 A 
ATOM     79  C   UNL A   1      43.686  23.153  25.203  1.00  0.00     0.055 A 
ATOM     80  C   UNL A   1      41.780  22.674  26.576  1.00  0.00     0.041 A 
ATOM     81  F   UNL A   1      41.052  24.214  28.147  1.00  0.00    -0.206 F 
ATOM     82  C   UNL A   1      42.683  22.268  25.608  1.00  0.00     0.022 A 
BRANCH  79  83
ATOM     83  S   UNL A   1      44.931  22.563  24.016  1.00  0.00     0.124 S 
ATOM     84  O   UNL A   1      44.130  22.317  22.824  1.00  0.00    -0.237 OA
ATOM     85  O   UNL A   1      45.859  23.687  23.955  1.00  0.00    -0.237 OA
ATOM     86  O   UNL A   1      45.469  21.362  24.656  1.00  0.00    -0.744 OA
ENDBRANCH  79  83
ENDBRANCH  52  76
BRANCH  64  87
ATOM     87  C   UNL A   1      45.625  30.142  29.120  1.00  0.00     0.023 A 
ATOM     88  C   UNL A   1      46.912  30.514  28.672  1.00  0.00     0.031 A 
ATOM     89  C   UNL A   1      44.518  30.717  28.468  1.00  0.00     0.131 A 
ATOM     90  C   UNL A   1      47.053  31.439  27.619  1.00  0.00     0.055 A 
ATOM     91  C   UNL A   1      44.662  31.619  27.414  1.00  0.00     0.041 A 
ATOM     92  F   UNL A   1      43.267  30.381  28.824  1.00  0.00    -0.206 F 
ATOM     93  C   UNL A   1      45.932  31.989  26.989  1.00  0.00     0.022 A 
BRANCH  90  94
ATOM     94  S   UNL A   1      48.707  31.950  27.051  1.00  0.00     0.124 S 
ATOM     95  O   UNL A   1      49.348  32.442  28.265  1.00  0.00    -0.237 OA
ATOM     96  O   UNL A   1      49.245  30.709  26.500  1.00  0.00    -0.237 OA
ATOM     97  O   UNL A   1      48.420  32.983  26.054  1.00  0.00    -0.744 OA
ENDBRANCH  90  94
ENDBRANCH  64  87
ENDBRANCH  38  39
ENDBRANCH  31  33
ENDBRANCH  30  31
ENDBRANCH  29  30
ENDBRANCH  28  29
ENDBRANCH  27  28
ENDBRANCH  26  27
ENDBRANCH  25  26
ENDBRANCH  24  25
ENDBRANCH   1  24
TORSDOF 27
ENDMDL
