MODEL 1
REMARK VINA RESULT:      -9.5      0.000      0.000
REMARK SMILES CC(=O)Oc1ccccc1C(=O)OCCOCCOCCOCCOC(=O)c1ccc(-c2c3nc(c(-c4cc(S(=O)(=O)[O-])ccc4F)c4ccc([nH]4)c(-c4cc(S(=O)(=O)[O-])ccc4F)c4nc(c(-c5cc(S(=O)(=O)[O-])ccc5F)c5ccc2[nH]5)C=C4)C=C3)cc1
REMARK SMILES IDX 20 1 19 2 18 3 17 4 16 5 15 6 14 7 13 8 11 9 12 10 10 11
REMARK SMILES IDX 5 12 6 13 7 14 9 15 8 16 4 17 2 18 1 19 3 20 21 21 22 22
REMARK SMILES IDX 23 23 24 24 25 25 26 26 27 27 28 28 29 29 90 30 30 31 89 32
REMARK SMILES IDX 31 33 32 34 33 35 83 36 34 37 88 38 82 39 84 40 35 41 87 42
REMARK SMILES IDX 81 43 80 44 36 46 68 47 48 48 67 49 49 50 52 51 66 52 85 53
REMARK SMILES IDX 50 54 51 55 65 57 86 58 53 59 37 60 38 61 46 62 39 63 45 64
REMARK SMILES IDX 47 65 44 66 40 67 41 68 42 69 43 70 69 71 70 72 78 73 71 74
REMARK SMILES IDX 77 75 79 76 76 77 72 78 73 79 74 80 75 81 54 82 55 83 63 84
REMARK SMILES IDX 56 85 62 86 64 87 61 88 57 89 58 90 59 91 60 92
REMARK H PARENT 84 45 52 56
REMARK Flexibility Score: inf
ROOT
ATOM      1  C   UNL A   1      32.570  21.353  24.498  1.00  0.00     0.188 C 
ENDROOT
BRANCH   1   2
ATOM      2  O   UNL A   1      31.874  22.491  23.993  1.00  0.00    -0.377 OA
BRANCH   2   3
ATOM      3  C   UNL A   1      32.346  23.100  22.807  1.00  0.00     0.188 C 
BRANCH   3   4
ATOM      4  C   UNL A   1      33.870  23.333  22.767  1.00  0.00     0.188 C 
BRANCH   4   5
ATOM      5  O   UNL A   1      34.468  23.994  23.862  1.00  0.00    -0.376 OA
BRANCH   5   6
ATOM      6  C   UNL A   1      34.129  25.314  24.257  1.00  0.00     0.202 C 
BRANCH   6   7
ATOM      7  C   UNL A   1      33.206  25.722  25.418  1.00  0.00     0.261 C 
BRANCH   7   8
ATOM      8  O   UNL A   1      31.804  25.597  25.219  1.00  0.00    -0.460 OA
BRANCH   8   9
ATOM      9  C   UNL A   1      31.017  26.514  25.818  1.00  0.00     0.342 C 
ATOM     10  O   UNL A   1      30.928  26.721  27.018  1.00  0.00    -0.246 OA
BRANCH   9  11
ATOM     11  C   UNL A   1      30.456  27.411  24.778  1.00  0.00     0.102 A 
ATOM     12  C   UNL A   1      30.892  28.718  24.513  1.00  0.00     0.145 A 
ATOM     13  C   UNL A   1      30.226  29.508  23.568  1.00  0.00     0.048 A 
ATOM     14  C   UNL A   1      29.103  29.010  22.906  1.00  0.00     0.004 A 
ATOM     15  C   UNL A   1      29.317  26.928  24.111  1.00  0.00     0.019 A 
ATOM     16  C   UNL A   1      28.635  27.729  23.192  1.00  0.00     0.001 A 
BRANCH  12  17
ATOM     17  O   UNL A   1      31.848  29.412  25.282  1.00  0.00    -0.426 OA
BRANCH  17  18
ATOM     18  C   UNL A   1      33.198  29.145  25.095  1.00  0.00     0.308 C 
ATOM     19  C   UNL A   1      33.900  29.223  26.420  1.00  0.00     0.139 C 
ATOM     20  O   UNL A   1      33.737  28.903  24.025  1.00  0.00    -0.252 OA
ENDBRANCH  17  18
ENDBRANCH  12  17
ENDBRANCH   9  11
ENDBRANCH   8   9
ENDBRANCH   7   8
ENDBRANCH   6   7
ENDBRANCH   5   6
ENDBRANCH   4   5
ENDBRANCH   3   4
ENDBRANCH   2   3
ENDBRANCH   1   2
BRANCH   1  21
ATOM     21  C   UNL A   1      33.203  21.346  25.910  1.00  0.00     0.188 C 
BRANCH  21  22
ATOM     22  O   UNL A   1      34.618  21.223  25.924  1.00  0.00    -0.376 OA
BRANCH  22  23
ATOM     23  C   UNL A   1      35.249  20.512  24.874  1.00  0.00     0.202 C 
BRANCH  23  24
ATOM     24  C   UNL A   1      36.768  20.318  24.992  1.00  0.00     0.261 C 
BRANCH  24  25
ATOM     25  O   UNL A   1      37.476  21.345  25.699  1.00  0.00    -0.460 OA
BRANCH  25  26
ATOM     26  C   UNL A   1      38.769  21.096  26.002  1.00  0.00     0.338 C 
ATOM     27  O   UNL A   1      39.395  20.081  25.743  1.00  0.00    -0.246 OA
BRANCH  26  28
ATOM     28  C   UNL A   1      39.355  22.344  26.528  1.00  0.00     0.060 A 
ATOM     29  C   UNL A   1      38.833  23.572  26.106  1.00  0.00     0.016 A 
ATOM     30  C   UNL A   1      40.414  22.297  27.439  1.00  0.00     0.016 A 
ATOM     31  C   UNL A   1      39.398  24.762  26.563  1.00  0.00     0.010 A 
ATOM     32  C   UNL A   1      40.990  23.491  27.883  1.00  0.00     0.010 A 
ATOM     33  C   UNL A   1      40.509  24.727  27.417  1.00  0.00    -0.014 A 
BRANCH  33  34
ATOM     34  C   UNL A   1      41.291  25.966  27.650  1.00  0.00     0.031 A 
ATOM     35  C   UNL A   1      40.630  27.098  28.391  1.00  0.00     0.074 A 
ATOM     36  C   UNL A   1      42.571  26.072  27.256  1.00  0.00     0.049 A 
ATOM     37  N   UNL A   1      41.099  28.277  28.706  1.00  0.00    -0.248 NA
ATOM     38  C   UNL A   1      39.247  26.860  28.826  1.00  0.00     0.031 C 
ATOM     39  C   UNL A   1      43.336  25.025  26.583  1.00  0.00     0.029 A 
ATOM     40  N   UNL A   1      43.455  27.115  27.373  1.00  0.00    -0.354 N 
ATOM     41  C   UNL A   1      40.068  28.924  29.381  1.00  0.00     0.074 A 
ATOM     42  C   UNL A   1      38.933  28.024  29.371  1.00  0.00     0.031 C 
ATOM     43  C   UNL A   1      44.584  25.475  26.358  1.00  0.00     0.029 A 
ATOM     44  C   UNL A   1      44.691  26.855  26.832  1.00  0.00     0.049 A 
ATOM     45  H   UNL A   1      43.224  27.970  27.804  1.00  0.00     0.167 HD
ATOM     46  C   UNL A   1      40.072  30.144  29.973  1.00  0.00     0.034 A 
ATOM     47  C   UNL A   1      45.778  27.646  26.725  1.00  0.00     0.034 A 
ATOM     48  C   UNL A   1      41.203  31.041  29.946  1.00  0.00     0.049 A 
ATOM     49  C   UNL A   1      45.720  29.051  27.275  1.00  0.00     0.074 A 
ATOM     50  C   UNL A   1      41.318  32.304  30.501  1.00  0.00     0.029 A 
ATOM     51  N   UNL A   1      42.412  30.778  29.312  1.00  0.00    -0.354 N 
ATOM     52  N   UNL A   1      44.742  29.655  27.913  1.00  0.00    -0.248 NA
ATOM     53  C   UNL A   1      46.920  29.878  27.094  1.00  0.00     0.031 C 
ATOM     54  C   UNL A   1      42.559  32.835  30.130  1.00  0.00     0.029 A 
ATOM     55  C   UNL A   1      43.262  31.869  29.427  1.00  0.00     0.049 A 
ATOM     56  H   UNL A   1      42.633  29.938  28.850  1.00  0.00     0.167 HD
ATOM     57  C   UNL A   1      45.228  30.919  28.245  1.00  0.00     0.074 A 
ATOM     58  C   UNL A   1      46.587  30.980  27.747  1.00  0.00     0.031 C 
ATOM     59  C   UNL A   1      44.610  31.931  28.909  1.00  0.00     0.034 A 
BRANCH  46  60
ATOM     60  C   UNL A   1      38.787  30.586  30.636  1.00  0.00     0.023 A 
ATOM     61  C   UNL A   1      37.748  31.190  29.903  1.00  0.00     0.031 A 
ATOM     62  C   UNL A   1      38.627  30.481  32.030  1.00  0.00     0.131 A 
ATOM     63  C   UNL A   1      36.656  31.760  30.574  1.00  0.00     0.055 A 
ATOM     64  C   UNL A   1      37.487  30.958  32.680  1.00  0.00     0.041 A 
ATOM     65  F   UNL A   1      39.592  29.940  32.790  1.00  0.00    -0.206 F 
ATOM     66  C   UNL A   1      36.505  31.625  31.955  1.00  0.00     0.022 A 
BRANCH  63  67
ATOM     67  S   UNL A   1      35.554  32.862  29.644  1.00  0.00     0.124 S 
ATOM     68  O   UNL A   1      34.940  33.641  30.717  1.00  0.00    -0.237 OA
ATOM     69  O   UNL A   1      36.483  33.583  28.782  1.00  0.00    -0.237 OA
ATOM     70  O   UNL A   1      34.649  31.941  28.958  1.00  0.00    -0.744 OA
ENDBRANCH  63  67
ENDBRANCH  46  60
BRANCH  47  71
ATOM     71  C   UNL A   1      47.017  27.142  26.066  1.00  0.00     0.023 A 
ATOM     72  C   UNL A   1      47.997  26.459  26.802  1.00  0.00     0.031 A 
ATOM     73  C   UNL A   1      47.264  27.379  24.701  1.00  0.00     0.131 A 
ATOM     74  C   UNL A   1      49.195  26.071  26.183  1.00  0.00     0.055 A 
ATOM     75  C   UNL A   1      48.434  26.942  24.077  1.00  0.00     0.041 A 
ATOM     76  F   UNL A   1      46.362  28.032  23.950  1.00  0.00    -0.206 F 
ATOM     77  C   UNL A   1      49.413  26.294  24.822  1.00  0.00     0.022 A 
BRANCH  74  78
ATOM     78  S   UNL A   1      50.502  25.338  27.205  1.00  0.00     0.124 S 
ATOM     79  O   UNL A   1      49.810  24.199  27.799  1.00  0.00    -0.237 OA
ATOM     80  O   UNL A   1      51.522  25.021  26.211  1.00  0.00    -0.237 OA
ATOM     81  O   UNL A   1      50.851  26.412  28.131  1.00  0.00    -0.744 OA
ENDBRANCH  74  78
ENDBRANCH  47  71
BRANCH  59  82
ATOM     82  C   UNL A   1      45.426  33.178  29.175  1.00  0.00     0.023 A 
ATOM     83  C   UNL A   1      45.383  34.294  28.320  1.00  0.00     0.031 A 
ATOM     84  C   UNL A   1      46.290  33.236  30.285  1.00  0.00     0.131 A 
ATOM     85  C   UNL A   1      46.240  35.383  28.543  1.00  0.00     0.055 A 
ATOM     86  C   UNL A   1      47.082  34.355  30.546  1.00  0.00     0.041 A 
ATOM     87  F   UNL A   1      46.381  32.202  31.137  1.00  0.00    -0.206 F 
ATOM     88  C   UNL A   1      47.074  35.429  29.662  1.00  0.00     0.022 A 
BRANCH  85  89
ATOM     89  S   UNL A   1      46.348  36.677  27.277  1.00  0.00     0.124 S 
ATOM     90  O   UNL A   1      47.077  37.728  27.980  1.00  0.00    -0.237 OA
ATOM     91  O   UNL A   1      47.076  36.005  26.204  1.00  0.00    -0.237 OA
ATOM     92  O   UNL A   1      44.950  36.985  26.979  1.00  0.00    -0.744 OA
ENDBRANCH  85  89
ENDBRANCH  59  82
ENDBRANCH  33  34
ENDBRANCH  26  28
ENDBRANCH  25  26
ENDBRANCH  24  25
ENDBRANCH  23  24
ENDBRANCH  22  23
ENDBRANCH  21  22
ENDBRANCH   1  21
TORSDOF 25
ENDMDL
MODEL 2
REMARK VINA RESULT:      -9.4      1.147      7.946
REMARK SMILES CC(=O)Oc1ccccc1C(=O)OCCOCCOCCOCCOC(=O)c1ccc(-c2c3nc(c(-c4cc(S(=O)(=O)[O-])ccc4F)c4ccc([nH]4)c(-c4cc(S(=O)(=O)[O-])ccc4F)c4nc(c(-c5cc(S(=O)(=O)[O-])ccc5F)c5ccc2[nH]5)C=C4)C=C3)cc1
REMARK SMILES IDX 20 1 19 2 18 3 17 4 16 5 15 6 14 7 13 8 11 9 12 10 10 11
REMARK SMILES IDX 5 12 6 13 7 14 9 15 8 16 4 17 2 18 1 19 3 20 21 21 22 22
REMARK SMILES IDX 23 23 24 24 25 25 26 26 27 27 28 28 29 29 90 30 30 31 89 32
REMARK SMILES IDX 31 33 32 34 33 35 83 36 34 37 88 38 82 39 84 40 35 41 87 42
REMARK SMILES IDX 81 43 80 44 36 46 68 47 48 48 67 49 49 50 52 51 66 52 85 53
REMARK SMILES IDX 50 54 51 55 65 57 86 58 53 59 37 60 38 61 46 62 39 63 45 64
REMARK SMILES IDX 47 65 44 66 40 67 41 68 42 69 43 70 69 71 70 72 78 73 71 74
REMARK SMILES IDX 77 75 79 76 76 77 72 78 73 79 74 80 75 81 54 82 55 83 63 84
REMARK SMILES IDX 56 85 62 86 64 87 61 88 57 89 58 90 59 91 60 92
REMARK H PARENT 84 45 52 56
REMARK Flexibility Score: inf
ROOT
ATOM      1  C   UNL A   1      34.319  23.892  25.995  1.00  0.00     0.188 C 
ENDROOT
BRANCH   1   2
ATOM      2  O   UNL A   1      33.103  24.219  26.666  1.00  0.00    -0.377 OA
BRANCH   2   3
ATOM      3  C   UNL A   1      31.888  23.718  26.143  1.00  0.00     0.188 C 
BRANCH   3   4
ATOM      4  C   UNL A   1      30.751  24.755  26.049  1.00  0.00     0.188 C 
BRANCH   4   5
ATOM      5  O   UNL A   1      30.350  25.185  24.765  1.00  0.00    -0.376 OA
BRANCH   5   6
ATOM      6  C   UNL A   1      30.795  24.574  23.564  1.00  0.00     0.202 C 
BRANCH   6   7
ATOM      7  C   UNL A   1      31.819  25.140  22.565  1.00  0.00     0.261 C 
BRANCH   7   8
ATOM      8  O   UNL A   1      33.080  25.551  23.077  1.00  0.00    -0.460 OA
BRANCH   8   9
ATOM      9  C   UNL A   1      33.436  26.835  22.869  1.00  0.00     0.342 C 
ATOM     10  O   UNL A   1      33.934  27.295  21.855  1.00  0.00    -0.246 OA
BRANCH   9  11
ATOM     11  C   UNL A   1      32.897  27.662  23.977  1.00  0.00     0.102 A 
ATOM     12  C   UNL A   1      31.976  28.711  23.833  1.00  0.00     0.145 A 
ATOM     13  C   UNL A   1      31.607  29.485  24.940  1.00  0.00     0.048 A 
ATOM     14  C   UNL A   1      32.179  29.238  26.189  1.00  0.00     0.004 A 
ATOM     15  C   UNL A   1      33.471  27.433  25.240  1.00  0.00     0.019 A 
ATOM     16  C   UNL A   1      33.125  28.227  26.335  1.00  0.00     0.001 A 
BRANCH  12  17
ATOM     17  O   UNL A   1      31.523  29.210  22.595  1.00  0.00    -0.426 OA
BRANCH  17  18
ATOM     18  C   UNL A   1      30.168  29.163  22.295  1.00  0.00     0.308 C 
ATOM     19  C   UNL A   1      29.530  28.055  23.082  1.00  0.00     0.139 C 
ATOM     20  O   UNL A   1      29.585  29.893  21.505  1.00  0.00    -0.252 OA
ENDBRANCH  17  18
ENDBRANCH  12  17
ENDBRANCH   9  11
ENDBRANCH   8   9
ENDBRANCH   7   8
ENDBRANCH   6   7
ENDBRANCH   5   6
ENDBRANCH   4   5
ENDBRANCH   3   4
ENDBRANCH   2   3
ENDBRANCH   1   2
BRANCH   1  21
ATOM     21  C   UNL A   1      34.998  22.513  26.168  1.00  0.00     0.188 C 
BRANCH  21  22
ATOM     22  O   UNL A   1      34.903  21.660  25.036  1.00  0.00    -0.376 OA
BRANCH  22  23
ATOM     23  C   UNL A   1      36.039  20.902  24.659  1.00  0.00     0.202 C 
BRANCH  23  24
ATOM     24  C   UNL A   1      37.163  20.787  25.699  1.00  0.00     0.261 C 
BRANCH  24  25
ATOM     25  O   UNL A   1      38.457  21.236  25.274  1.00  0.00    -0.460 OA
BRANCH  25  26
ATOM     26  C   UNL A   1      39.487  21.009  26.117  1.00  0.00     0.338 C 
ATOM     27  O   UNL A   1      40.084  19.956  26.272  1.00  0.00    -0.246 OA
BRANCH  26  28
ATOM     28  C   UNL A   1      39.900  22.309  26.681  1.00  0.00     0.060 A 
ATOM     29  C   UNL A   1      39.192  23.462  26.322  1.00  0.00     0.016 A 
ATOM     30  C   UNL A   1      40.980  22.385  27.564  1.00  0.00     0.016 A 
ATOM     31  C   UNL A   1      39.591  24.704  26.814  1.00  0.00     0.010 A 
ATOM     32  C   UNL A   1      41.389  23.632  28.044  1.00  0.00     0.010 A 
ATOM     33  C   UNL A   1      40.719  24.801  27.640  1.00  0.00    -0.014 A 
BRANCH  33  34
ATOM     34  C   UNL A   1      41.319  26.132  27.907  1.00  0.00     0.031 A 
ATOM     35  C   UNL A   1      42.716  26.397  27.412  1.00  0.00     0.074 A 
ATOM     36  C   UNL A   1      40.628  27.100  28.533  1.00  0.00     0.049 A 
ATOM     37  N   UNL A   1      43.455  27.469  27.530  1.00  0.00    -0.248 NA
ATOM     38  C   UNL A   1      43.364  25.291  26.692  1.00  0.00     0.031 C 
ATOM     39  C   UNL A   1      39.251  26.982  29.005  1.00  0.00     0.029 A 
ATOM     40  N   UNL A   1      40.994  28.378  28.871  1.00  0.00    -0.354 N 
ATOM     41  C   UNL A   1      44.657  27.169  26.895  1.00  0.00     0.074 A 
ATOM     42  C   UNL A   1      44.563  25.794  26.452  1.00  0.00     0.031 C 
ATOM     43  C   UNL A   1      38.882  28.150  29.563  1.00  0.00     0.029 A 
ATOM     44  C   UNL A   1      40.010  29.080  29.524  1.00  0.00     0.049 A 
ATOM     45  H   UNL A   1      41.880  28.756  28.666  1.00  0.00     0.167 HD
ATOM     46  C   UNL A   1      45.730  27.971  26.682  1.00  0.00     0.034 A 
ATOM     47  C   UNL A   1      40.025  30.326  30.039  1.00  0.00     0.034 A 
ATOM     48  C   UNL A   1      45.818  29.331  27.159  1.00  0.00     0.049 A 
ATOM     49  C   UNL A   1      41.279  31.159  29.906  1.00  0.00     0.074 A 
ATOM     50  C   UNL A   1      46.858  30.232  27.012  1.00  0.00     0.029 A 
ATOM     51  N   UNL A   1      44.833  29.981  27.894  1.00  0.00    -0.354 N 
ATOM     52  N   UNL A   1      42.410  30.869  29.304  1.00  0.00    -0.248 NA
ATOM     53  C   UNL A   1      41.249  32.492  30.520  1.00  0.00     0.031 C 
ATOM     54  C   UNL A   1      46.538  31.392  27.729  1.00  0.00     0.029 A 
ATOM     55  C   UNL A   1      45.258  31.256  28.242  1.00  0.00     0.049 A 
ATOM     56  H   UNL A   1      43.961  29.594  28.132  1.00  0.00     0.167 HD
ATOM     57  C   UNL A   1      43.211  32.003  29.432  1.00  0.00     0.074 A 
ATOM     58  C   UNL A   1      42.425  32.981  30.157  1.00  0.00     0.031 C 
ATOM     59  C   UNL A   1      44.476  32.219  28.984  1.00  0.00     0.034 A 
BRANCH  46  60
ATOM     60  C   UNL A   1      46.907  27.359  25.956  1.00  0.00     0.023 A 
ATOM     61  C   UNL A   1      47.921  26.668  26.646  1.00  0.00     0.031 A 
ATOM     62  C   UNL A   1      47.064  27.536  24.570  1.00  0.00     0.131 A 
ATOM     63  C   UNL A   1      49.089  26.282  25.973  1.00  0.00     0.055 A 
ATOM     64  C   UNL A   1      48.184  27.055  23.887  1.00  0.00     0.041 A 
ATOM     65  F   UNL A   1      46.147  28.208  23.858  1.00  0.00    -0.206 F 
ATOM     66  C   UNL A   1      49.216  26.446  24.593  1.00  0.00     0.022 A 
BRANCH  63  67
ATOM     67  S   UNL A   1      50.520  25.761  26.961  1.00  0.00     0.124 S 
ATOM     68  O   UNL A   1      51.572  25.700  25.948  1.00  0.00    -0.237 OA
ATOM     69  O   UNL A   1      50.636  26.836  27.939  1.00  0.00    -0.237 OA
ATOM     70  O   UNL A   1      50.111  24.465  27.500  1.00  0.00    -0.744 OA
ENDBRANCH  63  67
ENDBRANCH  46  60
BRANCH  47  71
ATOM     71  C   UNL A   1      38.825  30.871  30.735  1.00  0.00     0.023 A 
ATOM     72  C   UNL A   1      37.733  31.366  30.005  1.00  0.00     0.031 A 
ATOM     73  C   UNL A   1      38.771  30.952  32.138  1.00  0.00     0.131 A 
ATOM     74  C   UNL A   1      36.651  31.955  30.677  1.00  0.00     0.055 A 
ATOM     75  C   UNL A   1      37.668  31.490  32.804  1.00  0.00     0.041 A 
ATOM     76  F   UNL A   1      39.791  30.498  32.885  1.00  0.00    -0.206 F 
ATOM     77  C   UNL A   1      36.604  32.006  32.072  1.00  0.00     0.022 A 
BRANCH  74  78
ATOM     78  S   UNL A   1      35.337  32.728  29.695  1.00  0.00     0.124 S 
ATOM     79  O   UNL A   1      34.267  32.856  30.678  1.00  0.00    -0.237 OA
ATOM     80  O   UNL A   1      35.968  33.972  29.269  1.00  0.00    -0.237 OA
ATOM     81  O   UNL A   1      35.095  31.758  28.629  1.00  0.00    -0.744 OA
ENDBRANCH  74  78
ENDBRANCH  47  71
BRANCH  59  82
ATOM     82  C   UNL A   1      45.067  33.591  29.228  1.00  0.00     0.023 A 
ATOM     83  C   UNL A   1      44.885  34.653  28.325  1.00  0.00     0.031 A 
ATOM     84  C   UNL A   1      45.856  33.830  30.370  1.00  0.00     0.131 A 
ATOM     85  C   UNL A   1      45.544  35.875  28.535  1.00  0.00     0.055 A 
ATOM     86  C   UNL A   1      46.444  35.072  30.613  1.00  0.00     0.041 A 
ATOM     87  F   UNL A   1      46.071  32.856  31.269  1.00  0.00    -0.206 F 
ATOM     88  C   UNL A   1      46.306  36.098  29.683  1.00  0.00     0.022 A 
BRANCH  85  89
ATOM     89  S   UNL A   1      45.502  37.122  27.218  1.00  0.00     0.124 S 
ATOM     90  O   UNL A   1      46.320  36.497  26.183  1.00  0.00    -0.237 OA
ATOM     91  O   UNL A   1      44.075  37.223  26.928  1.00  0.00    -0.237 OA
ATOM     92  O   UNL A   1      46.093  38.304  27.845  1.00  0.00    -0.744 OA
ENDBRANCH  85  89
ENDBRANCH  59  82
ENDBRANCH  33  34
ENDBRANCH  26  28
ENDBRANCH  25  26
ENDBRANCH  24  25
ENDBRANCH  23  24
ENDBRANCH  22  23
ENDBRANCH  21  22
ENDBRANCH   1  21
TORSDOF 25
ENDMDL
MODEL 3
REMARK VINA RESULT:      -9.3      0.495      7.718
REMARK SMILES CC(=O)Oc1ccccc1C(=O)OCCOCCOCCOCCOC(=O)c1ccc(-c2c3nc(c(-c4cc(S(=O)(=O)[O-])ccc4F)c4ccc([nH]4)c(-c4cc(S(=O)(=O)[O-])ccc4F)c4nc(c(-c5cc(S(=O)(=O)[O-])ccc5F)c5ccc2[nH]5)C=C4)C=C3)cc1
REMARK SMILES IDX 20 1 19 2 18 3 17 4 16 5 15 6 14 7 13 8 11 9 12 10 10 11
REMARK SMILES IDX 5 12 6 13 7 14 9 15 8 16 4 17 2 18 1 19 3 20 21 21 22 22
REMARK SMILES IDX 23 23 24 24 25 25 26 26 27 27 28 28 29 29 90 30 30 31 89 32
REMARK SMILES IDX 31 33 32 34 33 35 83 36 34 37 88 38 82 39 84 40 35 41 87 42
REMARK SMILES IDX 81 43 80 44 36 46 68 47 48 48 67 49 49 50 52 51 66 52 85 53
REMARK SMILES IDX 50 54 51 55 65 57 86 58 53 59 37 60 38 61 46 62 39 63 45 64
REMARK SMILES IDX 47 65 44 66 40 67 41 68 42 69 43 70 69 71 70 72 78 73 71 74
REMARK SMILES IDX 77 75 79 76 76 77 72 78 73 79 74 80 75 81 54 82 55 83 63 84
REMARK SMILES IDX 56 85 62 86 64 87 61 88 57 89 58 90 59 91 60 92
REMARK H PARENT 84 45 52 56
REMARK Flexibility Score: inf
ROOT
ATOM      1  C   UNL A   1      33.119  21.051  24.217  1.00  0.00     0.188 C 
ENDROOT
BRANCH   1   2
ATOM      2  O   UNL A   1      32.408  22.223  23.824  1.00  0.00    -0.377 OA
BRANCH   2   3
ATOM      3  C   UNL A   1      32.988  23.068  22.848  1.00  0.00     0.188 C 
BRANCH   3   4
ATOM      4  C   UNL A   1      34.498  23.319  23.030  1.00  0.00     0.188 C 
BRANCH   4   5
ATOM      5  O   UNL A   1      34.935  23.869  24.256  1.00  0.00    -0.376 OA
BRANCH   5   6
ATOM      6  C   UNL A   1      34.547  25.153  24.717  1.00  0.00     0.202 C 
BRANCH   6   7
ATOM      7  C   UNL A   1      33.431  25.473  25.726  1.00  0.00     0.261 C 
BRANCH   7   8
ATOM      8  O   UNL A   1      32.090  25.221  25.326  1.00  0.00    -0.460 OA
BRANCH   8   9
ATOM      9  C   UNL A   1      31.128  25.968  25.905  1.00  0.00     0.342 C 
ATOM     10  O   UNL A   1      30.912  26.074  27.101  1.00  0.00    -0.246 OA
BRANCH   9  11
ATOM     11  C   UNL A   1      30.525  26.847  24.873  1.00  0.00     0.102 A 
ATOM     12  C   UNL A   1      30.915  28.167  24.602  1.00  0.00     0.145 A 
ATOM     13  C   UNL A   1      30.211  28.935  23.667  1.00  0.00     0.048 A 
ATOM     14  C   UNL A   1      29.095  28.402  23.021  1.00  0.00     0.004 A 
ATOM     15  C   UNL A   1      29.392  26.329  24.221  1.00  0.00     0.019 A 
ATOM     16  C   UNL A   1      28.672  27.107  23.313  1.00  0.00     0.001 A 
BRANCH  12  17
ATOM     17  O   UNL A   1      31.859  28.891  25.358  1.00  0.00    -0.426 OA
BRANCH  17  18
ATOM     18  C   UNL A   1      33.139  29.078  24.852  1.00  0.00     0.308 C 
ATOM     19  C   UNL A   1      34.114  29.122  25.993  1.00  0.00     0.139 C 
ATOM     20  O   UNL A   1      33.430  29.205  23.671  1.00  0.00    -0.252 OA
ENDBRANCH  17  18
ENDBRANCH  12  17
ENDBRANCH   9  11
ENDBRANCH   8   9
ENDBRANCH   7   8
ENDBRANCH   6   7
ENDBRANCH   5   6
ENDBRANCH   4   5
ENDBRANCH   3   4
ENDBRANCH   2   3
ENDBRANCH   1   2
BRANCH   1  21
ATOM     21  C   UNL A   1      33.638  20.860  25.662  1.00  0.00     0.188 C 
BRANCH  21  22
ATOM     22  O   UNL A   1      35.053  20.819  25.783  1.00  0.00    -0.376 OA
BRANCH  22  23
ATOM     23  C   UNL A   1      35.814  20.326  24.695  1.00  0.00     0.202 C 
BRANCH  23  24
ATOM     24  C   UNL A   1      37.336  20.276  24.890  1.00  0.00     0.261 C 
BRANCH  24  25
ATOM     25  O   UNL A   1      37.874  21.196  25.849  1.00  0.00    -0.460 OA
BRANCH  25  26
ATOM     26  C   UNL A   1      39.191  21.081  26.130  1.00  0.00     0.338 C 
ATOM     27  O   UNL A   1      39.920  20.149  25.835  1.00  0.00    -0.246 OA
BRANCH  26  28
ATOM     28  C   UNL A   1      39.644  22.371  26.687  1.00  0.00     0.060 A 
ATOM     29  C   UNL A   1      39.011  23.549  26.277  1.00  0.00     0.016 A 
ATOM     30  C   UNL A   1      40.688  22.411  27.615  1.00  0.00     0.016 A 
ATOM     31  C   UNL A   1      39.451  24.780  26.762  1.00  0.00     0.010 A 
ATOM     32  C   UNL A   1      41.138  23.646  28.089  1.00  0.00     0.010 A 
ATOM     33  C   UNL A   1      40.546  24.838  27.635  1.00  0.00    -0.014 A 
BRANCH  33  34
ATOM     34  C   UNL A   1      41.200  26.143  27.903  1.00  0.00     0.031 A 
ATOM     35  C   UNL A   1      42.620  26.337  27.442  1.00  0.00     0.074 A 
ATOM     36  C   UNL A   1      40.539  27.149  28.500  1.00  0.00     0.049 A 
ATOM     37  N   UNL A   1      43.405  27.375  27.567  1.00  0.00    -0.248 NA
ATOM     38  C   UNL A   1      43.234  25.194  26.752  1.00  0.00     0.031 C 
ATOM     39  C   UNL A   1      39.146  27.102  28.937  1.00  0.00     0.029 A 
ATOM     40  N   UNL A   1      40.956  28.413  28.834  1.00  0.00    -0.354 N 
ATOM     41  C   UNL A   1      44.607  27.013  26.968  1.00  0.00     0.074 A 
ATOM     42  C   UNL A   1      44.461  25.637  26.538  1.00  0.00     0.031 C 
ATOM     43  C   UNL A   1      38.818  28.291  29.472  1.00  0.00     0.029 A 
ATOM     44  C   UNL A   1      39.988  29.168  29.453  1.00  0.00     0.049 A 
ATOM     45  H   UNL A   1      41.863  28.747  28.647  1.00  0.00     0.167 HD
ATOM     46  C   UNL A   1      45.722  27.761  26.774  1.00  0.00     0.034 A 
ATOM     47  C   UNL A   1      40.049  30.418  29.954  1.00  0.00     0.034 A 
ATOM     48  C   UNL A   1      45.861  29.121  27.238  1.00  0.00     0.049 A 
ATOM     49  C   UNL A   1      41.343  31.191  29.845  1.00  0.00     0.074 A 
ATOM     50  C   UNL A   1      46.945  29.971  27.109  1.00  0.00     0.029 A 
ATOM     51  N   UNL A   1      44.889  29.825  27.940  1.00  0.00    -0.354 N 
ATOM     52  N   UNL A   1      42.475  30.841  29.277  1.00  0.00    -0.248 NA
ATOM     53  C   UNL A   1      41.359  32.531  30.444  1.00  0.00     0.031 C 
ATOM     54  C   UNL A   1      46.662  31.153  27.805  1.00  0.00     0.029 A 
ATOM     55  C   UNL A   1      45.364  31.083  28.285  1.00  0.00     0.049 A 
ATOM     56  H   UNL A   1      43.993  29.481  28.159  1.00  0.00     0.167 HD
ATOM     57  C   UNL A   1      43.324  31.939  29.413  1.00  0.00     0.074 A 
ATOM     58  C   UNL A   1      42.565  32.961  30.107  1.00  0.00     0.031 C 
ATOM     59  C   UNL A   1      44.608  32.090  28.996  1.00  0.00     0.034 A 
BRANCH  46  60
ATOM     60  C   UNL A   1      46.887  27.086  26.087  1.00  0.00     0.023 A 
ATOM     61  C   UNL A   1      47.854  26.364  26.811  1.00  0.00     0.031 A 
ATOM     62  C   UNL A   1      47.084  27.233  24.702  1.00  0.00     0.131 A 
ATOM     63  C   UNL A   1      49.019  25.915  26.172  1.00  0.00     0.055 A 
ATOM     64  C   UNL A   1      48.197  26.693  24.054  1.00  0.00     0.041 A 
ATOM     65  F   UNL A   1      46.214  27.933  23.957  1.00  0.00    -0.206 F 
ATOM     66  C   UNL A   1      49.185  26.051  24.793  1.00  0.00     0.022 A 
BRANCH  63  67
ATOM     67  S   UNL A   1      50.403  25.349  27.202  1.00  0.00     0.124 S 
ATOM     68  O   UNL A   1      50.714  26.554  27.967  1.00  0.00    -0.237 OA
ATOM     69  O   UNL A   1      49.807  24.250  27.953  1.00  0.00    -0.237 OA
ATOM     70  O   UNL A   1      51.420  24.961  26.226  1.00  0.00    -0.744 OA
ENDBRANCH  63  67
ENDBRANCH  46  60
BRANCH  47  71
ATOM     71  C   UNL A   1      38.858  31.027  30.613  1.00  0.00     0.023 A 
ATOM     72  C   UNL A   1      37.805  31.554  29.849  1.00  0.00     0.031 A 
ATOM     73  C   UNL A   1      38.775  31.135  32.013  1.00  0.00     0.131 A 
ATOM     74  C   UNL A   1      36.734  32.202  30.486  1.00  0.00     0.055 A 
ATOM     75  C   UNL A   1      37.682  31.731  32.643  1.00  0.00     0.041 A 
ATOM     76  F   UNL A   1      39.757  30.651  32.791  1.00  0.00    -0.206 F 
ATOM     77  C   UNL A   1      36.658  32.280  31.878  1.00  0.00     0.022 A 
BRANCH  74  78
ATOM     78  S   UNL A   1      35.477  33.012  29.459  1.00  0.00     0.124 S 
ATOM     79  O   UNL A   1      34.310  32.972  30.333  1.00  0.00    -0.237 OA
ATOM     80  O   UNL A   1      36.068  34.327  29.239  1.00  0.00    -0.237 OA
ATOM     81  O   UNL A   1      35.404  32.158  28.276  1.00  0.00    -0.744 OA
ENDBRANCH  74  78
ENDBRANCH  47  71
BRANCH  59  82
ATOM     82  C   UNL A   1      45.256  33.436  29.241  1.00  0.00     0.023 A 
ATOM     83  C   UNL A   1      45.272  34.445  28.261  1.00  0.00     0.031 A 
ATOM     84  C   UNL A   1      45.900  33.701  30.465  1.00  0.00     0.131 A 
ATOM     85  C   UNL A   1      45.981  35.635  28.490  1.00  0.00     0.055 A 
ATOM     86  C   UNL A   1      46.535  34.918  30.716  1.00  0.00     0.041 A 
ATOM     87  F   UNL A   1      45.924  32.778  31.439  1.00  0.00    -0.206 F 
ATOM     88  C   UNL A   1      46.596  35.886  29.718  1.00  0.00     0.022 A 
BRANCH  85  89
ATOM     89  S   UNL A   1      46.205  36.793  27.111  1.00  0.00     0.124 S 
ATOM     90  O   UNL A   1      46.083  35.911  25.954  1.00  0.00    -0.237 OA
ATOM     91  O   UNL A   1      45.107  37.734  27.313  1.00  0.00    -0.237 OA
ATOM     92  O   UNL A   1      47.541  37.341  27.336  1.00  0.00    -0.744 OA
ENDBRANCH  85  89
ENDBRANCH  59  82
ENDBRANCH  33  34
ENDBRANCH  26  28
ENDBRANCH  25  26
ENDBRANCH  24  25
ENDBRANCH  23  24
ENDBRANCH  22  23
ENDBRANCH  21  22
ENDBRANCH   1  21
TORSDOF 25
ENDMDL
