MODEL 1
REMARK VINA RESULT:      -9.0      0.000      0.000
REMARK SMILES CC(C)C[C@@H](NC(=O)Cn1nc(O)ccc1=O)C(=O)OCCOCCOCCOCCOC(=O)c1ccc(-c2c3nc(c(-c4cc(S(=O)(=O)[O-])ccc4F)c4ccc([nH]4)c(-c4cc(S(=O)(=O)[O-])ccc4F)c4nc(c(-c5cc(S(=O)(=O)[O-])ccc5F)c5ccc2[nH]5)C=C4)C=C3)cc1
REMARK SMILES IDX 25 1 24 2 23 3 22 4 21 5 20 6 18 7 19 8 5 9 4 10 2 11 1 12
REMARK SMILES IDX 3 13 6 14 7 15 8 17 9 18 10 19 11 20 16 21 12 22 15 23 17 24
REMARK SMILES IDX 14 25 13 26 26 28 27 29 28 30 29 31 30 32 31 33 32 34 33 35
REMARK SMILES IDX 34 36 35 37 36 38 97 39 37 40 96 41 38 42 39 43 40 44 90 45
REMARK SMILES IDX 41 46 95 47 89 48 91 49 42 50 94 51 88 52 87 53 43 55 75 56
REMARK SMILES IDX 55 57 74 58 56 59 59 60 73 61 92 62 57 63 58 64 72 66 93 67
REMARK SMILES IDX 60 68 44 69 45 70 53 71 46 72 52 73 54 74 51 75 47 76 48 77
REMARK SMILES IDX 49 78 50 79 76 80 77 81 85 82 78 83 84 84 86 85 83 86 79 87
REMARK SMILES IDX 80 88 81 89 82 90 61 91 62 92 70 93 63 94 69 95 71 96 68 97
REMARK SMILES IDX 64 98 65 99 66 100 67 101
REMARK H PARENT 6 16 13 27 91 54 59 65
REMARK Flexibility Score: inf
ROOT
ATOM      1  C   UNL A   1      37.630  20.539  24.896  1.00  0.00     0.188 C 
ENDROOT
BRANCH   1   2
ATOM      2  C   UNL A   1      36.713  21.708  25.264  1.00  0.00     0.188 C 
BRANCH   2   3
ATOM      3  O   UNL A   1      36.902  22.967  24.639  1.00  0.00    -0.376 OA
BRANCH   3   4
ATOM      4  C   UNL A   1      36.089  23.328  23.518  1.00  0.00     0.202 C 
BRANCH   4   5
ATOM      5  C   UNL A   1      34.621  23.668  23.763  1.00  0.00     0.261 C 
BRANCH   5   6
ATOM      6  O   UNL A   1      34.495  25.037  24.187  1.00  0.00    -0.462 OA
BRANCH   6   7
ATOM      7  C   UNL A   1      33.854  25.880  23.345  1.00  0.00     0.328 C 
ATOM      8  O   UNL A   1      33.990  25.871  22.125  1.00  0.00    -0.250 OA
BRANCH   7   9
ATOM      9  C   UNL A   1      32.980  26.916  24.078  1.00  0.00     0.192 C 
BRANCH   9  10
ATOM     10  C   UNL A   1      33.618  27.776  25.188  1.00  0.00     0.040 C 
BRANCH  10  11
ATOM     11  C   UNL A   1      32.641  28.721  25.941  1.00  0.00    -0.015 C 
ATOM     12  C   UNL A   1      32.240  28.193  27.324  1.00  0.00     0.007 C 
ATOM     13  C   UNL A   1      33.272  30.109  26.127  1.00  0.00     0.007 C 
ENDBRANCH  10  11
ENDBRANCH   9  10
BRANCH   9  14
ATOM     14  N   UNL A   1      32.049  27.640  23.213  1.00  0.00    -0.341 N 
ATOM     15  C   UNL A   1      30.713  27.530  22.969  1.00  0.00     0.242 C 
ATOM     16  H   UNL A   1      32.480  28.360  22.697  1.00  0.00     0.164 HD
ATOM     17  O   UNL A   1      30.301  28.179  22.000  1.00  0.00    -0.273 OA
BRANCH  15  18
ATOM     18  C   UNL A   1      29.752  26.737  23.858  1.00  0.00     0.248 C 
BRANCH  18  19
ATOM     19  N   UNL A   1      30.231  25.406  24.199  1.00  0.00    -0.217 N 
ATOM     20  N   UNL A   1      30.648  24.612  23.151  1.00  0.00    -0.131 NA
ATOM     21  C   UNL A   1      30.365  25.029  25.538  1.00  0.00     0.267 A 
ATOM     22  C   UNL A   1      31.027  23.433  23.472  1.00  0.00     0.229 A 
ATOM     23  C   UNL A   1      30.745  23.614  25.778  1.00  0.00     0.079 A 
ATOM     24  O   UNL A   1      30.161  25.763  26.498  1.00  0.00    -0.268 OA
ATOM     25  C   UNL A   1      31.036  22.800  24.767  1.00  0.00     0.075 A 
BRANCH  22  26
ATOM     26  O   UNL A   1      31.478  22.591  22.553  1.00  0.00    -0.492 OA
ATOM     27  H   UNL A   1      31.824  21.758  22.810  1.00  0.00     0.295 HD
ENDBRANCH  22  26
ENDBRANCH  18  19
ENDBRANCH  15  18
ENDBRANCH   9  14
ENDBRANCH   7   9
ENDBRANCH   6   7
ENDBRANCH   5   6
ENDBRANCH   4   5
ENDBRANCH   3   4
ENDBRANCH   2   3
ENDBRANCH   1   2
BRANCH   1  28
ATOM     28  O   UNL A   1      38.840  20.374  25.595  1.00  0.00    -0.377 OA
BRANCH  28  29
ATOM     29  C   UNL A   1      39.556  21.489  26.109  1.00  0.00     0.188 C 
BRANCH  29  30
ATOM     30  C   UNL A   1      40.958  21.360  26.699  1.00  0.00     0.188 C 
BRANCH  30  31
ATOM     31  O   UNL A   1      41.085  20.333  27.660  1.00  0.00    -0.376 OA
BRANCH  31  32
ATOM     32  C   UNL A   1      42.013  19.307  27.338  1.00  0.00     0.202 C 
BRANCH  32  33
ATOM     33  C   UNL A   1      42.532  19.190  25.890  1.00  0.00     0.261 C 
BRANCH  33  34
ATOM     34  O   UNL A   1      43.943  19.324  25.644  1.00  0.00    -0.460 OA
BRANCH  34  35
ATOM     35  C   UNL A   1      44.366  20.108  24.627  1.00  0.00     0.338 C 
ATOM     36  O   UNL A   1      44.526  19.761  23.468  1.00  0.00    -0.246 OA
BRANCH  35  37
ATOM     37  C   UNL A   1      44.455  21.503  25.138  1.00  0.00     0.060 A 
ATOM     38  C   UNL A   1      44.676  21.750  26.496  1.00  0.00     0.016 A 
ATOM     39  C   UNL A   1      44.266  22.579  24.260  1.00  0.00     0.016 A 
ATOM     40  C   UNL A   1      44.714  23.071  26.971  1.00  0.00     0.010 A 
ATOM     41  C   UNL A   1      44.277  23.897  24.742  1.00  0.00     0.010 A 
ATOM     42  C   UNL A   1      44.519  24.160  26.100  1.00  0.00    -0.014 A 
BRANCH  42  43
ATOM     43  C   UNL A   1      44.814  25.549  26.557  1.00  0.00     0.031 A 
ATOM     44  C   UNL A   1      46.192  26.140  26.601  1.00  0.00     0.074 A 
ATOM     45  C   UNL A   1      43.781  26.286  27.005  1.00  0.00     0.049 A 
ATOM     46  N   UNL A   1      46.544  27.385  26.806  1.00  0.00    -0.248 NA
ATOM     47  C   UNL A   1      47.320  25.226  26.399  1.00  0.00     0.031 C 
ATOM     48  C   UNL A   1      42.403  25.807  27.087  1.00  0.00     0.029 A 
ATOM     49  N   UNL A   1      43.725  27.569  27.492  1.00  0.00    -0.354 N 
ATOM     50  C   UNL A   1      47.931  27.418  26.710  1.00  0.00     0.074 A 
ATOM     51  C   UNL A   1      48.357  26.055  26.473  1.00  0.00     0.031 C 
ATOM     52  C   UNL A   1      41.635  26.780  27.592  1.00  0.00     0.029 A 
ATOM     53  C   UNL A   1      42.467  27.945  27.897  1.00  0.00     0.049 A 
ATOM     54  H   UNL A   1      44.509  28.161  27.544  1.00  0.00     0.167 HD
ATOM     55  C   UNL A   1      48.763  28.485  26.813  1.00  0.00     0.034 A 
ATOM     56  C   UNL A   1      42.020  29.088  28.457  1.00  0.00     0.034 A 
ATOM     57  C   UNL A   1      48.325  29.815  27.164  1.00  0.00     0.049 A 
ATOM     58  C   UNL A   1      42.964  30.245  28.635  1.00  0.00     0.074 A 
ATOM     59  C   UNL A   1      49.083  30.973  27.221  1.00  0.00     0.029 A 
ATOM     60  N   UNL A   1      47.049  30.156  27.587  1.00  0.00    -0.354 N 
ATOM     61  N   UNL A   1      44.236  30.320  28.322  1.00  0.00    -0.248 NA
ATOM     62  C   UNL A   1      42.420  31.478  29.220  1.00  0.00     0.031 C 
ATOM     63  C   UNL A   1      48.303  31.975  27.798  1.00  0.00     0.029 A 
ATOM     64  C   UNL A   1      47.020  31.483  27.986  1.00  0.00     0.049 A 
ATOM     65  H   UNL A   1      46.277  29.546  27.601  1.00  0.00     0.167 HD
ATOM     66  C   UNL A   1      44.638  31.612  28.648  1.00  0.00     0.074 A 
ATOM     67  C   UNL A   1      43.471  32.289  29.173  1.00  0.00     0.031 C 
ATOM     68  C   UNL A   1      45.865  32.176  28.513  1.00  0.00     0.034 A 
BRANCH  55  69
ATOM     69  C   UNL A   1      50.242  28.297  26.557  1.00  0.00     0.023 A 
ATOM     70  C   UNL A   1      50.747  28.345  25.244  1.00  0.00     0.031 A 
ATOM     71  C   UNL A   1      51.113  27.896  27.585  1.00  0.00     0.131 A 
ATOM     72  C   UNL A   1      52.073  27.966  24.988  1.00  0.00     0.055 A 
ATOM     73  C   UNL A   1      52.448  27.570  27.334  1.00  0.00     0.041 A 
ATOM     74  F   UNL A   1      50.670  27.796  28.849  1.00  0.00    -0.206 F 
ATOM     75  C   UNL A   1      52.928  27.589  26.028  1.00  0.00     0.022 A 
BRANCH  72  76
ATOM     76  S   UNL A   1      52.707  27.867  23.290  1.00  0.00     0.124 S 
ATOM     77  O   UNL A   1      51.849  26.837  22.709  1.00  0.00    -0.237 OA
ATOM     78  O   UNL A   1      52.479  29.221  22.796  1.00  0.00    -0.237 OA
ATOM     79  O   UNL A   1      54.104  27.485  23.460  1.00  0.00    -0.744 OA
ENDBRANCH  72  76
ENDBRANCH  55  69
BRANCH  56  80
ATOM     80  C   UNL A   1      40.574  29.167  28.808  1.00  0.00     0.023 A 
ATOM     81  C   UNL A   1      40.161  29.010  30.144  1.00  0.00     0.031 A 
ATOM     82  C   UNL A   1      39.593  29.189  27.805  1.00  0.00     0.131 A 
ATOM     83  C   UNL A   1      38.813  28.765  30.428  1.00  0.00     0.055 A 
ATOM     84  C   UNL A   1      38.239  29.029  28.103  1.00  0.00     0.041 A 
ATOM     85  F   UNL A   1      39.944  29.322  26.517  1.00  0.00    -0.206 F 
ATOM     86  C   UNL A   1      37.846  28.789  29.418  1.00  0.00     0.022 A 
BRANCH  83  87
ATOM     87  S   UNL A   1      38.302  28.225  32.084  1.00  0.00     0.124 S 
ATOM     88  O   UNL A   1      39.415  28.678  32.911  1.00  0.00    -0.237 OA
ATOM     89  O   UNL A   1      37.048  28.955  32.256  1.00  0.00    -0.237 OA
ATOM     90  O   UNL A   1      38.164  26.779  31.949  1.00  0.00    -0.744 OA
ENDBRANCH  83  87
ENDBRANCH  56  80
BRANCH  68  91
ATOM     91  C   UNL A   1      46.075  33.613  28.936  1.00  0.00     0.023 A 
ATOM     92  C   UNL A   1      45.822  34.652  28.017  1.00  0.00     0.031 A 
ATOM     93  C   UNL A   1      46.716  33.938  30.142  1.00  0.00     0.131 A 
ATOM     94  C   UNL A   1      46.280  35.948  28.283  1.00  0.00     0.055 A 
ATOM     95  C   UNL A   1      47.117  35.245  30.429  1.00  0.00     0.041 A 
ATOM     96  F   UNL A   1      46.987  32.986  31.050  1.00  0.00    -0.206 F 
ATOM     97  C   UNL A   1      46.921  36.252  29.488  1.00  0.00     0.022 A 
BRANCH  94  98
ATOM     98  S   UNL A   1      46.171  37.253  27.026  1.00  0.00     0.124 S 
ATOM     99  O   UNL A   1      46.922  38.339  27.651  1.00  0.00    -0.237 OA
ATOM    100  O   UNL A   1      46.821  36.627  25.877  1.00  0.00    -0.237 OA
ATOM    101  O   UNL A   1      44.739  37.489  26.886  1.00  0.00    -0.744 OA
ENDBRANCH  94  98
ENDBRANCH  68  91
ENDBRANCH  42  43
ENDBRANCH  35  37
ENDBRANCH  34  35
ENDBRANCH  33  34
ENDBRANCH  32  33
ENDBRANCH  31  32
ENDBRANCH  30  31
ENDBRANCH  29  30
ENDBRANCH  28  29
ENDBRANCH   1  28
TORSDOF 29
ENDMDL
MODEL 2
REMARK VINA RESULT:      -9.0      5.154      7.072
REMARK SMILES CC(C)C[C@@H](NC(=O)Cn1nc(O)ccc1=O)C(=O)OCCOCCOCCOCCOC(=O)c1ccc(-c2c3nc(c(-c4cc(S(=O)(=O)[O-])ccc4F)c4ccc([nH]4)c(-c4cc(S(=O)(=O)[O-])ccc4F)c4nc(c(-c5cc(S(=O)(=O)[O-])ccc5F)c5ccc2[nH]5)C=C4)C=C3)cc1
REMARK SMILES IDX 25 1 24 2 23 3 22 4 21 5 20 6 18 7 19 8 5 9 4 10 2 11 1 12
REMARK SMILES IDX 3 13 6 14 7 15 8 17 9 18 10 19 11 20 16 21 12 22 15 23 17 24
REMARK SMILES IDX 14 25 13 26 26 28 27 29 28 30 29 31 30 32 31 33 32 34 33 35
REMARK SMILES IDX 34 36 35 37 36 38 97 39 37 40 96 41 38 42 39 43 40 44 90 45
REMARK SMILES IDX 41 46 95 47 89 48 91 49 42 50 94 51 88 52 87 53 43 55 75 56
REMARK SMILES IDX 55 57 74 58 56 59 59 60 73 61 92 62 57 63 58 64 72 66 93 67
REMARK SMILES IDX 60 68 44 69 45 70 53 71 46 72 52 73 54 74 51 75 47 76 48 77
REMARK SMILES IDX 49 78 50 79 76 80 77 81 85 82 78 83 84 84 86 85 83 86 79 87
REMARK SMILES IDX 80 88 81 89 82 90 61 91 62 92 70 93 63 94 69 95 71 96 68 97
REMARK SMILES IDX 64 98 65 99 66 100 67 101
REMARK H PARENT 6 16 13 27 91 54 59 65
REMARK Flexibility Score: inf
ROOT
ATOM      1  C   UNL A   1      41.850  19.344  26.896  1.00  0.00     0.188 C 
ENDROOT
BRANCH   1   2
ATOM      2  C   UNL A   1      40.881  20.521  26.759  1.00  0.00     0.188 C 
BRANCH   2   3
ATOM      3  O   UNL A   1      39.737  20.390  25.930  1.00  0.00    -0.376 OA
BRANCH   3   4
ATOM      4  C   UNL A   1      38.859  21.506  25.757  1.00  0.00     0.202 C 
BRANCH   4   5
ATOM      5  C   UNL A   1      37.516  21.276  25.069  1.00  0.00     0.261 C 
BRANCH   5   6
ATOM      6  O   UNL A   1      36.446  21.758  25.900  1.00  0.00    -0.462 OA
BRANCH   6   7
ATOM      7  C   UNL A   1      36.033  23.029  25.688  1.00  0.00     0.328 C 
ATOM      8  O   UNL A   1      36.644  24.024  26.067  1.00  0.00    -0.250 OA
BRANCH   7   9
ATOM      9  C   UNL A   1      34.667  23.109  24.981  1.00  0.00     0.192 C 
BRANCH   9  10
ATOM     10  C   UNL A   1      34.501  22.436  23.603  1.00  0.00     0.040 C 
BRANCH  10  11
ATOM     11  C   UNL A   1      33.087  22.558  22.969  1.00  0.00    -0.015 C 
ATOM     12  C   UNL A   1      33.115  23.107  21.538  1.00  0.00     0.007 C 
ATOM     13  C   UNL A   1      32.391  21.189  22.940  1.00  0.00     0.007 C 
ENDBRANCH  10  11
ENDBRANCH   9  10
BRANCH   9  14
ATOM     14  N   UNL A   1      33.517  22.956  25.870  1.00  0.00    -0.341 N 
ATOM     15  C   UNL A   1      32.761  23.832  26.590  1.00  0.00     0.242 C 
ATOM     16  H   UNL A   1      33.227  22.020  25.971  1.00  0.00     0.164 HD
ATOM     17  O   UNL A   1      31.996  23.314  27.412  1.00  0.00    -0.273 OA
BRANCH  15  18
ATOM     18  C   UNL A   1      32.775  25.347  26.367  1.00  0.00     0.248 C 
BRANCH  18  19
ATOM     19  N   UNL A   1      31.870  25.794  25.319  1.00  0.00    -0.217 N 
ATOM     20  N   UNL A   1      32.364  25.788  24.032  1.00  0.00    -0.131 NA
ATOM     21  C   UNL A   1      30.538  26.089  25.620  1.00  0.00     0.267 A 
ATOM     22  C   UNL A   1      31.563  26.223  23.134  1.00  0.00     0.229 A 
ATOM     23  C   UNL A   1      29.731  26.651  24.508  1.00  0.00     0.079 A 
ATOM     24  O   UNL A   1      30.019  25.949  26.722  1.00  0.00    -0.268 OA
ATOM     25  C   UNL A   1      30.235  26.762  23.282  1.00  0.00     0.075 A 
BRANCH  22  26
ATOM     26  O   UNL A   1      31.916  26.235  21.856  1.00  0.00    -0.492 OA
ATOM     27  H   UNL A   1      32.625  26.778  21.571  1.00  0.00     0.295 HD
ENDBRANCH  22  26
ENDBRANCH  18  19
ENDBRANCH  15  18
ENDBRANCH   9  14
ENDBRANCH   7   9
ENDBRANCH   6   7
ENDBRANCH   5   6
ENDBRANCH   4   5
ENDBRANCH   3   4
ENDBRANCH   2   3
ENDBRANCH   1   2
BRANCH   1  28
ATOM     28  O   UNL A   1      42.517  18.872  25.751  1.00  0.00    -0.377 OA
BRANCH  28  29
ATOM     29  C   UNL A   1      43.712  19.483  25.285  1.00  0.00     0.188 C 
BRANCH  29  30
ATOM     30  C   UNL A   1      45.004  18.698  25.070  1.00  0.00     0.188 C 
BRANCH  30  31
ATOM     31  O   UNL A   1      45.905  19.309  24.171  1.00  0.00    -0.376 OA
BRANCH  31  32
ATOM     32  C   UNL A   1      46.620  20.423  24.686  1.00  0.00     0.202 C 
BRANCH  32  33
ATOM     33  C   UNL A   1      46.148  21.848  24.331  1.00  0.00     0.261 C 
BRANCH  33  34
ATOM     34  O   UNL A   1      45.290  22.546  25.250  1.00  0.00    -0.460 OA
BRANCH  34  35
ATOM     35  C   UNL A   1      44.133  23.080  24.799  1.00  0.00     0.338 C 
ATOM     36  O   UNL A   1      43.519  22.734  23.803  1.00  0.00    -0.246 OA
BRANCH  35  37
ATOM     37  C   UNL A   1      43.660  24.058  25.816  1.00  0.00     0.060 A 
ATOM     38  C   UNL A   1      42.478  23.831  26.526  1.00  0.00     0.016 A 
ATOM     39  C   UNL A   1      44.380  25.241  26.031  1.00  0.00     0.016 A 
ATOM     40  C   UNL A   1      42.021  24.783  27.452  1.00  0.00     0.010 A 
ATOM     41  C   UNL A   1      43.907  26.204  26.936  1.00  0.00     0.010 A 
ATOM     42  C   UNL A   1      42.732  25.980  27.670  1.00  0.00    -0.014 A 
BRANCH  42  43
ATOM     43  C   UNL A   1      42.386  26.858  28.826  1.00  0.00     0.031 A 
ATOM     44  C   UNL A   1      43.134  26.860  30.126  1.00  0.00     0.074 A 
ATOM     45  C   UNL A   1      41.304  27.648  28.701  1.00  0.00     0.049 A 
ATOM     46  N   UNL A   1      43.037  27.702  31.126  1.00  0.00    -0.248 NA
ATOM     47  C   UNL A   1      44.107  25.786  30.342  1.00  0.00     0.031 C 
ATOM     48  C   UNL A   1      40.445  27.686  27.520  1.00  0.00     0.029 A 
ATOM     49  N   UNL A   1      40.731  28.545  29.569  1.00  0.00    -0.354 N 
ATOM     50  C   UNL A   1      43.970  27.292  32.072  1.00  0.00     0.074 A 
ATOM     51  C   UNL A   1      44.590  26.095  31.543  1.00  0.00     0.031 C 
ATOM     52  C   UNL A   1      39.454  28.561  27.733  1.00  0.00     0.029 A 
ATOM     53  C   UNL A   1      39.589  29.127  29.076  1.00  0.00     0.049 A 
ATOM     54  H   UNL A   1      41.103  28.751  30.456  1.00  0.00     0.167 HD
ATOM     55  C   UNL A   1      44.272  27.860  33.266  1.00  0.00     0.034 A 
ATOM     56  C   UNL A   1      38.733  30.011  29.630  1.00  0.00     0.034 A 
ATOM     57  C   UNL A   1      43.561  28.985  33.825  1.00  0.00     0.049 A 
ATOM     58  C   UNL A   1      39.036  30.585  30.987  1.00  0.00     0.074 A 
ATOM     59  C   UNL A   1      43.842  29.675  34.993  1.00  0.00     0.029 A 
ATOM     60  N   UNL A   1      42.397  29.537  33.309  1.00  0.00    -0.354 N 
ATOM     61  N   UNL A   1      40.059  30.340  31.770  1.00  0.00    -0.248 NA
ATOM     62  C   UNL A   1      38.089  31.568  31.532  1.00  0.00     0.031 C 
ATOM     63  C   UNL A   1      42.784  30.547  35.248  1.00  0.00     0.029 A 
ATOM     64  C   UNL A   1      41.903  30.498  34.177  1.00  0.00     0.049 A 
ATOM     65  H   UNL A   1      41.983  29.283  32.453  1.00  0.00     0.167 HD
ATOM     66  C   UNL A   1      39.894  31.154  32.888  1.00  0.00     0.074 A 
ATOM     67  C   UNL A   1      38.677  31.908  32.674  1.00  0.00     0.031 C 
ATOM     68  C   UNL A   1      40.690  31.261  33.981  1.00  0.00     0.034 A 
BRANCH  55  69
ATOM     69  C   UNL A   1      45.413  27.298  34.085  1.00  0.00     0.023 A 
ATOM     70  C   UNL A   1      46.740  27.681  33.811  1.00  0.00     0.031 A 
ATOM     71  C   UNL A   1      45.204  26.257  35.006  1.00  0.00     0.131 A 
ATOM     72  C   UNL A   1      47.806  27.007  34.426  1.00  0.00     0.055 A 
ATOM     73  C   UNL A   1      46.266  25.623  35.656  1.00  0.00     0.041 A 
ATOM     74  F   UNL A   1      43.960  25.827  35.273  1.00  0.00    -0.206 F 
ATOM     75  C   UNL A   1      47.575  25.988  35.354  1.00  0.00     0.022 A 
BRANCH  72  76
ATOM     76  S   UNL A   1      49.526  27.372  33.977  1.00  0.00     0.124 S 
ATOM     77  O   UNL A   1      49.694  26.579  32.760  1.00  0.00    -0.237 OA
ATOM     78  O   UNL A   1      49.494  28.818  33.779  1.00  0.00    -0.237 OA
ATOM     79  O   UNL A   1      50.294  26.909  35.127  1.00  0.00    -0.744 OA
ENDBRANCH  72  76
ENDBRANCH  55  69
BRANCH  56  80
ATOM     80  C   UNL A   1      37.553  30.431  28.823  1.00  0.00     0.023 A 
ATOM     81  C   UNL A   1      37.186  31.788  28.760  1.00  0.00     0.031 A 
ATOM     82  C   UNL A   1      36.673  29.477  28.289  1.00  0.00     0.131 A 
ATOM     83  C   UNL A   1      35.919  32.142  28.282  1.00  0.00     0.055 A 
ATOM     84  C   UNL A   1      35.446  29.843  27.735  1.00  0.00     0.041 A 
ATOM     85  F   UNL A   1      36.977  28.171  28.342  1.00  0.00    -0.206 F 
ATOM     86  C   UNL A   1      35.053  31.179  27.754  1.00  0.00     0.022 A 
BRANCH  83  87
ATOM     87  S   UNL A   1      35.288  33.829  28.501  1.00  0.00     0.124 S 
ATOM     88  O   UNL A   1      35.251  34.323  27.128  1.00  0.00    -0.237 OA
ATOM     89  O   UNL A   1      33.987  33.577  29.117  1.00  0.00    -0.237 OA
ATOM     90  O   UNL A   1      36.275  34.457  29.371  1.00  0.00    -0.744 OA
ENDBRANCH  83  87
ENDBRANCH  56  80
BRANCH  68  91
ATOM     91  C   UNL A   1      40.312  32.222  35.086  1.00  0.00     0.023 A 
ATOM     92  C   UNL A   1      39.448  31.795  36.114  1.00  0.00     0.031 A 
ATOM     93  C   UNL A   1      40.622  33.590  35.008  1.00  0.00     0.131 A 
ATOM     94  C   UNL A   1      38.859  32.734  36.970  1.00  0.00     0.055 A 
ATOM     95  C   UNL A   1      40.080  34.516  35.903  1.00  0.00     0.041 A 
ATOM     96  F   UNL A   1      41.436  34.052  34.044  1.00  0.00    -0.206 F 
ATOM     97  C   UNL A   1      39.177  34.093  36.875  1.00  0.00     0.022 A 
BRANCH  94  98
ATOM     98  S   UNL A   1      37.573  32.243  38.152  1.00  0.00     0.124 S 
ATOM     99  O   UNL A   1      37.511  30.798  37.949  1.00  0.00    -0.237 OA
ATOM    100  O   UNL A   1      38.147  32.670  39.425  1.00  0.00    -0.237 OA
ATOM    101  O   UNL A   1      36.393  32.982  37.715  1.00  0.00    -0.744 OA
ENDBRANCH  94  98
ENDBRANCH  68  91
ENDBRANCH  42  43
ENDBRANCH  35  37
ENDBRANCH  34  35
ENDBRANCH  33  34
ENDBRANCH  32  33
ENDBRANCH  31  32
ENDBRANCH  30  31
ENDBRANCH  29  30
ENDBRANCH  28  29
ENDBRANCH   1  28
TORSDOF 29
ENDMDL
MODEL 3
REMARK VINA RESULT:      -8.7      5.671     10.258
REMARK SMILES CC(C)C[C@@H](NC(=O)Cn1nc(O)ccc1=O)C(=O)OCCOCCOCCOCCOC(=O)c1ccc(-c2c3nc(c(-c4cc(S(=O)(=O)[O-])ccc4F)c4ccc([nH]4)c(-c4cc(S(=O)(=O)[O-])ccc4F)c4nc(c(-c5cc(S(=O)(=O)[O-])ccc5F)c5ccc2[nH]5)C=C4)C=C3)cc1
REMARK SMILES IDX 25 1 24 2 23 3 22 4 21 5 20 6 18 7 19 8 5 9 4 10 2 11 1 12
REMARK SMILES IDX 3 13 6 14 7 15 8 17 9 18 10 19 11 20 16 21 12 22 15 23 17 24
REMARK SMILES IDX 14 25 13 26 26 28 27 29 28 30 29 31 30 32 31 33 32 34 33 35
REMARK SMILES IDX 34 36 35 37 36 38 97 39 37 40 96 41 38 42 39 43 40 44 90 45
REMARK SMILES IDX 41 46 95 47 89 48 91 49 42 50 94 51 88 52 87 53 43 55 75 56
REMARK SMILES IDX 55 57 74 58 56 59 59 60 73 61 92 62 57 63 58 64 72 66 93 67
REMARK SMILES IDX 60 68 44 69 45 70 53 71 46 72 52 73 54 74 51 75 47 76 48 77
REMARK SMILES IDX 49 78 50 79 76 80 77 81 85 82 78 83 84 84 86 85 83 86 79 87
REMARK SMILES IDX 80 88 81 89 82 90 61 91 62 92 70 93 63 94 69 95 71 96 68 97
REMARK SMILES IDX 64 98 65 99 66 100 67 101
REMARK H PARENT 6 16 13 27 91 54 59 65
REMARK Flexibility Score: inf
ROOT
ATOM      1  C   UNL A   1      35.636  33.140  28.220  1.00  0.00     0.188 C 
ENDROOT
BRANCH   1   2
ATOM      2  C   UNL A   1      35.024  31.753  28.427  1.00  0.00     0.188 C 
BRANCH   2   3
ATOM      3  O   UNL A   1      33.752  31.461  27.870  1.00  0.00    -0.376 OA
BRANCH   3   4
ATOM      4  C   UNL A   1      33.641  30.471  26.844  1.00  0.00     0.202 C 
BRANCH   4   5
ATOM      5  C   UNL A   1      32.732  29.269  27.087  1.00  0.00     0.261 C 
BRANCH   5   6
ATOM      6  O   UNL A   1      31.743  29.179  26.045  1.00  0.00    -0.462 OA
BRANCH   6   7
ATOM      7  C   UNL A   1      31.445  27.939  25.593  1.00  0.00     0.328 C 
ATOM      8  O   UNL A   1      31.515  26.922  26.276  1.00  0.00    -0.250 OA
BRANCH   7   9
ATOM      9  C   UNL A   1      31.074  27.914  24.098  1.00  0.00     0.192 C 
BRANCH   9  10
ATOM     10  C   UNL A   1      29.938  28.829  23.597  1.00  0.00     0.040 C 
BRANCH  10  11
ATOM     11  C   UNL A   1      28.697  28.093  23.021  1.00  0.00    -0.015 C 
ATOM     12  C   UNL A   1      28.355  26.806  23.781  1.00  0.00     0.007 C 
ATOM     13  C   UNL A   1      27.464  29.008  23.058  1.00  0.00     0.007 C 
ENDBRANCH  10  11
ENDBRANCH   9  10
BRANCH   9  14
ATOM     14  N   UNL A   1      32.220  27.824  23.195  1.00  0.00    -0.341 N 
ATOM     15  C   UNL A   1      32.670  26.864  22.339  1.00  0.00     0.242 C 
ATOM     16  H   UNL A   1      32.788  28.629  23.207  1.00  0.00     0.164 HD
ATOM     17  O   UNL A   1      33.809  27.049  21.894  1.00  0.00    -0.273 OA
BRANCH  15  18
ATOM     18  C   UNL A   1      31.824  25.674  21.879  1.00  0.00     0.248 C 
BRANCH  18  19
ATOM     19  N   UNL A   1      31.945  24.502  22.734  1.00  0.00    -0.217 N 
ATOM     20  N   UNL A   1      30.998  24.362  23.727  1.00  0.00    -0.131 NA
ATOM     21  C   UNL A   1      32.906  23.528  22.458  1.00  0.00     0.267 A 
ATOM     22  C   UNL A   1      31.148  23.346  24.490  1.00  0.00     0.229 A 
ATOM     23  C   UNL A   1      33.028  22.436  23.457  1.00  0.00     0.079 A 
ATOM     24  O   UNL A   1      33.657  23.535  21.489  1.00  0.00    -0.268 OA
ATOM     25  C   UNL A   1      32.193  22.354  24.489  1.00  0.00     0.075 A 
BRANCH  22  26
ATOM     26  O   UNL A   1      30.281  23.090  25.460  1.00  0.00    -0.492 OA
ATOM     27  H   UNL A   1      29.550  23.659  25.595  1.00  0.00     0.295 HD
ENDBRANCH  22  26
ENDBRANCH  18  19
ENDBRANCH  15  18
ENDBRANCH   9  14
ENDBRANCH   7   9
ENDBRANCH   6   7
ENDBRANCH   5   6
ENDBRANCH   4   5
ENDBRANCH   3   4
ENDBRANCH   2   3
ENDBRANCH   1   2
BRANCH   1  28
ATOM     28  O   UNL A   1      35.214  34.202  29.041  1.00  0.00    -0.377 OA
BRANCH  28  29
ATOM     29  C   UNL A   1      34.264  35.156  28.587  1.00  0.00     0.188 C 
BRANCH  29  30
ATOM     30  C   UNL A   1      32.984  35.469  29.358  1.00  0.00     0.188 C 
BRANCH  30  31
ATOM     31  O   UNL A   1      32.910  36.796  29.834  1.00  0.00    -0.376 OA
BRANCH  31  32
ATOM     32  C   UNL A   1      32.961  36.942  31.246  1.00  0.00     0.202 C 
BRANCH  32  33
ATOM     33  C   UNL A   1      32.850  35.686  32.136  1.00  0.00     0.261 C 
BRANCH  33  34
ATOM     34  O   UNL A   1      34.035  35.181  32.776  1.00  0.00    -0.460 OA
BRANCH  34  35
ATOM     35  C   UNL A   1      34.120  33.864  33.067  1.00  0.00     0.338 C 
ATOM     36  O   UNL A   1      33.182  33.105  33.253  1.00  0.00    -0.246 OA
BRANCH  35  37
ATOM     37  C   UNL A   1      35.551  33.471  32.969  1.00  0.00     0.060 A 
ATOM     38  C   UNL A   1      35.950  32.444  32.108  1.00  0.00     0.016 A 
ATOM     39  C   UNL A   1      36.503  34.100  33.782  1.00  0.00     0.016 A 
ATOM     40  C   UNL A   1      37.298  32.054  32.057  1.00  0.00     0.010 A 
ATOM     41  C   UNL A   1      37.845  33.689  33.751  1.00  0.00     0.010 A 
ATOM     42  C   UNL A   1      38.262  32.674  32.875  1.00  0.00    -0.014 A 
BRANCH  42  43
ATOM     43  C   UNL A   1      39.715  32.437  32.634  1.00  0.00     0.031 A 
ATOM     44  C   UNL A   1      40.532  33.202  31.635  1.00  0.00     0.074 A 
ATOM     45  C   UNL A   1      40.302  31.438  33.319  1.00  0.00     0.049 A 
ATOM     46  N   UNL A   1      41.832  33.207  31.471  1.00  0.00    -0.248 NA
ATOM     47  C   UNL A   1      39.809  34.065  30.698  1.00  0.00     0.031 C 
ATOM     48  C   UNL A   1      39.605  30.568  34.264  1.00  0.00     0.029 A 
ATOM     49  N   UNL A   1      41.594  30.972  33.316  1.00  0.00    -0.354 N 
ATOM     50  C   UNL A   1      42.092  34.108  30.445  1.00  0.00     0.074 A 
ATOM     51  C   UNL A   1      40.805  34.596  29.994  1.00  0.00     0.031 C 
ATOM     52  C   UNL A   1      40.473  29.674  34.751  1.00  0.00     0.029 A 
ATOM     53  C   UNL A   1      41.784  29.886  34.136  1.00  0.00     0.049 A 
ATOM     54  H   UNL A   1      42.312  31.377  32.780  1.00  0.00     0.167 HD
ATOM     55  C   UNL A   1      43.289  34.484  29.930  1.00  0.00     0.034 A 
ATOM     56  C   UNL A   1      42.878  29.133  34.370  1.00  0.00     0.034 A 
ATOM     57  C   UNL A   1      44.551  33.899  30.316  1.00  0.00     0.049 A 
ATOM     58  C   UNL A   1      44.190  29.514  33.740  1.00  0.00     0.074 A 
ATOM     59  C   UNL A   1      45.821  34.267  29.904  1.00  0.00     0.029 A 
ATOM     60  N   UNL A   1      44.705  32.789  31.133  1.00  0.00    -0.354 N 
ATOM     61  N   UNL A   1      44.452  30.520  32.940  1.00  0.00    -0.248 NA
ATOM     62  C   UNL A   1      45.358  28.679  34.054  1.00  0.00     0.031 C 
ATOM     63  C   UNL A   1      46.722  33.306  30.363  1.00  0.00     0.029 A 
ATOM     64  C   UNL A   1      46.038  32.408  31.168  1.00  0.00     0.049 A 
ATOM     65  H   UNL A   1      43.977  32.338  31.617  1.00  0.00     0.167 HD
ATOM     66  C   UNL A   1      45.817  30.455  32.673  1.00  0.00     0.074 A 
ATOM     67  C   UNL A   1      46.329  29.317  33.407  1.00  0.00     0.031 C 
ATOM     68  C   UNL A   1      46.567  31.275  31.895  1.00  0.00     0.034 A 
BRANCH  55  69
ATOM     69  C   UNL A   1      43.334  35.576  28.884  1.00  0.00     0.023 A 
ATOM     70  C   UNL A   1      43.291  36.930  29.268  1.00  0.00     0.031 A 
ATOM     71  C   UNL A   1      43.237  35.276  27.513  1.00  0.00     0.131 A 
ATOM     72  C   UNL A   1      43.122  37.930  28.298  1.00  0.00     0.055 A 
ATOM     73  C   UNL A   1      43.122  36.277  26.546  1.00  0.00     0.041 A 
ATOM     74  F   UNL A   1      43.233  33.998  27.098  1.00  0.00    -0.206 F 
ATOM     75  C   UNL A   1      43.048  37.610  26.939  1.00  0.00     0.022 A 
BRANCH  72  76
ATOM     76  S   UNL A   1      42.907  39.668  28.773  1.00  0.00     0.124 S 
ATOM     77  O   UNL A   1      43.953  40.325  27.991  1.00  0.00    -0.237 OA
ATOM     78  O   UNL A   1      41.540  39.940  28.339  1.00  0.00    -0.237 OA
ATOM     79  O   UNL A   1      43.122  39.667  30.215  1.00  0.00    -0.744 OA
ENDBRANCH  72  76
ENDBRANCH  55  69
BRANCH  56  80
ATOM     80  C   UNL A   1      42.741  27.988  35.314  1.00  0.00     0.023 A 
ATOM     81  C   UNL A   1      43.497  27.955  36.501  1.00  0.00     0.031 A 
ATOM     82  C   UNL A   1      42.026  26.838  34.947  1.00  0.00     0.131 A 
ATOM     83  C   UNL A   1      43.612  26.758  37.216  1.00  0.00     0.055 A 
ATOM     84  C   UNL A   1      42.077  25.671  35.710  1.00  0.00     0.041 A 
ATOM     85  F   UNL A   1      41.304  26.822  33.816  1.00  0.00    -0.206 F 
ATOM     86  C   UNL A   1      42.895  25.619  36.837  1.00  0.00     0.022 A 
BRANCH  83  87
ATOM     87  S   UNL A   1      44.838  26.590  38.544  1.00  0.00     0.124 S 
ATOM     88  O   UNL A   1      45.278  25.209  38.382  1.00  0.00    -0.237 OA
ATOM     89  O   UNL A   1      45.814  27.612  38.173  1.00  0.00    -0.237 OA
ATOM     90  O   UNL A   1      44.075  26.871  39.755  1.00  0.00    -0.744 OA
ENDBRANCH  83  87
ENDBRANCH  56  80
BRANCH  68  91
ATOM     91  C   UNL A   1      48.049  31.013  31.749  1.00  0.00     0.023 A 
ATOM     92  C   UNL A   1      48.504  30.114  30.763  1.00  0.00     0.031 A 
ATOM     93  C   UNL A   1      48.974  31.471  32.703  1.00  0.00     0.131 A 
ATOM     94  C   UNL A   1      49.820  29.640  30.801  1.00  0.00     0.055 A 
ATOM     95  C   UNL A   1      50.303  31.041  32.699  1.00  0.00     0.041 A 
ATOM     96  F   UNL A   1      48.593  32.324  33.668  1.00  0.00    -0.206 F 
ATOM     97  C   UNL A   1      50.725  30.104  31.760  1.00  0.00     0.022 A 
BRANCH  94  98
ATOM     98  S   UNL A   1      50.368  28.316  29.687  1.00  0.00     0.124 S 
ATOM     99  O   UNL A   1      51.025  29.069  28.621  1.00  0.00    -0.237 OA
ATOM    100  O   UNL A   1      51.261  27.542  30.546  1.00  0.00    -0.237 OA
ATOM    101  O   UNL A   1      49.131  27.646  29.301  1.00  0.00    -0.744 OA
ENDBRANCH  94  98
ENDBRANCH  68  91
ENDBRANCH  42  43
ENDBRANCH  35  37
ENDBRANCH  34  35
ENDBRANCH  33  34
ENDBRANCH  32  33
ENDBRANCH  31  32
ENDBRANCH  30  31
ENDBRANCH  29  30
ENDBRANCH  28  29
ENDBRANCH   1  28
TORSDOF 29
ENDMDL
