MODEL 1
REMARK VINA RESULT:      -8.0      0.000      0.000
REMARK SMILES CC[NH2+][C@]1(C(=O)OCCOCCOCCOCCOC(=O)c2ccc(-c3c4nc(c(-c5cc(S(=O)(=O)[O-])ccc5F)c5ccc([nH]5)c(-c5cc(S(=O)(=O)[O-])ccc5F)c5nc(c(-c6cc(S(=O)(=O)[O-])ccc6F)c6ccc3[nH]6)C=C5)C=C4)cc2)CC[C@@H]([N@@H+](C)CC(C)(C)C)C1
REMARK SMILES IDX 13 1 12 2 11 3 10 4 9 5 8 6 7 7 5 8 6 9 4 10 85 11 95 12
REMARK SMILES IDX 86 13 87 14 3 15 2 18 1 19 88 20 89 21 90 23 91 24 92 25
REMARK SMILES IDX 93 26 94 27 14 28 15 29 16 30 17 31 18 32 19 33 20 34 21 35
REMARK SMILES IDX 22 36 23 37 84 38 24 39 83 40 25 41 26 42 27 43 77 44 28 45
REMARK SMILES IDX 82 46 76 47 78 48 29 49 81 50 75 51 74 52 30 54 62 55 42 56
REMARK SMILES IDX 61 57 43 58 46 59 60 60 79 61 44 62 45 63 59 65 80 66 47 67
REMARK SMILES IDX 31 68 32 69 40 70 33 71 39 72 41 73 38 74 34 75 35 76 36 77
REMARK SMILES IDX 37 78 63 79 64 80 72 81 65 82 71 83 73 84 70 85 66 86 67 87
REMARK SMILES IDX 68 88 69 89 48 90 49 91 57 92 50 93 56 94 58 95 55 96 51 97
REMARK SMILES IDX 52 98 53 99 54 100
REMARK H PARENT 3 16 3 17 88 22 78 53 46 64
REMARK Flexibility Score: inf
ROOT
ATOM      1  O   UNL A   1      39.884  25.140  26.812  1.00  0.00    -0.377 OA
ENDROOT
BRANCH   1   2
ATOM      2  C   UNL A   1      39.379  23.815  26.785  1.00  0.00     0.188 C 
BRANCH   2   3
ATOM      3  C   UNL A   1      38.104  23.575  25.957  1.00  0.00     0.188 C 
BRANCH   3   4
ATOM      4  O   UNL A   1      38.104  22.365  25.232  1.00  0.00    -0.376 OA
BRANCH   4   5
ATOM      5  C   UNL A   1      36.985  21.908  24.499  1.00  0.00     0.202 C 
BRANCH   5   6
ATOM      6  C   UNL A   1      36.432  22.572  23.222  1.00  0.00     0.261 C 
BRANCH   6   7
ATOM      7  O   UNL A   1      35.607  23.729  23.344  1.00  0.00    -0.459 OA
BRANCH   7   8
ATOM      8  C   UNL A   1      34.287  23.452  23.402  1.00  0.00     0.368 C 
ATOM      9  O   UNL A   1      33.641  23.124  22.411  1.00  0.00    -0.245 OA
BRANCH   8  10
ATOM     10  C   UNL A   1      33.673  23.570  24.815  1.00  0.00     0.200 C 
ATOM     11  C   UNL A   1      34.203  24.874  25.422  1.00  0.00     0.087 C 
ATOM     12  C   UNL A   1      32.148  23.824  24.594  1.00  0.00     0.146 C 
ATOM     13  C   UNL A   1      33.025  25.572  26.066  1.00  0.00     0.072 C 
ATOM     14  C   UNL A   1      31.785  25.154  25.283  1.00  0.00     0.191 C 
BRANCH  10  15
ATOM     15  N   UNL A   1      33.868  22.362  25.680  1.00  0.00    -0.332 N 
ATOM     16  H   UNL A   1      34.796  21.982  25.488  1.00  0.00     0.347 HD
ATOM     17  H   UNL A   1      33.753  22.678  26.644  1.00  0.00     0.347 HD
BRANCH  15  18
ATOM     18  C   UNL A   1      32.886  21.290  25.476  1.00  0.00     0.257 C 
ATOM     19  C   UNL A   1      33.530  19.942  25.197  1.00  0.00     0.071 C 
ENDBRANCH  15  18
ENDBRANCH  10  15
BRANCH  14  20
ATOM     20  N   UNL A   1      31.107  26.206  24.518  1.00  0.00    -0.334 N 
ATOM     21  C   UNL A   1      30.172  25.692  23.528  1.00  0.00     0.332 C 
ATOM     22  H   UNL A   1      31.980  26.547  24.118  1.00  0.00     0.348 HD
BRANCH  20  23
ATOM     23  C   UNL A   1      30.859  27.572  24.985  1.00  0.00     0.268 C 
BRANCH  23  24
ATOM     24  C   UNL A   1      31.497  28.875  24.369  1.00  0.00     0.011 C 
ATOM     25  C   UNL A   1      30.480  29.981  24.118  1.00  0.00     0.017 C 
ATOM     26  C   UNL A   1      32.507  29.452  25.390  1.00  0.00     0.017 C 
ATOM     27  C   UNL A   1      32.225  28.646  23.040  1.00  0.00     0.017 C 
ENDBRANCH  23  24
ENDBRANCH  20  23
ENDBRANCH  14  20
ENDBRANCH   8  10
ENDBRANCH   7   8
ENDBRANCH   6   7
ENDBRANCH   5   6
ENDBRANCH   4   5
ENDBRANCH   3   4
ENDBRANCH   2   3
ENDBRANCH   1   2
BRANCH   1  28
ATOM     28  C   UNL A   1      39.704  25.944  27.984  1.00  0.00     0.188 C 
BRANCH  28  29
ATOM     29  C   UNL A   1      39.602  27.490  27.943  1.00  0.00     0.188 C 
BRANCH  29  30
ATOM     30  O   UNL A   1      38.537  28.034  28.700  1.00  0.00    -0.376 OA
BRANCH  30  31
ATOM     31  C   UNL A   1      37.824  29.125  28.146  1.00  0.00     0.202 C 
BRANCH  31  32
ATOM     32  C   UNL A   1      36.916  29.909  29.104  1.00  0.00     0.261 C 
BRANCH  32  33
ATOM     33  O   UNL A   1      36.479  29.209  30.279  1.00  0.00    -0.460 OA
BRANCH  33  34
ATOM     34  C   UNL A   1      36.741  29.783  31.473  1.00  0.00     0.338 C 
ATOM     35  O   UNL A   1      35.959  30.429  32.157  1.00  0.00    -0.246 OA
BRANCH  34  36
ATOM     36  C   UNL A   1      38.075  29.327  31.917  1.00  0.00     0.060 A 
ATOM     37  C   UNL A   1      39.125  30.253  31.982  1.00  0.00     0.016 A 
ATOM     38  C   UNL A   1      38.287  27.994  32.276  1.00  0.00     0.016 A 
ATOM     39  C   UNL A   1      40.398  29.839  32.377  1.00  0.00     0.010 A 
ATOM     40  C   UNL A   1      39.569  27.577  32.653  1.00  0.00     0.010 A 
ATOM     41  C   UNL A   1      40.639  28.491  32.675  1.00  0.00    -0.014 A 
BRANCH  41  42
ATOM     42  C   UNL A   1      42.036  28.014  32.842  1.00  0.00     0.031 A 
ATOM     43  C   UNL A   1      42.833  27.667  31.612  1.00  0.00     0.074 A 
ATOM     44  C   UNL A   1      42.604  27.930  34.060  1.00  0.00     0.049 A 
ATOM     45  N   UNL A   1      44.056  27.218  31.511  1.00  0.00    -0.248 NA
ATOM     46  C   UNL A   1      42.149  27.850  30.323  1.00  0.00     0.031 C 
ATOM     47  C   UNL A   1      41.949  28.281  35.320  1.00  0.00     0.029 A 
ATOM     48  N   UNL A   1      43.860  27.523  34.435  1.00  0.00    -0.354 N 
ATOM     49  C   UNL A   1      44.292  27.063  30.148  1.00  0.00     0.074 A 
ATOM     50  C   UNL A   1      43.067  27.426  29.468  1.00  0.00     0.031 C 
ATOM     51  C   UNL A   1      42.812  28.072  36.330  1.00  0.00     0.029 A 
ATOM     52  C   UNL A   1      44.063  27.535  35.795  1.00  0.00     0.049 A 
ATOM     53  H   UNL A   1      44.551  27.250  33.790  1.00  0.00     0.167 HD
ATOM     54  C   UNL A   1      45.427  26.665  29.522  1.00  0.00     0.034 A 
ATOM     55  C   UNL A   1      45.125  27.136  36.525  1.00  0.00     0.034 A 
ATOM     56  C   UNL A   1      46.636  26.291  30.216  1.00  0.00     0.049 A 
ATOM     57  C   UNL A   1      46.348  26.609  35.809  1.00  0.00     0.074 A 
ATOM     58  C   UNL A   1      47.846  25.884  29.681  1.00  0.00     0.029 A 
ATOM     59  N   UNL A   1      46.787  26.258  31.597  1.00  0.00    -0.354 N 
ATOM     60  N   UNL A   1      46.563  26.479  34.519  1.00  0.00    -0.248 NA
ATOM     61  C   UNL A   1      47.473  26.183  36.650  1.00  0.00     0.031 C 
ATOM     62  C   UNL A   1      48.695  25.525  30.733  1.00  0.00     0.029 A 
ATOM     63  C   UNL A   1      48.053  25.800  31.930  1.00  0.00     0.049 A 
ATOM     64  H   UNL A   1      46.095  26.524  32.246  1.00  0.00     0.167 HD
ATOM     65  C   UNL A   1      47.862  25.989  34.397  1.00  0.00     0.074 A 
ATOM     66  C   UNL A   1      48.386  25.872  35.743  1.00  0.00     0.031 C 
ATOM     67  C   UNL A   1      48.561  25.665  33.277  1.00  0.00     0.034 A 
BRANCH  54  68
ATOM     68  C   UNL A   1      45.391  26.562  28.015  1.00  0.00     0.023 A 
ATOM     69  C   UNL A   1      45.051  25.366  27.358  1.00  0.00     0.031 A 
ATOM     70  C   UNL A   1      45.726  27.673  27.221  1.00  0.00     0.131 A 
ATOM     71  C   UNL A   1      45.124  25.290  25.959  1.00  0.00     0.055 A 
ATOM     72  C   UNL A   1      45.713  27.615  25.826  1.00  0.00     0.041 A 
ATOM     73  F   UNL A   1      46.086  28.836  27.788  1.00  0.00    -0.206 F 
ATOM     74  C   UNL A   1      45.425  26.413  25.187  1.00  0.00     0.022 A 
BRANCH  71  75
ATOM     75  S   UNL A   1      44.968  23.663  25.169  1.00  0.00     0.124 S 
ATOM     76  O   UNL A   1      45.920  23.778  24.066  1.00  0.00    -0.237 OA
ATOM     77  O   UNL A   1      45.341  22.753  26.245  1.00  0.00    -0.237 OA
ATOM     78  O   UNL A   1      43.564  23.611  24.767  1.00  0.00    -0.744 OA
ENDBRANCH  71  75
ENDBRANCH  54  68
BRANCH  55  79
ATOM     79  C   UNL A   1      45.081  27.175  38.017  1.00  0.00     0.023 A 
ATOM     80  C   UNL A   1      45.485  28.315  38.730  1.00  0.00     0.031 A 
ATOM     81  C   UNL A   1      44.697  26.041  38.756  1.00  0.00     0.131 A 
ATOM     82  C   UNL A   1      45.545  28.280  40.133  1.00  0.00     0.055 A 
ATOM     83  C   UNL A   1      44.699  26.032  40.152  1.00  0.00     0.041 A 
ATOM     84  F   UNL A   1      44.309  24.920  38.127  1.00  0.00    -0.206 F 
ATOM     85  C   UNL A   1      45.139  27.152  40.848  1.00  0.00     0.022 A 
BRANCH  82  86
ATOM     86  S   UNL A   1      46.258  29.700  41.010  1.00  0.00     0.124 S 
ATOM     87  O   UNL A   1      46.932  29.050  42.128  1.00  0.00    -0.237 OA
ATOM     88  O   UNL A   1      47.122  30.282  39.989  1.00  0.00    -0.237 OA
ATOM     89  O   UNL A   1      45.089  30.502  41.364  1.00  0.00    -0.744 OA
ENDBRANCH  82  86
ENDBRANCH  55  79
BRANCH  67  90
ATOM     90  C   UNL A   1      49.986  25.193  33.468  1.00  0.00     0.023 A 
ATOM     91  C   UNL A   1      50.334  23.833  33.379  1.00  0.00     0.031 A 
ATOM     92  C   UNL A   1      51.003  26.111  33.784  1.00  0.00     0.131 A 
ATOM     93  C   UNL A   1      51.639  23.421  33.689  1.00  0.00     0.055 A 
ATOM     94  C   UNL A   1      52.320  25.704  34.011  1.00  0.00     0.041 A 
ATOM     95  F   UNL A   1      50.735  27.422  33.889  1.00  0.00    -0.206 F 
ATOM     96  C   UNL A   1      52.640  24.350  33.984  1.00  0.00     0.022 A 
BRANCH  93  97
ATOM     97  S   UNL A   1      51.976  21.645  33.844  1.00  0.00     0.124 S 
ATOM     98  O   UNL A   1      51.893  21.448  35.289  1.00  0.00    -0.237 OA
ATOM     99  O   UNL A   1      50.898  21.054  33.058  1.00  0.00    -0.237 OA
ATOM    100  O   UNL A   1      53.313  21.498  33.273  1.00  0.00    -0.744 OA
ENDBRANCH  93  97
ENDBRANCH  67  90
ENDBRANCH  41  42
ENDBRANCH  34  36
ENDBRANCH  33  34
ENDBRANCH  32  33
ENDBRANCH  31  32
ENDBRANCH  30  31
ENDBRANCH  29  30
ENDBRANCH  28  29
ENDBRANCH   1  28
TORSDOF 28
ENDMDL
MODEL 2
REMARK VINA RESULT:      -7.7      1.635      2.140
REMARK SMILES CC[NH2+][C@]1(C(=O)OCCOCCOCCOCCOC(=O)c2ccc(-c3c4nc(c(-c5cc(S(=O)(=O)[O-])ccc5F)c5ccc([nH]5)c(-c5cc(S(=O)(=O)[O-])ccc5F)c5nc(c(-c6cc(S(=O)(=O)[O-])ccc6F)c6ccc3[nH]6)C=C5)C=C4)cc2)CC[C@@H]([N@@H+](C)CC(C)(C)C)C1
REMARK SMILES IDX 13 1 12 2 11 3 10 4 9 5 8 6 7 7 5 8 6 9 4 10 85 11 95 12
REMARK SMILES IDX 86 13 87 14 3 15 2 18 1 19 88 20 89 21 90 23 91 24 92 25
REMARK SMILES IDX 93 26 94 27 14 28 15 29 16 30 17 31 18 32 19 33 20 34 21 35
REMARK SMILES IDX 22 36 23 37 84 38 24 39 83 40 25 41 26 42 27 43 77 44 28 45
REMARK SMILES IDX 82 46 76 47 78 48 29 49 81 50 75 51 74 52 30 54 62 55 42 56
REMARK SMILES IDX 61 57 43 58 46 59 60 60 79 61 44 62 45 63 59 65 80 66 47 67
REMARK SMILES IDX 31 68 32 69 40 70 33 71 39 72 41 73 38 74 34 75 35 76 36 77
REMARK SMILES IDX 37 78 63 79 64 80 72 81 65 82 71 83 73 84 70 85 66 86 67 87
REMARK SMILES IDX 68 88 69 89 48 90 49 91 57 92 50 93 56 94 58 95 55 96 51 97
REMARK SMILES IDX 52 98 53 99 54 100
REMARK H PARENT 3 16 3 17 88 22 78 53 46 64
REMARK Flexibility Score: inf
ROOT
ATOM      1  O   UNL A   1      38.995  24.707  26.495  1.00  0.00    -0.377 OA
ENDROOT
BRANCH   1   2
ATOM      2  C   UNL A   1      38.091  23.628  26.323  1.00  0.00     0.188 C 
BRANCH   2   3
ATOM      3  C   UNL A   1      36.731  23.957  25.682  1.00  0.00     0.188 C 
BRANCH   3   4
ATOM      4  O   UNL A   1      36.140  22.878  24.992  1.00  0.00    -0.376 OA
BRANCH   4   5
ATOM      5  C   UNL A   1      34.768  22.842  24.653  1.00  0.00     0.202 C 
BRANCH   5   6
ATOM      6  C   UNL A   1      34.131  23.582  23.459  1.00  0.00     0.261 C 
BRANCH   6   7
ATOM      7  O   UNL A   1      33.741  24.945  23.617  1.00  0.00    -0.459 OA
BRANCH   7   8
ATOM      8  C   UNL A   1      32.448  25.104  23.969  1.00  0.00     0.368 C 
ATOM      9  O   UNL A   1      31.526  24.914  23.181  1.00  0.00    -0.245 OA
BRANCH   8  10
ATOM     10  C   UNL A   1      32.234  25.528  25.440  1.00  0.00     0.200 C 
ATOM     11  C   UNL A   1      33.439  26.390  25.833  1.00  0.00     0.087 C 
ATOM     12  C   UNL A   1      31.024  26.514  25.425  1.00  0.00     0.146 C 
ATOM     13  C   UNL A   1      32.896  27.593  26.574  1.00  0.00     0.072 C 
ATOM     14  C   UNL A   1      31.496  27.850  26.029  1.00  0.00     0.191 C 
BRANCH  10  15
ATOM     15  N   UNL A   1      31.956  24.393  26.378  1.00  0.00    -0.332 N 
ATOM     16  H   UNL A   1      32.835  23.905  26.555  1.00  0.00     0.347 HD
ATOM     17  H   UNL A   1      31.549  24.807  27.216  1.00  0.00     0.347 HD
BRANCH  15  18
ATOM     18  C   UNL A   1      30.982  23.410  25.887  1.00  0.00     0.257 C 
ATOM     19  C   UNL A   1      29.941  23.036  26.930  1.00  0.00     0.071 C 
ENDBRANCH  15  18
ENDBRANCH  10  15
BRANCH  14  20
ATOM     20  N   UNL A   1      31.304  29.095  25.276  1.00  0.00    -0.334 N 
ATOM     21  C   UNL A   1      31.916  30.255  25.908  1.00  0.00     0.332 C 
ATOM     22  H   UNL A   1      30.290  29.059  25.379  1.00  0.00     0.348 HD
BRANCH  20  23
ATOM     23  C   UNL A   1      31.091  29.190  23.830  1.00  0.00     0.268 C 
BRANCH  23  24
ATOM     24  C   UNL A   1      29.726  29.551  23.131  1.00  0.00     0.011 C 
ATOM     25  C   UNL A   1      29.075  30.807  23.697  1.00  0.00     0.017 C 
ATOM     26  C   UNL A   1      30.006  29.855  21.640  1.00  0.00     0.017 C 
ATOM     27  C   UNL A   1      28.670  28.442  23.212  1.00  0.00     0.017 C 
ENDBRANCH  23  24
ENDBRANCH  20  23
ENDBRANCH  14  20
ENDBRANCH   8  10
ENDBRANCH   7   8
ENDBRANCH   6   7
ENDBRANCH   5   6
ENDBRANCH   4   5
ENDBRANCH   3   4
ENDBRANCH   2   3
ENDBRANCH   1   2
BRANCH   1  28
ATOM     28  C   UNL A   1      39.210  25.250  27.803  1.00  0.00     0.188 C 
BRANCH  28  29
ATOM     29  C   UNL A   1      39.717  26.694  28.047  1.00  0.00     0.188 C 
BRANCH  29  30
ATOM     30  O   UNL A   1      38.816  27.528  28.753  1.00  0.00    -0.376 OA
BRANCH  30  31
ATOM     31  C   UNL A   1      38.414  28.737  28.136  1.00  0.00     0.202 C 
BRANCH  31  32
ATOM     32  C   UNL A   1      37.535  29.676  28.974  1.00  0.00     0.261 C 
BRANCH  32  33
ATOM     33  O   UNL A   1      36.830  29.074  30.071  1.00  0.00    -0.460 OA
BRANCH  33  34
ATOM     34  C   UNL A   1      37.033  29.600  31.298  1.00  0.00     0.338 C 
ATOM     35  O   UNL A   1      36.207  30.185  31.985  1.00  0.00    -0.246 OA
BRANCH  34  36
ATOM     36  C   UNL A   1      38.368  29.170  31.764  1.00  0.00     0.060 A 
ATOM     37  C   UNL A   1      39.408  30.108  31.814  1.00  0.00     0.016 A 
ATOM     38  C   UNL A   1      38.592  27.848  32.160  1.00  0.00     0.016 A 
ATOM     39  C   UNL A   1      40.682  29.718  32.229  1.00  0.00     0.010 A 
ATOM     40  C   UNL A   1      39.875  27.456  32.557  1.00  0.00     0.010 A 
ATOM     41  C   UNL A   1      40.934  28.381  32.564  1.00  0.00    -0.014 A 
BRANCH  41  42
ATOM     42  C   UNL A   1      42.335  27.924  32.755  1.00  0.00     0.031 A 
ATOM     43  C   UNL A   1      43.164  27.608  31.537  1.00  0.00     0.074 A 
ATOM     44  C   UNL A   1      42.878  27.830  33.983  1.00  0.00     0.049 A 
ATOM     45  N   UNL A   1      44.397  27.181  31.456  1.00  0.00    -0.248 NA
ATOM     46  C   UNL A   1      42.506  27.801  30.236  1.00  0.00     0.031 C 
ATOM     47  C   UNL A   1      42.191  28.150  35.234  1.00  0.00     0.029 A 
ATOM     48  N   UNL A   1      44.132  27.437  34.380  1.00  0.00    -0.354 N 
ATOM     49  C   UNL A   1      44.665  27.051  30.097  1.00  0.00     0.074 A 
ATOM     50  C   UNL A   1      43.449  27.404  29.395  1.00  0.00     0.031 C 
ATOM     51  C   UNL A   1      43.034  27.939  36.259  1.00  0.00     0.029 A 
ATOM     52  C   UNL A   1      44.305  27.431  35.744  1.00  0.00     0.049 A 
ATOM     53  H   UNL A   1      44.841  27.185  33.746  1.00  0.00     0.167 HD
ATOM     54  C   UNL A   1      45.820  26.681  29.490  1.00  0.00     0.034 A 
ATOM     55  C   UNL A   1      45.358  27.037  36.491  1.00  0.00     0.034 A 
ATOM     56  C   UNL A   1      47.019  26.314  30.204  1.00  0.00     0.049 A 
ATOM     57  C   UNL A   1      46.604  26.540  35.794  1.00  0.00     0.074 A 
ATOM     58  C   UNL A   1      48.246  25.936  29.690  1.00  0.00     0.029 A 
ATOM     59  N   UNL A   1      47.140  26.263  31.588  1.00  0.00    -0.354 N 
ATOM     60  N   UNL A   1      46.849  26.434  34.507  1.00  0.00    -0.248 NA
ATOM     61  C   UNL A   1      47.717  26.120  36.653  1.00  0.00     0.031 C 
ATOM     62  C   UNL A   1      49.078  25.573  30.755  1.00  0.00     0.029 A 
ATOM     63  C   UNL A   1      48.406  25.820  31.941  1.00  0.00     0.049 A 
ATOM     64  H   UNL A   1      46.430  26.507  32.225  1.00  0.00     0.167 HD
ATOM     65  C   UNL A   1      48.158  25.966  34.407  1.00  0.00     0.074 A 
ATOM     66  C   UNL A   1      48.654  25.837  35.761  1.00  0.00     0.031 C 
ATOM     67  C   UNL A   1      48.886  25.671  33.297  1.00  0.00     0.034 A 
BRANCH  54  68
ATOM     68  C   UNL A   1      45.818  26.601  27.981  1.00  0.00     0.023 A 
ATOM     69  C   UNL A   1      45.633  25.384  27.300  1.00  0.00     0.031 A 
ATOM     70  C   UNL A   1      46.029  27.758  27.210  1.00  0.00     0.131 A 
ATOM     71  C   UNL A   1      45.735  25.342  25.900  1.00  0.00     0.055 A 
ATOM     72  C   UNL A   1      46.043  27.723  25.814  1.00  0.00     0.041 A 
ATOM     73  F   UNL A   1      46.239  28.945  27.802  1.00  0.00    -0.206 F 
ATOM     74  C   UNL A   1      45.910  26.507  25.151  1.00  0.00     0.022 A 
BRANCH  71  75
ATOM     75  S   UNL A   1      45.786  23.723  25.083  1.00  0.00     0.124 S 
ATOM     76  O   UNL A   1      46.280  22.865  26.158  1.00  0.00    -0.237 OA
ATOM     77  O   UNL A   1      44.396  23.522  24.692  1.00  0.00    -0.237 OA
ATOM     78  O   UNL A   1      46.723  23.926  23.979  1.00  0.00    -0.744 OA
ENDBRANCH  71  75
ENDBRANCH  54  68
BRANCH  55  79
ATOM     79  C   UNL A   1      45.280  27.052  37.982  1.00  0.00     0.023 A 
ATOM     80  C   UNL A   1      45.702  28.167  38.724  1.00  0.00     0.031 A 
ATOM     81  C   UNL A   1      44.846  25.918  38.692  1.00  0.00     0.131 A 
ATOM     82  C   UNL A   1      45.728  28.106  40.127  1.00  0.00     0.055 A 
ATOM     83  C   UNL A   1      44.815  25.885  40.087  1.00  0.00     0.041 A 
ATOM     84  F   UNL A   1      44.439  24.820  38.035  1.00  0.00    -0.206 F 
ATOM     85  C   UNL A   1      45.272  26.979  40.813  1.00  0.00     0.022 A 
BRANCH  82  86
ATOM     86  S   UNL A   1      46.463  29.489  41.045  1.00  0.00     0.124 S 
ATOM     87  O   UNL A   1      45.918  29.280  42.382  1.00  0.00    -0.237 OA
ATOM     88  O   UNL A   1      47.890  29.233  40.885  1.00  0.00    -0.237 OA
ATOM     89  O   UNL A   1      45.961  30.667  40.341  1.00  0.00    -0.744 OA
ENDBRANCH  82  86
ENDBRANCH  55  79
BRANCH  67  90
ATOM     90  C   UNL A   1      50.314  25.219  33.512  1.00  0.00     0.023 A 
ATOM     91  C   UNL A   1      51.383  26.132  33.547  1.00  0.00     0.031 A 
ATOM     92  C   UNL A   1      50.615  23.851  33.643  1.00  0.00     0.131 A 
ATOM     93  C   UNL A   1      52.704  25.663  33.619  1.00  0.00     0.055 A 
ATOM     94  C   UNL A   1      51.927  23.396  33.798  1.00  0.00     0.041 A 
ATOM     95  F   UNL A   1      49.640  22.929  33.613  1.00  0.00    -0.206 F 
ATOM     96  C   UNL A   1      52.982  24.302  33.766  1.00  0.00     0.022 A 
BRANCH  93  97
ATOM     97  S   UNL A   1      54.060  26.844  33.372  1.00  0.00     0.124 S 
ATOM     98  O   UNL A   1      55.186  25.956  33.099  1.00  0.00    -0.237 OA
ATOM     99  O   UNL A   1      53.582  27.634  32.243  1.00  0.00    -0.237 OA
ATOM    100  O   UNL A   1      54.127  27.559  34.645  1.00  0.00    -0.744 OA
ENDBRANCH  93  97
ENDBRANCH  67  90
ENDBRANCH  41  42
ENDBRANCH  34  36
ENDBRANCH  33  34
ENDBRANCH  32  33
ENDBRANCH  31  32
ENDBRANCH  30  31
ENDBRANCH  29  30
ENDBRANCH  28  29
ENDBRANCH   1  28
TORSDOF 28
ENDMDL
MODEL 3
REMARK VINA RESULT:      -7.7      5.550     12.062
REMARK SMILES CC[NH2+][C@]1(C(=O)OCCOCCOCCOCCOC(=O)c2ccc(-c3c4nc(c(-c5cc(S(=O)(=O)[O-])ccc5F)c5ccc([nH]5)c(-c5cc(S(=O)(=O)[O-])ccc5F)c5nc(c(-c6cc(S(=O)(=O)[O-])ccc6F)c6ccc3[nH]6)C=C5)C=C4)cc2)CC[C@@H]([N@@H+](C)CC(C)(C)C)C1
REMARK SMILES IDX 13 1 12 2 11 3 10 4 9 5 8 6 7 7 5 8 6 9 4 10 85 11 95 12
REMARK SMILES IDX 86 13 87 14 3 15 2 18 1 19 88 20 89 21 90 23 91 24 92 25
REMARK SMILES IDX 93 26 94 27 14 28 15 29 16 30 17 31 18 32 19 33 20 34 21 35
REMARK SMILES IDX 22 36 23 37 84 38 24 39 83 40 25 41 26 42 27 43 77 44 28 45
REMARK SMILES IDX 82 46 76 47 78 48 29 49 81 50 75 51 74 52 30 54 62 55 42 56
REMARK SMILES IDX 61 57 43 58 46 59 60 60 79 61 44 62 45 63 59 65 80 66 47 67
REMARK SMILES IDX 31 68 32 69 40 70 33 71 39 72 41 73 38 74 34 75 35 76 36 77
REMARK SMILES IDX 37 78 63 79 64 80 72 81 65 82 71 83 73 84 70 85 66 86 67 87
REMARK SMILES IDX 68 88 69 89 48 90 49 91 57 92 50 93 56 94 58 95 55 96 51 97
REMARK SMILES IDX 52 98 53 99 54 100
REMARK H PARENT 3 16 3 17 88 22 78 53 46 64
REMARK Flexibility Score: inf
ROOT
ATOM      1  O   UNL A   1      52.742  28.677  25.372  1.00  0.00    -0.377 OA
ENDROOT
BRANCH   1   2
ATOM      2  C   UNL A   1      51.327  28.585  25.335  1.00  0.00     0.188 C 
BRANCH   2   3
ATOM      3  C   UNL A   1      50.723  27.593  24.325  1.00  0.00     0.188 C 
BRANCH   3   4
ATOM      4  O   UNL A   1      50.061  26.497  24.917  1.00  0.00    -0.376 OA
BRANCH   4   5
ATOM      5  C   UNL A   1      48.658  26.448  25.090  1.00  0.00     0.202 C 
BRANCH   5   6
ATOM      6  C   UNL A   1      47.718  25.429  24.414  1.00  0.00     0.261 C 
BRANCH   6   7
ATOM      7  O   UNL A   1      47.121  24.405  25.208  1.00  0.00    -0.459 OA
BRANCH   7   8
ATOM      8  C   UNL A   1      45.777  24.496  25.291  1.00  0.00     0.368 C 
ATOM      9  O   UNL A   1      45.154  25.450  24.832  1.00  0.00    -0.245 OA
BRANCH   8  10
ATOM     10  C   UNL A   1      45.100  23.300  25.998  1.00  0.00     0.200 C 
ATOM     11  C   UNL A   1      45.277  23.516  27.505  1.00  0.00     0.087 C 
ATOM     12  C   UNL A   1      43.568  23.472  25.747  1.00  0.00     0.146 C 
ATOM     13  C   UNL A   1      43.942  23.220  28.153  1.00  0.00     0.072 C 
ATOM     14  C   UNL A   1      42.870  23.546  27.119  1.00  0.00     0.191 C 
BRANCH  10  15
ATOM     15  N   UNL A   1      45.549  21.956  25.510  1.00  0.00    -0.332 N 
ATOM     16  H   UNL A   1      46.349  22.095  24.892  1.00  0.00     0.347 HD
ATOM     17  H   UNL A   1      45.771  21.409  26.341  1.00  0.00     0.347 HD
BRANCH  15  18
ATOM     18  C   UNL A   1      44.532  21.194  24.774  1.00  0.00     0.257 C 
ATOM     19  C   UNL A   1      44.235  19.842  25.401  1.00  0.00     0.071 C 
ENDBRANCH  15  18
ENDBRANCH  10  15
BRANCH  14  20
ATOM     20  N   UNL A   1      41.987  24.677  27.424  1.00  0.00    -0.334 N 
ATOM     21  C   UNL A   1      40.611  24.283  27.690  1.00  0.00     0.332 C 
ATOM     22  H   UNL A   1      42.123  25.095  26.503  1.00  0.00     0.348 HD
BRANCH  20  23
ATOM     23  C   UNL A   1      42.411  25.956  27.999  1.00  0.00     0.268 C 
BRANCH  23  24
ATOM     24  C   UNL A   1      42.518  27.317  27.213  1.00  0.00     0.011 C 
ATOM     25  C   UNL A   1      41.653  28.422  27.804  1.00  0.00     0.017 C 
ATOM     26  C   UNL A   1      43.977  27.824  27.313  1.00  0.00     0.017 C 
ATOM     27  C   UNL A   1      42.138  27.215  25.731  1.00  0.00     0.017 C 
ENDBRANCH  23  24
ENDBRANCH  20  23
ENDBRANCH  14  20
ENDBRANCH   8  10
ENDBRANCH   7   8
ENDBRANCH   6   7
ENDBRANCH   5   6
ENDBRANCH   4   5
ENDBRANCH   3   4
ENDBRANCH   2   3
ENDBRANCH   1   2
BRANCH   1  28
ATOM     28  C   UNL A   1      53.511  28.240  24.245  1.00  0.00     0.188 C 
BRANCH  28  29
ATOM     29  C   UNL A   1      54.734  27.297  24.369  1.00  0.00     0.188 C 
BRANCH  29  30
ATOM     30  O   UNL A   1      54.506  25.969  23.934  1.00  0.00    -0.376 OA
BRANCH  30  31
ATOM     31  C   UNL A   1      53.627  25.166  24.700  1.00  0.00     0.202 C 
BRANCH  31  32
ATOM     32  C   UNL A   1      53.869  25.138  26.216  1.00  0.00     0.261 C 
BRANCH  32  33
ATOM     33  O   UNL A   1      52.747  25.486  27.044  1.00  0.00    -0.460 OA
BRANCH  33  34
ATOM     34  C   UNL A   1      52.950  26.422  27.997  1.00  0.00     0.338 C 
ATOM     35  O   UNL A   1      53.981  27.050  28.192  1.00  0.00    -0.246 OA
BRANCH  34  36
ATOM     36  C   UNL A   1      51.650  26.710  28.638  1.00  0.00     0.060 A 
ATOM     37  C   UNL A   1      50.515  25.993  28.234  1.00  0.00     0.016 A 
ATOM     38  C   UNL A   1      51.551  27.678  29.641  1.00  0.00     0.016 A 
ATOM     39  C   UNL A   1      49.274  26.266  28.811  1.00  0.00     0.010 A 
ATOM     40  C   UNL A   1      50.302  27.963  30.204  1.00  0.00     0.010 A 
ATOM     41  C   UNL A   1      49.152  27.280  29.770  1.00  0.00    -0.014 A 
BRANCH  41  42
ATOM     42  C   UNL A   1      47.801  27.736  30.187  1.00  0.00     0.031 A 
ATOM     43  C   UNL A   1      47.088  26.980  31.279  1.00  0.00     0.074 A 
ATOM     44  C   UNL A   1      47.232  28.826  29.640  1.00  0.00     0.049 A 
ATOM     45  N   UNL A   1      45.905  27.181  31.796  1.00  0.00    -0.248 NA
ATOM     46  C   UNL A   1      47.815  25.842  31.861  1.00  0.00     0.031 C 
ATOM     47  C   UNL A   1      47.840  29.665  28.608  1.00  0.00     0.029 A 
ATOM     48  N   UNL A   1      46.013  29.413  29.875  1.00  0.00    -0.354 N 
ATOM     49  C   UNL A   1      45.741  26.195  32.763  1.00  0.00     0.074 A 
ATOM     50  C   UNL A   1      46.932  25.372  32.728  1.00  0.00     0.031 C 
ATOM     51  C   UNL A   1      46.990  30.660  28.299  1.00  0.00     0.029 A 
ATOM     52  C   UNL A   1      45.762  30.506  29.078  1.00  0.00     0.049 A 
ATOM     53  H   UNL A   1      45.379  29.083  30.552  1.00  0.00     0.167 HD
ATOM     54  C   UNL A   1      44.699  25.999  33.609  1.00  0.00     0.034 A 
ATOM     55  C   UNL A   1      44.659  31.276  28.973  1.00  0.00     0.034 A 
ATOM     56  C   UNL A   1      43.511  26.818  33.621  1.00  0.00     0.049 A 
ATOM     57  C   UNL A   1      43.473  30.982  29.863  1.00  0.00     0.074 A 
ATOM     58  C   UNL A   1      42.402  26.715  34.442  1.00  0.00     0.029 A 
ATOM     59  N   UNL A   1      43.265  27.880  32.760  1.00  0.00    -0.354 N 
ATOM     60  N   UNL A   1      43.336  30.054  30.784  1.00  0.00    -0.248 NA
ATOM     61  C   UNL A   1      42.298  31.847  29.704  1.00  0.00     0.031 C 
ATOM     62  C   UNL A   1      41.455  27.655  34.023  1.00  0.00     0.029 A 
ATOM     63  C   UNL A   1      42.008  28.413  33.004  1.00  0.00     0.049 A 
ATOM     64  H   UNL A   1      43.894  28.208  32.076  1.00  0.00     0.167 HD
ATOM     65  C   UNL A   1      42.070  30.249  31.334  1.00  0.00     0.074 A 
ATOM     66  C   UNL A   1      41.501  31.397  30.660  1.00  0.00     0.031 C 
ATOM     67  C   UNL A   1      41.436  29.546  32.310  1.00  0.00     0.034 A 
BRANCH  54  68
ATOM     68  C   UNL A   1      44.780  24.819  34.551  1.00  0.00     0.023 A 
ATOM     69  C   UNL A   1      45.243  24.952  35.872  1.00  0.00     0.031 A 
ATOM     70  C   UNL A   1      44.412  23.536  34.111  1.00  0.00     0.131 A 
ATOM     71  C   UNL A   1      45.392  23.814  36.680  1.00  0.00     0.055 A 
ATOM     72  C   UNL A   1      44.482  22.420  34.948  1.00  0.00     0.041 A 
ATOM     73  F   UNL A   1      43.989  23.339  32.852  1.00  0.00    -0.206 F 
ATOM     74  C   UNL A   1      44.988  22.553  36.237  1.00  0.00     0.022 A 
BRANCH  71  75
ATOM     75  S   UNL A   1      46.263  23.982  38.263  1.00  0.00     0.124 S 
ATOM     76  O   UNL A   1      47.512  23.276  37.989  1.00  0.00    -0.237 OA
ATOM     77  O   UNL A   1      46.365  25.429  38.415  1.00  0.00    -0.237 OA
ATOM     78  O   UNL A   1      45.376  23.316  39.215  1.00  0.00    -0.744 OA
ENDBRANCH  71  75
ENDBRANCH  54  68
BRANCH  55  79
ATOM     79  C   UNL A   1      44.594  32.377  27.966  1.00  0.00     0.023 A 
ATOM     80  C   UNL A   1      44.906  33.702  28.311  1.00  0.00     0.031 A 
ATOM     81  C   UNL A   1      44.149  32.128  26.654  1.00  0.00     0.131 A 
ATOM     82  C   UNL A   1      44.721  34.732  27.373  1.00  0.00     0.055 A 
ATOM     83  C   UNL A   1      44.027  33.146  25.709  1.00  0.00     0.041 A 
ATOM     84  F   UNL A   1      43.829  30.881  26.271  1.00  0.00    -0.206 F 
ATOM     85  C   UNL A   1      44.299  34.461  26.071  1.00  0.00     0.022 A 
BRANCH  82  86
ATOM     86  S   UNL A   1      44.946  36.450  27.913  1.00  0.00     0.124 S 
ATOM     87  O   UNL A   1      43.600  36.990  27.752  1.00  0.00    -0.237 OA
ATOM     88  O   UNL A   1      45.407  36.277  29.286  1.00  0.00    -0.237 OA
ATOM     89  O   UNL A   1      45.945  36.971  26.983  1.00  0.00    -0.744 OA
ENDBRANCH  82  86
ENDBRANCH  55  79
BRANCH  67  90
ATOM     90  C   UNL A   1      40.067  30.033  32.729  1.00  0.00     0.023 A 
ATOM     91  C   UNL A   1      39.882  30.826  33.876  1.00  0.00     0.031 A 
ATOM     92  C   UNL A   1      38.925  29.666  31.995  1.00  0.00     0.131 A 
ATOM     93  C   UNL A   1      38.584  31.151  34.303  1.00  0.00     0.055 A 
ATOM     94  C   UNL A   1      37.642  30.062  32.379  1.00  0.00     0.041 A 
ATOM     95  F   UNL A   1      39.034  28.907  30.893  1.00  0.00    -0.206 F 
ATOM     96  C   UNL A   1      37.464  30.791  33.550  1.00  0.00     0.022 A 
BRANCH  93  97
ATOM     97  S   UNL A   1      38.374  31.922  35.931  1.00  0.00     0.124 S 
ATOM     98  O   UNL A   1      38.353  30.760  36.815  1.00  0.00    -0.237 OA
ATOM     99  O   UNL A   1      39.553  32.775  36.028  1.00  0.00    -0.237 OA
ATOM    100  O   UNL A   1      37.102  32.634  35.812  1.00  0.00    -0.744 OA
ENDBRANCH  93  97
ENDBRANCH  67  90
ENDBRANCH  41  42
ENDBRANCH  34  36
ENDBRANCH  33  34
ENDBRANCH  32  33
ENDBRANCH  31  32
ENDBRANCH  30  31
ENDBRANCH  29  30
ENDBRANCH  28  29
ENDBRANCH   1  28
TORSDOF 28
ENDMDL
