MODEL 1
REMARK VINA RESULT:     -10.1      0.000      0.000
REMARK SMILES C[C@@H](C(=O)OCCOCCOCCOCCOC(=O)c1ccc(-c2c3nc(c(-c4cc(S(=O)(=O)[O-])ccc4F)c4ccc([nH]4)c(-c4cc(S(=O)(=O)[O-])ccc4F)c4nc(c(-c5cc(S(=O)(=O)[O-])ccc5F)c5ccc2[nH]5)C=C4)C=C3)cc1)c1ccc2c3cc(Cl)ccc3n(C(=O)c3cocn3)c2c1
REMARK SMILES IDX 11 1 10 2 9 3 8 4 7 5 6 6 5 7 3 8 4 9 2 10 1 11 83 12 84 13
REMARK SMILES IDX 103 14 85 15 102 16 86 17 94 18 87 19 93 20 88 21 92 22
REMARK SMILES IDX 89 23 91 24 90 25 95 26 96 27 97 28 98 29 101 30 99 31
REMARK SMILES IDX 100 32 12 33 13 34 14 35 15 36 16 37 17 38 18 39 19 40 20 41
REMARK SMILES IDX 21 42 82 43 22 44 81 45 23 46 24 47 25 48 75 49 26 50 80 51
REMARK SMILES IDX 74 52 76 53 27 54 79 55 73 56 72 57 28 59 60 60 40 61 59 62
REMARK SMILES IDX 41 63 44 64 58 65 77 66 42 67 43 68 57 70 78 71 45 72 29 73
REMARK SMILES IDX 30 74 38 75 31 76 37 77 39 78 36 79 32 80 33 81 34 82 35 83
REMARK SMILES IDX 61 84 62 85 70 86 63 87 69 88 71 89 68 90 64 91 65 92 66 93
REMARK SMILES IDX 67 94 46 95 47 96 55 97 48 98 54 99 56 100 53 101 49 102
REMARK SMILES IDX 50 103 51 104 52 105
REMARK H PARENT 76 58 44 69
REMARK Flexibility Score: inf
ROOT
ATOM      1  O   UNL A   1      33.276  29.378  26.178  1.00  0.00    -0.377 OA
ENDROOT
BRANCH   1   2
ATOM      2  C   UNL A   1      32.547  29.544  24.977  1.00  0.00     0.188 C 
BRANCH   2   3
ATOM      3  C   UNL A   1      31.210  30.288  25.104  1.00  0.00     0.188 C 
BRANCH   3   4
ATOM      4  O   UNL A   1      30.175  29.835  24.260  1.00  0.00    -0.376 OA
BRANCH   4   5
ATOM      5  C   UNL A   1      30.440  29.486  22.909  1.00  0.00     0.202 C 
BRANCH   5   6
ATOM      6  C   UNL A   1      30.435  28.053  22.330  1.00  0.00     0.261 C 
BRANCH   6   7
ATOM      7  O   UNL A   1      31.530  27.210  22.693  1.00  0.00    -0.463 OA
BRANCH   7   8
ATOM      8  C   UNL A   1      31.352  26.303  23.682  1.00  0.00     0.313 C 
ATOM      9  O   UNL A   1      30.960  26.578  24.813  1.00  0.00    -0.252 OA
BRANCH   8  10
ATOM     10  C   UNL A   1      31.560  24.866  23.195  1.00  0.00     0.126 C 
ATOM     11  C   UNL A   1      30.272  24.020  23.286  1.00  0.00     0.025 C 
BRANCH  10  12
ATOM     12  C   UNL A   1      32.815  24.191  23.772  1.00  0.00    -0.032 A 
ATOM     13  C   UNL A   1      33.983  24.906  24.058  1.00  0.00     0.005 A 
ATOM     14  C   UNL A   1      32.840  22.799  23.952  1.00  0.00     0.032 A 
ATOM     15  C   UNL A   1      35.109  24.291  24.613  1.00  0.00     0.011 A 
ATOM     16  C   UNL A   1      34.021  22.150  24.388  1.00  0.00     0.058 A 
ATOM     17  C   UNL A   1      35.136  22.892  24.760  1.00  0.00     0.008 A 
ATOM     18  N   UNL A   1      34.337  20.782  24.524  1.00  0.00    -0.274 N 
ATOM     19  C   UNL A   1      36.155  21.985  25.144  1.00  0.00     0.009 A 
ATOM     20  C   UNL A   1      35.710  20.694  24.826  1.00  0.00     0.057 A 
ATOM     21  C   UNL A   1      37.475  22.194  25.602  1.00  0.00     0.031 A 
ATOM     22  C   UNL A   1      36.636  19.632  24.783  1.00  0.00     0.029 A 
ATOM     23  C   UNL A   1      38.368  21.128  25.608  1.00  0.00     0.041 A 
ATOM     24  C   UNL A   1      37.967  19.875  25.165  1.00  0.00     0.023 A 
ATOM     25  Cl  UNL A   1      39.997  21.393  26.097  1.00  0.00    -0.084 Cl
BRANCH  18  26
ATOM     26  C   UNL A   1      33.400  19.731  24.284  1.00  0.00     0.284 C 
ATOM     27  O   UNL A   1      32.373  20.053  23.690  1.00  0.00    -0.266 OA
BRANCH  26  28
ATOM     28  C   UNL A   1      33.512  18.334  24.690  1.00  0.00     0.167 A 
ATOM     29  C   UNL A   1      32.969  17.664  25.763  1.00  0.00     0.231 A 
ATOM     30  N   UNL A   1      34.091  17.396  23.839  1.00  0.00    -0.211 NA
ATOM     31  O   UNL A   1      33.185  16.324  25.590  1.00  0.00    -0.451 OA
ATOM     32  C   UNL A   1      33.837  16.242  24.401  1.00  0.00     0.308 A 
ENDBRANCH  26  28
ENDBRANCH  18  26
ENDBRANCH  10  12
ENDBRANCH   8  10
ENDBRANCH   7   8
ENDBRANCH   6   7
ENDBRANCH   5   6
ENDBRANCH   4   5
ENDBRANCH   3   4
ENDBRANCH   2   3
ENDBRANCH   1   2
BRANCH   1  33
ATOM     33  C   UNL A   1      33.019  30.258  27.271  1.00  0.00     0.188 C 
BRANCH  33  34
ATOM     34  C   UNL A   1      33.628  31.678  27.346  1.00  0.00     0.188 C 
BRANCH  34  35
ATOM     35  O   UNL A   1      34.195  32.032  28.598  1.00  0.00    -0.376 OA
BRANCH  35  36
ATOM     36  C   UNL A   1      35.011  33.192  28.659  1.00  0.00     0.202 C 
BRANCH  36  37
ATOM     37  C   UNL A   1      34.338  34.502  29.098  1.00  0.00     0.261 C 
BRANCH  37  38
ATOM     38  O   UNL A   1      33.394  34.404  30.176  1.00  0.00    -0.460 OA
BRANCH  38  39
ATOM     39  C   UNL A   1      33.711  35.004  31.344  1.00  0.00     0.338 C 
ATOM     40  O   UNL A   1      33.070  35.868  31.920  1.00  0.00    -0.246 OA
BRANCH  39  41
ATOM     41  C   UNL A   1      34.871  34.288  31.917  1.00  0.00     0.060 A 
ATOM     42  C   UNL A   1      36.144  34.863  31.818  1.00  0.00     0.016 A 
ATOM     43  C   UNL A   1      34.698  33.060  32.558  1.00  0.00     0.016 A 
ATOM     44  C   UNL A   1      37.257  34.192  32.324  1.00  0.00     0.010 A 
ATOM     45  C   UNL A   1      35.817  32.377  33.044  1.00  0.00     0.010 A 
ATOM     46  C   UNL A   1      37.105  32.923  32.898  1.00  0.00    -0.014 A 
BRANCH  46  47
ATOM     47  C   UNL A   1      38.302  32.078  33.144  1.00  0.00     0.031 A 
ATOM     48  C   UNL A   1      39.090  32.316  34.405  1.00  0.00     0.074 A 
ATOM     49  C   UNL A   1      38.667  31.105  32.290  1.00  0.00     0.049 A 
ATOM     50  N   UNL A   1      40.202  31.763  34.809  1.00  0.00    -0.248 NA
ATOM     51  C   UNL A   1      38.544  33.321  35.330  1.00  0.00     0.031 C 
ATOM     52  C   UNL A   1      37.953  30.740  31.069  1.00  0.00     0.029 A 
ATOM     53  N   UNL A   1      39.740  30.249  32.321  1.00  0.00    -0.354 N 
ATOM     54  C   UNL A   1      40.494  32.354  36.034  1.00  0.00     0.074 A 
ATOM     55  C   UNL A   1      39.462  33.339  36.282  1.00  0.00     0.031 C 
ATOM     56  C   UNL A   1      38.617  29.743  30.458  1.00  0.00     0.029 A 
ATOM     57  C   UNL A   1      39.825  29.429  31.219  1.00  0.00     0.049 A 
ATOM     58  H   UNL A   1      40.389  30.224  33.062  1.00  0.00     0.167 HD
ATOM     59  C   UNL A   1      41.522  32.094  36.879  1.00  0.00     0.034 A 
ATOM     60  C   UNL A   1      40.785  28.553  30.852  1.00  0.00     0.034 A 
ATOM     61  C   UNL A   1      42.551  31.122  36.607  1.00  0.00     0.049 A 
ATOM     62  C   UNL A   1      41.982  28.356  31.758  1.00  0.00     0.074 A 
ATOM     63  C   UNL A   1      43.638  30.778  37.392  1.00  0.00     0.029 A 
ATOM     64  N   UNL A   1      42.633  30.348  35.457  1.00  0.00    -0.354 N 
ATOM     65  N   UNL A   1      42.249  28.923  32.912  1.00  0.00    -0.248 NA
ATOM     66  C   UNL A   1      43.000  27.395  31.313  1.00  0.00     0.031 C 
ATOM     67  C   UNL A   1      44.419  29.861  36.681  1.00  0.00     0.029 A 
ATOM     68  C   UNL A   1      43.770  29.556  35.495  1.00  0.00     0.049 A 
ATOM     69  H   UNL A   1      41.979  30.359  34.721  1.00  0.00     0.167 HD
ATOM     70  C   UNL A   1      43.448  28.357  33.346  1.00  0.00     0.074 A 
ATOM     71  C   UNL A   1      43.842  27.398  32.336  1.00  0.00     0.031 C 
ATOM     72  C   UNL A   1      44.157  28.604  34.478  1.00  0.00     0.034 A 
BRANCH  59  73
ATOM     73  C   UNL A   1      41.607  32.916  38.143  1.00  0.00     0.023 A 
ATOM     74  C   UNL A   1      41.047  32.472  39.354  1.00  0.00     0.031 A 
ATOM     75  C   UNL A   1      42.230  34.175  38.131  1.00  0.00     0.131 A 
ATOM     76  C   UNL A   1      41.058  33.310  40.479  1.00  0.00     0.055 A 
ATOM     77  C   UNL A   1      42.315  34.967  39.276  1.00  0.00     0.041 A 
ATOM     78  F   UNL A   1      42.758  34.665  36.997  1.00  0.00    -0.206 F 
ATOM     79  C   UNL A   1      41.713  34.543  40.457  1.00  0.00     0.022 A 
BRANCH  76  80
ATOM     80  S   UNL A   1      40.072  32.833  41.925  1.00  0.00     0.124 S 
ATOM     81  O   UNL A   1      39.144  33.956  42.033  1.00  0.00    -0.237 OA
ATOM     82  O   UNL A   1      39.491  31.562  41.506  1.00  0.00    -0.237 OA
ATOM     83  O   UNL A   1      41.059  32.744  43.000  1.00  0.00    -0.744 OA
ENDBRANCH  76  80
ENDBRANCH  59  73
BRANCH  60  84
ATOM     84  C   UNL A   1      40.697  27.832  29.547  1.00  0.00     0.023 A 
ATOM     85  C   UNL A   1      41.592  28.102  28.500  1.00  0.00     0.031 A 
ATOM     86  C   UNL A   1      39.664  26.907  29.306  1.00  0.00     0.131 A 
ATOM     87  C   UNL A   1      41.408  27.495  27.247  1.00  0.00     0.055 A 
ATOM     88  C   UNL A   1      39.524  26.258  28.078  1.00  0.00     0.041 A 
ATOM     89  F   UNL A   1      38.773  26.617  30.268  1.00  0.00    -0.206 F 
ATOM     90  C   UNL A   1      40.391  26.563  27.034  1.00  0.00     0.022 A 
BRANCH  87  91
ATOM     91  S   UNL A   1      42.456  28.022  25.862  1.00  0.00     0.124 S 
ATOM     92  O   UNL A   1      43.792  27.835  26.415  1.00  0.00    -0.237 OA
ATOM     93  O   UNL A   1      42.060  27.091  24.812  1.00  0.00    -0.237 OA
ATOM     94  O   UNL A   1      42.059  29.411  25.645  1.00  0.00    -0.744 OA
ENDBRANCH  87  91
ENDBRANCH  60  84
BRANCH  72  95
ATOM     95  C   UNL A   1      45.402  27.780  34.714  1.00  0.00     0.023 A 
ATOM     96  C   UNL A   1      45.358  26.527  35.350  1.00  0.00     0.031 A 
ATOM     97  C   UNL A   1      46.656  28.261  34.293  1.00  0.00     0.131 A 
ATOM     98  C   UNL A   1      46.549  25.826  35.599  1.00  0.00     0.055 A 
ATOM     99  C   UNL A   1      47.828  27.527  34.480  1.00  0.00     0.041 A 
ATOM    100  F   UNL A   1      46.762  29.452  33.683  1.00  0.00    -0.206 F 
ATOM    101  C   UNL A   1      47.780  26.309  35.150  1.00  0.00     0.022 A 
BRANCH  98 102
ATOM    102  S   UNL A   1      46.481  24.324  36.614  1.00  0.00     0.124 S 
ATOM    103  O   UNL A   1      47.204  23.366  35.784  1.00  0.00    -0.237 OA
ATOM    104  O   UNL A   1      47.157  24.745  37.838  1.00  0.00    -0.237 OA
ATOM    105  O   UNL A   1      45.049  24.068  36.753  1.00  0.00    -0.744 OA
ENDBRANCH  98 102
ENDBRANCH  72  95
ENDBRANCH  46  47
ENDBRANCH  39  41
ENDBRANCH  38  39
ENDBRANCH  37  38
ENDBRANCH  36  37
ENDBRANCH  35  36
ENDBRANCH  34  35
ENDBRANCH  33  34
ENDBRANCH   1  33
TORSDOF 26
ENDMDL
MODEL 2
REMARK VINA RESULT:     -10.1      1.691      2.058
REMARK SMILES C[C@@H](C(=O)OCCOCCOCCOCCOC(=O)c1ccc(-c2c3nc(c(-c4cc(S(=O)(=O)[O-])ccc4F)c4ccc([nH]4)c(-c4cc(S(=O)(=O)[O-])ccc4F)c4nc(c(-c5cc(S(=O)(=O)[O-])ccc5F)c5ccc2[nH]5)C=C4)C=C3)cc1)c1ccc2c3cc(Cl)ccc3n(C(=O)c3cocn3)c2c1
REMARK SMILES IDX 11 1 10 2 9 3 8 4 7 5 6 6 5 7 3 8 4 9 2 10 1 11 83 12 84 13
REMARK SMILES IDX 103 14 85 15 102 16 86 17 94 18 87 19 93 20 88 21 92 22
REMARK SMILES IDX 89 23 91 24 90 25 95 26 96 27 97 28 98 29 101 30 99 31
REMARK SMILES IDX 100 32 12 33 13 34 14 35 15 36 16 37 17 38 18 39 19 40 20 41
REMARK SMILES IDX 21 42 82 43 22 44 81 45 23 46 24 47 25 48 75 49 26 50 80 51
REMARK SMILES IDX 74 52 76 53 27 54 79 55 73 56 72 57 28 59 60 60 40 61 59 62
REMARK SMILES IDX 41 63 44 64 58 65 77 66 42 67 43 68 57 70 78 71 45 72 29 73
REMARK SMILES IDX 30 74 38 75 31 76 37 77 39 78 36 79 32 80 33 81 34 82 35 83
REMARK SMILES IDX 61 84 62 85 70 86 63 87 69 88 71 89 68 90 64 91 65 92 66 93
REMARK SMILES IDX 67 94 46 95 47 96 55 97 48 98 54 99 56 100 53 101 49 102
REMARK SMILES IDX 50 103 51 104 52 105
REMARK H PARENT 76 58 44 69
REMARK Flexibility Score: inf
ROOT
ATOM      1  O   UNL A   1      33.284  30.610  27.199  1.00  0.00    -0.377 OA
ENDROOT
BRANCH   1   2
ATOM      2  C   UNL A   1      33.308  29.352  26.554  1.00  0.00     0.188 C 
BRANCH   2   3
ATOM      3  C   UNL A   1      32.674  29.304  25.157  1.00  0.00     0.188 C 
BRANCH   3   4
ATOM      4  O   UNL A   1      31.264  29.309  25.125  1.00  0.00    -0.376 OA
BRANCH   4   5
ATOM      5  C   UNL A   1      30.566  29.702  23.951  1.00  0.00     0.202 C 
BRANCH   5   6
ATOM      6  C   UNL A   1      30.263  28.797  22.735  1.00  0.00     0.261 C 
BRANCH   6   7
ATOM      7  O   UNL A   1      29.785  27.480  23.018  1.00  0.00    -0.463 OA
BRANCH   7   8
ATOM      8  C   UNL A   1      30.649  26.442  22.929  1.00  0.00     0.313 C 
ATOM      9  O   UNL A   1      31.493  26.315  22.047  1.00  0.00    -0.252 OA
BRANCH   8  10
ATOM     10  C   UNL A   1      30.555  25.505  24.137  1.00  0.00     0.126 C 
ATOM     11  C   UNL A   1      29.693  26.096  25.275  1.00  0.00     0.025 C 
BRANCH  10  12
ATOM     12  C   UNL A   1      31.909  24.934  24.586  1.00  0.00    -0.032 A 
ATOM     13  C   UNL A   1      32.928  25.744  25.099  1.00  0.00     0.005 A 
ATOM     14  C   UNL A   1      32.185  23.568  24.412  1.00  0.00     0.032 A 
ATOM     15  C   UNL A   1      34.146  25.213  25.535  1.00  0.00     0.011 A 
ATOM     16  C   UNL A   1      33.463  23.045  24.727  1.00  0.00     0.058 A 
ATOM     17  C   UNL A   1      34.424  23.850  25.327  1.00  0.00     0.008 A 
ATOM     18  N   UNL A   1      34.020  21.764  24.529  1.00  0.00    -0.274 N 
ATOM     19  C   UNL A   1      35.589  23.066  25.520  1.00  0.00     0.009 A 
ATOM     20  C   UNL A   1      35.385  21.842  24.867  1.00  0.00     0.057 A 
ATOM     21  C   UNL A   1      36.849  23.377  26.079  1.00  0.00     0.031 A 
ATOM     22  C   UNL A   1      36.488  21.004  24.603  1.00  0.00     0.029 A 
ATOM     23  C   UNL A   1      37.919  22.517  25.860  1.00  0.00     0.041 A 
ATOM     24  C   UNL A   1      37.753  21.369  25.098  1.00  0.00     0.023 A 
ATOM     25  Cl  UNL A   1      39.473  22.927  26.478  1.00  0.00    -0.084 Cl
BRANCH  18  26
ATOM     26  C   UNL A   1      33.289  20.663  23.988  1.00  0.00     0.284 C 
ATOM     27  O   UNL A   1      32.572  20.919  23.022  1.00  0.00    -0.266 OA
BRANCH  26  28
ATOM     28  C   UNL A   1      33.275  19.286  24.468  1.00  0.00     0.167 A 
ATOM     29  C   UNL A   1      34.250  18.314  24.438  1.00  0.00     0.231 A 
ATOM     30  N   UNL A   1      32.224  18.823  25.256  1.00  0.00    -0.211 NA
ATOM     31  O   UNL A   1      33.834  17.260  25.204  1.00  0.00    -0.451 OA
ATOM     32  C   UNL A   1      32.625  17.654  25.684  1.00  0.00     0.308 A 
ENDBRANCH  26  28
ENDBRANCH  18  26
ENDBRANCH  10  12
ENDBRANCH   8  10
ENDBRANCH   7   8
ENDBRANCH   6   7
ENDBRANCH   5   6
ENDBRANCH   4   5
ENDBRANCH   3   4
ENDBRANCH   2   3
ENDBRANCH   1   2
BRANCH   1  33
ATOM     33  C   UNL A   1      34.514  31.194  27.625  1.00  0.00     0.188 C 
BRANCH  33  34
ATOM     34  C   UNL A   1      34.562  32.501  28.453  1.00  0.00     0.188 C 
BRANCH  34  35
ATOM     35  O   UNL A   1      34.262  33.687  27.734  1.00  0.00    -0.376 OA
BRANCH  35  36
ATOM     36  C   UNL A   1      33.695  34.776  28.446  1.00  0.00     0.202 C 
BRANCH  36  37
ATOM     37  C   UNL A   1      34.076  34.922  29.928  1.00  0.00     0.261 C 
BRANCH  37  38
ATOM     38  O   UNL A   1      33.217  35.747  30.730  1.00  0.00    -0.460 OA
BRANCH  38  39
ATOM     39  C   UNL A   1      32.896  35.304  31.964  1.00  0.00     0.338 C 
ATOM     40  O   UNL A   1      31.780  35.261  32.459  1.00  0.00    -0.246 OA
BRANCH  39  41
ATOM     41  C   UNL A   1      34.103  34.685  32.550  1.00  0.00     0.060 A 
ATOM     42  C   UNL A   1      35.235  35.478  32.779  1.00  0.00     0.016 A 
ATOM     43  C   UNL A   1      34.114  33.328  32.879  1.00  0.00     0.016 A 
ATOM     44  C   UNL A   1      36.396  34.908  33.301  1.00  0.00     0.010 A 
ATOM     45  C   UNL A   1      35.285  32.753  33.381  1.00  0.00     0.010 A 
ATOM     46  C   UNL A   1      36.442  33.533  33.560  1.00  0.00    -0.014 A 
BRANCH  46  47
ATOM     47  C   UNL A   1      37.750  32.874  33.809  1.00  0.00     0.031 A 
ATOM     48  C   UNL A   1      38.379  33.035  35.167  1.00  0.00     0.074 A 
ATOM     49  C   UNL A   1      38.354  32.127  32.867  1.00  0.00     0.049 A 
ATOM     50  N   UNL A   1      39.538  32.621  35.604  1.00  0.00    -0.248 NA
ATOM     51  C   UNL A   1      37.586  33.771  36.164  1.00  0.00     0.031 C 
ATOM     52  C   UNL A   1      37.818  31.848  31.537  1.00  0.00     0.029 A 
ATOM     53  N   UNL A   1      39.560  31.470  32.889  1.00  0.00    -0.354 N 
ATOM     54  C   UNL A   1      39.618  33.048  36.926  1.00  0.00     0.074 A 
ATOM     55  C   UNL A   1      38.406  33.791  37.201  1.00  0.00     0.031 C 
ATOM     56  C   UNL A   1      38.700  31.088  30.863  1.00  0.00     0.029 A 
ATOM     57  C   UNL A   1      39.881  30.864  31.695  1.00  0.00     0.049 A 
ATOM     58  H   UNL A   1      40.141  31.436  33.683  1.00  0.00     0.167 HD
ATOM     59  C   UNL A   1      40.605  32.833  37.829  1.00  0.00     0.034 A 
ATOM     60  C   UNL A   1      41.012  30.234  31.311  1.00  0.00     0.034 A 
ATOM     61  C   UNL A   1      41.814  32.105  37.532  1.00  0.00     0.049 A 
ATOM     62  C   UNL A   1      42.148  30.099  32.301  1.00  0.00     0.074 A 
ATOM     63  C   UNL A   1      42.880  31.828  38.370  1.00  0.00     0.029 A 
ATOM     64  N   UNL A   1      42.128  31.551  36.297  1.00  0.00    -0.354 N 
ATOM     65  N   UNL A   1      42.215  30.510  33.547  1.00  0.00    -0.248 NA
ATOM     66  C   UNL A   1      43.358  29.408  31.833  1.00  0.00     0.031 C 
ATOM     67  C   UNL A   1      43.869  31.182  37.622  1.00  0.00     0.029 A 
ATOM     68  C   UNL A   1      43.383  30.966  36.342  1.00  0.00     0.049 A 
ATOM     69  H   UNL A   1      41.542  31.570  35.505  1.00  0.00     0.167 HD
ATOM     70  C   UNL A   1      43.459  30.093  34.020  1.00  0.00     0.074 A 
ATOM     71  C   UNL A   1      44.101  29.389  32.930  1.00  0.00     0.031 C 
ATOM     72  C   UNL A   1      44.018  30.271  35.245  1.00  0.00     0.034 A 
BRANCH  59  73
ATOM     73  C   UNL A   1      40.437  33.442  39.200  1.00  0.00     0.023 A 
ATOM     74  C   UNL A   1      39.797  32.752  40.245  1.00  0.00     0.031 A 
ATOM     75  C   UNL A   1      40.897  34.745  39.459  1.00  0.00     0.131 A 
ATOM     76  C   UNL A   1      39.571  33.393  41.472  1.00  0.00     0.055 A 
ATOM     77  C   UNL A   1      40.747  35.345  40.710  1.00  0.00     0.041 A 
ATOM     78  F   UNL A   1      41.491  35.465  38.493  1.00  0.00    -0.206 F 
ATOM     79  C   UNL A   1      40.066  34.675  41.722  1.00  0.00     0.022 A 
BRANCH  76  80
ATOM     80  S   UNL A   1      38.487  32.588  42.684  1.00  0.00     0.124 S 
ATOM     81  O   UNL A   1      37.363  33.520  42.739  1.00  0.00    -0.237 OA
ATOM     82  O   UNL A   1      38.218  31.298  42.059  1.00  0.00    -0.237 OA
ATOM     83  O   UNL A   1      39.304  32.537  43.895  1.00  0.00    -0.744 OA
ENDBRANCH  76  80
ENDBRANCH  59  73
BRANCH  60  84
ATOM     84  C   UNL A   1      41.161  29.727  29.914  1.00  0.00     0.023 A 
ATOM     85  C   UNL A   1      40.664  28.470  29.535  1.00  0.00     0.031 A 
ATOM     86  C   UNL A   1      41.870  30.470  28.951  1.00  0.00     0.131 A 
ATOM     87  C   UNL A   1      40.926  27.972  28.248  1.00  0.00     0.055 A 
ATOM     88  C   UNL A   1      42.073  29.997  27.654  1.00  0.00     0.041 A 
ATOM     89  F   UNL A   1      42.377  31.674  29.260  1.00  0.00    -0.206 F 
ATOM     90  C   UNL A   1      41.612  28.733  27.301  1.00  0.00     0.022 A 
BRANCH  87  91
ATOM     91  S   UNL A   1      40.447  26.264  27.863  1.00  0.00     0.124 S 
ATOM     92  O   UNL A   1      39.019  26.285  28.154  1.00  0.00    -0.237 OA
ATOM     93  O   UNL A   1      40.813  26.158  26.454  1.00  0.00    -0.237 OA
ATOM     94  O   UNL A   1      41.261  25.468  28.778  1.00  0.00    -0.744 OA
ENDBRANCH  87  91
ENDBRANCH  60  84
BRANCH  72  95
ATOM     95  C   UNL A   1      45.370  29.641  35.491  1.00  0.00     0.023 A 
ATOM     96  C   UNL A   1      45.506  28.327  35.972  1.00  0.00     0.031 A 
ATOM     97  C   UNL A   1      46.545  30.374  35.240  1.00  0.00     0.131 A 
ATOM     98  C   UNL A   1      46.782  27.808  36.241  1.00  0.00     0.055 A 
ATOM     99  C   UNL A   1      47.813  29.828  35.441  1.00  0.00     0.041 A 
ATOM    100  F   UNL A   1      46.479  31.635  34.783  1.00  0.00    -0.206 F 
ATOM    101  C   UNL A   1      47.936  28.543  35.959  1.00  0.00     0.022 A 
BRANCH  98 102
ATOM    102  S   UNL A   1      46.914  26.197  37.065  1.00  0.00     0.124 S 
ATOM    103  O   UNL A   1      48.187  26.320  37.766  1.00  0.00    -0.237 OA
ATOM    104  O   UNL A   1      45.721  26.180  37.906  1.00  0.00    -0.237 OA
ATOM    105  O   UNL A   1      46.905  25.243  35.957  1.00  0.00    -0.744 OA
ENDBRANCH  98 102
ENDBRANCH  72  95
ENDBRANCH  46  47
ENDBRANCH  39  41
ENDBRANCH  38  39
ENDBRANCH  37  38
ENDBRANCH  36  37
ENDBRANCH  35  36
ENDBRANCH  34  35
ENDBRANCH  33  34
ENDBRANCH   1  33
TORSDOF 26
ENDMDL
MODEL 3
REMARK VINA RESULT:      -9.9      1.283      7.107
REMARK SMILES C[C@@H](C(=O)OCCOCCOCCOCCOC(=O)c1ccc(-c2c3nc(c(-c4cc(S(=O)(=O)[O-])ccc4F)c4ccc([nH]4)c(-c4cc(S(=O)(=O)[O-])ccc4F)c4nc(c(-c5cc(S(=O)(=O)[O-])ccc5F)c5ccc2[nH]5)C=C4)C=C3)cc1)c1ccc2c3cc(Cl)ccc3n(C(=O)c3cocn3)c2c1
REMARK SMILES IDX 11 1 10 2 9 3 8 4 7 5 6 6 5 7 3 8 4 9 2 10 1 11 83 12 84 13
REMARK SMILES IDX 103 14 85 15 102 16 86 17 94 18 87 19 93 20 88 21 92 22
REMARK SMILES IDX 89 23 91 24 90 25 95 26 96 27 97 28 98 29 101 30 99 31
REMARK SMILES IDX 100 32 12 33 13 34 14 35 15 36 16 37 17 38 18 39 19 40 20 41
REMARK SMILES IDX 21 42 82 43 22 44 81 45 23 46 24 47 25 48 75 49 26 50 80 51
REMARK SMILES IDX 74 52 76 53 27 54 79 55 73 56 72 57 28 59 60 60 40 61 59 62
REMARK SMILES IDX 41 63 44 64 58 65 77 66 42 67 43 68 57 70 78 71 45 72 29 73
REMARK SMILES IDX 30 74 38 75 31 76 37 77 39 78 36 79 32 80 33 81 34 82 35 83
REMARK SMILES IDX 61 84 62 85 70 86 63 87 69 88 71 89 68 90 64 91 65 92 66 93
REMARK SMILES IDX 67 94 46 95 47 96 55 97 48 98 54 99 56 100 53 101 49 102
REMARK SMILES IDX 50 103 51 104 52 105
REMARK H PARENT 76 58 44 69
REMARK Flexibility Score: inf
ROOT
ATOM      1  O   UNL A   1      33.301  29.119  26.191  1.00  0.00    -0.377 OA
ENDROOT
BRANCH   1   2
ATOM      2  C   UNL A   1      32.663  29.461  24.975  1.00  0.00     0.188 C 
BRANCH   2   3
ATOM      3  C   UNL A   1      31.313  30.181  25.109  1.00  0.00     0.188 C 
BRANCH   3   4
ATOM      4  O   UNL A   1      30.279  29.702  24.278  1.00  0.00    -0.376 OA
BRANCH   4   5
ATOM      5  C   UNL A   1      30.544  29.320  22.936  1.00  0.00     0.202 C 
BRANCH   5   6
ATOM      6  C   UNL A   1      30.494  27.878  22.381  1.00  0.00     0.261 C 
BRANCH   6   7
ATOM      7  O   UNL A   1      31.609  27.036  22.678  1.00  0.00    -0.463 OA
BRANCH   7   8
ATOM      8  C   UNL A   1      31.496  26.138  23.684  1.00  0.00     0.313 C 
ATOM      9  O   UNL A   1      31.153  26.418  24.829  1.00  0.00    -0.252 OA
BRANCH   8  10
ATOM     10  C   UNL A   1      31.707  24.700  23.202  1.00  0.00     0.126 C 
ATOM     11  C   UNL A   1      30.435  23.837  23.345  1.00  0.00     0.025 C 
BRANCH  10  12
ATOM     12  C   UNL A   1      32.991  24.047  23.742  1.00  0.00    -0.032 A 
ATOM     13  C   UNL A   1      34.210  24.730  23.793  1.00  0.00     0.005 A 
ATOM     14  C   UNL A   1      32.980  22.697  24.128  1.00  0.00     0.032 A 
ATOM     15  C   UNL A   1      35.366  24.140  24.315  1.00  0.00     0.011 A 
ATOM     16  C   UNL A   1      34.175  22.054  24.532  1.00  0.00     0.058 A 
ATOM     17  C   UNL A   1      35.353  22.779  24.669  1.00  0.00     0.008 A 
ATOM     18  N   UNL A   1      34.449  20.705  24.841  1.00  0.00    -0.274 N 
ATOM     19  C   UNL A   1      36.371  21.883  25.079  1.00  0.00     0.009 A 
ATOM     20  C   UNL A   1      35.842  20.586  25.010  1.00  0.00     0.057 A 
ATOM     21  C   UNL A   1      37.741  22.082  25.361  1.00  0.00     0.031 A 
ATOM     22  C   UNL A   1      36.715  19.478  25.033  1.00  0.00     0.029 A 
ATOM     23  C   UNL A   1      38.586  20.980  25.437  1.00  0.00     0.041 A 
ATOM     24  C   UNL A   1      38.089  19.700  25.233  1.00  0.00     0.023 A 
ATOM     25  Cl  UNL A   1      40.268  21.222  25.707  1.00  0.00    -0.084 Cl
BRANCH  18  26
ATOM     26  C   UNL A   1      33.450  19.685  24.863  1.00  0.00     0.284 C 
ATOM     27  O   UNL A   1      32.543  19.839  25.678  1.00  0.00    -0.266 OA
BRANCH  26  28
ATOM     28  C   UNL A   1      33.403  18.472  24.052  1.00  0.00     0.167 A 
ATOM     29  C   UNL A   1      32.900  18.256  22.788  1.00  0.00     0.231 A 
ATOM     30  N   UNL A   1      34.103  17.334  24.443  1.00  0.00    -0.211 NA
ATOM     31  O   UNL A   1      33.286  17.009  22.378  1.00  0.00    -0.451 OA
ATOM     32  C   UNL A   1      34.028  16.532  23.412  1.00  0.00     0.308 A 
ENDBRANCH  26  28
ENDBRANCH  18  26
ENDBRANCH  10  12
ENDBRANCH   8  10
ENDBRANCH   7   8
ENDBRANCH   6   7
ENDBRANCH   5   6
ENDBRANCH   4   5
ENDBRANCH   3   4
ENDBRANCH   2   3
ENDBRANCH   1   2
BRANCH   1  33
ATOM     33  C   UNL A   1      33.131  29.968  27.325  1.00  0.00     0.188 C 
BRANCH  33  34
ATOM     34  C   UNL A   1      33.493  31.473  27.289  1.00  0.00     0.188 C 
BRANCH  34  35
ATOM     35  O   UNL A   1      34.468  31.886  28.233  1.00  0.00    -0.376 OA
BRANCH  35  36
ATOM     36  C   UNL A   1      35.141  33.115  28.004  1.00  0.00     0.202 C 
BRANCH  36  37
ATOM     37  C   UNL A   1      34.714  34.320  28.856  1.00  0.00     0.261 C 
BRANCH  37  38
ATOM     38  O   UNL A   1      33.561  34.134  29.692  1.00  0.00    -0.460 OA
BRANCH  38  39
ATOM     39  C   UNL A   1      33.597  34.659  30.935  1.00  0.00     0.338 C 
ATOM     40  O   UNL A   1      32.729  35.331  31.470  1.00  0.00    -0.246 OA
BRANCH  39  41
ATOM     41  C   UNL A   1      34.784  34.109  31.624  1.00  0.00     0.060 A 
ATOM     42  C   UNL A   1      35.940  34.894  31.720  1.00  0.00     0.016 A 
ATOM     43  C   UNL A   1      34.750  32.828  32.178  1.00  0.00     0.016 A 
ATOM     44  C   UNL A   1      37.082  34.384  32.337  1.00  0.00     0.010 A 
ATOM     45  C   UNL A   1      35.902  32.310  32.776  1.00  0.00     0.010 A 
ATOM     46  C   UNL A   1      37.084  33.071  32.827  1.00  0.00    -0.014 A 
BRANCH  46  47
ATOM     47  C   UNL A   1      38.370  32.423  33.189  1.00  0.00     0.031 A 
ATOM     48  C   UNL A   1      38.987  31.470  32.200  1.00  0.00     0.074 A 
ATOM     49  C   UNL A   1      38.994  32.691  34.351  1.00  0.00     0.049 A 
ATOM     50  N   UNL A   1      40.059  30.732  32.311  1.00  0.00    -0.248 NA
ATOM     51  C   UNL A   1      38.291  31.333  30.911  1.00  0.00     0.031 C 
ATOM     52  C   UNL A   1      38.527  33.638  35.361  1.00  0.00     0.029 A 
ATOM     53  N   UNL A   1      40.155  32.182  34.878  1.00  0.00    -0.354 N 
ATOM     54  C   UNL A   1      40.166  30.038  31.110  1.00  0.00     0.074 A 
ATOM     55  C   UNL A   1      39.023  30.414  30.305  1.00  0.00     0.031 C 
ATOM     56  C   UNL A   1      39.387  33.630  36.395  1.00  0.00     0.029 A 
ATOM     57  C   UNL A   1      40.440  32.648  36.141  1.00  0.00     0.049 A 
ATOM     58  H   UNL A   1      40.730  31.543  34.397  1.00  0.00     0.167 HD
ATOM     59  C   UNL A   1      41.131  29.174  30.712  1.00  0.00     0.034 A 
ATOM     60  C   UNL A   1      41.417  32.294  37.003  1.00  0.00     0.034 A 
ATOM     61  C   UNL A   1      42.253  28.797  31.534  1.00  0.00     0.049 A 
ATOM     62  C   UNL A   1      42.425  31.247  36.580  1.00  0.00     0.074 A 
ATOM     63  C   UNL A   1      43.290  27.930  31.232  1.00  0.00     0.029 A 
ATOM     64  N   UNL A   1      42.482  29.249  32.828  1.00  0.00    -0.354 N 
ATOM     65  N   UNL A   1      42.513  30.595  35.444  1.00  0.00    -0.248 NA
ATOM     66  C   UNL A   1      43.465  30.896  37.556  1.00  0.00     0.031 C 
ATOM     67  C   UNL A   1      44.094  27.796  32.368  1.00  0.00     0.029 A 
ATOM     68  C   UNL A   1      43.619  28.652  33.348  1.00  0.00     0.049 A 
ATOM     69  H   UNL A   1      41.917  29.899  33.306  1.00  0.00     0.167 HD
ATOM     70  C   UNL A   1      43.643  29.784  35.557  1.00  0.00     0.074 A 
ATOM     71  C   UNL A   1      44.206  30.040  36.866  1.00  0.00     0.031 C 
ATOM     72  C   UNL A   1      44.170  28.911  34.660  1.00  0.00     0.034 A 
BRANCH  59  73
ATOM     73  C   UNL A   1      40.978  28.541  29.349  1.00  0.00     0.023 A 
ATOM     74  C   UNL A   1      40.329  27.306  29.175  1.00  0.00     0.031 A 
ATOM     75  C   UNL A   1      41.515  29.168  28.211  1.00  0.00     0.131 A 
ATOM     76  C   UNL A   1      40.298  26.705  27.908  1.00  0.00     0.055 A 
ATOM     77  C   UNL A   1      41.404  28.606  26.939  1.00  0.00     0.041 A 
ATOM     78  F   UNL A   1      42.171  30.335  28.319  1.00  0.00    -0.206 F 
ATOM     79  C   UNL A   1      40.806  27.359  26.783  1.00  0.00     0.022 A 
BRANCH  76  80
ATOM     80  S   UNL A   1      39.722  24.989  27.776  1.00  0.00     0.124 S 
ATOM     81  O   UNL A   1      38.892  24.864  28.971  1.00  0.00    -0.237 OA
ATOM     82  O   UNL A   1      39.013  24.991  26.502  1.00  0.00    -0.237 OA
ATOM     83  O   UNL A   1      40.959  24.210  27.801  1.00  0.00    -0.744 OA
ENDBRANCH  76  80
ENDBRANCH  59  73
BRANCH  60  84
ATOM     84  C   UNL A   1      41.471  32.887  38.374  1.00  0.00     0.023 A 
ATOM     85  C   UNL A   1      40.621  32.440  39.397  1.00  0.00     0.031 A 
ATOM     86  C   UNL A   1      42.331  33.963  38.658  1.00  0.00     0.131 A 
ATOM     87  C   UNL A   1      40.612  33.098  40.638  1.00  0.00     0.055 A 
ATOM     88  C   UNL A   1      42.365  34.573  39.913  1.00  0.00     0.041 A 
ATOM     89  F   UNL A   1      43.159  34.440  37.714  1.00  0.00    -0.206 F 
ATOM     90  C   UNL A   1      41.490  34.150  40.908  1.00  0.00     0.022 A 
BRANCH  87  91
ATOM     91  S   UNL A   1      39.360  32.627  41.864  1.00  0.00     0.124 S 
ATOM     92  O   UNL A   1      40.065  32.874  43.116  1.00  0.00    -0.237 OA
ATOM     93  O   UNL A   1      38.270  33.545  41.550  1.00  0.00    -0.237 OA
ATOM     94  O   UNL A   1      39.097  31.223  41.560  1.00  0.00    -0.744 OA
ENDBRANCH  87  91
ENDBRANCH  60  84
BRANCH  72  95
ATOM     95  C   UNL A   1      45.455  28.212  35.040  1.00  0.00     0.023 A 
ATOM     96  C   UNL A   1      45.470  27.072  35.863  1.00  0.00     0.031 A 
ATOM     97  C   UNL A   1      46.689  28.701  34.571  1.00  0.00     0.131 A 
ATOM     98  C   UNL A   1      46.693  26.494  36.237  1.00  0.00     0.055 A 
ATOM     99  C   UNL A   1      47.897  28.079  34.887  1.00  0.00     0.041 A 
ATOM    100  F   UNL A   1      46.739  29.788  33.785  1.00  0.00    -0.206 F 
ATOM    101  C   UNL A   1      47.905  26.978  35.737  1.00  0.00     0.022 A 
BRANCH  98 102
ATOM    102  S   UNL A   1      46.689  25.165  37.471  1.00  0.00     0.124 S 
ATOM    103  O   UNL A   1      46.492  23.982  36.640  1.00  0.00    -0.237 OA
ATOM    104  O   UNL A   1      48.008  25.303  38.081  1.00  0.00    -0.237 OA
ATOM    105  O   UNL A   1      45.565  25.506  38.340  1.00  0.00    -0.744 OA
ENDBRANCH  98 102
ENDBRANCH  72  95
ENDBRANCH  46  47
ENDBRANCH  39  41
ENDBRANCH  38  39
ENDBRANCH  37  38
ENDBRANCH  36  37
ENDBRANCH  35  36
ENDBRANCH  34  35
ENDBRANCH  33  34
ENDBRANCH   1  33
TORSDOF 26
ENDMDL
