MODEL 1
REMARK VINA RESULT:     -10.3      0.000      0.000
REMARK SMILES O=C(OCCOCCOCCOCCOC(=O)c1ccn(-c2cc(-c3ccncc3)nc(-c3ccccc3F)n2)n1)c1ccc(-c2c3nc(c(-c4cc(S(=O)(=O)[O-])ccc4F)c4ccc([nH]4)c(-c4cc(S(=O)(=O)[O-])ccc4F)c4nc(c(-c5cc(S(=O)(=O)[O-])ccc5F)c5ccc2[nH]5)C=C4)C=C3)cc1
REMARK SMILES IDX 8 1 7 2 6 3 5 4 4 5 3 6 2 7 1 8 42 9 43 10 104 11 44 12
REMARK SMILES IDX 103 13 45 14 46 15 47 16 97 17 48 18 102 19 96 20 98 21
REMARK SMILES IDX 49 22 101 23 95 24 94 25 50 27 82 28 62 29 81 30 63 31 66 32
REMARK SMILES IDX 80 33 99 34 64 35 65 36 79 38 100 39 67 40 51 41 52 42 60 43
REMARK SMILES IDX 53 44 59 45 61 46 58 47 54 48 55 49 56 50 57 51 83 52 84 53
REMARK SMILES IDX 92 54 85 55 91 56 93 57 90 58 86 59 87 60 88 61 89 62 68 63
REMARK SMILES IDX 69 64 77 65 70 66 76 67 78 68 75 69 71 70 72 71 73 72 74 73
REMARK SMILES IDX 9 74 10 75 11 76 12 77 13 78 14 79 15 80 16 81 17 82 18 83
REMARK SMILES IDX 19 84 41 85 20 86 21 87 22 88 23 89 40 90 24 91 32 92 31 93
REMARK SMILES IDX 25 94 26 95 30 96 27 97 29 98 28 99 33 100 34 101 38 102
REMARK SMILES IDX 35 103 37 104 39 105 36 106
REMARK H PARENT 98 26 66 37
REMARK Flexibility Score: inf
ROOT
ATOM      1  C   UNL A   1      34.955  31.142  27.632  1.00  0.00     0.188 C 
ENDROOT
BRANCH   1   2
ATOM      2  C   UNL A   1      34.751  32.619  28.018  1.00  0.00     0.188 C 
BRANCH   2   3
ATOM      3  O   UNL A   1      35.097  33.131  29.290  1.00  0.00    -0.376 OA
BRANCH   3   4
ATOM      4  C   UNL A   1      36.327  33.048  29.979  1.00  0.00     0.202 C 
BRANCH   4   5
ATOM      5  C   UNL A   1      36.656  33.627  31.355  1.00  0.00     0.261 C 
BRANCH   5   6
ATOM      6  O   UNL A   1      36.948  32.704  32.389  1.00  0.00    -0.460 OA
BRANCH   6   7
ATOM      7  C   UNL A   1      38.112  32.456  33.020  1.00  0.00     0.338 C 
ATOM      8  O   UNL A   1      38.581  33.361  33.713  1.00  0.00    -0.246 OA
BRANCH   7   9
ATOM      9  C   UNL A   1      38.934  31.226  32.837  1.00  0.00     0.060 A 
ATOM     10  C   UNL A   1      39.484  30.429  33.840  1.00  0.00     0.016 A 
ATOM     11  C   UNL A   1      39.189  30.887  31.492  1.00  0.00     0.016 A 
ATOM     12  C   UNL A   1      40.418  29.456  33.517  1.00  0.00     0.010 A 
ATOM     13  C   UNL A   1      40.098  29.897  31.163  1.00  0.00     0.010 A 
ATOM     14  C   UNL A   1      40.776  29.252  32.185  1.00  0.00    -0.014 A 
BRANCH  14  15
ATOM     15  C   UNL A   1      41.877  28.343  31.915  1.00  0.00     0.031 A 
ATOM     16  C   UNL A   1      42.676  27.952  33.100  1.00  0.00     0.074 A 
ATOM     17  C   UNL A   1      42.167  27.900  30.675  1.00  0.00     0.049 A 
ATOM     18  N   UNL A   1      43.886  28.310  33.375  1.00  0.00    -0.248 NA
ATOM     19  C   UNL A   1      42.014  27.199  34.173  1.00  0.00     0.031 C 
ATOM     20  C   UNL A   1      41.395  28.059  29.440  1.00  0.00     0.029 A 
ATOM     21  N   UNL A   1      43.221  27.136  30.278  1.00  0.00    -0.354 N 
ATOM     22  C   UNL A   1      44.224  27.657  34.555  1.00  0.00     0.074 A 
ATOM     23  C   UNL A   1      42.995  27.110  35.073  1.00  0.00     0.031 C 
ATOM     24  C   UNL A   1      41.894  27.237  28.489  1.00  0.00     0.029 A 
ATOM     25  C   UNL A   1      43.102  26.609  28.998  1.00  0.00     0.049 A 
ATOM     26  H   UNL A   1      44.005  26.972  30.851  1.00  0.00     0.167 HD
ATOM     27  C   UNL A   1      45.524  27.457  34.905  1.00  0.00     0.034 A 
ATOM     28  C   UNL A   1      43.930  25.706  28.407  1.00  0.00     0.034 A 
ATOM     29  C   UNL A   1      46.407  28.344  34.187  1.00  0.00     0.049 A 
ATOM     30  C   UNL A   1      45.252  25.865  29.060  1.00  0.00     0.074 A 
ATOM     31  C   UNL A   1      46.551  29.718  34.118  1.00  0.00     0.029 A 
ATOM     32  N   UNL A   1      47.074  27.853  33.089  1.00  0.00    -0.354 N 
ATOM     33  N   UNL A   1      45.970  26.949  28.957  1.00  0.00    -0.248 NA
ATOM     34  C   UNL A   1      45.557  25.027  30.209  1.00  0.00     0.031 C 
ATOM     35  C   UNL A   1      46.832  29.989  32.745  1.00  0.00     0.029 A 
ATOM     36  C   UNL A   1      46.914  28.768  32.074  1.00  0.00     0.049 A 
ATOM     37  H   UNL A   1      47.573  27.006  33.039  1.00  0.00     0.167 HD
ATOM     38  C   UNL A   1      46.484  27.159  30.225  1.00  0.00     0.074 A 
ATOM     39  C   UNL A   1      46.275  25.894  30.931  1.00  0.00     0.031 C 
ATOM     40  C   UNL A   1      46.784  28.415  30.672  1.00  0.00     0.034 A 
BRANCH  27  41
ATOM     41  C   UNL A   1      46.025  26.248  35.655  1.00  0.00     0.023 A 
ATOM     42  C   UNL A   1      46.020  25.004  34.995  1.00  0.00     0.031 A 
ATOM     43  C   UNL A   1      46.233  26.209  37.052  1.00  0.00     0.131 A 
ATOM     44  C   UNL A   1      46.150  23.805  35.719  1.00  0.00     0.055 A 
ATOM     45  C   UNL A   1      46.418  25.019  37.759  1.00  0.00     0.041 A 
ATOM     46  F   UNL A   1      46.171  27.304  37.819  1.00  0.00    -0.206 F 
ATOM     47  C   UNL A   1      46.351  23.805  37.097  1.00  0.00     0.022 A 
BRANCH  44  48
ATOM     48  S   UNL A   1      45.906  22.233  34.850  1.00  0.00     0.124 S 
ATOM     49  O   UNL A   1      47.114  21.500  35.216  1.00  0.00    -0.237 OA
ATOM     50  O   UNL A   1      44.660  21.754  35.437  1.00  0.00    -0.237 OA
ATOM     51  O   UNL A   1      45.819  22.630  33.447  1.00  0.00    -0.744 OA
ENDBRANCH  44  48
ENDBRANCH  27  41
BRANCH  28  52
ATOM     52  C   UNL A   1      43.543  24.501  27.621  1.00  0.00     0.023 A 
ATOM     53  C   UNL A   1      44.310  24.042  26.527  1.00  0.00     0.031 A 
ATOM     54  C   UNL A   1      42.553  23.619  28.110  1.00  0.00     0.131 A 
ATOM     55  C   UNL A   1      44.086  22.754  25.985  1.00  0.00     0.055 A 
ATOM     56  C   UNL A   1      42.335  22.350  27.569  1.00  0.00     0.041 A 
ATOM     57  F   UNL A   1      41.820  23.923  29.193  1.00  0.00    -0.206 F 
ATOM     58  C   UNL A   1      43.112  21.905  26.513  1.00  0.00     0.022 A 
BRANCH  55  59
ATOM     59  S   UNL A   1      45.155  22.106  24.657  1.00  0.00     0.124 S 
ATOM     60  O   UNL A   1      45.187  23.222  23.719  1.00  0.00    -0.237 OA
ATOM     61  O   UNL A   1      46.398  21.814  25.360  1.00  0.00    -0.237 OA
ATOM     62  O   UNL A   1      44.428  20.926  24.186  1.00  0.00    -0.744 OA
ENDBRANCH  55  59
ENDBRANCH  28  52
BRANCH  40  63
ATOM     63  C   UNL A   1      46.785  29.550  29.665  1.00  0.00     0.023 A 
ATOM     64  C   UNL A   1      45.626  30.109  29.074  1.00  0.00     0.031 A 
ATOM     65  C   UNL A   1      48.018  30.159  29.378  1.00  0.00     0.131 A 
ATOM     66  C   UNL A   1      45.737  31.226  28.219  1.00  0.00     0.055 A 
ATOM     67  C   UNL A   1      48.121  31.275  28.547  1.00  0.00     0.041 A 
ATOM     68  F   UNL A   1      49.151  29.697  29.932  1.00  0.00    -0.206 F 
ATOM     69  C   UNL A   1      46.981  31.809  27.958  1.00  0.00     0.022 A 
BRANCH  66  70
ATOM     70  S   UNL A   1      44.257  31.948  27.435  1.00  0.00     0.124 S 
ATOM     71  O   UNL A   1      43.343  32.147  28.553  1.00  0.00    -0.237 OA
ATOM     72  O   UNL A   1      44.784  33.160  26.813  1.00  0.00    -0.237 OA
ATOM     73  O   UNL A   1      43.836  30.916  26.483  1.00  0.00    -0.744 OA
ENDBRANCH  66  70
ENDBRANCH  40  63
ENDBRANCH  14  15
ENDBRANCH   7   9
ENDBRANCH   6   7
ENDBRANCH   5   6
ENDBRANCH   4   5
ENDBRANCH   3   4
ENDBRANCH   2   3
ENDBRANCH   1   2
BRANCH   1  74
ATOM     74  O   UNL A   1      33.860  30.270  27.857  1.00  0.00    -0.377 OA
BRANCH  74  75
ATOM     75  C   UNL A   1      32.937  30.227  26.789  1.00  0.00     0.188 C 
BRANCH  75  76
ATOM     76  C   UNL A   1      33.358  29.314  25.616  1.00  0.00     0.188 C 
BRANCH  76  77
ATOM     77  O   UNL A   1      32.744  29.394  24.334  1.00  0.00    -0.376 OA
BRANCH  77  78
ATOM     78  C   UNL A   1      31.655  28.558  23.986  1.00  0.00     0.202 C 
BRANCH  78  79
ATOM     79  C   UNL A   1      30.871  27.834  25.089  1.00  0.00     0.261 C 
BRANCH  79  80
ATOM     80  O   UNL A   1      29.932  26.850  24.636  1.00  0.00    -0.458 OA
BRANCH  80  81
ATOM     81  C   UNL A   1      29.895  25.683  25.347  1.00  0.00     0.358 C 
ATOM     82  O   UNL A   1      29.298  25.520  26.397  1.00  0.00    -0.244 OA
BRANCH  81  83
ATOM     83  C   UNL A   1      30.654  24.614  24.676  1.00  0.00     0.170 A 
ATOM     84  C   UNL A   1      30.735  24.386  23.282  1.00  0.00     0.058 A 
ATOM     85  N   UNL A   1      31.377  23.697  25.359  1.00  0.00    -0.159 NA
ATOM     86  C   UNL A   1      31.664  23.385  23.138  1.00  0.00     0.118 A 
ATOM     87  N   UNL A   1      32.012  22.983  24.405  1.00  0.00    -0.222 N 
BRANCH  87  88
ATOM     88  C   UNL A   1      33.013  22.031  24.722  1.00  0.00     0.158 A 
ATOM     89  C   UNL A   1      32.679  20.690  24.777  1.00  0.00     0.078 A 
ATOM     90  N   UNL A   1      34.268  22.501  24.880  1.00  0.00    -0.209 NA
ATOM     91  C   UNL A   1      33.740  19.823  24.972  1.00  0.00     0.077 A 
ATOM     92  C   UNL A   1      35.202  21.585  25.168  1.00  0.00     0.165 A 
ATOM     93  N   UNL A   1      34.994  20.261  25.213  1.00  0.00    -0.228 NA
BRANCH  91  94
ATOM     94  C   UNL A   1      33.627  18.361  24.862  1.00  0.00     0.003 A 
ATOM     95  C   UNL A   1      32.709  17.639  25.637  1.00  0.00     0.030 A 
ATOM     96  C   UNL A   1      34.365  17.654  23.905  1.00  0.00     0.030 A 
ATOM     97  C   UNL A   1      32.572  16.276  25.423  1.00  0.00     0.111 A 
ATOM     98  C   UNL A   1      34.166  16.289  23.772  1.00  0.00     0.111 A 
ATOM     99  N   UNL A   1      33.283  15.586  24.508  1.00  0.00    -0.265 NA
ENDBRANCH  91  94
BRANCH  92 100
ATOM    100  C   UNL A   1      36.514  22.079  25.548  1.00  0.00     0.055 A 
ATOM    101  C   UNL A   1      36.676  23.392  26.031  1.00  0.00     0.015 A 
ATOM    102  C   UNL A   1      37.650  21.274  25.439  1.00  0.00     0.134 A 
ATOM    103  C   UNL A   1      37.937  23.872  26.396  1.00  0.00     0.001 A 
ATOM    104  C   UNL A   1      38.912  21.749  25.795  1.00  0.00     0.040 A 
ATOM    105  F   UNL A   1      37.553  20.025  24.959  1.00  0.00    -0.206 F 
ATOM    106  C   UNL A   1      39.056  23.049  26.275  1.00  0.00     0.003 A 
ENDBRANCH  92 100
ENDBRANCH  87  88
ENDBRANCH  81  83
ENDBRANCH  80  81
ENDBRANCH  79  80
ENDBRANCH  78  79
ENDBRANCH  77  78
ENDBRANCH  76  77
ENDBRANCH  75  76
ENDBRANCH  74  75
ENDBRANCH   1  74
TORSDOF 26
ENDMDL
MODEL 2
REMARK VINA RESULT:      -9.5      5.615      9.194
REMARK SMILES O=C(OCCOCCOCCOCCOC(=O)c1ccn(-c2cc(-c3ccncc3)nc(-c3ccccc3F)n2)n1)c1ccc(-c2c3nc(c(-c4cc(S(=O)(=O)[O-])ccc4F)c4ccc([nH]4)c(-c4cc(S(=O)(=O)[O-])ccc4F)c4nc(c(-c5cc(S(=O)(=O)[O-])ccc5F)c5ccc2[nH]5)C=C4)C=C3)cc1
REMARK SMILES IDX 8 1 7 2 6 3 5 4 4 5 3 6 2 7 1 8 42 9 43 10 104 11 44 12
REMARK SMILES IDX 103 13 45 14 46 15 47 16 97 17 48 18 102 19 96 20 98 21
REMARK SMILES IDX 49 22 101 23 95 24 94 25 50 27 82 28 62 29 81 30 63 31 66 32
REMARK SMILES IDX 80 33 99 34 64 35 65 36 79 38 100 39 67 40 51 41 52 42 60 43
REMARK SMILES IDX 53 44 59 45 61 46 58 47 54 48 55 49 56 50 57 51 83 52 84 53
REMARK SMILES IDX 92 54 85 55 91 56 93 57 90 58 86 59 87 60 88 61 89 62 68 63
REMARK SMILES IDX 69 64 77 65 70 66 76 67 78 68 75 69 71 70 72 71 73 72 74 73
REMARK SMILES IDX 9 74 10 75 11 76 12 77 13 78 14 79 15 80 16 81 17 82 18 83
REMARK SMILES IDX 19 84 41 85 20 86 21 87 22 88 23 89 40 90 24 91 32 92 31 93
REMARK SMILES IDX 25 94 26 95 30 96 27 97 29 98 28 99 33 100 34 101 38 102
REMARK SMILES IDX 35 103 37 104 39 105 36 106
REMARK H PARENT 98 26 66 37
REMARK Flexibility Score: inf
ROOT
ATOM      1  C   UNL A   1      39.123  28.391  28.336  1.00  0.00     0.188 C 
ENDROOT
BRANCH   1   2
ATOM      2  C   UNL A   1      40.513  28.011  27.793  1.00  0.00     0.188 C 
BRANCH   2   3
ATOM      3  O   UNL A   1      40.708  26.972  26.853  1.00  0.00    -0.376 OA
BRANCH   3   4
ATOM      4  C   UNL A   1      41.726  26.825  25.885  1.00  0.00     0.202 C 
BRANCH   4   5
ATOM      5  C   UNL A   1      42.313  25.518  25.352  1.00  0.00     0.261 C 
BRANCH   5   6
ATOM      6  O   UNL A   1      42.406  24.437  26.262  1.00  0.00    -0.460 OA
BRANCH   6   7
ATOM      7  C   UNL A   1      43.125  24.324  27.396  1.00  0.00     0.338 C 
ATOM      8  O   UNL A   1      42.540  23.899  28.394  1.00  0.00    -0.246 OA
BRANCH   7   9
ATOM      9  C   UNL A   1      44.528  24.799  27.565  1.00  0.00     0.060 A 
ATOM     10  C   UNL A   1      44.948  25.954  28.224  1.00  0.00     0.016 A 
ATOM     11  C   UNL A   1      45.500  23.985  26.948  1.00  0.00     0.016 A 
ATOM     12  C   UNL A   1      46.259  26.385  28.096  1.00  0.00     0.010 A 
ATOM     13  C   UNL A   1      46.817  24.397  26.843  1.00  0.00     0.010 A 
ATOM     14  C   UNL A   1      47.164  25.642  27.340  1.00  0.00    -0.014 A 
BRANCH  14  15
ATOM     15  C   UNL A   1      48.475  26.222  27.097  1.00  0.00     0.031 A 
ATOM     16  C   UNL A   1      49.446  26.069  28.206  1.00  0.00     0.074 A 
ATOM     17  C   UNL A   1      48.783  26.868  25.954  1.00  0.00     0.049 A 
ATOM     18  N   UNL A   1      49.892  26.998  28.983  1.00  0.00    -0.248 NA
ATOM     19  C   UNL A   1      49.861  24.714  28.590  1.00  0.00     0.031 C 
ATOM     20  C   UNL A   1      48.006  26.968  24.717  1.00  0.00     0.029 A 
ATOM     21  N   UNL A   1      49.928  27.537  25.648  1.00  0.00    -0.354 N 
ATOM     22  C   UNL A   1      50.811  26.388  29.827  1.00  0.00     0.074 A 
ATOM     23  C   UNL A   1      50.644  24.969  29.640  1.00  0.00     0.031 C 
ATOM     24  C   UNL A   1      48.788  27.468  23.733  1.00  0.00     0.029 A 
ATOM     25  C   UNL A   1      50.066  27.859  24.303  1.00  0.00     0.049 A 
ATOM     26  H   UNL A   1      50.604  27.774  26.324  1.00  0.00     0.167 HD
ATOM     27  C   UNL A   1      51.770  27.111  30.469  1.00  0.00     0.034 A 
ATOM     28  C   UNL A   1      51.162  28.394  23.700  1.00  0.00     0.034 A 
ATOM     29  C   UNL A   1      51.433  28.514  30.514  1.00  0.00     0.049 A 
ATOM     30  C   UNL A   1      51.896  29.136  24.755  1.00  0.00     0.074 A 
ATOM     31  C   UNL A   1      50.397  29.242  31.067  1.00  0.00     0.029 A 
ATOM     32  N   UNL A   1      52.019  29.355  29.596  1.00  0.00    -0.354 N 
ATOM     33  N   UNL A   1      51.412  30.192  25.349  1.00  0.00    -0.248 NA
ATOM     34  C   UNL A   1      52.941  28.437  25.486  1.00  0.00     0.031 C 
ATOM     35  C   UNL A   1      50.103  30.253  30.104  1.00  0.00     0.029 A 
ATOM     36  C   UNL A   1      51.017  30.129  29.057  1.00  0.00     0.049 A 
ATOM     37  H   UNL A   1      52.976  29.395  29.368  1.00  0.00     0.167 HD
ATOM     38  C   UNL A   1      51.752  30.038  26.682  1.00  0.00     0.074 A 
ATOM     39  C   UNL A   1      52.774  28.990  26.692  1.00  0.00     0.031 C 
ATOM     40  C   UNL A   1      50.988  30.578  27.678  1.00  0.00     0.034 A 
BRANCH  27  41
ATOM     41  C   UNL A   1      53.156  26.601  30.773  1.00  0.00     0.023 A 
ATOM     42  C   UNL A   1      54.088  26.531  29.719  1.00  0.00     0.031 A 
ATOM     43  C   UNL A   1      53.513  25.926  31.962  1.00  0.00     0.131 A 
ATOM     44  C   UNL A   1      55.263  25.769  29.847  1.00  0.00     0.055 A 
ATOM     45  C   UNL A   1      54.708  25.218  32.104  1.00  0.00     0.041 A 
ATOM     46  F   UNL A   1      52.685  25.831  33.011  1.00  0.00    -0.206 F 
ATOM     47  C   UNL A   1      55.580  25.113  31.035  1.00  0.00     0.022 A 
BRANCH  44  48
ATOM     48  S   UNL A   1      56.308  25.528  28.386  1.00  0.00     0.124 S 
ATOM     49  O   UNL A   1      56.284  24.077  28.239  1.00  0.00    -0.237 OA
ATOM     50  O   UNL A   1      55.587  26.289  27.371  1.00  0.00    -0.237 OA
ATOM     51  O   UNL A   1      57.593  26.092  28.789  1.00  0.00    -0.744 OA
ENDBRANCH  44  48
ENDBRANCH  27  41
BRANCH  28  52
ATOM     52  C   UNL A   1      51.778  27.979  22.409  1.00  0.00     0.023 A 
ATOM     53  C   UNL A   1      51.759  28.812  21.268  1.00  0.00     0.031 A 
ATOM     54  C   UNL A   1      52.640  26.861  22.358  1.00  0.00     0.131 A 
ATOM     55  C   UNL A   1      52.586  28.523  20.156  1.00  0.00     0.055 A 
ATOM     56  C   UNL A   1      53.453  26.580  21.257  1.00  0.00     0.041 A 
ATOM     57  F   UNL A   1      52.794  26.047  23.415  1.00  0.00    -0.206 F 
ATOM     58  C   UNL A   1      53.440  27.420  20.156  1.00  0.00     0.022 A 
BRANCH  55  59
ATOM     59  S   UNL A   1      52.661  29.661  18.734  1.00  0.00     0.124 S 
ATOM     60  O   UNL A   1      52.167  28.823  17.646  1.00  0.00    -0.237 OA
ATOM     61  O   UNL A   1      51.795  30.757  19.153  1.00  0.00    -0.237 OA
ATOM     62  O   UNL A   1      54.082  30.004  18.651  1.00  0.00    -0.744 OA
ENDBRANCH  55  59
ENDBRANCH  28  52
BRANCH  40  63
ATOM     63  C   UNL A   1      49.901  31.563  27.289  1.00  0.00     0.023 A 
ATOM     64  C   UNL A   1      48.527  31.246  27.165  1.00  0.00     0.031 A 
ATOM     65  C   UNL A   1      50.272  32.911  27.144  1.00  0.00     0.131 A 
ATOM     66  C   UNL A   1      47.589  32.263  26.888  1.00  0.00     0.055 A 
ATOM     67  C   UNL A   1      49.338  33.916  26.889  1.00  0.00     0.041 A 
ATOM     68  F   UNL A   1      51.555  33.282  27.282  1.00  0.00    -0.206 F 
ATOM     69  C   UNL A   1      47.994  33.595  26.753  1.00  0.00     0.022 A 
BRANCH  66  70
ATOM     70  S   UNL A   1      45.817  31.870  26.707  1.00  0.00     0.124 S 
ATOM     71  O   UNL A   1      45.506  31.133  27.926  1.00  0.00    -0.237 OA
ATOM     72  O   UNL A   1      45.207  33.192  26.583  1.00  0.00    -0.237 OA
ATOM     73  O   UNL A   1      45.768  31.066  25.482  1.00  0.00    -0.744 OA
ENDBRANCH  66  70
ENDBRANCH  40  63
ENDBRANCH  14  15
ENDBRANCH   7   9
ENDBRANCH   6   7
ENDBRANCH   5   6
ENDBRANCH   4   5
ENDBRANCH   3   4
ENDBRANCH   2   3
ENDBRANCH   1   2
BRANCH   1  74
ATOM     74  O   UNL A   1      39.081  28.956  29.636  1.00  0.00    -0.377 OA
BRANCH  74  75
ATOM     75  C   UNL A   1      37.835  28.807  30.283  1.00  0.00     0.188 C 
BRANCH  75  76
ATOM     76  C   UNL A   1      37.495  29.935  31.282  1.00  0.00     0.188 C 
BRANCH  76  77
ATOM     77  O   UNL A   1      37.962  31.269  31.109  1.00  0.00    -0.376 OA
BRANCH  77  78
ATOM     78  C   UNL A   1      37.530  32.065  30.020  1.00  0.00     0.202 C 
BRANCH  78  79
ATOM     79  C   UNL A   1      36.215  32.849  30.128  1.00  0.00     0.261 C 
BRANCH  79  80
ATOM     80  O   UNL A   1      35.021  32.088  29.904  1.00  0.00    -0.458 OA
BRANCH  80  81
ATOM     81  C   UNL A   1      34.351  32.351  28.743  1.00  0.00     0.358 C 
ATOM     82  O   UNL A   1      33.895  33.436  28.425  1.00  0.00    -0.244 OA
BRANCH  81  83
ATOM     83  C   UNL A   1      34.259  31.155  27.887  1.00  0.00     0.170 A 
ATOM     84  C   UNL A   1      35.091  30.013  27.944  1.00  0.00     0.058 A 
ATOM     85  N   UNL A   1      33.330  31.029  26.912  1.00  0.00    -0.159 NA
ATOM     86  C   UNL A   1      34.530  29.120  27.064  1.00  0.00     0.118 A 
ATOM     87  N   UNL A   1      33.489  29.770  26.449  1.00  0.00    -0.222 N 
BRANCH  87  88
ATOM     88  C   UNL A   1      32.579  29.188  25.532  1.00  0.00     0.158 A 
ATOM     89  C   UNL A   1      31.471  29.909  25.125  1.00  0.00     0.078 A 
ATOM     90  N   UNL A   1      32.900  27.968  25.051  1.00  0.00    -0.209 NA
ATOM     91  C   UNL A   1      30.706  29.314  24.139  1.00  0.00     0.077 A 
ATOM     92  C   UNL A   1      32.034  27.439  24.177  1.00  0.00     0.165 A 
ATOM     93  N   UNL A   1      30.951  28.063  23.692  1.00  0.00    -0.228 NA
BRANCH  91  94
ATOM     94  C   UNL A   1      29.611  29.997  23.433  1.00  0.00     0.003 A 
ATOM     95  C   UNL A   1      29.150  31.255  23.846  1.00  0.00     0.030 A 
ATOM     96  C   UNL A   1      29.064  29.457  22.263  1.00  0.00     0.030 A 
ATOM     97  C   UNL A   1      28.186  31.901  23.086  1.00  0.00     0.111 A 
ATOM     98  C   UNL A   1      28.097  30.174  21.577  1.00  0.00     0.111 A 
ATOM     99  N   UNL A   1      27.648  31.386  21.962  1.00  0.00    -0.265 NA
ENDBRANCH  91  94
BRANCH  92 100
ATOM    100  C   UNL A   1      32.242  26.051  23.802  1.00  0.00     0.055 A 
ATOM    101  C   UNL A   1      31.533  25.019  24.447  1.00  0.00     0.015 A 
ATOM    102  C   UNL A   1      33.151  25.700  22.803  1.00  0.00     0.134 A 
ATOM    103  C   UNL A   1      31.731  23.682  24.091  1.00  0.00     0.001 A 
ATOM    104  C   UNL A   1      33.359  24.367  22.448  1.00  0.00     0.040 A 
ATOM    105  F   UNL A   1      33.871  26.644  22.177  1.00  0.00    -0.206 F 
ATOM    106  C   UNL A   1      32.647  23.357  23.091  1.00  0.00     0.003 A 
ENDBRANCH  92 100
ENDBRANCH  87  88
ENDBRANCH  81  83
ENDBRANCH  80  81
ENDBRANCH  79  80
ENDBRANCH  78  79
ENDBRANCH  77  78
ENDBRANCH  76  77
ENDBRANCH  75  76
ENDBRANCH  74  75
ENDBRANCH   1  74
TORSDOF 26
ENDMDL
MODEL 3
REMARK VINA RESULT:      -9.3      5.692     12.229
REMARK SMILES O=C(OCCOCCOCCOCCOC(=O)c1ccn(-c2cc(-c3ccncc3)nc(-c3ccccc3F)n2)n1)c1ccc(-c2c3nc(c(-c4cc(S(=O)(=O)[O-])ccc4F)c4ccc([nH]4)c(-c4cc(S(=O)(=O)[O-])ccc4F)c4nc(c(-c5cc(S(=O)(=O)[O-])ccc5F)c5ccc2[nH]5)C=C4)C=C3)cc1
REMARK SMILES IDX 8 1 7 2 6 3 5 4 4 5 3 6 2 7 1 8 42 9 43 10 104 11 44 12
REMARK SMILES IDX 103 13 45 14 46 15 47 16 97 17 48 18 102 19 96 20 98 21
REMARK SMILES IDX 49 22 101 23 95 24 94 25 50 27 82 28 62 29 81 30 63 31 66 32
REMARK SMILES IDX 80 33 99 34 64 35 65 36 79 38 100 39 67 40 51 41 52 42 60 43
REMARK SMILES IDX 53 44 59 45 61 46 58 47 54 48 55 49 56 50 57 51 83 52 84 53
REMARK SMILES IDX 92 54 85 55 91 56 93 57 90 58 86 59 87 60 88 61 89 62 68 63
REMARK SMILES IDX 69 64 77 65 70 66 76 67 78 68 75 69 71 70 72 71 73 72 74 73
REMARK SMILES IDX 9 74 10 75 11 76 12 77 13 78 14 79 15 80 16 81 17 82 18 83
REMARK SMILES IDX 19 84 41 85 20 86 21 87 22 88 23 89 40 90 24 91 32 92 31 93
REMARK SMILES IDX 25 94 26 95 30 96 27 97 29 98 28 99 33 100 34 101 38 102
REMARK SMILES IDX 35 103 37 104 39 105 36 106
REMARK H PARENT 98 26 66 37
REMARK Flexibility Score: inf
ROOT
ATOM      1  C   UNL A   1      35.984  33.103  33.978  1.00  0.00     0.188 C 
ENDROOT
BRANCH   1   2
ATOM      2  C   UNL A   1      37.252  32.231  34.058  1.00  0.00     0.188 C 
BRANCH   2   3
ATOM      3  O   UNL A   1      37.574  31.261  33.081  1.00  0.00    -0.376 OA
BRANCH   3   4
ATOM      4  C   UNL A   1      36.715  30.401  32.362  1.00  0.00     0.202 C 
BRANCH   4   5
ATOM      5  C   UNL A   1      35.904  30.739  31.111  1.00  0.00     0.261 C 
BRANCH   5   6
ATOM      6  O   UNL A   1      35.781  29.725  30.130  1.00  0.00    -0.460 OA
BRANCH   6   7
ATOM      7  C   UNL A   1      36.473  29.541  28.989  1.00  0.00     0.338 C 
ATOM      8  O   UNL A   1      35.896  29.799  27.932  1.00  0.00    -0.246 OA
BRANCH   7   9
ATOM      9  C   UNL A   1      37.829  28.925  28.907  1.00  0.00     0.060 A 
ATOM     10  C   UNL A   1      38.429  28.091  29.850  1.00  0.00     0.016 A 
ATOM     11  C   UNL A   1      38.564  29.278  27.757  1.00  0.00     0.016 A 
ATOM     12  C   UNL A   1      39.777  27.788  29.747  1.00  0.00     0.010 A 
ATOM     13  C   UNL A   1      39.903  28.953  27.635  1.00  0.00     0.010 A 
ATOM     14  C   UNL A   1      40.523  28.288  28.681  1.00  0.00    -0.014 A 
BRANCH  14  15
ATOM     15  C   UNL A   1      41.961  28.085  28.709  1.00  0.00     0.031 A 
ATOM     16  C   UNL A   1      42.444  26.898  27.965  1.00  0.00     0.074 A 
ATOM     17  C   UNL A   1      42.798  28.903  29.379  1.00  0.00     0.049 A 
ATOM     18  N   UNL A   1      42.929  25.811  28.463  1.00  0.00    -0.248 NA
ATOM     19  C   UNL A   1      42.234  26.851  26.512  1.00  0.00     0.031 C 
ATOM     20  C   UNL A   1      42.507  30.186  30.022  1.00  0.00     0.029 A 
ATOM     21  N   UNL A   1      44.139  28.766  29.567  1.00  0.00    -0.354 N 
ATOM     22  C   UNL A   1      43.288  25.015  27.382  1.00  0.00     0.074 A 
ATOM     23  C   UNL A   1      42.707  25.638  26.220  1.00  0.00     0.031 C 
ATOM     24  C   UNL A   1      43.669  30.805  30.337  1.00  0.00     0.029 A 
ATOM     25  C   UNL A   1      44.772  29.902  30.056  1.00  0.00     0.049 A 
ATOM     26  H   UNL A   1      44.621  27.929  29.374  1.00  0.00     0.167 HD
ATOM     27  C   UNL A   1      44.200  24.013  27.513  1.00  0.00     0.034 A 
ATOM     28  C   UNL A   1      46.111  30.091  30.202  1.00  0.00     0.034 A 
ATOM     29  C   UNL A   1      44.368  23.629  28.894  1.00  0.00     0.049 A 
ATOM     30  C   UNL A   1      46.707  28.742  30.362  1.00  0.00     0.074 A 
ATOM     31  C   UNL A   1      43.531  23.106  29.862  1.00  0.00     0.029 A 
ATOM     32  N   UNL A   1      45.452  24.125  29.581  1.00  0.00    -0.354 N 
ATOM     33  N   UNL A   1      46.462  27.975  31.388  1.00  0.00    -0.248 NA
ATOM     34  C   UNL A   1      47.180  28.053  29.172  1.00  0.00     0.031 C 
ATOM     35  C   UNL A   1      43.902  23.770  31.068  1.00  0.00     0.029 A 
ATOM     36  C   UNL A   1      44.986  24.604  30.784  1.00  0.00     0.049 A 
ATOM     37  H   UNL A   1      46.386  24.136  29.271  1.00  0.00     0.167 HD
ATOM     38  C   UNL A   1      46.315  26.705  30.858  1.00  0.00     0.074 A 
ATOM     39  C   UNL A   1      46.862  26.797  29.503  1.00  0.00     0.031 C 
ATOM     40  C   UNL A   1      45.524  25.769  31.461  1.00  0.00     0.034 A 
BRANCH  27  41
ATOM     41  C   UNL A   1      45.169  23.601  26.434  1.00  0.00     0.023 A 
ATOM     42  C   UNL A   1      46.148  24.527  26.027  1.00  0.00     0.031 A 
ATOM     43  C   UNL A   1      45.001  22.470  25.603  1.00  0.00     0.131 A 
ATOM     44  C   UNL A   1      46.854  24.346  24.823  1.00  0.00     0.055 A 
ATOM     45  C   UNL A   1      45.744  22.266  24.438  1.00  0.00     0.041 A 
ATOM     46  F   UNL A   1      44.046  21.556  25.817  1.00  0.00    -0.206 F 
ATOM     47  C   UNL A   1      46.659  23.220  24.027  1.00  0.00     0.022 A 
BRANCH  44  48
ATOM     48  S   UNL A   1      47.931  25.680  24.237  1.00  0.00     0.124 S 
ATOM     49  O   UNL A   1      47.019  26.819  24.231  1.00  0.00    -0.237 OA
ATOM     50  O   UNL A   1      48.974  25.696  25.257  1.00  0.00    -0.237 OA
ATOM     51  O   UNL A   1      48.359  25.218  22.919  1.00  0.00    -0.744 OA
ENDBRANCH  44  48
ENDBRANCH  27  41
BRANCH  28  52
ATOM     52  C   UNL A   1      46.902  31.297  29.826  1.00  0.00     0.023 A 
ATOM     53  C   UNL A   1      46.982  31.754  28.492  1.00  0.00     0.031 A 
ATOM     54  C   UNL A   1      47.372  32.180  30.823  1.00  0.00     0.131 A 
ATOM     55  C   UNL A   1      47.493  33.042  28.205  1.00  0.00     0.055 A 
ATOM     56  C   UNL A   1      47.877  33.450  30.534  1.00  0.00     0.041 A 
ATOM     57  F   UNL A   1      47.272  31.879  32.128  1.00  0.00    -0.206 F 
ATOM     58  C   UNL A   1      47.926  33.893  29.223  1.00  0.00     0.022 A 
BRANCH  55  59
ATOM     59  S   UNL A   1      47.481  33.688  26.499  1.00  0.00     0.124 S 
ATOM     60  O   UNL A   1      48.827  33.361  26.040  1.00  0.00    -0.237 OA
ATOM     61  O   UNL A   1      46.388  32.947  25.883  1.00  0.00    -0.237 OA
ATOM     62  O   UNL A   1      47.223  35.117  26.683  1.00  0.00    -0.744 OA
ENDBRANCH  55  59
ENDBRANCH  28  52
BRANCH  40  63
ATOM     63  C   UNL A   1      45.010  26.062  32.858  1.00  0.00     0.023 A 
ATOM     64  C   UNL A   1      43.836  26.796  33.152  1.00  0.00     0.031 A 
ATOM     65  C   UNL A   1      45.693  25.472  33.936  1.00  0.00     0.131 A 
ATOM     66  C   UNL A   1      43.400  26.929  34.487  1.00  0.00     0.055 A 
ATOM     67  C   UNL A   1      45.249  25.591  35.253  1.00  0.00     0.041 A 
ATOM     68  F   UNL A   1      46.796  24.737  33.721  1.00  0.00    -0.206 F 
ATOM     69  C   UNL A   1      44.104  26.326  35.535  1.00  0.00     0.022 A 
BRANCH  66  70
ATOM     70  S   UNL A   1      41.899  27.886  34.886  1.00  0.00     0.124 S 
ATOM     71  O   UNL A   1      41.185  27.941  33.617  1.00  0.00    -0.237 OA
ATOM     72  O   UNL A   1      41.278  27.084  35.937  1.00  0.00    -0.237 OA
ATOM     73  O   UNL A   1      42.426  29.175  35.343  1.00  0.00    -0.744 OA
ENDBRANCH  66  70
ENDBRANCH  40  63
ENDBRANCH  14  15
ENDBRANCH   7   9
ENDBRANCH   6   7
ENDBRANCH   5   6
ENDBRANCH   4   5
ENDBRANCH   3   4
ENDBRANCH   2   3
ENDBRANCH   1   2
BRANCH   1  74
ATOM     74  O   UNL A   1      35.856  33.934  32.836  1.00  0.00    -0.377 OA
BRANCH  74  75
ATOM     75  C   UNL A   1      34.682  33.699  32.088  1.00  0.00     0.188 C 
BRANCH  75  76
ATOM     76  C   UNL A   1      34.404  34.748  30.989  1.00  0.00     0.188 C 
BRANCH  76  77
ATOM     77  O   UNL A   1      34.799  34.552  29.635  1.00  0.00    -0.376 OA
BRANCH  77  78
ATOM     78  C   UNL A   1      35.829  33.641  29.293  1.00  0.00     0.202 C 
BRANCH  78  79
ATOM     79  C   UNL A   1      37.298  34.059  29.456  1.00  0.00     0.261 C 
BRANCH  79  80
ATOM     80  O   UNL A   1      37.941  33.601  30.652  1.00  0.00    -0.458 OA
BRANCH  80  81
ATOM     81  C   UNL A   1      39.088  32.879  30.477  1.00  0.00     0.358 C 
ATOM     82  O   UNL A   1      39.165  31.816  29.885  1.00  0.00    -0.244 OA
BRANCH  81  83
ATOM     83  C   UNL A   1      40.251  33.555  31.077  1.00  0.00     0.170 A 
ATOM     84  C   UNL A   1      41.498  33.797  30.455  1.00  0.00     0.058 A 
ATOM     85  N   UNL A   1      40.244  34.025  32.346  1.00  0.00    -0.159 NA
ATOM     86  C   UNL A   1      42.196  34.575  31.347  1.00  0.00     0.118 A 
ATOM     87  N   UNL A   1      41.421  34.674  32.476  1.00  0.00    -0.222 N 
BRANCH  87  88
ATOM     88  C   UNL A   1      41.720  35.463  33.615  1.00  0.00     0.158 A 
ATOM     89  C   UNL A   1      41.036  35.236  34.796  1.00  0.00     0.078 A 
ATOM     90  N   UNL A   1      42.727  36.353  33.488  1.00  0.00    -0.209 NA
ATOM     91  C   UNL A   1      41.477  35.966  35.885  1.00  0.00     0.077 A 
ATOM     92  C   UNL A   1      43.002  37.081  34.578  1.00  0.00     0.165 A 
ATOM     93  N   UNL A   1      42.426  36.921  35.777  1.00  0.00    -0.228 NA
BRANCH  91  94
ATOM     94  C   UNL A   1      41.021  35.729  37.263  1.00  0.00     0.003 A 
ATOM     95  C   UNL A   1      41.850  35.109  38.209  1.00  0.00     0.030 A 
ATOM     96  C   UNL A   1      39.780  36.205  37.701  1.00  0.00     0.030 A 
ATOM     97  C   UNL A   1      41.410  35.000  39.520  1.00  0.00     0.111 A 
ATOM     98  C   UNL A   1      39.424  36.040  39.030  1.00  0.00     0.111 A 
ATOM     99  N   UNL A   1      40.214  35.450  39.949  1.00  0.00    -0.265 NA
ENDBRANCH  91  94
BRANCH  92 100
ATOM    100  C   UNL A   1      43.932  38.185  34.414  1.00  0.00     0.055 A 
ATOM    101  C   UNL A   1      43.480  39.449  33.986  1.00  0.00     0.015 A 
ATOM    102  C   UNL A   1      45.296  38.026  34.668  1.00  0.00     0.134 A 
ATOM    103  C   UNL A   1      44.372  40.513  33.826  1.00  0.00     0.001 A 
ATOM    104  C   UNL A   1      46.192  39.082  34.503  1.00  0.00     0.040 A 
ATOM    105  F   UNL A   1      45.781  36.835  35.051  1.00  0.00    -0.206 F 
ATOM    106  C   UNL A   1      45.729  40.328  34.082  1.00  0.00     0.003 A 
ENDBRANCH  92 100
ENDBRANCH  87  88
ENDBRANCH  81  83
ENDBRANCH  80  81
ENDBRANCH  79  80
ENDBRANCH  78  79
ENDBRANCH  77  78
ENDBRANCH  76  77
ENDBRANCH  75  76
ENDBRANCH  74  75
ENDBRANCH   1  74
TORSDOF 26
ENDMDL
