MODEL 1
REMARK VINA RESULT:      -7.5      0.000      0.000
REMARK SMILES Cc1cc(=O)cc(C)n1C[C@H]1CCCC[C@@H]1C(=O)OCCOCCOCCOCCOC(=O)c1ccc(-c2c3nc(c(-c4cc(S(=O)(=O)[O-])ccc4F)c4ccc([nH]4)c(-c4cc(S(=O)(=O)[O-])ccc4F)c4nc(c(-c5cc(S(=O)(=O)[O-])ccc5F)c5ccc2[nH]5)C=C4)C=C3)cc1
REMARK SMILES IDX 26 1 25 2 24 3 23 4 22 5 21 6 20 7 19 8 17 9 18 10 16 11
REMARK SMILES IDX 11 12 12 13 13 14 15 15 14 16 10 17 9 18 1 19 2 20 3 21 4 22
REMARK SMILES IDX 7 23 5 24 6 25 8 26 27 27 28 28 29 29 30 30 31 31 32 32
REMARK SMILES IDX 33 33 34 34 35 35 96 36 36 37 95 38 37 39 38 40 39 41 89 42
REMARK SMILES IDX 40 43 94 44 88 45 90 46 41 47 93 48 87 49 86 50 42 52 74 53
REMARK SMILES IDX 54 54 73 55 55 56 58 57 72 58 91 59 56 60 57 61 71 63 92 64
REMARK SMILES IDX 59 65 43 66 44 67 52 68 45 69 51 70 53 71 50 72 46 73 47 74
REMARK SMILES IDX 48 75 49 76 75 77 76 78 84 79 77 80 83 81 85 82 82 83 78 84
REMARK SMILES IDX 79 85 80 86 81 87 60 88 61 89 69 90 62 91 68 92 70 93 67 94
REMARK SMILES IDX 63 95 64 96 65 97 66 98
REMARK H PARENT 90 51 58 62
REMARK Flexibility Score: inf
ROOT
ATOM      1  C   UNL A   1      33.005  35.665  31.621  1.00  0.00     0.188 C 
ENDROOT
BRANCH   1   2
ATOM      2  O   UNL A   1      33.872  35.275  30.563  1.00  0.00    -0.377 OA
BRANCH   2   3
ATOM      3  C   UNL A   1      34.288  33.926  30.460  1.00  0.00     0.188 C 
BRANCH   3   4
ATOM      4  C   UNL A   1      35.784  33.612  30.236  1.00  0.00     0.188 C 
BRANCH   4   5
ATOM      5  O   UNL A   1      36.068  32.275  29.846  1.00  0.00    -0.376 OA
BRANCH   5   6
ATOM      6  C   UNL A   1      37.136  32.067  28.937  1.00  0.00     0.202 C 
BRANCH   6   7
ATOM      7  C   UNL A   1      38.416  31.420  29.500  1.00  0.00     0.261 C 
BRANCH   7   8
ATOM      8  O   UNL A   1      38.447  29.979  29.455  1.00  0.00    -0.463 OA
BRANCH   8   9
ATOM      9  C   UNL A   1      39.129  29.455  28.411  1.00  0.00     0.309 C 
ATOM     10  O   UNL A   1      38.708  29.493  27.262  1.00  0.00    -0.252 OA
BRANCH   9  11
ATOM     11  C   UNL A   1      40.475  28.824  28.843  1.00  0.00     0.104 C 
ATOM     12  C   UNL A   1      41.258  28.069  27.700  1.00  0.00     0.023 C 
ATOM     13  C   UNL A   1      40.299  27.030  27.118  1.00  0.00     0.006 C 
ATOM     14  C   UNL A   1      39.722  26.074  28.173  1.00  0.00     0.000 C 
ATOM     15  C   UNL A   1      40.133  27.866  29.986  1.00  0.00     0.016 C 
ATOM     16  C   UNL A   1      39.284  26.687  29.507  1.00  0.00     0.001 C 
BRANCH  12  17
ATOM     17  C   UNL A   1      42.622  27.467  28.206  1.00  0.00     0.126 C 
BRANCH  17  18
ATOM     18  N   UNL A   1      43.283  26.407  27.344  1.00  0.00    -0.349 N 
ATOM     19  C   UNL A   1      44.315  28.209  25.840  1.00  0.00     0.064 C 
ATOM     20  C   UNL A   1      44.029  26.765  26.175  1.00  0.00     0.018 A 
ATOM     21  C   UNL A   1      44.599  25.852  25.363  1.00  0.00     0.073 A 
ATOM     22  C   UNL A   1      44.482  24.419  25.661  1.00  0.00     0.182 A 
ATOM     23  C   UNL A   1      43.366  25.035  27.739  1.00  0.00     0.018 A 
ATOM     24  O   UNL A   1      44.951  23.562  24.922  1.00  0.00    -0.290 OA
ATOM     25  C   UNL A   1      43.873  24.072  26.948  1.00  0.00     0.073 A 
ATOM     26  C   UNL A   1      43.054  24.576  29.138  1.00  0.00     0.064 C 
ENDBRANCH  17  18
ENDBRANCH  12  17
ENDBRANCH   9  11
ENDBRANCH   8   9
ENDBRANCH   7   8
ENDBRANCH   6   7
ENDBRANCH   5   6
ENDBRANCH   4   5
ENDBRANCH   3   4
ENDBRANCH   2   3
ENDBRANCH   1   2
BRANCH   1  27
ATOM     27  C   UNL A   1      33.562  36.350  32.887  1.00  0.00     0.188 C 
BRANCH  27  28
ATOM     28  O   UNL A   1      34.918  36.046  33.179  1.00  0.00    -0.376 OA
BRANCH  28  29
ATOM     29  C   UNL A   1      35.165  34.902  33.977  1.00  0.00     0.202 C 
BRANCH  29  30
ATOM     30  C   UNL A   1      36.520  34.207  33.776  1.00  0.00     0.261 C 
BRANCH  30  31
ATOM     31  O   UNL A   1      36.570  32.807  34.088  1.00  0.00    -0.460 OA
BRANCH  31  32
ATOM     32  C   UNL A   1      37.402  32.414  35.078  1.00  0.00     0.338 C 
ATOM     33  O   UNL A   1      37.182  32.452  36.276  1.00  0.00    -0.246 OA
BRANCH  32  34
ATOM     34  C   UNL A   1      38.548  31.728  34.441  1.00  0.00     0.060 A 
ATOM     35  C   UNL A   1      39.851  32.034  34.862  1.00  0.00     0.016 A 
ATOM     36  C   UNL A   1      38.329  30.742  33.476  1.00  0.00     0.016 A 
ATOM     37  C   UNL A   1      40.940  31.363  34.305  1.00  0.00     0.010 A 
ATOM     38  C   UNL A   1      39.422  30.102  32.888  1.00  0.00     0.010 A 
ATOM     39  C   UNL A   1      40.732  30.432  33.279  1.00  0.00    -0.014 A 
BRANCH  39  40
ATOM     40  C   UNL A   1      41.879  30.009  32.441  1.00  0.00     0.031 A 
ATOM     41  C   UNL A   1      42.569  28.724  32.814  1.00  0.00     0.074 A 
ATOM     42  C   UNL A   1      42.276  30.709  31.364  1.00  0.00     0.049 A 
ATOM     43  N   UNL A   1      43.620  28.161  32.282  1.00  0.00    -0.248 NA
ATOM     44  C   UNL A   1      41.988  27.972  33.942  1.00  0.00     0.031 C 
ATOM     45  C   UNL A   1      41.643  31.927  30.864  1.00  0.00     0.029 A 
ATOM     46  N   UNL A   1      43.314  30.488  30.492  1.00  0.00    -0.354 N 
ATOM     47  C   UNL A   1      43.822  26.990  33.003  1.00  0.00     0.074 A 
ATOM     48  C   UNL A   1      42.807  26.937  34.031  1.00  0.00     0.031 C 
ATOM     49  C   UNL A   1      42.308  32.348  29.772  1.00  0.00     0.029 A 
ATOM     50  C   UNL A   1      43.437  31.452  29.518  1.00  0.00     0.049 A 
ATOM     51  H   UNL A   1      43.915  29.710  30.557  1.00  0.00     0.167 HD
ATOM     52  C   UNL A   1      44.766  26.038  32.819  1.00  0.00     0.034 A 
ATOM     53  C   UNL A   1      44.368  31.602  28.553  1.00  0.00     0.034 A 
ATOM     54  C   UNL A   1      45.778  26.103  31.800  1.00  0.00     0.049 A 
ATOM     55  C   UNL A   1      45.480  30.586  28.439  1.00  0.00     0.074 A 
ATOM     56  C   UNL A   1      46.786  25.193  31.534  1.00  0.00     0.029 A 
ATOM     57  N   UNL A   1      45.918  27.136  30.885  1.00  0.00    -0.354 N 
ATOM     58  N   UNL A   1      45.679  29.498  29.147  1.00  0.00    -0.248 NA
ATOM     59  C   UNL A   1      46.496  30.819  27.401  1.00  0.00     0.031 C 
ATOM     60  C   UNL A   1      47.574  25.709  30.503  1.00  0.00     0.029 A 
ATOM     61  C   UNL A   1      47.016  26.902  30.075  1.00  0.00     0.049 A 
ATOM     62  H   UNL A   1      45.324  27.919  30.822  1.00  0.00     0.167 HD
ATOM     63  C   UNL A   1      46.828  28.907  28.624  1.00  0.00     0.074 A 
ATOM     64  C   UNL A   1      47.274  29.754  27.538  1.00  0.00     0.031 C 
ATOM     65  C   UNL A   1      47.453  27.764  29.004  1.00  0.00     0.034 A 
BRANCH  52  66
ATOM     66  C   UNL A   1      44.772  24.868  33.764  1.00  0.00     0.023 A 
ATOM     67  C   UNL A   1      45.282  24.978  35.068  1.00  0.00     0.031 A 
ATOM     68  C   UNL A   1      44.235  23.634  33.360  1.00  0.00     0.131 A 
ATOM     69  C   UNL A   1      45.268  23.862  35.916  1.00  0.00     0.055 A 
ATOM     70  C   UNL A   1      44.169  22.544  34.229  1.00  0.00     0.041 A 
ATOM     71  F   UNL A   1      43.758  23.471  32.116  1.00  0.00    -0.206 F 
ATOM     72  C   UNL A   1      44.692  22.653  35.515  1.00  0.00     0.022 A 
BRANCH  69  73
ATOM     73  S   UNL A   1      46.073  23.990  37.536  1.00  0.00     0.124 S 
ATOM     74  O   UNL A   1      44.922  24.076  38.431  1.00  0.00    -0.237 OA
ATOM     75  O   UNL A   1      46.844  22.755  37.605  1.00  0.00    -0.237 OA
ATOM     76  O   UNL A   1      46.865  25.213  37.429  1.00  0.00    -0.744 OA
ENDBRANCH  69  73
ENDBRANCH  52  66
BRANCH  53  77
ATOM     77  C   UNL A   1      44.322  32.779  27.639  1.00  0.00     0.023 A 
ATOM     78  C   UNL A   1      44.729  34.052  28.071  1.00  0.00     0.031 A 
ATOM     79  C   UNL A   1      43.837  32.653  26.324  1.00  0.00     0.131 A 
ATOM     80  C   UNL A   1      44.623  35.152  27.203  1.00  0.00     0.055 A 
ATOM     81  C   UNL A   1      43.771  33.741  25.453  1.00  0.00     0.041 A 
ATOM     82  F   UNL A   1      43.429  31.460  25.863  1.00  0.00    -0.206 F 
ATOM     83  C   UNL A   1      44.159  35.002  25.894  1.00  0.00     0.022 A 
BRANCH  80  84
ATOM     84  S   UNL A   1      45.061  36.799  27.825  1.00  0.00     0.124 S 
ATOM     85  O   UNL A   1      45.343  36.522  29.228  1.00  0.00    -0.237 OA
ATOM     86  O   UNL A   1      46.210  37.143  26.993  1.00  0.00    -0.237 OA
ATOM     87  O   UNL A   1      43.857  37.589  27.573  1.00  0.00    -0.744 OA
ENDBRANCH  80  84
ENDBRANCH  53  77
BRANCH  65  88
ATOM     88  C   UNL A   1      48.675  27.340  28.229  1.00  0.00     0.023 A 
ATOM     89  C   UNL A   1      49.961  27.764  28.598  1.00  0.00     0.031 A 
ATOM     90  C   UNL A   1      48.551  26.449  27.148  1.00  0.00     0.131 A 
ATOM     91  C   UNL A   1      51.076  27.315  27.874  1.00  0.00     0.055 A 
ATOM     92  C   UNL A   1      49.667  25.966  26.465  1.00  0.00     0.041 A 
ATOM     93  F   UNL A   1      47.343  26.009  26.760  1.00  0.00    -0.206 F 
ATOM     94  C   UNL A   1      50.939  26.404  26.823  1.00  0.00     0.022 A 
BRANCH  91  95
ATOM     95  S   UNL A   1      52.713  27.966  28.303  1.00  0.00     0.124 S 
ATOM     96  O   UNL A   1      53.467  26.742  28.557  1.00  0.00    -0.237 OA
ATOM     97  O   UNL A   1      53.084  28.704  27.099  1.00  0.00    -0.237 OA
ATOM     98  O   UNL A   1      52.457  28.794  29.479  1.00  0.00    -0.744 OA
ENDBRANCH  91  95
ENDBRANCH  65  88
ENDBRANCH  39  40
ENDBRANCH  32  34
ENDBRANCH  31  32
ENDBRANCH  30  31
ENDBRANCH  29  30
ENDBRANCH  28  29
ENDBRANCH  27  28
ENDBRANCH   1  27
TORSDOF 25
ENDMDL
MODEL 2
REMARK VINA RESULT:      -6.6      2.972     12.278
REMARK SMILES Cc1cc(=O)cc(C)n1C[C@H]1CCCC[C@@H]1C(=O)OCCOCCOCCOCCOC(=O)c1ccc(-c2c3nc(c(-c4cc(S(=O)(=O)[O-])ccc4F)c4ccc([nH]4)c(-c4cc(S(=O)(=O)[O-])ccc4F)c4nc(c(-c5cc(S(=O)(=O)[O-])ccc5F)c5ccc2[nH]5)C=C4)C=C3)cc1
REMARK SMILES IDX 26 1 25 2 24 3 23 4 22 5 21 6 20 7 19 8 17 9 18 10 16 11
REMARK SMILES IDX 11 12 12 13 13 14 15 15 14 16 10 17 9 18 1 19 2 20 3 21 4 22
REMARK SMILES IDX 7 23 5 24 6 25 8 26 27 27 28 28 29 29 30 30 31 31 32 32
REMARK SMILES IDX 33 33 34 34 35 35 96 36 36 37 95 38 37 39 38 40 39 41 89 42
REMARK SMILES IDX 40 43 94 44 88 45 90 46 41 47 93 48 87 49 86 50 42 52 74 53
REMARK SMILES IDX 54 54 73 55 55 56 58 57 72 58 91 59 56 60 57 61 71 63 92 64
REMARK SMILES IDX 59 65 43 66 44 67 52 68 45 69 51 70 53 71 50 72 46 73 47 74
REMARK SMILES IDX 48 75 49 76 75 77 76 78 84 79 77 80 83 81 85 82 82 83 78 84
REMARK SMILES IDX 79 85 80 86 81 87 60 88 61 89 69 90 62 91 68 92 70 93 67 94
REMARK SMILES IDX 63 95 64 96 65 97 66 98
REMARK H PARENT 90 51 58 62
REMARK Flexibility Score: inf
ROOT
ATOM      1  C   UNL A   1      44.073  23.706  26.171  1.00  0.00     0.188 C 
ENDROOT
BRANCH   1   2
ATOM      2  O   UNL A   1      43.950  24.818  27.050  1.00  0.00    -0.377 OA
BRANCH   2   3
ATOM      3  C   UNL A   1      42.665  25.254  27.451  1.00  0.00     0.188 C 
BRANCH   3   4
ATOM      4  C   UNL A   1      42.535  26.229  28.642  1.00  0.00     0.188 C 
BRANCH   4   5
ATOM      5  O   UNL A   1      41.212  26.419  29.125  1.00  0.00    -0.376 OA
BRANCH   5   6
ATOM      6  C   UNL A   1      40.149  26.308  28.193  1.00  0.00     0.202 C 
BRANCH   6   7
ATOM      7  C   UNL A   1      39.454  27.616  27.769  1.00  0.00     0.261 C 
BRANCH   7   8
ATOM      8  O   UNL A   1      38.409  28.071  28.653  1.00  0.00    -0.463 OA
BRANCH   8   9
ATOM      9  C   UNL A   1      38.342  29.412  28.816  1.00  0.00     0.309 C 
ATOM     10  O   UNL A   1      39.173  30.177  28.342  1.00  0.00    -0.252 OA
BRANCH   9  11
ATOM     11  C   UNL A   1      37.111  29.844  29.649  1.00  0.00     0.104 C 
ATOM     12  C   UNL A   1      36.951  31.401  29.850  1.00  0.00     0.023 C 
ATOM     13  C   UNL A   1      38.260  31.906  30.459  1.00  0.00     0.006 C 
ATOM     14  C   UNL A   1      38.652  31.177  31.753  1.00  0.00     0.000 C 
ATOM     15  C   UNL A   1      37.259  29.138  30.998  1.00  0.00     0.016 C 
ATOM     16  C   UNL A   1      38.464  29.656  31.784  1.00  0.00     0.001 C 
BRANCH  12  17
ATOM     17  C   UNL A   1      35.672  31.767  30.692  1.00  0.00     0.126 C 
BRANCH  17  18
ATOM     18  N   UNL A   1      34.850  32.959  30.237  1.00  0.00    -0.349 N 
ATOM     19  C   UNL A   1      35.572  34.301  32.300  1.00  0.00     0.064 C 
ATOM     20  C   UNL A   1      34.748  34.137  31.044  1.00  0.00     0.018 A 
ATOM     21  C   UNL A   1      33.999  35.202  30.694  1.00  0.00     0.073 A 
ATOM     22  C   UNL A   1      33.248  35.196  29.432  1.00  0.00     0.182 A 
ATOM     23  C   UNL A   1      34.299  33.056  28.921  1.00  0.00     0.018 A 
ATOM     24  O   UNL A   1      32.525  36.129  29.103  1.00  0.00    -0.290 OA
ATOM     25  C   UNL A   1      33.498  34.066  28.533  1.00  0.00     0.073 A 
ATOM     26  C   UNL A   1      34.701  32.131  27.805  1.00  0.00     0.064 C 
ENDBRANCH  17  18
ENDBRANCH  12  17
ENDBRANCH   9  11
ENDBRANCH   8   9
ENDBRANCH   7   8
ENDBRANCH   6   7
ENDBRANCH   5   6
ENDBRANCH   4   5
ENDBRANCH   3   4
ENDBRANCH   2   3
ENDBRANCH   1   2
BRANCH   1  27
ATOM     27  C   UNL A   1      44.715  23.869  24.776  1.00  0.00     0.188 C 
BRANCH  27  28
ATOM     28  O   UNL A   1      45.677  24.909  24.684  1.00  0.00    -0.376 OA
BRANCH  28  29
ATOM     29  C   UNL A   1      47.039  24.524  24.625  1.00  0.00     0.202 C 
BRANCH  29  30
ATOM     30  C   UNL A   1      48.047  25.627  24.265  1.00  0.00     0.261 C 
BRANCH  30  31
ATOM     31  O   UNL A   1      47.947  26.848  25.013  1.00  0.00    -0.460 OA
BRANCH  31  32
ATOM     32  C   UNL A   1      48.467  26.864  26.260  1.00  0.00     0.338 C 
ATOM     33  O   UNL A   1      49.577  26.490  26.595  1.00  0.00    -0.246 OA
BRANCH  32  34
ATOM     34  C   UNL A   1      47.525  27.617  27.118  1.00  0.00     0.060 A 
ATOM     35  C   UNL A   1      48.029  28.401  28.166  1.00  0.00     0.016 A 
ATOM     36  C   UNL A   1      46.155  27.596  26.845  1.00  0.00     0.016 A 
ATOM     37  C   UNL A   1      47.159  29.154  28.956  1.00  0.00     0.010 A 
ATOM     38  C   UNL A   1      45.281  28.315  27.663  1.00  0.00     0.010 A 
ATOM     39  C   UNL A   1      45.777  29.072  28.739  1.00  0.00    -0.014 A 
BRANCH  39  40
ATOM     40  C   UNL A   1      44.849  29.556  29.788  1.00  0.00     0.031 A 
ATOM     41  C   UNL A   1      44.279  30.940  29.620  1.00  0.00     0.074 A 
ATOM     42  C   UNL A   1      44.488  28.791  30.833  1.00  0.00     0.049 A 
ATOM     43  N   UNL A   1      43.492  31.615  30.414  1.00  0.00    -0.248 NA
ATOM     44  C   UNL A   1      44.647  31.654  28.384  1.00  0.00     0.031 C 
ATOM     45  C   UNL A   1      44.917  27.414  31.064  1.00  0.00     0.029 A 
ATOM     46  N   UNL A   1      43.668  29.071  31.899  1.00  0.00    -0.354 N 
ATOM     47  C   UNL A   1      43.267  32.828  29.773  1.00  0.00     0.074 A 
ATOM     48  C   UNL A   1      44.024  32.811  28.542  1.00  0.00     0.031 C 
ATOM     49  C   UNL A   1      44.357  26.968  32.204  1.00  0.00     0.029 A 
ATOM     50  C   UNL A   1      43.561  28.039  32.803  1.00  0.00     0.049 A 
ATOM     51  H   UNL A   1      43.198  29.930  32.006  1.00  0.00     0.167 HD
ATOM     52  C   UNL A   1      42.490  33.861  30.172  1.00  0.00     0.034 A 
ATOM     53  C   UNL A   1      42.916  27.981  33.987  1.00  0.00     0.034 A 
ATOM     54  C   UNL A   1      41.746  33.874  31.402  1.00  0.00     0.049 A 
ATOM     55  C   UNL A   1      42.147  29.190  34.466  1.00  0.00     0.074 A 
ATOM     56  C   UNL A   1      40.934  34.875  31.903  1.00  0.00     0.029 A 
ATOM     57  N   UNL A   1      41.730  32.842  32.330  1.00  0.00    -0.354 N 
ATOM     58  N   UNL A   1      41.966  30.344  33.866  1.00  0.00    -0.248 NA
ATOM     59  C   UNL A   1      41.500  29.093  35.783  1.00  0.00     0.031 C 
ATOM     60  C   UNL A   1      40.480  34.477  33.162  1.00  0.00     0.029 A 
ATOM     61  C   UNL A   1      40.947  33.197  33.415  1.00  0.00     0.049 A 
ATOM     62  H   UNL A   1      42.204  31.985  32.230  1.00  0.00     0.167 HD
ATOM     63  C   UNL A   1      41.166  31.098  34.721  1.00  0.00     0.074 A 
ATOM     64  C   UNL A   1      40.894  30.268  35.876  1.00  0.00     0.031 C 
ATOM     65  C   UNL A   1      40.695  32.361  34.563  1.00  0.00     0.034 A 
BRANCH  52  66
ATOM     66  C   UNL A   1      42.437  35.077  29.289  1.00  0.00     0.023 A 
ATOM     67  C   UNL A   1      43.536  35.942  29.162  1.00  0.00     0.031 A 
ATOM     68  C   UNL A   1      41.279  35.358  28.543  1.00  0.00     0.131 A 
ATOM     69  C   UNL A   1      43.445  37.065  28.327  1.00  0.00     0.055 A 
ATOM     70  C   UNL A   1      41.216  36.443  27.669  1.00  0.00     0.041 A 
ATOM     71  F   UNL A   1      40.193  34.575  28.649  1.00  0.00    -0.206 F 
ATOM     72  C   UNL A   1      42.302  37.307  27.560  1.00  0.00     0.022 A 
BRANCH  69  73
ATOM     73  S   UNL A   1      44.820  38.247  28.304  1.00  0.00     0.124 S 
ATOM     74  O   UNL A   1      45.939  37.405  28.718  1.00  0.00    -0.237 OA
ATOM     75  O   UNL A   1      44.834  38.690  26.916  1.00  0.00    -0.237 OA
ATOM     76  O   UNL A   1      44.416  39.260  29.277  1.00  0.00    -0.744 OA
ENDBRANCH  69  73
ENDBRANCH  52  66
BRANCH  53  77
ATOM     77  C   UNL A   1      42.997  26.753  34.829  1.00  0.00     0.023 A 
ATOM     78  C   UNL A   1      44.200  26.372  35.446  1.00  0.00     0.031 A 
ATOM     79  C   UNL A   1      41.874  25.923  35.004  1.00  0.00     0.131 A 
ATOM     80  C   UNL A   1      44.258  25.181  36.188  1.00  0.00     0.055 A 
ATOM     81  C   UNL A   1      41.927  24.762  35.777  1.00  0.00     0.041 A 
ATOM     82  F   UNL A   1      40.702  26.239  34.432  1.00  0.00    -0.206 F 
ATOM     83  C   UNL A   1      43.127  24.381  36.368  1.00  0.00     0.022 A 
BRANCH  80  84
ATOM     84  S   UNL A   1      45.851  24.664  36.886  1.00  0.00     0.124 S 
ATOM     85  O   UNL A   1      46.551  24.181  35.702  1.00  0.00    -0.237 OA
ATOM     86  O   UNL A   1      46.348  25.908  37.465  1.00  0.00    -0.237 OA
ATOM     87  O   UNL A   1      45.480  23.635  37.856  1.00  0.00    -0.744 OA
ENDBRANCH  80  84
ENDBRANCH  53  77
BRANCH  65  88
ATOM     88  C   UNL A   1      39.813  32.924  35.649  1.00  0.00     0.023 A 
ATOM     89  C   UNL A   1      40.282  33.898  36.544  1.00  0.00     0.031 A 
ATOM     90  C   UNL A   1      38.468  32.523  35.744  1.00  0.00     0.131 A 
ATOM     91  C   UNL A   1      39.418  34.424  37.515  1.00  0.00     0.055 A 
ATOM     92  C   UNL A   1      37.600  33.087  36.678  1.00  0.00     0.041 A 
ATOM     93  F   UNL A   1      37.970  31.599  34.907  1.00  0.00    -0.206 F 
ATOM     94  C   UNL A   1      38.075  34.039  37.575  1.00  0.00     0.022 A 
BRANCH  91  95
ATOM     95  S   UNL A   1      40.080  35.597  38.728  1.00  0.00     0.124 S 
ATOM     96  O   UNL A   1      39.398  35.184  39.951  1.00  0.00    -0.237 OA
ATOM     97  O   UNL A   1      41.514  35.328  38.678  1.00  0.00    -0.237 OA
ATOM     98  O   UNL A   1      39.678  36.900  38.203  1.00  0.00    -0.744 OA
ENDBRANCH  91  95
ENDBRANCH  65  88
ENDBRANCH  39  40
ENDBRANCH  32  34
ENDBRANCH  31  32
ENDBRANCH  30  31
ENDBRANCH  29  30
ENDBRANCH  28  29
ENDBRANCH  27  28
ENDBRANCH   1  27
TORSDOF 25
ENDMDL
MODEL 3
REMARK VINA RESULT:      -6.6      5.045      7.212
REMARK SMILES Cc1cc(=O)cc(C)n1C[C@H]1CCCC[C@@H]1C(=O)OCCOCCOCCOCCOC(=O)c1ccc(-c2c3nc(c(-c4cc(S(=O)(=O)[O-])ccc4F)c4ccc([nH]4)c(-c4cc(S(=O)(=O)[O-])ccc4F)c4nc(c(-c5cc(S(=O)(=O)[O-])ccc5F)c5ccc2[nH]5)C=C4)C=C3)cc1
REMARK SMILES IDX 26 1 25 2 24 3 23 4 22 5 21 6 20 7 19 8 17 9 18 10 16 11
REMARK SMILES IDX 11 12 12 13 13 14 15 15 14 16 10 17 9 18 1 19 2 20 3 21 4 22
REMARK SMILES IDX 7 23 5 24 6 25 8 26 27 27 28 28 29 29 30 30 31 31 32 32
REMARK SMILES IDX 33 33 34 34 35 35 96 36 36 37 95 38 37 39 38 40 39 41 89 42
REMARK SMILES IDX 40 43 94 44 88 45 90 46 41 47 93 48 87 49 86 50 42 52 74 53
REMARK SMILES IDX 54 54 73 55 55 56 58 57 72 58 91 59 56 60 57 61 71 63 92 64
REMARK SMILES IDX 59 65 43 66 44 67 52 68 45 69 51 70 53 71 50 72 46 73 47 74
REMARK SMILES IDX 48 75 49 76 75 77 76 78 84 79 77 80 83 81 85 82 82 83 78 84
REMARK SMILES IDX 79 85 80 86 81 87 60 88 61 89 69 90 62 91 68 92 70 93 67 94
REMARK SMILES IDX 63 95 64 96 65 97 66 98
REMARK H PARENT 90 51 58 62
REMARK Flexibility Score: inf
ROOT
ATOM      1  C   UNL A   1      34.730  34.109  28.028  1.00  0.00     0.188 C 
ENDROOT
BRANCH   1   2
ATOM      2  O   UNL A   1      35.884  33.335  27.722  1.00  0.00    -0.377 OA
BRANCH   2   3
ATOM      3  C   UNL A   1      35.873  31.940  27.961  1.00  0.00     0.188 C 
BRANCH   3   4
ATOM      4  C   UNL A   1      34.521  31.200  28.061  1.00  0.00     0.188 C 
BRANCH   4   5
ATOM      5  O   UNL A   1      33.982  30.759  26.823  1.00  0.00    -0.376 OA
BRANCH   5   6
ATOM      6  C   UNL A   1      33.889  29.360  26.606  1.00  0.00     0.202 C 
BRANCH   6   7
ATOM      7  C   UNL A   1      32.742  28.619  27.319  1.00  0.00     0.261 C 
BRANCH   7   8
ATOM      8  O   UNL A   1      31.566  28.390  26.517  1.00  0.00    -0.463 OA
BRANCH   8   9
ATOM      9  C   UNL A   1      31.790  27.769  25.337  1.00  0.00     0.309 C 
ATOM     10  O   UNL A   1      31.902  28.379  24.281  1.00  0.00    -0.252 OA
BRANCH   9  11
ATOM     11  C   UNL A   1      31.891  26.232  25.489  1.00  0.00     0.104 C 
ATOM     12  C   UNL A   1      32.134  25.440  24.146  1.00  0.00     0.023 C 
ATOM     13  C   UNL A   1      31.018  25.848  23.184  1.00  0.00     0.006 C 
ATOM     14  C   UNL A   1      29.609  25.630  23.755  1.00  0.00     0.000 C 
ATOM     15  C   UNL A   1      30.578  25.796  26.143  1.00  0.00     0.016 C 
ATOM     16  C   UNL A   1      29.380  26.020  25.219  1.00  0.00     0.001 C 
BRANCH  12  17
ATOM     17  C   UNL A   1      32.240  23.887  24.379  1.00  0.00     0.126 C 
BRANCH  17  18
ATOM     18  N   UNL A   1      33.592  23.330  24.788  1.00  0.00    -0.349 N 
ATOM     19  C   UNL A   1      32.669  22.656  27.084  1.00  0.00     0.064 C 
ATOM     20  C   UNL A   1      33.809  22.811  26.105  1.00  0.00     0.018 A 
ATOM     21  C   UNL A   1      35.004  22.343  26.520  1.00  0.00     0.073 A 
ATOM     22  C   UNL A   1      36.154  22.339  25.608  1.00  0.00     0.182 A 
ATOM     23  C   UNL A   1      34.652  23.116  23.853  1.00  0.00     0.018 A 
ATOM     24  O   UNL A   1      37.263  21.960  25.966  1.00  0.00    -0.290 OA
ATOM     25  C   UNL A   1      35.881  22.704  24.216  1.00  0.00     0.073 A 
ATOM     26  C   UNL A   1      34.439  23.165  22.364  1.00  0.00     0.064 C 
ENDBRANCH  17  18
ENDBRANCH  12  17
ENDBRANCH   9  11
ENDBRANCH   8   9
ENDBRANCH   7   8
ENDBRANCH   6   7
ENDBRANCH   5   6
ENDBRANCH   4   5
ENDBRANCH   3   4
ENDBRANCH   2   3
ENDBRANCH   1   2
BRANCH   1  27
ATOM     27  C   UNL A   1      34.041  33.989  29.405  1.00  0.00     0.188 C 
BRANCH  27  28
ATOM     28  O   UNL A   1      34.857  34.347  30.510  1.00  0.00    -0.376 OA
BRANCH  28  29
ATOM     29  C   UNL A   1      34.951  33.412  31.571  1.00  0.00     0.202 C 
BRANCH  29  30
ATOM     30  C   UNL A   1      36.236  32.573  31.632  1.00  0.00     0.261 C 
BRANCH  30  31
ATOM     31  O   UNL A   1      36.096  31.173  31.350  1.00  0.00    -0.460 OA
BRANCH  31  32
ATOM     32  C   UNL A   1      36.965  30.324  31.943  1.00  0.00     0.338 C 
ATOM     33  O   UNL A   1      36.689  29.380  32.663  1.00  0.00    -0.246 OA
BRANCH  32  34
ATOM     34  C   UNL A   1      38.307  30.612  31.390  1.00  0.00     0.060 A 
ATOM     35  C   UNL A   1      39.336  31.006  32.257  1.00  0.00     0.016 A 
ATOM     36  C   UNL A   1      38.559  30.431  30.028  1.00  0.00     0.016 A 
ATOM     37  C   UNL A   1      40.619  31.237  31.759  1.00  0.00     0.010 A 
ATOM     38  C   UNL A   1      39.832  30.705  29.523  1.00  0.00     0.010 A 
ATOM     39  C   UNL A   1      40.858  31.137  30.382  1.00  0.00    -0.014 A 
BRANCH  39  40
ATOM     40  C   UNL A   1      42.089  31.737  29.815  1.00  0.00     0.031 A 
ATOM     41  C   UNL A   1      43.197  30.796  29.423  1.00  0.00     0.074 A 
ATOM     42  C   UNL A   1      42.214  33.060  29.614  1.00  0.00     0.049 A 
ATOM     43  N   UNL A   1      44.387  31.063  28.957  1.00  0.00    -0.248 NA
ATOM     44  C   UNL A   1      42.919  29.356  29.578  1.00  0.00     0.031 C 
ATOM     45  C   UNL A   1      41.184  34.060  29.887  1.00  0.00     0.029 A 
ATOM     46  N   UNL A   1      43.270  33.790  29.126  1.00  0.00    -0.354 N 
ATOM     47  C   UNL A   1      44.996  29.830  28.757  1.00  0.00     0.074 A 
ATOM     48  C   UNL A   1      44.060  28.814  29.182  1.00  0.00     0.031 C 
ATOM     49  C   UNL A   1      41.661  35.277  29.563  1.00  0.00     0.029 A 
ATOM     50  C   UNL A   1      43.042  35.147  29.097  1.00  0.00     0.049 A 
ATOM     51  H   UNL A   1      44.113  33.380  28.823  1.00  0.00     0.167 HD
ATOM     52  C   UNL A   1      46.225  29.567  28.255  1.00  0.00     0.034 A 
ATOM     53  C   UNL A   1      43.864  36.162  28.757  1.00  0.00     0.034 A 
ATOM     54  C   UNL A   1      47.154  30.584  27.842  1.00  0.00     0.049 A 
ATOM     55  C   UNL A   1      45.272  35.849  28.308  1.00  0.00     0.074 A 
ATOM     56  C   UNL A   1      48.427  30.423  27.326  1.00  0.00     0.029 A 
ATOM     57  N   UNL A   1      46.916  31.949  27.906  1.00  0.00    -0.354 N 
ATOM     58  N   UNL A   1      45.848  34.680  28.151  1.00  0.00    -0.248 NA
ATOM     59  C   UNL A   1      46.143  36.992  27.993  1.00  0.00     0.031 C 
ATOM     60  C   UNL A   1      48.983  31.690  27.141  1.00  0.00     0.029 A 
ATOM     61  C   UNL A   1      48.031  32.642  27.469  1.00  0.00     0.049 A 
ATOM     62  H   UNL A   1      46.077  32.362  28.215  1.00  0.00     0.167 HD
ATOM     63  C   UNL A   1      47.138  34.946  27.698  1.00  0.00     0.074 A 
ATOM     64  C   UNL A   1      47.255  36.386  27.600  1.00  0.00     0.031 C 
ATOM     65  C   UNL A   1      48.134  34.078  27.387  1.00  0.00     0.034 A 
BRANCH  52  66
ATOM     66  C   UNL A   1      46.648  28.127  28.162  1.00  0.00     0.023 A 
ATOM     67  C   UNL A   1      46.424  27.368  27.002  1.00  0.00     0.031 A 
ATOM     68  C   UNL A   1      47.309  27.516  29.241  1.00  0.00     0.131 A 
ATOM     69  C   UNL A   1      46.835  26.028  26.958  1.00  0.00     0.055 A 
ATOM     70  C   UNL A   1      47.769  26.201  29.169  1.00  0.00     0.041 A 
ATOM     71  F   UNL A   1      47.524  28.192  30.381  1.00  0.00    -0.206 F 
ATOM     72  C   UNL A   1      47.529  25.447  28.023  1.00  0.00     0.022 A 
BRANCH  69  73
ATOM     73  S   UNL A   1      46.394  25.029  25.510  1.00  0.00     0.124 S 
ATOM     74  O   UNL A   1      46.722  23.683  25.970  1.00  0.00    -0.237 OA
ATOM     75  O   UNL A   1      44.975  25.320  25.344  1.00  0.00    -0.237 OA
ATOM     76  O   UNL A   1      47.263  25.551  24.457  1.00  0.00    -0.744 OA
ENDBRANCH  69  73
ENDBRANCH  52  66
BRANCH  53  77
ATOM     77  C   UNL A   1      43.400  37.575  28.866  1.00  0.00     0.023 A 
ATOM     78  C   UNL A   1      43.774  38.382  29.952  1.00  0.00     0.031 A 
ATOM     79  C   UNL A   1      42.546  38.129  27.895  1.00  0.00     0.131 A 
ATOM     80  C   UNL A   1      43.276  39.692  30.054  1.00  0.00     0.055 A 
ATOM     81  C   UNL A   1      42.087  39.445  27.980  1.00  0.00     0.041 A 
ATOM     82  F   UNL A   1      42.154  37.399  26.839  1.00  0.00    -0.206 F 
ATOM     83  C   UNL A   1      42.446  40.232  29.069  1.00  0.00     0.022 A 
BRANCH  80  84
ATOM     84  S   UNL A   1      43.695  40.673  31.522  1.00  0.00     0.124 S 
ATOM     85  O   UNL A   1      42.693  40.219  32.479  1.00  0.00    -0.237 OA
ATOM     86  O   UNL A   1      45.070  40.259  31.783  1.00  0.00    -0.237 OA
ATOM     87  O   UNL A   1      43.541  42.053  31.063  1.00  0.00    -0.744 OA
ENDBRANCH  80  84
ENDBRANCH  53  77
BRANCH  65  88
ATOM     88  C   UNL A   1      49.434  34.652  26.885  1.00  0.00     0.023 A 
ATOM     89  C   UNL A   1      50.548  34.794  27.727  1.00  0.00     0.031 A 
ATOM     90  C   UNL A   1      49.576  35.000  25.529  1.00  0.00     0.131 A 
ATOM     91  C   UNL A   1      51.752  35.296  27.210  1.00  0.00     0.055 A 
ATOM     92  C   UNL A   1      50.790  35.449  25.010  1.00  0.00     0.041 A 
ATOM     93  F   UNL A   1      48.542  34.877  24.681  1.00  0.00    -0.206 F 
ATOM     94  C   UNL A   1      51.885  35.605  25.854  1.00  0.00     0.022 A 
BRANCH  91  95
ATOM     95  S   UNL A   1      53.139  35.573  28.345  1.00  0.00     0.124 S 
ATOM     96  O   UNL A   1      52.816  34.667  29.443  1.00  0.00    -0.237 OA
ATOM     97  O   UNL A   1      54.292  35.201  27.531  1.00  0.00    -0.237 OA
ATOM     98  O   UNL A   1      53.043  36.995  28.665  1.00  0.00    -0.744 OA
ENDBRANCH  91  95
ENDBRANCH  65  88
ENDBRANCH  39  40
ENDBRANCH  32  34
ENDBRANCH  31  32
ENDBRANCH  30  31
ENDBRANCH  29  30
ENDBRANCH  28  29
ENDBRANCH  27  28
ENDBRANCH   1  27
TORSDOF 25
ENDMDL
