MODEL 1
REMARK VINA RESULT:      -7.4      0.000      0.000
REMARK SMILES CCCC[C@@H](C)[NH2+]Cc1ccc(C(=O)OCCOCCOCCOCCOC(=O)c2ccc(-c3c4nc(c(-c5cc(S(=O)(=O)[O-])ccc5F)c5ccc([nH]5)c(-c5cc(S(=O)(=O)[O-])ccc5F)c5nc(c(-c6cc(S(=O)(=O)[O-])ccc6F)c6ccc3[nH]6)C=C5)C=C4)cc2)cn1
REMARK SMILES IDX 19 1 18 2 17 3 16 4 15 5 13 6 14 7 12 8 9 9 10 10 94 11
REMARK SMILES IDX 11 12 93 13 8 14 7 15 5 18 6 19 4 20 3 21 2 22 1 23 20 24
REMARK SMILES IDX 21 25 22 26 23 27 24 28 25 29 26 30 27 31 28 32 29 33 30 34
REMARK SMILES IDX 31 35 92 36 32 37 91 38 33 39 34 40 35 41 85 42 36 43 90 44
REMARK SMILES IDX 84 45 86 46 37 47 89 48 83 49 82 50 38 52 70 53 50 54 69 55
REMARK SMILES IDX 51 56 54 57 68 58 87 59 52 60 53 61 67 63 88 64 55 65 39 66
REMARK SMILES IDX 40 67 48 68 41 69 47 70 49 71 46 72 42 73 43 74 44 75 45 76
REMARK SMILES IDX 71 77 72 78 80 79 73 80 79 81 81 82 78 83 74 84 75 85 76 86
REMARK SMILES IDX 77 87 56 88 57 89 65 90 58 91 64 92 66 93 63 94 59 95 60 96
REMARK SMILES IDX 61 97 62 98
REMARK H PARENT 7 16 7 17 86 51 54 62
REMARK Flexibility Score: inf
ROOT
ATOM      1  C   UNL A   1      41.669  22.183  27.068  1.00  0.00     0.188 C 
ENDROOT
BRANCH   1   2
ATOM      2  O   UNL A   1      40.301  22.234  27.422  1.00  0.00    -0.376 OA
BRANCH   2   3
ATOM      3  C   UNL A   1      39.344  22.776  26.530  1.00  0.00     0.202 C 
BRANCH   3   4
ATOM      4  C   UNL A   1      38.384  21.893  25.714  1.00  0.00     0.261 C 
BRANCH   4   5
ATOM      5  O   UNL A   1      36.992  21.945  26.045  1.00  0.00    -0.460 OA
BRANCH   5   6
ATOM      6  C   UNL A   1      36.122  21.324  25.225  1.00  0.00     0.339 C 
ATOM      7  O   UNL A   1      36.031  20.129  25.015  1.00  0.00    -0.246 OA
BRANCH   6   8
ATOM      8  C   UNL A   1      35.141  22.331  24.778  1.00  0.00     0.078 A 
ATOM      9  C   UNL A   1      33.509  24.346  23.852  1.00  0.00     0.094 A 
ATOM     10  C   UNL A   1      33.135  23.015  23.644  1.00  0.00     0.031 A 
ATOM     11  N   UNL A   1      34.654  24.686  24.504  1.00  0.00    -0.254 NA
ATOM     12  C   UNL A   1      33.974  21.995  24.095  1.00  0.00     0.019 A 
ATOM     13  C   UNL A   1      35.432  23.673  24.965  1.00  0.00     0.127 A 
BRANCH   9  14
ATOM     14  C   UNL A   1      32.670  25.477  23.287  1.00  0.00     0.318 C 
BRANCH  14  15
ATOM     15  N   UNL A   1      32.907  26.795  23.897  1.00  0.00    -0.339 N 
ATOM     16  H   UNL A   1      33.357  26.650  24.801  1.00  0.00     0.346 HD
ATOM     17  H   UNL A   1      33.485  27.317  23.237  1.00  0.00     0.346 HD
BRANCH  15  18
ATOM     18  C   UNL A   1      31.697  27.604  24.114  1.00  0.00     0.179 C 
ATOM     19  C   UNL A   1      31.835  29.010  23.520  1.00  0.00     0.075 C 
BRANCH  18  20
ATOM     20  C   UNL A   1      31.467  27.688  25.642  1.00  0.00     0.065 C 
BRANCH  20  21
ATOM     21  C   UNL A   1      32.711  27.428  26.509  1.00  0.00     0.006 C 
BRANCH  21  22
ATOM     22  C   UNL A   1      33.484  28.679  26.934  1.00  0.00    -0.003 C 
ATOM     23  C   UNL A   1      32.580  29.875  27.193  1.00  0.00     0.004 C 
ENDBRANCH  21  22
ENDBRANCH  20  21
ENDBRANCH  18  20
ENDBRANCH  15  18
ENDBRANCH  14  15
ENDBRANCH   9  14
ENDBRANCH   6   8
ENDBRANCH   5   6
ENDBRANCH   4   5
ENDBRANCH   3   4
ENDBRANCH   2   3
ENDBRANCH   1   2
BRANCH   1  24
ATOM     24  C   UNL A   1      41.998  21.098  26.026  1.00  0.00     0.188 C 
BRANCH  24  25
ATOM     25  O   UNL A   1      43.249  20.451  26.187  1.00  0.00    -0.377 OA
BRANCH  25  26
ATOM     26  C   UNL A   1      44.038  20.138  25.036  1.00  0.00     0.188 C 
BRANCH  26  27
ATOM     27  C   UNL A   1      45.471  20.681  24.812  1.00  0.00     0.188 C 
BRANCH  27  28
ATOM     28  O   UNL A   1      45.882  21.672  25.742  1.00  0.00    -0.376 OA
BRANCH  28  29
ATOM     29  C   UNL A   1      45.982  23.009  25.288  1.00  0.00     0.202 C 
BRANCH  29  30
ATOM     30  C   UNL A   1      44.685  23.629  24.750  1.00  0.00     0.261 C 
BRANCH  30  31
ATOM     31  O   UNL A   1      44.510  25.030  25.009  1.00  0.00    -0.460 OA
BRANCH  31  32
ATOM     32  C   UNL A   1      43.255  25.432  25.302  1.00  0.00     0.338 C 
ATOM     33  O   UNL A   1      42.254  25.243  24.627  1.00  0.00    -0.246 OA
BRANCH  32  34
ATOM     34  C   UNL A   1      43.253  25.973  26.675  1.00  0.00     0.060 A 
ATOM     35  C   UNL A   1      42.261  25.545  27.566  1.00  0.00     0.016 A 
ATOM     36  C   UNL A   1      44.211  26.908  27.076  1.00  0.00     0.016 A 
ATOM     37  C   UNL A   1      42.185  26.101  28.841  1.00  0.00     0.010 A 
ATOM     38  C   UNL A   1      44.125  27.476  28.351  1.00  0.00     0.010 A 
ATOM     39  C   UNL A   1      43.080  27.111  29.219  1.00  0.00    -0.014 A 
BRANCH  39  40
ATOM     40  C   UNL A   1      42.762  27.942  30.408  1.00  0.00     0.031 A 
ATOM     41  C   UNL A   1      43.475  27.630  31.699  1.00  0.00     0.074 A 
ATOM     42  C   UNL A   1      41.920  28.988  30.333  1.00  0.00     0.049 A 
ATOM     43  N   UNL A   1      43.382  28.213  32.866  1.00  0.00    -0.248 NA
ATOM     44  C   UNL A   1      44.419  26.502  31.665  1.00  0.00     0.031 C 
ATOM     45  C   UNL A   1      41.211  29.416  29.128  1.00  0.00     0.029 A 
ATOM     46  N   UNL A   1      41.526  29.886  31.292  1.00  0.00    -0.354 N 
ATOM     47  C   UNL A   1      44.254  27.524  33.703  1.00  0.00     0.074 A 
ATOM     48  C   UNL A   1      44.825  26.449  32.923  1.00  0.00     0.031 C 
ATOM     49  C   UNL A   1      40.470  30.498  29.421  1.00  0.00     0.029 A 
ATOM     50  C   UNL A   1      40.622  30.818  30.840  1.00  0.00     0.049 A 
ATOM     51  H   UNL A   1      41.859  29.865  32.218  1.00  0.00     0.167 HD
ATOM     52  C   UNL A   1      44.564  27.774  34.999  1.00  0.00     0.034 A 
ATOM     53  C   UNL A   1      39.981  31.804  31.501  1.00  0.00     0.034 A 
ATOM     54  C   UNL A   1      43.975  28.843  35.768  1.00  0.00     0.049 A 
ATOM     55  C   UNL A   1      40.276  32.009  32.970  1.00  0.00     0.074 A 
ATOM     56  C   UNL A   1      44.215  29.190  37.087  1.00  0.00     0.029 A 
ATOM     57  N   UNL A   1      43.019  29.733  35.293  1.00  0.00    -0.354 N 
ATOM     58  N   UNL A   1      41.109  31.356  33.750  1.00  0.00    -0.248 NA
ATOM     59  C   UNL A   1      39.555  33.097  33.642  1.00  0.00     0.031 C 
ATOM     60  C   UNL A   1      43.347  30.231  37.431  1.00  0.00     0.029 A 
ATOM     61  C   UNL A   1      42.635  30.604  36.302  1.00  0.00     0.049 A 
ATOM     62  H   UNL A   1      42.667  29.744  34.374  1.00  0.00     0.167 HD
ATOM     63  C   UNL A   1      41.036  31.981  34.994  1.00  0.00     0.074 A 
ATOM     64  C   UNL A   1      40.097  33.075  34.849  1.00  0.00     0.031 C 
ATOM     65  C   UNL A   1      41.685  31.683  36.150  1.00  0.00     0.034 A 
BRANCH  52  66
ATOM     66  C   UNL A   1      45.538  26.834  35.673  1.00  0.00     0.023 A 
ATOM     67  C   UNL A   1      46.919  27.097  35.712  1.00  0.00     0.031 A 
ATOM     68  C   UNL A   1      45.081  25.637  36.252  1.00  0.00     0.131 A 
ATOM     69  C   UNL A   1      47.799  26.143  36.247  1.00  0.00     0.055 A 
ATOM     70  C   UNL A   1      45.952  24.733  36.861  1.00  0.00     0.041 A 
ATOM     71  F   UNL A   1      43.778  25.316  36.220  1.00  0.00    -0.206 F 
ATOM     72  C   UNL A   1      47.322  24.975  36.847  1.00  0.00     0.022 A 
BRANCH  69  73
ATOM     73  S   UNL A   1      49.582  26.374  36.002  1.00  0.00     0.124 S 
ATOM     74  O   UNL A   1      49.629  26.875  34.631  1.00  0.00    -0.237 OA
ATOM     75  O   UNL A   1      49.921  27.334  37.046  1.00  0.00    -0.237 OA
ATOM     76  O   UNL A   1      50.129  25.031  36.186  1.00  0.00    -0.744 OA
ENDBRANCH  69  73
ENDBRANCH  52  66
BRANCH  53  77
ATOM     77  C   UNL A   1      38.972  32.658  30.807  1.00  0.00     0.023 A 
ATOM     78  C   UNL A   1      37.618  32.290  30.747  1.00  0.00     0.031 A 
ATOM     79  C   UNL A   1      39.366  33.825  30.127  1.00  0.00     0.131 A 
ATOM     80  C   UNL A   1      36.720  33.049  29.979  1.00  0.00     0.055 A 
ATOM     81  C   UNL A   1      38.456  34.610  29.416  1.00  0.00     0.041 A 
ATOM     82  F   UNL A   1      40.649  34.222  30.145  1.00  0.00    -0.206 F 
ATOM     83  C   UNL A   1      37.127  34.214  29.326  1.00  0.00     0.022 A 
BRANCH  80  84
ATOM     84  S   UNL A   1      35.026  32.432  29.760  1.00  0.00     0.124 S 
ATOM     85  O   UNL A   1      34.408  32.810  31.025  1.00  0.00    -0.237 OA
ATOM     86  O   UNL A   1      34.586  33.172  28.582  1.00  0.00    -0.237 OA
ATOM     87  O   UNL A   1      35.212  30.996  29.558  1.00  0.00    -0.744 OA
ENDBRANCH  80  84
ENDBRANCH  53  77
BRANCH  65  88
ATOM     88  C   UNL A   1      41.435  32.593  37.333  1.00  0.00     0.023 A 
ATOM     89  C   UNL A   1      40.287  32.470  38.136  1.00  0.00     0.031 A 
ATOM     90  C   UNL A   1      42.340  33.627  37.637  1.00  0.00     0.131 A 
ATOM     91  C   UNL A   1      40.028  33.417  39.138  1.00  0.00     0.055 A 
ATOM     92  C   UNL A   1      42.119  34.516  38.690  1.00  0.00     0.041 A 
ATOM     93  F   UNL A   1      43.453  33.799  36.907  1.00  0.00    -0.206 F 
ATOM     94  C   UNL A   1      40.946  34.428  39.434  1.00  0.00     0.022 A 
BRANCH  91  95
ATOM     95  S   UNL A   1      38.403  33.402  39.945  1.00  0.00     0.124 S 
ATOM     96  O   UNL A   1      38.476  32.186  40.748  1.00  0.00    -0.237 OA
ATOM     97  O   UNL A   1      38.413  34.658  40.688  1.00  0.00    -0.237 OA
ATOM     98  O   UNL A   1      37.465  33.352  38.825  1.00  0.00    -0.744 OA
ENDBRANCH  91  95
ENDBRANCH  65  88
ENDBRANCH  39  40
ENDBRANCH  32  34
ENDBRANCH  31  32
ENDBRANCH  30  31
ENDBRANCH  29  30
ENDBRANCH  28  29
ENDBRANCH  27  28
ENDBRANCH  26  27
ENDBRANCH  25  26
ENDBRANCH  24  25
ENDBRANCH   1  24
TORSDOF 29
ENDMDL
MODEL 2
REMARK VINA RESULT:      -7.0      4.820      9.549
REMARK SMILES CCCC[C@@H](C)[NH2+]Cc1ccc(C(=O)OCCOCCOCCOCCOC(=O)c2ccc(-c3c4nc(c(-c5cc(S(=O)(=O)[O-])ccc5F)c5ccc([nH]5)c(-c5cc(S(=O)(=O)[O-])ccc5F)c5nc(c(-c6cc(S(=O)(=O)[O-])ccc6F)c6ccc3[nH]6)C=C5)C=C4)cc2)cn1
REMARK SMILES IDX 19 1 18 2 17 3 16 4 15 5 13 6 14 7 12 8 9 9 10 10 94 11
REMARK SMILES IDX 11 12 93 13 8 14 7 15 5 18 6 19 4 20 3 21 2 22 1 23 20 24
REMARK SMILES IDX 21 25 22 26 23 27 24 28 25 29 26 30 27 31 28 32 29 33 30 34
REMARK SMILES IDX 31 35 92 36 32 37 91 38 33 39 34 40 35 41 85 42 36 43 90 44
REMARK SMILES IDX 84 45 86 46 37 47 89 48 83 49 82 50 38 52 70 53 50 54 69 55
REMARK SMILES IDX 51 56 54 57 68 58 87 59 52 60 53 61 67 63 88 64 55 65 39 66
REMARK SMILES IDX 40 67 48 68 41 69 47 70 49 71 46 72 42 73 43 74 44 75 45 76
REMARK SMILES IDX 71 77 72 78 80 79 73 80 79 81 81 82 78 83 74 84 75 85 76 86
REMARK SMILES IDX 77 87 56 88 57 89 65 90 58 91 64 92 66 93 63 94 59 95 60 96
REMARK SMILES IDX 61 97 62 98
REMARK H PARENT 7 16 7 17 86 51 54 62
REMARK Flexibility Score: inf
ROOT
ATOM      1  C   UNL A   1      43.440  25.392  26.959  1.00  0.00     0.188 C 
ENDROOT
BRANCH   1   2
ATOM      2  O   UNL A   1      44.067  24.667  25.919  1.00  0.00    -0.376 OA
BRANCH   2   3
ATOM      3  C   UNL A   1      43.303  23.873  25.030  1.00  0.00     0.202 C 
BRANCH   3   4
ATOM      4  C   UNL A   1      42.692  22.524  25.444  1.00  0.00     0.261 C 
BRANCH   4   5
ATOM      5  O   UNL A   1      41.913  22.489  26.645  1.00  0.00    -0.460 OA
BRANCH   5   6
ATOM      6  C   UNL A   1      40.936  21.565  26.740  1.00  0.00     0.339 C 
ATOM      7  O   UNL A   1      41.030  20.436  27.185  1.00  0.00    -0.246 OA
BRANCH   6   8
ATOM      8  C   UNL A   1      39.664  22.231  26.405  1.00  0.00     0.078 A 
ATOM      9  C   UNL A   1      37.169  23.262  25.861  1.00  0.00     0.094 A 
ATOM     10  C   UNL A   1      38.120  24.072  26.489  1.00  0.00     0.031 A 
ATOM     11  N   UNL A   1      37.433  21.976  25.502  1.00  0.00    -0.254 NA
ATOM     12  C   UNL A   1      39.376  23.541  26.783  1.00  0.00     0.019 A 
ATOM     13  C   UNL A   1      38.676  21.499  25.766  1.00  0.00     0.127 A 
BRANCH   9  14
ATOM     14  C   UNL A   1      35.763  23.776  25.618  1.00  0.00     0.318 C 
BRANCH  14  15
ATOM     15  N   UNL A   1      35.441  24.072  24.212  1.00  0.00    -0.339 N 
ATOM     16  H   UNL A   1      36.289  24.409  23.756  1.00  0.00     0.346 HD
ATOM     17  H   UNL A   1      35.084  23.205  23.811  1.00  0.00     0.346 HD
BRANCH  15  18
ATOM     18  C   UNL A   1      34.386  25.081  24.017  1.00  0.00     0.179 C 
ATOM     19  C   UNL A   1      33.972  25.737  25.339  1.00  0.00     0.075 C 
BRANCH  18  20
ATOM     20  C   UNL A   1      33.177  24.362  23.374  1.00  0.00     0.065 C 
BRANCH  20  21
ATOM     21  C   UNL A   1      33.439  22.918  22.912  1.00  0.00     0.006 C 
BRANCH  21  22
ATOM     22  C   UNL A   1      32.253  21.961  23.056  1.00  0.00    -0.003 C 
ATOM     23  C   UNL A   1      32.588  20.721  23.870  1.00  0.00     0.004 C 
ENDBRANCH  21  22
ENDBRANCH  20  21
ENDBRANCH  18  20
ENDBRANCH  15  18
ENDBRANCH  14  15
ENDBRANCH   9  14
ENDBRANCH   6   8
ENDBRANCH   5   6
ENDBRANCH   4   5
ENDBRANCH   3   4
ENDBRANCH   2   3
ENDBRANCH   1   2
BRANCH   1  24
ATOM     24  C   UNL A   1      42.673  26.635  26.470  1.00  0.00     0.188 C 
BRANCH  24  25
ATOM     25  O   UNL A   1      41.277  26.631  26.717  1.00  0.00    -0.377 OA
BRANCH  25  26
ATOM     26  C   UNL A   1      40.706  27.625  27.572  1.00  0.00     0.188 C 
BRANCH  26  27
ATOM     27  C   UNL A   1      39.187  27.735  27.854  1.00  0.00     0.188 C 
BRANCH  27  28
ATOM     28  O   UNL A   1      38.664  29.052  27.785  1.00  0.00    -0.376 OA
BRANCH  28  29
ATOM     29  C   UNL A   1      37.777  29.470  28.806  1.00  0.00     0.202 C 
BRANCH  29  30
ATOM     30  C   UNL A   1      38.301  29.331  30.241  1.00  0.00     0.261 C 
BRANCH  30  31
ATOM     31  O   UNL A   1      37.299  29.200  31.261  1.00  0.00    -0.460 OA
BRANCH  31  32
ATOM     32  C   UNL A   1      37.734  28.829  32.484  1.00  0.00     0.338 C 
ATOM     33  O   UNL A   1      37.779  27.691  32.927  1.00  0.00    -0.246 OA
BRANCH  32  34
ATOM     34  C   UNL A   1      38.336  30.008  33.136  1.00  0.00     0.060 A 
ATOM     35  C   UNL A   1      39.609  29.887  33.707  1.00  0.00     0.016 A 
ATOM     36  C   UNL A   1      37.643  31.220  33.200  1.00  0.00     0.016 A 
ATOM     37  C   UNL A   1      40.165  30.959  34.401  1.00  0.00     0.010 A 
ATOM     38  C   UNL A   1      38.196  32.291  33.910  1.00  0.00     0.010 A 
ATOM     39  C   UNL A   1      39.436  32.146  34.556  1.00  0.00    -0.014 A 
BRANCH  39  40
ATOM     40  C   UNL A   1      39.867  33.121  35.591  1.00  0.00     0.031 A 
ATOM     41  C   UNL A   1      39.197  33.060  36.940  1.00  0.00     0.074 A 
ATOM     42  C   UNL A   1      40.870  33.988  35.369  1.00  0.00     0.049 A 
ATOM     43  N   UNL A   1      39.403  33.786  38.008  1.00  0.00    -0.248 NA
ATOM     44  C   UNL A   1      38.150  32.038  37.102  1.00  0.00     0.031 C 
ATOM     45  C   UNL A   1      41.625  34.105  34.122  1.00  0.00     0.029 A 
ATOM     46  N   UNL A   1      41.433  34.930  36.193  1.00  0.00    -0.354 N 
ATOM     47  C   UNL A   1      38.513  33.311  38.966  1.00  0.00     0.074 A 
ATOM     48  C   UNL A   1      37.731  32.271  38.335  1.00  0.00     0.031 C 
ATOM     49  C   UNL A   1      42.555  35.065  34.266  1.00  0.00     0.029 A 
ATOM     50  C   UNL A   1      42.439  35.655  35.600  1.00  0.00     0.049 A 
ATOM     51  H   UNL A   1      41.142  35.075  37.122  1.00  0.00     0.167 HD
ATOM     52  C   UNL A   1      38.370  33.696  40.258  1.00  0.00     0.034 A 
ATOM     53  C   UNL A   1      43.168  36.685  36.074  1.00  0.00     0.034 A 
ATOM     54  C   UNL A   1      39.148  34.745  40.869  1.00  0.00     0.049 A 
ATOM     55  C   UNL A   1      42.931  37.156  37.491  1.00  0.00     0.074 A 
ATOM     56  C   UNL A   1      39.089  35.216  42.169  1.00  0.00     0.029 A 
ATOM     57  N   UNL A   1      40.120  35.497  40.220  1.00  0.00    -0.354 N 
ATOM     58  N   UNL A   1      42.091  36.694  38.391  1.00  0.00    -0.248 NA
ATOM     59  C   UNL A   1      43.754  38.278  37.960  1.00  0.00     0.031 C 
ATOM     60  C   UNL A   1      39.962  36.303  42.281  1.00  0.00     0.029 A 
ATOM     61  C   UNL A   1      40.641  36.450  41.082  1.00  0.00     0.049 A 
ATOM     62  H   UNL A   1      40.399  35.371  39.284  1.00  0.00     0.167 HD
ATOM     63  C   UNL A   1      42.314  37.447  39.543  1.00  0.00     0.074 A 
ATOM     64  C   UNL A   1      43.383  38.373  39.227  1.00  0.00     0.031 C 
ATOM     65  C   UNL A   1      41.697  37.380  40.752  1.00  0.00     0.034 A 
BRANCH  52  66
ATOM     66  C   UNL A   1      37.291  33.014  41.068  1.00  0.00     0.023 A 
ATOM     67  C   UNL A   1      35.998  33.554  41.189  1.00  0.00     0.031 A 
ATOM     68  C   UNL A   1      37.572  31.823  41.761  1.00  0.00     0.131 A 
ATOM     69  C   UNL A   1      35.063  32.947  42.044  1.00  0.00     0.055 A 
ATOM     70  C   UNL A   1      36.611  31.177  42.539  1.00  0.00     0.041 A 
ATOM     71  F   UNL A   1      38.797  31.274  41.709  1.00  0.00    -0.206 F 
ATOM     72  C   UNL A   1      35.351  31.747  42.697  1.00  0.00     0.022 A 
BRANCH  69  73
ATOM     73  S   UNL A   1      33.524  33.834  42.414  1.00  0.00     0.124 S 
ATOM     74  O   UNL A   1      33.915  34.629  43.576  1.00  0.00    -0.237 OA
ATOM     75  O   UNL A   1      33.284  34.578  41.182  1.00  0.00    -0.237 OA
ATOM     76  O   UNL A   1      32.570  32.762  42.693  1.00  0.00    -0.744 OA
ENDBRANCH  69  73
ENDBRANCH  52  66
BRANCH  53  77
ATOM     77  C   UNL A   1      44.171  37.374  35.207  1.00  0.00     0.023 A 
ATOM     78  C   UNL A   1      45.524  36.999  35.212  1.00  0.00     0.031 A 
ATOM     79  C   UNL A   1      43.798  38.472  34.410  1.00  0.00     0.131 A 
ATOM     80  C   UNL A   1      46.462  37.747  34.482  1.00  0.00     0.055 A 
ATOM     81  C   UNL A   1      44.724  39.174  33.637  1.00  0.00     0.041 A 
ATOM     82  F   UNL A   1      42.518  38.878  34.371  1.00  0.00    -0.206 F 
ATOM     83  C   UNL A   1      46.068  38.822  33.683  1.00  0.00     0.022 A 
BRANCH  80  84
ATOM     84  S   UNL A   1      48.224  37.358  34.673  1.00  0.00     0.124 S 
ATOM     85  O   UNL A   1      48.777  38.658  35.034  1.00  0.00    -0.237 OA
ATOM     86  O   UNL A   1      48.199  36.354  35.732  1.00  0.00    -0.237 OA
ATOM     87  O   UNL A   1      48.607  36.859  33.354  1.00  0.00    -0.744 OA
ENDBRANCH  80  84
ENDBRANCH  53  77
BRANCH  65  88
ATOM     88  C   UNL A   1      42.206  38.305  41.836  1.00  0.00     0.023 A 
ATOM     89  C   UNL A   1      41.670  39.591  42.028  1.00  0.00     0.031 A 
ATOM     90  C   UNL A   1      43.275  37.910  42.662  1.00  0.00     0.131 A 
ATOM     91  C   UNL A   1      42.259  40.465  42.954  1.00  0.00     0.055 A 
ATOM     92  C   UNL A   1      43.803  38.754  43.640  1.00  0.00     0.041 A 
ATOM     93  F   UNL A   1      43.832  36.696  42.527  1.00  0.00    -0.206 F 
ATOM     94  C   UNL A   1      43.310  40.048  43.776  1.00  0.00     0.022 A 
BRANCH  91  95
ATOM     95  S   UNL A   1      41.737  42.202  42.960  1.00  0.00     0.124 S 
ATOM     96  O   UNL A   1      42.984  42.894  42.651  1.00  0.00    -0.237 OA
ATOM     97  O   UNL A   1      40.720  42.225  41.915  1.00  0.00    -0.237 OA
ATOM     98  O   UNL A   1      41.235  42.403  44.318  1.00  0.00    -0.744 OA
ENDBRANCH  91  95
ENDBRANCH  65  88
ENDBRANCH  39  40
ENDBRANCH  32  34
ENDBRANCH  31  32
ENDBRANCH  30  31
ENDBRANCH  29  30
ENDBRANCH  28  29
ENDBRANCH  27  28
ENDBRANCH  26  27
ENDBRANCH  25  26
ENDBRANCH  24  25
ENDBRANCH   1  24
TORSDOF 29
ENDMDL
MODEL 3
REMARK VINA RESULT:      -6.9      7.276     14.761
REMARK SMILES CCCC[C@@H](C)[NH2+]Cc1ccc(C(=O)OCCOCCOCCOCCOC(=O)c2ccc(-c3c4nc(c(-c5cc(S(=O)(=O)[O-])ccc5F)c5ccc([nH]5)c(-c5cc(S(=O)(=O)[O-])ccc5F)c5nc(c(-c6cc(S(=O)(=O)[O-])ccc6F)c6ccc3[nH]6)C=C5)C=C4)cc2)cn1
REMARK SMILES IDX 19 1 18 2 17 3 16 4 15 5 13 6 14 7 12 8 9 9 10 10 94 11
REMARK SMILES IDX 11 12 93 13 8 14 7 15 5 18 6 19 4 20 3 21 2 22 1 23 20 24
REMARK SMILES IDX 21 25 22 26 23 27 24 28 25 29 26 30 27 31 28 32 29 33 30 34
REMARK SMILES IDX 31 35 92 36 32 37 91 38 33 39 34 40 35 41 85 42 36 43 90 44
REMARK SMILES IDX 84 45 86 46 37 47 89 48 83 49 82 50 38 52 70 53 50 54 69 55
REMARK SMILES IDX 51 56 54 57 68 58 87 59 52 60 53 61 67 63 88 64 55 65 39 66
REMARK SMILES IDX 40 67 48 68 41 69 47 70 49 71 46 72 42 73 43 74 44 75 45 76
REMARK SMILES IDX 71 77 72 78 80 79 73 80 79 81 81 82 78 83 74 84 75 85 76 86
REMARK SMILES IDX 77 87 56 88 57 89 65 90 58 91 64 92 66 93 63 94 59 95 60 96
REMARK SMILES IDX 61 97 62 98
REMARK H PARENT 7 16 7 17 86 51 54 62
REMARK Flexibility Score: inf
ROOT
ATOM      1  C   UNL A   1      51.003  29.389  40.756  1.00  0.00     0.188 C 
ENDROOT
BRANCH   1   2
ATOM      2  O   UNL A   1      49.928  29.374  39.837  1.00  0.00    -0.376 OA
BRANCH   2   3
ATOM      3  C   UNL A   1      48.786  30.182  40.050  1.00  0.00     0.202 C 
BRANCH   3   4
ATOM      4  C   UNL A   1      47.361  29.603  40.089  1.00  0.00     0.261 C 
BRANCH   4   5
ATOM      5  O   UNL A   1      47.224  28.178  40.085  1.00  0.00    -0.460 OA
BRANCH   5   6
ATOM      6  C   UNL A   1      46.030  27.657  39.741  1.00  0.00     0.339 C 
ATOM      7  O   UNL A   1      44.977  28.253  39.603  1.00  0.00    -0.246 OA
BRANCH   6   8
ATOM      8  C   UNL A   1      46.257  26.255  39.344  1.00  0.00     0.078 A 
ATOM      9  C   UNL A   1      46.494  23.668  38.432  1.00  0.00     0.094 A 
ATOM     10  C   UNL A   1      47.651  24.415  38.674  1.00  0.00     0.031 A 
ATOM     11  N   UNL A   1      45.248  24.172  38.636  1.00  0.00    -0.254 NA
ATOM     12  C   UNL A   1      47.529  25.732  39.116  1.00  0.00     0.019 A 
ATOM     13  C   UNL A   1      45.159  25.444  39.103  1.00  0.00     0.127 A 
BRANCH   9  14
ATOM     14  C   UNL A   1      46.591  22.268  37.856  1.00  0.00     0.318 C 
BRANCH  14  15
ATOM     15  N   UNL A   1      45.643  21.973  36.770  1.00  0.00    -0.339 N 
ATOM     16  H   UNL A   1      44.707  21.917  37.171  1.00  0.00     0.346 HD
ATOM     17  H   UNL A   1      45.746  22.724  36.087  1.00  0.00     0.346 HD
BRANCH  15  18
ATOM     18  C   UNL A   1      45.903  20.719  36.043  1.00  0.00     0.179 C 
ATOM     19  C   UNL A   1      46.598  19.679  36.929  1.00  0.00     0.075 C 
BRANCH  18  20
ATOM     20  C   UNL A   1      46.794  21.068  34.828  1.00  0.00     0.065 C 
BRANCH  20  21
ATOM     21  C   UNL A   1      48.293  20.767  35.002  1.00  0.00     0.006 C 
BRANCH  21  22
ATOM     22  C   UNL A   1      49.227  21.962  34.796  1.00  0.00    -0.003 C 
ATOM     23  C   UNL A   1      49.828  22.476  36.095  1.00  0.00     0.004 C 
ENDBRANCH  21  22
ENDBRANCH  20  21
ENDBRANCH  18  20
ENDBRANCH  15  18
ENDBRANCH  14  15
ENDBRANCH   9  14
ENDBRANCH   6   8
ENDBRANCH   5   6
ENDBRANCH   4   5
ENDBRANCH   3   4
ENDBRANCH   2   3
ENDBRANCH   1   2
BRANCH   1  24
ATOM     24  C   UNL A   1      50.629  28.863  42.154  1.00  0.00     0.188 C 
BRANCH  24  25
ATOM     25  O   UNL A   1      50.137  27.535  42.199  1.00  0.00    -0.377 OA
BRANCH  25  26
ATOM     26  C   UNL A   1      51.041  26.439  42.029  1.00  0.00     0.188 C 
BRANCH  26  27
ATOM     27  C   UNL A   1      52.502  26.451  42.544  1.00  0.00     0.188 C 
BRANCH  27  28
ATOM     28  O   UNL A   1      53.147  25.187  42.532  1.00  0.00    -0.376 OA
BRANCH  28  29
ATOM     29  C   UNL A   1      53.229  24.495  41.300  1.00  0.00     0.202 C 
BRANCH  29  30
ATOM     30  C   UNL A   1      54.173  25.105  40.255  1.00  0.00     0.261 C 
BRANCH  30  31
ATOM     31  O   UNL A   1      53.630  25.250  38.934  1.00  0.00    -0.460 OA
BRANCH  31  32
ATOM     32  C   UNL A   1      53.273  26.500  38.568  1.00  0.00     0.338 C 
ATOM     33  O   UNL A   1      53.531  27.535  39.164  1.00  0.00    -0.246 OA
BRANCH  32  34
ATOM     34  C   UNL A   1      52.683  26.434  37.217  1.00  0.00     0.060 A 
ATOM     35  C   UNL A   1      52.019  27.559  36.715  1.00  0.00     0.016 A 
ATOM     36  C   UNL A   1      52.769  25.264  36.457  1.00  0.00     0.016 A 
ATOM     37  C   UNL A   1      51.382  27.497  35.478  1.00  0.00     0.010 A 
ATOM     38  C   UNL A   1      52.117  25.197  35.222  1.00  0.00     0.010 A 
ATOM     39  C   UNL A   1      51.378  26.298  34.752  1.00  0.00    -0.014 A 
BRANCH  39  40
ATOM     40  C   UNL A   1      50.402  26.135  33.644  1.00  0.00     0.031 A 
ATOM     41  C   UNL A   1      50.911  26.253  32.230  1.00  0.00     0.074 A 
ATOM     42  C   UNL A   1      49.116  25.820  33.878  1.00  0.00     0.049 A 
ATOM     43  N   UNL A   1      50.267  26.139  31.098  1.00  0.00    -0.248 NA
ATOM     44  C   UNL A   1      52.346  26.543  32.078  1.00  0.00     0.031 C 
ATOM     45  C   UNL A   1      48.520  25.632  35.200  1.00  0.00     0.029 A 
ATOM     46  N   UNL A   1      48.080  25.596  33.007  1.00  0.00    -0.354 N 
ATOM     47  C   UNL A   1      51.216  26.343  30.101  1.00  0.00     0.074 A 
ATOM     48  C   UNL A   1      52.466  26.639  30.764  1.00  0.00     0.031 C 
ATOM     49  C   UNL A   1      47.222  25.317  35.051  1.00  0.00     0.029 A 
ATOM     50  C   UNL A   1      46.885  25.317  33.627  1.00  0.00     0.049 A 
ATOM     51  H   UNL A   1      48.182  25.633  32.029  1.00  0.00     0.167 HD
ATOM     52  C   UNL A   1      51.063  26.274  28.756  1.00  0.00     0.034 A 
ATOM     53  C   UNL A   1      45.660  25.103  33.105  1.00  0.00     0.034 A 
ATOM     54  C   UNL A   1      49.805  25.990  28.109  1.00  0.00     0.049 A 
ATOM     55  C   UNL A   1      45.495  25.118  31.602  1.00  0.00     0.074 A 
ATOM     56  C   UNL A   1      49.535  25.894  26.755  1.00  0.00     0.029 A 
ATOM     57  N   UNL A   1      48.602  25.768  28.769  1.00  0.00    -0.354 N 
ATOM     58  N   UNL A   1      46.401  25.304  30.667  1.00  0.00    -0.248 NA
ATOM     59  C   UNL A   1      44.142  24.876  31.084  1.00  0.00     0.031 C 
ATOM     60  C   UNL A   1      48.159  25.698  26.596  1.00  0.00     0.029 A 
ATOM     61  C   UNL A   1      47.583  25.571  27.850  1.00  0.00     0.049 A 
ATOM     62  H   UNL A   1      48.490  25.753  29.747  1.00  0.00     0.167 HD
ATOM     63  C   UNL A   1      45.731  25.164  29.453  1.00  0.00     0.074 A 
ATOM     64  C   UNL A   1      44.353  24.854  29.777  1.00  0.00     0.031 C 
ATOM     65  C   UNL A   1      46.207  25.277  28.185  1.00  0.00     0.034 A 
BRANCH  52  66
ATOM     66  C   UNL A   1      52.276  26.570  27.905  1.00  0.00     0.023 A 
ATOM     67  C   UNL A   1      53.024  25.547  27.294  1.00  0.00     0.031 A 
ATOM     68  C   UNL A   1      52.715  27.895  27.732  1.00  0.00     0.131 A 
ATOM     69  C   UNL A   1      54.208  25.859  26.608  1.00  0.00     0.055 A 
ATOM     70  C   UNL A   1      53.844  28.206  26.974  1.00  0.00     0.041 A 
ATOM     71  F   UNL A   1      52.060  28.912  28.315  1.00  0.00    -0.206 F 
ATOM     72  C   UNL A   1      54.608  27.184  26.419  1.00  0.00     0.022 A 
BRANCH  69  73
ATOM     73  S   UNL A   1      55.302  24.502  26.104  1.00  0.00     0.124 S 
ATOM     74  O   UNL A   1      56.140  25.155  25.101  1.00  0.00    -0.237 OA
ATOM     75  O   UNL A   1      55.962  24.147  27.356  1.00  0.00    -0.237 OA
ATOM     76  O   UNL A   1      54.380  23.497  25.577  1.00  0.00    -0.744 OA
ENDBRANCH  69  73
ENDBRANCH  52  66
BRANCH  53  77
ATOM     77  C   UNL A   1      44.479  24.888  33.992  1.00  0.00     0.023 A 
ATOM     78  C   UNL A   1      43.926  25.939  34.742  1.00  0.00     0.031 A 
ATOM     79  C   UNL A   1      43.929  23.604  34.158  1.00  0.00     0.131 A 
ATOM     80  C   UNL A   1      42.897  25.677  35.662  1.00  0.00     0.055 A 
ATOM     81  C   UNL A   1      42.865  23.361  35.028  1.00  0.00     0.041 A 
ATOM     82  F   UNL A   1      44.421  22.560  33.471  1.00  0.00    -0.206 F 
ATOM     83  C   UNL A   1      42.353  24.399  35.799  1.00  0.00     0.022 A 
BRANCH  80  84
ATOM     84  S   UNL A   1      42.348  27.017  36.757  1.00  0.00     0.124 S 
ATOM     85  O   UNL A   1      43.481  27.932  36.697  1.00  0.00    -0.237 OA
ATOM     86  O   UNL A   1      41.125  27.464  36.097  1.00  0.00    -0.237 OA
ATOM     87  O   UNL A   1      42.151  26.347  38.041  1.00  0.00    -0.744 OA
ENDBRANCH  80  84
ENDBRANCH  53  77
BRANCH  65  88
ATOM     88  C   UNL A   1      45.234  25.012  27.058  1.00  0.00     0.023 A 
ATOM     89  C   UNL A   1      45.007  23.715  26.562  1.00  0.00     0.031 A 
ATOM     90  C   UNL A   1      44.553  26.078  26.441  1.00  0.00     0.131 A 
ATOM     91  C   UNL A   1      44.199  23.530  25.430  1.00  0.00     0.055 A 
ATOM     92  C   UNL A   1      43.684  25.877  25.368  1.00  0.00     0.041 A 
ATOM     93  F   UNL A   1      44.729  27.339  26.867  1.00  0.00    -0.206 F 
ATOM     94  C   UNL A   1      43.520  24.600  24.841  1.00  0.00     0.022 A 
BRANCH  91  95
ATOM     95  S   UNL A   1      44.172  21.895  24.643  1.00  0.00     0.124 S 
ATOM     96  O   UNL A   1      42.914  21.344  25.136  1.00  0.00    -0.237 OA
ATOM     97  O   UNL A   1      44.208  22.232  23.224  1.00  0.00    -0.237 OA
ATOM     98  O   UNL A   1      45.377  21.247  25.158  1.00  0.00    -0.744 OA
ENDBRANCH  91  95
ENDBRANCH  65  88
ENDBRANCH  39  40
ENDBRANCH  32  34
ENDBRANCH  31  32
ENDBRANCH  30  31
ENDBRANCH  29  30
ENDBRANCH  28  29
ENDBRANCH  27  28
ENDBRANCH  26  27
ENDBRANCH  25  26
ENDBRANCH  24  25
ENDBRANCH   1  24
TORSDOF 29
ENDMDL
