MODEL 1
REMARK VINA RESULT:     -11.3      0.000      0.000
REMARK SMILES O=C(CSc1nnnn1-c1ccc(C(=O)OCCOCCOCCOCCOC(=O)c2ccc(-c3c4nc(c(-c5cc(S(=O)(=O)[O-])ccc5F)c5ccc([nH]5)c(-c5cc(S(=O)(=O)[O-])ccc5F)c5nc(c(-c6cc(S(=O)(=O)[O-])ccc6F)c6ccc3[nH]6)C=C5)C=C4)cc2)cc1)Nc1nc(-c2ccccc2)cs1
REMARK SMILES IDX 20 1 19 2 18 3 17 4 16 5 14 6 15 7 13 8 10 9 11 10 95 11
REMARK SMILES IDX 12 12 94 13 9 14 5 15 6 16 7 17 8 18 4 19 3 20 2 21 1 22
REMARK SMILES IDX 96 23 97 25 98 26 107 27 99 28 106 29 100 30 101 31 105 32
REMARK SMILES IDX 102 33 104 34 103 35 21 36 22 37 23 38 24 39 25 40 26 41
REMARK SMILES IDX 27 42 28 43 29 44 30 45 31 46 32 47 93 48 33 49 92 50 34 51
REMARK SMILES IDX 35 52 36 53 86 54 37 55 91 56 85 57 87 58 38 59 90 60 84 61
REMARK SMILES IDX 83 62 39 64 71 65 51 66 70 67 52 68 55 69 69 70 88 71 53 72
REMARK SMILES IDX 54 73 68 75 89 76 56 77 40 78 41 79 49 80 42 81 48 82 50 83
REMARK SMILES IDX 47 84 43 85 44 86 45 87 46 88 72 89 73 90 81 91 74 92 80 93
REMARK SMILES IDX 82 94 79 95 75 96 76 97 77 98 78 99 57 100 58 101 66 102
REMARK SMILES IDX 59 103 65 104 67 105 64 106 60 107 61 108 62 109 63 110
REMARK H PARENT 96 24 87 63 55 74
REMARK Flexibility Score: inf
ROOT
ATOM      1  C   UNL A   1      40.706  21.479  26.063  1.00  0.00     0.188 C 
ENDROOT
BRANCH   1   2
ATOM      2  O   UNL A   1      40.045  22.618  26.600  1.00  0.00    -0.376 OA
BRANCH   2   3
ATOM      3  C   UNL A   1      38.680  22.906  26.351  1.00  0.00     0.202 C 
BRANCH   3   4
ATOM      4  C   UNL A   1      37.822  22.119  25.348  1.00  0.00     0.261 C 
BRANCH   4   5
ATOM      5  O   UNL A   1      36.489  22.581  25.151  1.00  0.00    -0.460 OA
BRANCH   5   6
ATOM      6  C   UNL A   1      36.251  23.175  23.964  1.00  0.00     0.338 C 
ATOM      7  O   UNL A   1      36.701  22.871  22.873  1.00  0.00    -0.246 OA
BRANCH   6   8
ATOM      8  C   UNL A   1      35.202  24.195  24.161  1.00  0.00     0.060 A 
ATOM      9  C   UNL A   1      33.366  26.251  24.393  1.00  0.00     0.069 A 
ATOM     10  C   UNL A   1      33.487  25.592  23.167  1.00  0.00     0.029 A 
ATOM     11  C   UNL A   1      34.039  25.788  25.535  1.00  0.00     0.029 A 
ATOM     12  C   UNL A   1      34.440  24.585  23.048  1.00  0.00     0.018 A 
ATOM     13  C   UNL A   1      34.954  24.747  25.420  1.00  0.00     0.018 A 
BRANCH   9  14
ATOM     14  N   UNL A   1      32.745  27.516  24.414  1.00  0.00    -0.187 N 
ATOM     15  C   UNL A   1      31.408  27.797  24.174  1.00  0.00     0.214 A 
ATOM     16  N   UNL A   1      31.173  29.049  24.483  1.00  0.00    -0.101 NA
ATOM     17  N   UNL A   1      32.358  29.539  24.977  1.00  0.00    -0.022 NA
ATOM     18  N   UNL A   1      33.290  28.594  25.020  1.00  0.00    -0.039 NA
BRANCH  15  19
ATOM     19  S   UNL A   1      30.219  26.586  23.805  1.00  0.00    -0.074 SA
BRANCH  19  20
ATOM     20  C   UNL A   1      30.254  25.533  25.269  1.00  0.00     0.178 C 
BRANCH  20  21
ATOM     21  C   UNL A   1      30.811  24.131  25.066  1.00  0.00     0.236 C 
ATOM     22  O   UNL A   1      30.688  23.599  23.965  1.00  0.00    -0.274 OA
ATOM     23  N   UNL A   1      31.503  23.604  26.137  1.00  0.00    -0.301 N 
ATOM     24  H   UNL A   1      31.486  24.075  27.001  1.00  0.00     0.172 HD
BRANCH  23  25
ATOM     25  C   UNL A   1      32.214  22.437  26.024  1.00  0.00     0.189 A 
ATOM     26  N   UNL A   1      32.184  21.538  25.073  1.00  0.00    -0.220 NA
ATOM     27  S   UNL A   1      33.304  22.141  27.305  1.00  0.00    -0.105 S 
ATOM     28  C   UNL A   1      33.024  20.489  25.398  1.00  0.00     0.084 A 
ATOM     29  C   UNL A   1      33.695  20.623  26.598  1.00  0.00     0.097 A 
BRANCH  28  30
ATOM     30  C   UNL A   1      33.194  19.352  24.513  1.00  0.00     0.001 A 
ATOM     31  C   UNL A   1      34.257  18.463  24.719  1.00  0.00     0.010 A 
ATOM     32  C   UNL A   1      32.314  19.133  23.447  1.00  0.00     0.010 A 
ATOM     33  C   UNL A   1      34.427  17.360  23.878  1.00  0.00     0.001 A 
ATOM     34  C   UNL A   1      32.492  18.035  22.600  1.00  0.00     0.001 A 
ATOM     35  C   UNL A   1      33.545  17.147  22.820  1.00  0.00     0.000 A 
ENDBRANCH  28  30
ENDBRANCH  23  25
ENDBRANCH  20  21
ENDBRANCH  19  20
ENDBRANCH  15  19
ENDBRANCH   9  14
ENDBRANCH   6   8
ENDBRANCH   5   6
ENDBRANCH   4   5
ENDBRANCH   3   4
ENDBRANCH   2   3
ENDBRANCH   1   2
BRANCH   1  36
ATOM     36  C   UNL A   1      42.081  20.996  26.580  1.00  0.00     0.188 C 
BRANCH  36  37
ATOM     37  O   UNL A   1      42.008  19.911  27.488  1.00  0.00    -0.377 OA
BRANCH  37  38
ATOM     38  C   UNL A   1      42.491  18.659  26.999  1.00  0.00     0.188 C 
BRANCH  38  39
ATOM     39  C   UNL A   1      43.307  18.642  25.680  1.00  0.00     0.188 C 
BRANCH  39  40
ATOM     40  O   UNL A   1      44.530  17.918  25.751  1.00  0.00    -0.376 OA
BRANCH  40  41
ATOM     41  C   UNL A   1      45.768  18.498  25.381  1.00  0.00     0.202 C 
BRANCH  41  42
ATOM     42  C   UNL A   1      45.969  19.971  25.718  1.00  0.00     0.261 C 
BRANCH  42  43
ATOM     43  O   UNL A   1      46.305  20.762  24.598  1.00  0.00    -0.460 OA
BRANCH  43  44
ATOM     44  C   UNL A   1      45.261  21.173  23.861  1.00  0.00     0.338 C 
ATOM     45  O   UNL A   1      44.580  20.491  23.100  1.00  0.00    -0.246 OA
BRANCH  44  46
ATOM     46  C   UNL A   1      45.134  22.616  24.026  1.00  0.00     0.060 A 
ATOM     47  C   UNL A   1      46.273  23.282  24.469  1.00  0.00     0.016 A 
ATOM     48  C   UNL A   1      43.843  23.163  24.125  1.00  0.00     0.016 A 
ATOM     49  C   UNL A   1      46.086  24.360  25.294  1.00  0.00     0.010 A 
ATOM     50  C   UNL A   1      43.658  24.222  24.969  1.00  0.00     0.010 A 
ATOM     51  C   UNL A   1      44.775  24.726  25.623  1.00  0.00    -0.014 A 
BRANCH  51  52
ATOM     52  C   UNL A   1      44.593  25.732  26.635  1.00  0.00     0.031 A 
ATOM     53  C   UNL A   1      45.687  26.714  26.621  1.00  0.00     0.074 A 
ATOM     54  C   UNL A   1      43.516  25.774  27.437  1.00  0.00     0.049 A 
ATOM     55  N   UNL A   1      46.671  26.774  27.450  1.00  0.00    -0.248 NA
ATOM     56  C   UNL A   1      45.851  27.553  25.424  1.00  0.00     0.031 C 
ATOM     57  C   UNL A   1      42.284  24.987  27.364  1.00  0.00     0.029 A 
ATOM     58  N   UNL A   1      43.270  26.631  28.459  1.00  0.00    -0.354 N 
ATOM     59  C   UNL A   1      47.436  27.845  27.023  1.00  0.00     0.074 A 
ATOM     60  C   UNL A   1      47.040  28.104  25.666  1.00  0.00     0.031 C 
ATOM     61  C   UNL A   1      41.343  25.569  28.146  1.00  0.00     0.029 A 
ATOM     62  C   UNL A   1      41.941  26.688  28.858  1.00  0.00     0.049 A 
ATOM     63  H   UNL A   1      43.976  27.168  28.884  1.00  0.00     0.167 HD
ATOM     64  C   UNL A   1      48.113  28.608  27.919  1.00  0.00     0.034 A 
ATOM     65  C   UNL A   1      41.382  27.650  29.643  1.00  0.00     0.034 A 
ATOM     66  C   UNL A   1      48.226  27.934  29.195  1.00  0.00     0.049 A 
ATOM     67  C   UNL A   1      42.496  28.258  30.425  1.00  0.00     0.074 A 
ATOM     68  C   UNL A   1      48.766  26.727  29.599  1.00  0.00     0.029 A 
ATOM     69  N   UNL A   1      47.369  28.315  30.206  1.00  0.00    -0.354 N 
ATOM     70  N   UNL A   1      43.181  27.595  31.318  1.00  0.00    -0.248 NA
ATOM     71  C   UNL A   1      43.189  29.408  29.856  1.00  0.00     0.031 C 
ATOM     72  C   UNL A   1      47.850  26.218  30.566  1.00  0.00     0.029 A 
ATOM     73  C   UNL A   1      46.850  27.173  30.769  1.00  0.00     0.049 A 
ATOM     74  H   UNL A   1      47.164  29.240  30.475  1.00  0.00     0.167 HD
ATOM     75  C   UNL A   1      44.505  27.949  31.098  1.00  0.00     0.074 A 
ATOM     76  C   UNL A   1      44.439  29.139  30.251  1.00  0.00     0.031 C 
ATOM     77  C   UNL A   1      45.528  27.082  31.368  1.00  0.00     0.034 A 
BRANCH  64  78
ATOM     78  C   UNL A   1      48.326  30.090  27.762  1.00  0.00     0.023 A 
ATOM     79  C   UNL A   1      47.182  30.902  27.769  1.00  0.00     0.031 A 
ATOM     80  C   UNL A   1      49.524  30.710  27.333  1.00  0.00     0.131 A 
ATOM     81  C   UNL A   1      47.234  32.218  27.286  1.00  0.00     0.055 A 
ATOM     82  C   UNL A   1      49.587  32.042  26.925  1.00  0.00     0.041 A 
ATOM     83  F   UNL A   1      50.677  30.047  27.185  1.00  0.00    -0.206 F 
ATOM     84  C   UNL A   1      48.430  32.798  26.869  1.00  0.00     0.022 A 
BRANCH  81  85
ATOM     85  S   UNL A   1      45.675  33.100  27.045  1.00  0.00     0.124 S 
ATOM     86  O   UNL A   1      45.870  34.276  27.887  1.00  0.00    -0.237 OA
ATOM     87  O   UNL A   1      45.681  33.332  25.605  1.00  0.00    -0.237 OA
ATOM     88  O   UNL A   1      44.673  32.151  27.521  1.00  0.00    -0.744 OA
ENDBRANCH  81  85
ENDBRANCH  64  78
BRANCH  65  89
ATOM     89  C   UNL A   1      40.052  28.301  29.442  1.00  0.00     0.023 A 
ATOM     90  C   UNL A   1      39.199  28.655  30.513  1.00  0.00     0.031 A 
ATOM     91  C   UNL A   1      39.700  28.808  28.168  1.00  0.00     0.131 A 
ATOM     92  C   UNL A   1      38.065  29.475  30.283  1.00  0.00     0.055 A 
ATOM     93  C   UNL A   1      38.579  29.611  27.949  1.00  0.00     0.041 A 
ATOM     94  F   UNL A   1      40.486  28.615  27.098  1.00  0.00    -0.206 F 
ATOM     95  C   UNL A   1      37.761  29.958  29.009  1.00  0.00     0.022 A 
BRANCH  92  96
ATOM     96  S   UNL A   1      37.005  30.012  31.668  1.00  0.00     0.124 S 
ATOM     97  O   UNL A   1      37.009  28.840  32.534  1.00  0.00    -0.237 OA
ATOM     98  O   UNL A   1      37.708  31.190  32.165  1.00  0.00    -0.237 OA
ATOM     99  O   UNL A   1      35.721  30.296  31.025  1.00  0.00    -0.744 OA
ENDBRANCH  92  96
ENDBRANCH  65  89
BRANCH  77 100
ATOM    100  C   UNL A   1      45.226  25.833  32.179  1.00  0.00     0.023 A 
ATOM    101  C   UNL A   1      45.224  25.760  33.593  1.00  0.00     0.031 A 
ATOM    102  C   UNL A   1      44.806  24.693  31.472  1.00  0.00     0.131 A 
ATOM    103  C   UNL A   1      44.824  24.571  34.238  1.00  0.00     0.055 A 
ATOM    104  C   UNL A   1      44.387  23.528  32.115  1.00  0.00     0.041 A 
ATOM    105  F   UNL A   1      44.760  24.704  30.129  1.00  0.00    -0.206 F 
ATOM    106  C   UNL A   1      44.402  23.460  33.501  1.00  0.00     0.022 A 
BRANCH 103 107
ATOM    107  S   UNL A   1      44.869  24.434  36.056  1.00  0.00     0.124 S 
ATOM    108  O   UNL A   1      45.252  23.045  36.285  1.00  0.00    -0.237 OA
ATOM    109  O   UNL A   1      45.862  25.439  36.424  1.00  0.00    -0.237 OA
ATOM    110  O   UNL A   1      43.499  24.760  36.455  1.00  0.00    -0.744 OA
ENDBRANCH 103 107
ENDBRANCH  77 100
ENDBRANCH  51  52
ENDBRANCH  44  46
ENDBRANCH  43  44
ENDBRANCH  42  43
ENDBRANCH  41  42
ENDBRANCH  40  41
ENDBRANCH  39  40
ENDBRANCH  38  39
ENDBRANCH  37  38
ENDBRANCH  36  37
ENDBRANCH   1  36
TORSDOF 29
ENDMDL
MODEL 2
REMARK VINA RESULT:     -11.1      4.244      9.385
REMARK SMILES O=C(CSc1nnnn1-c1ccc(C(=O)OCCOCCOCCOCCOC(=O)c2ccc(-c3c4nc(c(-c5cc(S(=O)(=O)[O-])ccc5F)c5ccc([nH]5)c(-c5cc(S(=O)(=O)[O-])ccc5F)c5nc(c(-c6cc(S(=O)(=O)[O-])ccc6F)c6ccc3[nH]6)C=C5)C=C4)cc2)cc1)Nc1nc(-c2ccccc2)cs1
REMARK SMILES IDX 20 1 19 2 18 3 17 4 16 5 14 6 15 7 13 8 10 9 11 10 95 11
REMARK SMILES IDX 12 12 94 13 9 14 5 15 6 16 7 17 8 18 4 19 3 20 2 21 1 22
REMARK SMILES IDX 96 23 97 25 98 26 107 27 99 28 106 29 100 30 101 31 105 32
REMARK SMILES IDX 102 33 104 34 103 35 21 36 22 37 23 38 24 39 25 40 26 41
REMARK SMILES IDX 27 42 28 43 29 44 30 45 31 46 32 47 93 48 33 49 92 50 34 51
REMARK SMILES IDX 35 52 36 53 86 54 37 55 91 56 85 57 87 58 38 59 90 60 84 61
REMARK SMILES IDX 83 62 39 64 71 65 51 66 70 67 52 68 55 69 69 70 88 71 53 72
REMARK SMILES IDX 54 73 68 75 89 76 56 77 40 78 41 79 49 80 42 81 48 82 50 83
REMARK SMILES IDX 47 84 43 85 44 86 45 87 46 88 72 89 73 90 81 91 74 92 80 93
REMARK SMILES IDX 82 94 79 95 75 96 76 97 77 98 78 99 57 100 58 101 66 102
REMARK SMILES IDX 59 103 65 104 67 105 64 106 60 107 61 108 62 109 63 110
REMARK H PARENT 96 24 87 63 55 74
REMARK Flexibility Score: inf
ROOT
ATOM      1  C   UNL A   1      38.318  21.418  25.399  1.00  0.00     0.188 C 
ENDROOT
BRANCH   1   2
ATOM      2  O   UNL A   1      36.958  21.308  25.795  1.00  0.00    -0.376 OA
BRANCH   2   3
ATOM      3  C   UNL A   1      35.926  20.912  24.908  1.00  0.00     0.202 C 
BRANCH   3   4
ATOM      4  C   UNL A   1      35.077  19.648  25.113  1.00  0.00     0.261 C 
BRANCH   4   5
ATOM      5  O   UNL A   1      33.861  19.808  25.837  1.00  0.00    -0.460 OA
BRANCH   5   6
ATOM      6  C   UNL A   1      32.732  19.657  25.115  1.00  0.00     0.338 C 
ATOM      7  O   UNL A   1      31.987  18.694  25.085  1.00  0.00    -0.246 OA
BRANCH   6   8
ATOM      8  C   UNL A   1      32.432  20.944  24.454  1.00  0.00     0.060 A 
ATOM      9  C   UNL A   1      32.069  23.323  23.091  1.00  0.00     0.069 A 
ATOM     10  C   UNL A   1      31.890  22.119  22.404  1.00  0.00     0.029 A 
ATOM     11  C   UNL A   1      32.272  23.342  24.480  1.00  0.00     0.029 A 
ATOM     12  C   UNL A   1      32.113  20.927  23.087  1.00  0.00     0.018 A 
ATOM     13  C   UNL A   1      32.443  22.144  25.167  1.00  0.00     0.018 A 
BRANCH   9  14
ATOM     14  N   UNL A   1      32.272  24.498  22.340  1.00  0.00    -0.187 N 
ATOM     15  C   UNL A   1      31.646  25.723  22.515  1.00  0.00     0.214 A 
ATOM     16  N   UNL A   1      32.240  26.617  21.763  1.00  0.00    -0.101 NA
ATOM     17  N   UNL A   1      33.285  25.960  21.160  1.00  0.00    -0.022 NA
ATOM     18  N   UNL A   1      33.364  24.699  21.570  1.00  0.00    -0.039 NA
BRANCH  15  19
ATOM     19  S   UNL A   1      30.465  26.035  23.750  1.00  0.00    -0.074 SA
BRANCH  19  20
ATOM     20  C   UNL A   1      30.282  27.828  23.683  1.00  0.00     0.178 C 
BRANCH  20  21
ATOM     21  C   UNL A   1      31.440  28.636  24.252  1.00  0.00     0.236 C 
ATOM     22  O   UNL A   1      31.943  29.517  23.559  1.00  0.00    -0.274 OA
ATOM     23  N   UNL A   1      31.772  28.362  25.563  1.00  0.00    -0.301 N 
ATOM     24  H   UNL A   1      31.360  27.589  26.012  1.00  0.00     0.172 HD
BRANCH  23  25
ATOM     25  C   UNL A   1      32.663  29.143  26.254  1.00  0.00     0.189 A 
ATOM     26  N   UNL A   1      32.593  30.417  26.545  1.00  0.00    -0.220 NA
ATOM     27  S   UNL A   1      34.044  28.315  26.823  1.00  0.00    -0.105 S 
ATOM     28  C   UNL A   1      33.743  30.807  27.205  1.00  0.00     0.084 A 
ATOM     29  C   UNL A   1      34.670  29.803  27.416  1.00  0.00     0.097 A 
BRANCH  28  30
ATOM     30  C   UNL A   1      33.932  32.172  27.659  1.00  0.00     0.001 A 
ATOM     31  C   UNL A   1      35.221  32.638  27.945  1.00  0.00     0.010 A 
ATOM     32  C   UNL A   1      32.839  33.032  27.825  1.00  0.00     0.010 A 
ATOM     33  C   UNL A   1      35.417  33.953  28.376  1.00  0.00     0.001 A 
ATOM     34  C   UNL A   1      33.036  34.343  28.266  1.00  0.00     0.001 A 
ATOM     35  C   UNL A   1      34.324  34.804  28.536  1.00  0.00     0.000 A 
ENDBRANCH  28  30
ENDBRANCH  23  25
ENDBRANCH  20  21
ENDBRANCH  19  20
ENDBRANCH  15  19
ENDBRANCH   9  14
ENDBRANCH   6   8
ENDBRANCH   5   6
ENDBRANCH   4   5
ENDBRANCH   3   4
ENDBRANCH   2   3
ENDBRANCH   1   2
BRANCH   1  36
ATOM     36  C   UNL A   1      39.407  22.016  26.321  1.00  0.00     0.188 C 
BRANCH  36  37
ATOM     37  O   UNL A   1      40.144  21.048  27.046  1.00  0.00    -0.377 OA
BRANCH  37  38
ATOM     38  C   UNL A   1      41.400  20.672  26.479  1.00  0.00     0.188 C 
BRANCH  38  39
ATOM     39  C   UNL A   1      42.347  21.789  25.967  1.00  0.00     0.188 C 
BRANCH  39  40
ATOM     40  O   UNL A   1      42.663  22.785  26.933  1.00  0.00    -0.376 OA
BRANCH  40  41
ATOM     41  C   UNL A   1      43.457  23.914  26.614  1.00  0.00     0.202 C 
BRANCH  41  42
ATOM     42  C   UNL A   1      42.912  25.279  27.018  1.00  0.00     0.261 C 
BRANCH  42  43
ATOM     43  O   UNL A   1      41.568  25.242  27.448  1.00  0.00    -0.460 OA
BRANCH  43  44
ATOM     44  C   UNL A   1      40.698  25.865  26.638  1.00  0.00     0.338 C 
ATOM     45  O   UNL A   1      40.558  25.691  25.430  1.00  0.00    -0.246 OA
BRANCH  44  46
ATOM     46  C   UNL A   1      40.008  26.886  27.417  1.00  0.00     0.060 A 
ATOM     47  C   UNL A   1      40.266  28.206  27.058  1.00  0.00     0.016 A 
ATOM     48  C   UNL A   1      39.483  26.525  28.670  1.00  0.00     0.016 A 
ATOM     49  C   UNL A   1      40.293  29.134  28.065  1.00  0.00     0.010 A 
ATOM     50  C   UNL A   1      39.536  27.447  29.677  1.00  0.00     0.010 A 
ATOM     51  C   UNL A   1      40.047  28.703  29.373  1.00  0.00    -0.014 A 
BRANCH  51  52
ATOM     52  C   UNL A   1      40.264  29.642  30.442  1.00  0.00     0.031 A 
ATOM     53  C   UNL A   1      39.063  30.447  30.704  1.00  0.00     0.074 A 
ATOM     54  C   UNL A   1      41.415  29.708  31.133  1.00  0.00     0.049 A 
ATOM     55  N   UNL A   1      38.867  31.668  30.344  1.00  0.00    -0.248 NA
ATOM     56  C   UNL A   1      37.857  29.755  31.185  1.00  0.00     0.031 C 
ATOM     57  C   UNL A   1      42.563  28.801  31.097  1.00  0.00     0.029 A 
ATOM     58  N   UNL A   1      41.752  30.588  32.108  1.00  0.00    -0.354 N 
ATOM     59  C   UNL A   1      37.599  31.979  30.803  1.00  0.00     0.074 A 
ATOM     60  C   UNL A   1      36.949  30.723  31.063  1.00  0.00     0.031 C 
ATOM     61  C   UNL A   1      43.351  29.045  32.171  1.00  0.00     0.029 A 
ATOM     62  C   UNL A   1      42.827  30.194  32.895  1.00  0.00     0.049 A 
ATOM     63  H   UNL A   1      41.274  31.436  32.248  1.00  0.00     0.167 HD
ATOM     64  C   UNL A   1      37.303  33.241  31.205  1.00  0.00     0.034 A 
ATOM     65  C   UNL A   1      43.183  30.734  34.093  1.00  0.00     0.034 A 
ATOM     66  C   UNL A   1      38.292  34.184  30.730  1.00  0.00     0.049 A 
ATOM     67  C   UNL A   1      42.608  32.109  34.124  1.00  0.00     0.074 A 
ATOM     68  C   UNL A   1      38.756  34.539  29.477  1.00  0.00     0.029 A 
ATOM     69  N   UNL A   1      39.255  34.614  31.619  1.00  0.00    -0.354 N 
ATOM     70  N   UNL A   1      42.997  33.059  33.315  1.00  0.00    -0.248 NA
ATOM     71  C   UNL A   1      41.267  32.283  34.670  1.00  0.00     0.031 C 
ATOM     72  C   UNL A   1      40.163  34.705  29.638  1.00  0.00     0.029 A 
ATOM     73  C   UNL A   1      40.475  34.533  30.989  1.00  0.00     0.049 A 
ATOM     74  H   UNL A   1      39.097  34.923  32.540  1.00  0.00     0.167 HD
ATOM     75  C   UNL A   1      41.829  33.685  32.902  1.00  0.00     0.074 A 
ATOM     76  C   UNL A   1      40.805  33.227  33.842  1.00  0.00     0.031 C 
ATOM     77  C   UNL A   1      41.733  34.271  31.670  1.00  0.00     0.034 A 
BRANCH  64  78
ATOM     78  C   UNL A   1      36.353  33.558  32.331  1.00  0.00     0.023 A 
ATOM     79  C   UNL A   1      35.242  34.356  32.019  1.00  0.00     0.031 A 
ATOM     80  C   UNL A   1      36.615  33.369  33.708  1.00  0.00     0.131 A 
ATOM     81  C   UNL A   1      34.509  34.991  33.033  1.00  0.00     0.055 A 
ATOM     82  C   UNL A   1      35.837  33.940  34.715  1.00  0.00     0.041 A 
ATOM     83  F   UNL A   1      37.688  32.711  34.165  1.00  0.00    -0.206 F 
ATOM     84  C   UNL A   1      34.794  34.784  34.381  1.00  0.00     0.022 A 
BRANCH  81  85
ATOM     85  S   UNL A   1      33.287  36.232  32.552  1.00  0.00     0.124 S 
ATOM     86  O   UNL A   1      33.071  36.935  33.812  1.00  0.00    -0.237 OA
ATOM     87  O   UNL A   1      34.003  36.971  31.517  1.00  0.00    -0.237 OA
ATOM     88  O   UNL A   1      32.160  35.432  32.082  1.00  0.00    -0.744 OA
ENDBRANCH  81  85
ENDBRANCH  64  78
BRANCH  65  89
ATOM     89  C   UNL A   1      43.624  29.987  35.310  1.00  0.00     0.023 A 
ATOM     90  C   UNL A   1      43.083  28.734  35.681  1.00  0.00     0.031 A 
ATOM     91  C   UNL A   1      44.781  30.401  36.011  1.00  0.00     0.131 A 
ATOM     92  C   UNL A   1      43.696  27.965  36.704  1.00  0.00     0.055 A 
ATOM     93  C   UNL A   1      45.376  29.641  37.020  1.00  0.00     0.041 A 
ATOM     94  F   UNL A   1      45.434  31.526  35.680  1.00  0.00    -0.206 F 
ATOM     95  C   UNL A   1      44.841  28.413  37.364  1.00  0.00     0.022 A 
BRANCH  92  96
ATOM     96  S   UNL A   1      43.061  26.310  37.133  1.00  0.00     0.124 S 
ATOM     97  O   UNL A   1      41.644  26.568  37.355  1.00  0.00    -0.237 OA
ATOM     98  O   UNL A   1      43.402  25.525  35.952  1.00  0.00    -0.237 OA
ATOM     99  O   UNL A   1      43.816  25.957  38.338  1.00  0.00    -0.744 OA
ENDBRANCH  92  96
ENDBRANCH  65  89
BRANCH  77 100
ATOM    100  C   UNL A   1      43.006  34.485  30.867  1.00  0.00     0.023 A 
ATOM    101  C   UNL A   1      43.408  33.708  29.755  1.00  0.00     0.031 A 
ATOM    102  C   UNL A   1      43.784  35.612  31.185  1.00  0.00     0.131 A 
ATOM    103  C   UNL A   1      44.558  34.067  29.021  1.00  0.00     0.055 A 
ATOM    104  C   UNL A   1      44.906  35.978  30.442  1.00  0.00     0.041 A 
ATOM    105  F   UNL A   1      43.443  36.407  32.214  1.00  0.00    -0.206 F 
ATOM    106  C   UNL A   1      45.302  35.201  29.361  1.00  0.00     0.022 A 
BRANCH 103 107
ATOM    107  S   UNL A   1      45.130  33.049  27.621  1.00  0.00     0.124 S 
ATOM    108  O   UNL A   1      44.412  33.602  26.479  1.00  0.00    -0.237 OA
ATOM    109  O   UNL A   1      46.573  33.270  27.638  1.00  0.00    -0.237 OA
ATOM    110  O   UNL A   1      44.720  31.694  27.997  1.00  0.00    -0.744 OA
ENDBRANCH 103 107
ENDBRANCH  77 100
ENDBRANCH  51  52
ENDBRANCH  44  46
ENDBRANCH  43  44
ENDBRANCH  42  43
ENDBRANCH  41  42
ENDBRANCH  40  41
ENDBRANCH  39  40
ENDBRANCH  38  39
ENDBRANCH  37  38
ENDBRANCH  36  37
ENDBRANCH   1  36
TORSDOF 29
ENDMDL
MODEL 3
REMARK VINA RESULT:     -10.6      3.926      8.410
REMARK SMILES O=C(CSc1nnnn1-c1ccc(C(=O)OCCOCCOCCOCCOC(=O)c2ccc(-c3c4nc(c(-c5cc(S(=O)(=O)[O-])ccc5F)c5ccc([nH]5)c(-c5cc(S(=O)(=O)[O-])ccc5F)c5nc(c(-c6cc(S(=O)(=O)[O-])ccc6F)c6ccc3[nH]6)C=C5)C=C4)cc2)cc1)Nc1nc(-c2ccccc2)cs1
REMARK SMILES IDX 20 1 19 2 18 3 17 4 16 5 14 6 15 7 13 8 10 9 11 10 95 11
REMARK SMILES IDX 12 12 94 13 9 14 5 15 6 16 7 17 8 18 4 19 3 20 2 21 1 22
REMARK SMILES IDX 96 23 97 25 98 26 107 27 99 28 106 29 100 30 101 31 105 32
REMARK SMILES IDX 102 33 104 34 103 35 21 36 22 37 23 38 24 39 25 40 26 41
REMARK SMILES IDX 27 42 28 43 29 44 30 45 31 46 32 47 93 48 33 49 92 50 34 51
REMARK SMILES IDX 35 52 36 53 86 54 37 55 91 56 85 57 87 58 38 59 90 60 84 61
REMARK SMILES IDX 83 62 39 64 71 65 51 66 70 67 52 68 55 69 69 70 88 71 53 72
REMARK SMILES IDX 54 73 68 75 89 76 56 77 40 78 41 79 49 80 42 81 48 82 50 83
REMARK SMILES IDX 47 84 43 85 44 86 45 87 46 88 72 89 73 90 81 91 74 92 80 93
REMARK SMILES IDX 82 94 79 95 75 96 76 97 77 98 78 99 57 100 58 101 66 102
REMARK SMILES IDX 59 103 65 104 67 105 64 106 60 107 61 108 62 109 63 110
REMARK H PARENT 96 24 87 63 55 74
REMARK Flexibility Score: inf
ROOT
ATOM      1  C   UNL A   1      36.934  22.879  23.204  1.00  0.00     0.188 C 
ENDROOT
BRANCH   1   2
ATOM      2  O   UNL A   1      35.822  23.276  22.412  1.00  0.00    -0.376 OA
BRANCH   2   3
ATOM      3  C   UNL A   1      34.480  23.155  22.851  1.00  0.00     0.202 C 
BRANCH   3   4
ATOM      4  C   UNL A   1      33.341  24.049  22.338  1.00  0.00     0.261 C 
BRANCH   4   5
ATOM      5  O   UNL A   1      33.721  25.201  21.592  1.00  0.00    -0.460 OA
BRANCH   5   6
ATOM      6  C   UNL A   1      32.707  25.890  21.032  1.00  0.00     0.338 C 
ATOM      7  O   UNL A   1      32.084  25.614  20.022  1.00  0.00    -0.246 OA
BRANCH   6   8
ATOM      8  C   UNL A   1      32.339  26.993  21.943  1.00  0.00     0.060 A 
ATOM      9  C   UNL A   1      31.819  28.979  23.796  1.00  0.00     0.069 A 
ATOM     10  C   UNL A   1      33.009  29.034  23.067  1.00  0.00     0.029 A 
ATOM     11  C   UNL A   1      30.826  28.033  23.494  1.00  0.00     0.029 A 
ATOM     12  C   UNL A   1      33.281  28.010  22.165  1.00  0.00     0.018 A 
ATOM     13  C   UNL A   1      31.084  27.042  22.553  1.00  0.00     0.018 A 
BRANCH   9  14
ATOM     14  N   UNL A   1      31.726  29.733  24.984  1.00  0.00    -0.187 N 
ATOM     15  C   UNL A   1      32.610  29.725  26.053  1.00  0.00     0.214 A 
ATOM     16  N   UNL A   1      32.296  30.699  26.872  1.00  0.00    -0.101 NA
ATOM     17  N   UNL A   1      31.246  31.358  26.281  1.00  0.00    -0.022 NA
ATOM     18  N   UNL A   1      30.951  30.833  25.098  1.00  0.00    -0.039 NA
BRANCH  15  19
ATOM     19  S   UNL A   1      34.050  28.756  26.106  1.00  0.00    -0.074 SA
BRANCH  19  20
ATOM     20  C   UNL A   1      33.500  27.273  26.974  1.00  0.00     0.178 C 
BRANCH  20  21
ATOM     21  C   UNL A   1      33.176  26.072  26.097  1.00  0.00     0.236 C 
ATOM     22  O   UNL A   1      33.671  26.008  24.974  1.00  0.00    -0.274 OA
ATOM     23  N   UNL A   1      32.408  25.090  26.689  1.00  0.00    -0.301 N 
ATOM     24  H   UNL A   1      31.999  25.264  27.568  1.00  0.00     0.172 HD
BRANCH  23  25
ATOM     25  C   UNL A   1      32.204  23.878  26.082  1.00  0.00     0.189 A 
ATOM     26  N   UNL A   1      33.020  22.862  25.968  1.00  0.00    -0.220 NA
ATOM     27  S   UNL A   1      30.651  23.676  25.401  1.00  0.00    -0.105 S 
ATOM     28  C   UNL A   1      32.420  21.864  25.224  1.00  0.00     0.084 A 
ATOM     29  C   UNL A   1      31.135  22.141  24.795  1.00  0.00     0.097 A 
BRANCH  28  30
ATOM     30  C   UNL A   1      33.098  20.611  24.948  1.00  0.00     0.001 A 
ATOM     31  C   UNL A   1      34.476  20.502  25.171  1.00  0.00     0.010 A 
ATOM     32  C   UNL A   1      32.394  19.507  24.451  1.00  0.00     0.010 A 
ATOM     33  C   UNL A   1      35.140  19.299  24.915  1.00  0.00     0.001 A 
ATOM     34  C   UNL A   1      33.061  18.308  24.187  1.00  0.00     0.001 A 
ATOM     35  C   UNL A   1      34.431  18.203  24.423  1.00  0.00     0.000 A 
ENDBRANCH  28  30
ENDBRANCH  23  25
ENDBRANCH  20  21
ENDBRANCH  19  20
ENDBRANCH  15  19
ENDBRANCH   9  14
ENDBRANCH   6   8
ENDBRANCH   5   6
ENDBRANCH   4   5
ENDBRANCH   3   4
ENDBRANCH   2   3
ENDBRANCH   1   2
BRANCH   1  36
ATOM     36  C   UNL A   1      36.924  22.958  24.748  1.00  0.00     0.188 C 
BRANCH  36  37
ATOM     37  O   UNL A   1      37.703  21.959  25.382  1.00  0.00    -0.377 OA
BRANCH  37  38
ATOM     38  C   UNL A   1      38.837  22.427  26.114  1.00  0.00     0.188 C 
BRANCH  38  39
ATOM     39  C   UNL A   1      39.940  21.409  26.505  1.00  0.00     0.188 C 
BRANCH  39  40
ATOM     40  O   UNL A   1      41.217  21.674  25.936  1.00  0.00    -0.376 OA
BRANCH  40  41
ATOM     41  C   UNL A   1      41.934  22.862  26.224  1.00  0.00     0.202 C 
BRANCH  41  42
ATOM     42  C   UNL A   1      41.402  23.734  27.355  1.00  0.00     0.261 C 
BRANCH  42  43
ATOM     43  O   UNL A   1      41.769  25.092  27.236  1.00  0.00    -0.460 OA
BRANCH  43  44
ATOM     44  C   UNL A   1      41.005  25.813  26.400  1.00  0.00     0.338 C 
ATOM     45  O   UNL A   1      41.013  25.774  25.173  1.00  0.00    -0.246 OA
BRANCH  44  46
ATOM     46  C   UNL A   1      40.229  26.754  27.199  1.00  0.00     0.060 A 
ATOM     47  C   UNL A   1      40.350  28.097  26.849  1.00  0.00     0.016 A 
ATOM     48  C   UNL A   1      39.759  26.332  28.455  1.00  0.00     0.016 A 
ATOM     49  C   UNL A   1      40.298  29.014  27.865  1.00  0.00     0.010 A 
ATOM     50  C   UNL A   1      39.734  27.246  29.470  1.00  0.00     0.010 A 
ATOM     51  C   UNL A   1      40.114  28.549  29.172  1.00  0.00    -0.014 A 
BRANCH  51  52
ATOM     52  C   UNL A   1      40.252  29.496  30.247  1.00  0.00     0.031 A 
ATOM     53  C   UNL A   1      39.016  30.266  30.448  1.00  0.00     0.074 A 
ATOM     54  C   UNL A   1      41.365  29.596  30.994  1.00  0.00     0.049 A 
ATOM     55  N   UNL A   1      38.804  31.481  30.074  1.00  0.00    -0.248 NA
ATOM     56  C   UNL A   1      37.808  29.542  30.870  1.00  0.00     0.031 C 
ATOM     57  C   UNL A   1      42.538  28.722  31.017  1.00  0.00     0.029 A 
ATOM     58  N   UNL A   1      41.628  30.486  31.982  1.00  0.00    -0.354 N 
ATOM     59  C   UNL A   1      37.506  31.756  30.469  1.00  0.00     0.074 A 
ATOM     60  C   UNL A   1      36.880  30.483  30.702  1.00  0.00     0.031 C 
ATOM     61  C   UNL A   1      43.265  28.990  32.128  1.00  0.00     0.029 A 
ATOM     62  C   UNL A   1      42.674  30.125  32.821  1.00  0.00     0.049 A 
ATOM     63  H   UNL A   1      41.120  31.321  32.095  1.00  0.00     0.167 HD
ATOM     64  C   UNL A   1      37.155  33.010  30.853  1.00  0.00     0.034 A 
ATOM     65  C   UNL A   1      42.954  30.676  34.034  1.00  0.00     0.034 A 
ATOM     66  C   UNL A   1      38.140  33.980  30.424  1.00  0.00     0.049 A 
ATOM     67  C   UNL A   1      42.340  32.035  34.033  1.00  0.00     0.074 A 
ATOM     68  C   UNL A   1      38.655  34.346  29.194  1.00  0.00     0.029 A 
ATOM     69  N   UNL A   1      39.045  34.439  31.358  1.00  0.00    -0.354 N 
ATOM     70  N   UNL A   1      42.741  32.994  33.241  1.00  0.00    -0.248 NA
ATOM     71  C   UNL A   1      40.970  32.172  34.511  1.00  0.00     0.031 C 
ATOM     72  C   UNL A   1      40.047  34.552  29.424  1.00  0.00     0.029 A 
ATOM     73  C   UNL A   1      40.296  34.391  30.789  1.00  0.00     0.049 A 
ATOM     74  H   UNL A   1      38.833  34.745  32.270  1.00  0.00     0.167 HD
ATOM     75  C   UNL A   1      41.577  33.586  32.769  1.00  0.00     0.074 A 
ATOM     76  C   UNL A   1      40.522  33.101  33.659  1.00  0.00     0.031 C 
ATOM     77  C   UNL A   1      41.526  34.167  31.532  1.00  0.00     0.034 A 
BRANCH  64  78
ATOM     78  C   UNL A   1      36.143  33.302  31.929  1.00  0.00     0.023 A 
ATOM     79  C   UNL A   1      35.021  34.059  31.558  1.00  0.00     0.031 A 
ATOM     80  C   UNL A   1      36.345  33.131  33.319  1.00  0.00     0.131 A 
ATOM     81  C   UNL A   1      34.220  34.675  32.531  1.00  0.00     0.055 A 
ATOM     82  C   UNL A   1      35.501  33.682  34.283  1.00  0.00     0.041 A 
ATOM     83  F   UNL A   1      37.416  32.513  33.831  1.00  0.00    -0.206 F 
ATOM     84  C   UNL A   1      34.446  34.487  33.893  1.00  0.00     0.022 A 
BRANCH  81  85
ATOM     85  S   UNL A   1      32.980  35.871  31.982  1.00  0.00     0.124 S 
ATOM     86  O   UNL A   1      33.129  35.802  30.532  1.00  0.00    -0.237 OA
ATOM     87  O   UNL A   1      31.753  35.304  32.532  1.00  0.00    -0.237 OA
ATOM     88  O   UNL A   1      33.421  37.120  32.596  1.00  0.00    -0.744 OA
ENDBRANCH  81  85
ENDBRANCH  64  78
BRANCH  65  89
ATOM     89  C   UNL A   1      43.356  29.944  35.273  1.00  0.00     0.023 A 
ATOM     90  C   UNL A   1      42.809  28.693  35.639  1.00  0.00     0.031 A 
ATOM     91  C   UNL A   1      44.486  30.372  36.010  1.00  0.00     0.131 A 
ATOM     92  C   UNL A   1      43.388  27.938  36.690  1.00  0.00     0.055 A 
ATOM     93  C   UNL A   1      45.048  29.625  37.048  1.00  0.00     0.041 A 
ATOM     94  F   UNL A   1      45.144  31.497  35.690  1.00  0.00    -0.206 F 
ATOM     95  C   UNL A   1      44.508  28.398  37.386  1.00  0.00     0.022 A 
BRANCH  92  96
ATOM     96  S   UNL A   1      42.747  26.284  37.115  1.00  0.00     0.124 S 
ATOM     97  O   UNL A   1      42.858  25.573  35.847  1.00  0.00    -0.237 OA
ATOM     98  O   UNL A   1      43.650  25.859  38.179  1.00  0.00    -0.237 OA
ATOM     99  O   UNL A   1      41.375  26.551  37.551  1.00  0.00    -0.744 OA
ENDBRANCH  92  96
ENDBRANCH  65  89
BRANCH  77 100
ATOM    100  C   UNL A   1      42.830  34.416  30.792  1.00  0.00     0.023 A 
ATOM    101  C   UNL A   1      43.349  33.601  29.758  1.00  0.00     0.031 A 
ATOM    102  C   UNL A   1      43.515  35.609  31.081  1.00  0.00     0.131 A 
ATOM    103  C   UNL A   1      44.518  33.990  29.070  1.00  0.00     0.055 A 
ATOM    104  C   UNL A   1      44.656  36.003  30.381  1.00  0.00     0.041 A 
ATOM    105  F   UNL A   1      43.061  36.441  32.034  1.00  0.00    -0.206 F 
ATOM    106  C   UNL A   1      45.166  35.190  29.378  1.00  0.00     0.022 A 
BRANCH 103 107
ATOM    107  S   UNL A   1      45.238  32.928  27.775  1.00  0.00     0.124 S 
ATOM    108  O   UNL A   1      44.252  32.981  26.701  1.00  0.00    -0.237 OA
ATOM    109  O   UNL A   1      46.515  33.583  27.504  1.00  0.00    -0.237 OA
ATOM    110  O   UNL A   1      45.352  31.624  28.430  1.00  0.00    -0.744 OA
ENDBRANCH 103 107
ENDBRANCH  77 100
ENDBRANCH  51  52
ENDBRANCH  44  46
ENDBRANCH  43  44
ENDBRANCH  42  43
ENDBRANCH  41  42
ENDBRANCH  40  41
ENDBRANCH  39  40
ENDBRANCH  38  39
ENDBRANCH  37  38
ENDBRANCH  36  37
ENDBRANCH   1  36
TORSDOF 29
ENDMDL
