MODEL 1
REMARK VINA RESULT:      -8.9      0.000      0.000
REMARK SMILES NC(=O)c1cc(NC(=O)/C=C\C(=O)OCCOCCOCCOCCOC(=O)c2ccc(-c3c4nc(c(-c5cc(S(=O)(=O)[O-])ccc5F)c5ccc([nH]5)c(-c5cc(S(=O)(=O)[O-])ccc5F)c5nc(c(-c6cc(S(=O)(=O)[O-])ccc6F)c6ccc3[nH]6)C=C5)C=C4)cc2)ccc1N1CCOCC1
REMARK SMILES IDX 20 1 19 2 18 3 17 4 16 5 15 6 14 7 12 8 13 9 11 10 10 11
REMARK SMILES IDX 8 12 7 13 9 15 6 16 4 17 5 18 94 19 93 20 92 21 2 22 1 23
REMARK SMILES IDX 3 26 95 27 96 28 100 29 97 30 99 31 98 32 21 33 22 34 23 35
REMARK SMILES IDX 24 36 25 37 26 38 27 39 28 40 29 41 30 42 91 43 31 44 90 45
REMARK SMILES IDX 32 46 33 47 34 48 84 49 35 50 89 51 83 52 85 53 36 54 88 55
REMARK SMILES IDX 82 56 81 57 37 59 69 60 49 61 68 62 50 63 53 64 67 65 86 66
REMARK SMILES IDX 51 67 52 68 66 70 87 71 54 72 38 73 39 74 47 75 40 76 46 77
REMARK SMILES IDX 48 78 45 79 41 80 42 81 43 82 44 83 70 84 71 85 79 86 72 87
REMARK SMILES IDX 78 88 80 89 77 90 73 91 74 92 75 93 76 94 55 95 56 96 64 97
REMARK SMILES IDX 57 98 63 99 65 100 62 101 58 102 59 103 60 104 61 105
REMARK H PARENT 7 14 1 24 1 25 85 58 53 69
REMARK Flexibility Score: inf
ROOT
ATOM      1  O   UNL A   1      39.578  21.088  26.695  1.00  0.00    -0.377 OA
ENDROOT
BRANCH   1   2
ATOM      2  C   UNL A   1      38.713  21.634  25.712  1.00  0.00     0.188 C 
BRANCH   2   3
ATOM      3  C   UNL A   1      37.769  20.649  25.012  1.00  0.00     0.188 C 
BRANCH   3   4
ATOM      4  O   UNL A   1      36.416  21.089  24.916  1.00  0.00    -0.376 OA
BRANCH   4   5
ATOM      5  C   UNL A   1      35.401  20.112  25.100  1.00  0.00     0.202 C 
BRANCH   5   6
ATOM      6  C   UNL A   1      34.017  20.339  24.479  1.00  0.00     0.261 C 
BRANCH   6   7
ATOM      7  O   UNL A   1      32.886  20.716  25.295  1.00  0.00    -0.460 OA
BRANCH   7   8
ATOM      8  C   UNL A   1      32.097  21.767  25.040  1.00  0.00     0.331 C 
ATOM      9  O   UNL A   1      31.671  22.169  23.973  1.00  0.00    -0.247 OA
BRANCH   8  10
ATOM     10  C   UNL A   1      31.775  22.489  26.268  1.00  0.00     0.099 C 
ATOM     11  C   UNL A   1      32.619  23.325  26.887  1.00  0.00     0.079 C 
BRANCH  11  12
ATOM     12  C   UNL A   1      34.048  23.570  26.581  1.00  0.00     0.248 C 
ATOM     13  N   UNL A   1      34.502  24.502  25.694  1.00  0.00    -0.322 N 
ATOM     14  H   UNL A   1      35.472  24.443  25.535  1.00  0.00     0.170 HD
ATOM     15  O   UNL A   1      34.867  22.857  27.164  1.00  0.00    -0.270 OA
BRANCH  13  16
ATOM     16  C   UNL A   1      33.886  25.530  24.955  1.00  0.00     0.042 A 
ATOM     17  C   UNL A   1      32.732  27.658  24.796  1.00  0.00     0.064 A 
ATOM     18  C   UNL A   1      33.674  26.817  25.428  1.00  0.00     0.042 A 
ATOM     19  C   UNL A   1      32.039  27.246  23.629  1.00  0.00     0.050 A 
ATOM     20  C   UNL A   1      32.454  26.035  23.053  1.00  0.00     0.029 A 
ATOM     21  C   UNL A   1      33.367  25.188  23.703  1.00  0.00     0.028 A 
BRANCH  17  22
ATOM     22  C   UNL A   1      32.384  28.878  25.576  1.00  0.00     0.250 C 
ATOM     23  N   UNL A   1      32.924  30.054  25.142  1.00  0.00    -0.366 N 
ATOM     24  H   UNL A   1      32.729  30.892  25.621  1.00  0.00     0.159 HD
ATOM     25  H   UNL A   1      33.510  30.064  24.350  1.00  0.00     0.159 HD
ATOM     26  O   UNL A   1      31.598  28.842  26.514  1.00  0.00    -0.269 OA
ENDBRANCH  17  22
BRANCH  19  27
ATOM     27  N   UNL A   1      30.949  27.939  23.116  1.00  0.00    -0.366 N 
ATOM     28  C   UNL A   1      31.189  28.925  22.055  1.00  0.00     0.145 C 
ATOM     29  C   UNL A   1      29.590  27.365  23.093  1.00  0.00     0.145 C 
ATOM     30  C   UNL A   1      30.084  29.997  22.094  1.00  0.00     0.181 C 
ATOM     31  C   UNL A   1      28.558  28.508  23.113  1.00  0.00     0.181 C 
ATOM     32  O   UNL A   1      28.768  29.420  22.021  1.00  0.00    -0.378 OA
ENDBRANCH  19  27
ENDBRANCH  13  16
ENDBRANCH  11  12
ENDBRANCH   8  10
ENDBRANCH   7   8
ENDBRANCH   6   7
ENDBRANCH   5   6
ENDBRANCH   4   5
ENDBRANCH   3   4
ENDBRANCH   2   3
ENDBRANCH   1   2
BRANCH   1  33
ATOM     33  C   UNL A   1      40.533  20.107  26.298  1.00  0.00     0.188 C 
BRANCH  33  34
ATOM     34  C   UNL A   1      42.014  20.289  26.665  1.00  0.00     0.188 C 
BRANCH  34  35
ATOM     35  O   UNL A   1      42.269  21.405  27.504  1.00  0.00    -0.376 OA
BRANCH  35  36
ATOM     36  C   UNL A   1      42.978  22.482  26.908  1.00  0.00     0.202 C 
BRANCH  36  37
ATOM     37  C   UNL A   1      42.206  23.294  25.857  1.00  0.00     0.261 C 
BRANCH  37  38
ATOM     38  O   UNL A   1      42.483  24.707  25.771  1.00  0.00    -0.460 OA
BRANCH  38  39
ATOM     39  C   UNL A   1      41.505  25.602  26.046  1.00  0.00     0.338 C 
ATOM     40  O   UNL A   1      40.317  25.373  26.155  1.00  0.00    -0.246 OA
BRANCH  39  41
ATOM     41  C   UNL A   1      42.157  26.881  26.433  1.00  0.00     0.060 A 
ATOM     42  C   UNL A   1      43.257  26.846  27.304  1.00  0.00     0.016 A 
ATOM     43  C   UNL A   1      41.720  28.100  25.907  1.00  0.00     0.016 A 
ATOM     44  C   UNL A   1      43.880  28.033  27.700  1.00  0.00     0.010 A 
ATOM     45  C   UNL A   1      42.321  29.290  26.329  1.00  0.00     0.010 A 
ATOM     46  C   UNL A   1      43.370  29.264  27.267  1.00  0.00    -0.014 A 
BRANCH  46  47
ATOM     47  C   UNL A   1      43.677  30.495  28.044  1.00  0.00     0.031 A 
ATOM     48  C   UNL A   1      42.747  30.825  29.184  1.00  0.00     0.074 A 
ATOM     49  C   UNL A   1      44.724  31.294  27.772  1.00  0.00     0.049 A 
ATOM     50  N   UNL A   1      42.723  31.867  29.972  1.00  0.00    -0.248 NA
ATOM     51  C   UNL A   1      41.692  29.836  29.465  1.00  0.00     0.031 C 
ATOM     52  C   UNL A   1      45.727  31.062  26.735  1.00  0.00     0.029 A 
ATOM     53  N   UNL A   1      45.107  32.482  28.350  1.00  0.00    -0.354 N 
ATOM     54  C   UNL A   1      41.653  31.660  30.837  1.00  0.00     0.074 A 
ATOM     55  C   UNL A   1      41.034  30.411  30.456  1.00  0.00     0.031 C 
ATOM     56  C   UNL A   1      46.601  32.087  26.739  1.00  0.00     0.029 A 
ATOM     57  C   UNL A   1      46.200  33.065  27.750  1.00  0.00     0.049 A 
ATOM     58  H   UNL A   1      44.643  32.878  29.123  1.00  0.00     0.167 HD
ATOM     59  C   UNL A   1      41.223  32.437  31.859  1.00  0.00     0.034 A 
ATOM     60  C   UNL A   1      46.782  34.263  27.974  1.00  0.00     0.034 A 
ATOM     61  C   UNL A   1      41.823  33.695  32.213  1.00  0.00     0.049 A 
ATOM     62  C   UNL A   1      46.221  35.166  29.053  1.00  0.00     0.074 A 
ATOM     63  C   UNL A   1      41.462  34.568  33.223  1.00  0.00     0.029 A 
ATOM     64  N   UNL A   1      42.900  34.272  31.554  1.00  0.00    -0.354 N 
ATOM     65  N   UNL A   1      45.211  34.957  29.868  1.00  0.00    -0.248 NA
ATOM     66  C   UNL A   1      46.881  36.465  29.243  1.00  0.00     0.031 C 
ATOM     67  C   UNL A   1      42.275  35.703  33.131  1.00  0.00     0.029 A 
ATOM     68  C   UNL A   1      43.197  35.502  32.115  1.00  0.00     0.049 A 
ATOM     69  H   UNL A   1      43.382  33.865  30.797  1.00  0.00     0.167 HD
ATOM     70  C   UNL A   1      45.141  36.084  30.687  1.00  0.00     0.074 A 
ATOM     71  C   UNL A   1      46.216  36.962  30.277  1.00  0.00     0.031 C 
ATOM     72  C   UNL A   1      44.273  36.367  31.693  1.00  0.00     0.034 A 
BRANCH  59  73
ATOM     73  C   UNL A   1      40.005  31.963  32.613  1.00  0.00     0.023 A 
ATOM     74  C   UNL A   1      38.708  32.370  32.251  1.00  0.00     0.031 A 
ATOM     75  C   UNL A   1      40.148  31.137  33.741  1.00  0.00     0.131 A 
ATOM     76  C   UNL A   1      37.615  32.008  33.051  1.00  0.00     0.055 A 
ATOM     77  C   UNL A   1      39.046  30.716  34.487  1.00  0.00     0.041 A 
ATOM     78  F   UNL A   1      41.365  30.744  34.150  1.00  0.00    -0.206 F 
ATOM     79  C   UNL A   1      37.772  31.162  34.153  1.00  0.00     0.022 A 
BRANCH  76  80
ATOM     80  S   UNL A   1      36.005  32.774  32.717  1.00  0.00     0.124 S 
ATOM     81  O   UNL A   1      35.401  31.809  31.804  1.00  0.00    -0.237 OA
ATOM     82  O   UNL A   1      35.411  32.854  34.047  1.00  0.00    -0.237 OA
ATOM     83  O   UNL A   1      36.355  34.058  32.113  1.00  0.00    -0.744 OA
ENDBRANCH  76  80
ENDBRANCH  59  73
BRANCH  60  84
ATOM     84  C   UNL A   1      47.928  34.727  27.134  1.00  0.00     0.023 A 
ATOM     85  C   UNL A   1      49.258  34.550  27.553  1.00  0.00     0.031 A 
ATOM     86  C   UNL A   1      47.705  35.437  25.941  1.00  0.00     0.131 A 
ATOM     87  C   UNL A   1      50.308  35.120  26.812  1.00  0.00     0.055 A 
ATOM     88  C   UNL A   1      48.754  35.955  25.180  1.00  0.00     0.041 A 
ATOM     89  F   UNL A   1      46.454  35.644  25.499  1.00  0.00    -0.206 F 
ATOM     90  C   UNL A   1      50.066  35.810  25.622  1.00  0.00     0.022 A 
BRANCH  87  91
ATOM     91  S   UNL A   1      51.994  35.028  27.477  1.00  0.00     0.124 S 
ATOM     92  O   UNL A   1      51.745  34.976  28.913  1.00  0.00    -0.237 OA
ATOM     93  O   UNL A   1      52.491  33.798  26.867  1.00  0.00    -0.237 OA
ATOM     94  O   UNL A   1      52.619  36.257  26.994  1.00  0.00    -0.744 OA
ENDBRANCH  87  91
ENDBRANCH  60  84
BRANCH  72  95
ATOM     95  C   UNL A   1      44.488  37.652  32.456  1.00  0.00     0.023 A 
ATOM     96  C   UNL A   1      43.731  38.808  32.199  1.00  0.00     0.031 A 
ATOM     97  C   UNL A   1      45.467  37.714  33.465  1.00  0.00     0.131 A 
ATOM     98  C   UNL A   1      43.997  39.990  32.908  1.00  0.00     0.055 A 
ATOM     99  C   UNL A   1      45.688  38.875  34.207  1.00  0.00     0.041 A 
ATOM    100  F   UNL A   1      46.219  36.640  33.754  1.00  0.00    -0.206 F 
ATOM    101  C   UNL A   1      44.959  40.025  33.922  1.00  0.00     0.022 A 
BRANCH  98 102
ATOM    102  S   UNL A   1      43.130  41.509  32.430  1.00  0.00     0.124 S 
ATOM    103  O   UNL A   1      42.063  41.576  33.421  1.00  0.00    -0.237 OA
ATOM    104  O   UNL A   1      44.178  42.518  32.553  1.00  0.00    -0.237 OA
ATOM    105  O   UNL A   1      42.691  41.239  31.062  1.00  0.00    -0.744 OA
ENDBRANCH  98 102
ENDBRANCH  72  95
ENDBRANCH  46  47
ENDBRANCH  39  41
ENDBRANCH  38  39
ENDBRANCH  37  38
ENDBRANCH  36  37
ENDBRANCH  35  36
ENDBRANCH  34  35
ENDBRANCH  33  34
ENDBRANCH   1  33
TORSDOF 27
ENDMDL
MODEL 2
REMARK VINA RESULT:      -8.8      1.497      7.618
REMARK SMILES NC(=O)c1cc(NC(=O)/C=C\C(=O)OCCOCCOCCOCCOC(=O)c2ccc(-c3c4nc(c(-c5cc(S(=O)(=O)[O-])ccc5F)c5ccc([nH]5)c(-c5cc(S(=O)(=O)[O-])ccc5F)c5nc(c(-c6cc(S(=O)(=O)[O-])ccc6F)c6ccc3[nH]6)C=C5)C=C4)cc2)ccc1N1CCOCC1
REMARK SMILES IDX 20 1 19 2 18 3 17 4 16 5 15 6 14 7 12 8 13 9 11 10 10 11
REMARK SMILES IDX 8 12 7 13 9 15 6 16 4 17 5 18 94 19 93 20 92 21 2 22 1 23
REMARK SMILES IDX 3 26 95 27 96 28 100 29 97 30 99 31 98 32 21 33 22 34 23 35
REMARK SMILES IDX 24 36 25 37 26 38 27 39 28 40 29 41 30 42 91 43 31 44 90 45
REMARK SMILES IDX 32 46 33 47 34 48 84 49 35 50 89 51 83 52 85 53 36 54 88 55
REMARK SMILES IDX 82 56 81 57 37 59 69 60 49 61 68 62 50 63 53 64 67 65 86 66
REMARK SMILES IDX 51 67 52 68 66 70 87 71 54 72 38 73 39 74 47 75 40 76 46 77
REMARK SMILES IDX 48 78 45 79 41 80 42 81 43 82 44 83 70 84 71 85 79 86 72 87
REMARK SMILES IDX 78 88 80 89 77 90 73 91 74 92 75 93 76 94 55 95 56 96 64 97
REMARK SMILES IDX 57 98 63 99 65 100 62 101 58 102 59 103 60 104 61 105
REMARK H PARENT 7 14 1 24 1 25 85 58 53 69
REMARK Flexibility Score: inf
ROOT
ATOM      1  O   UNL A   1      39.770  21.157  26.601  1.00  0.00    -0.377 OA
ENDROOT
BRANCH   1   2
ATOM      2  C   UNL A   1      38.859  21.591  25.603  1.00  0.00     0.188 C 
BRANCH   2   3
ATOM      3  C   UNL A   1      37.817  20.567  25.140  1.00  0.00     0.188 C 
BRANCH   3   4
ATOM      4  O   UNL A   1      36.494  21.083  25.008  1.00  0.00    -0.376 OA
BRANCH   4   5
ATOM      5  C   UNL A   1      35.428  20.142  24.996  1.00  0.00     0.202 C 
BRANCH   5   6
ATOM      6  C   UNL A   1      34.005  20.623  24.688  1.00  0.00     0.261 C 
BRANCH   6   7
ATOM      7  O   UNL A   1      33.337  21.573  25.548  1.00  0.00    -0.460 OA
BRANCH   7   8
ATOM      8  C   UNL A   1      33.524  22.897  25.487  1.00  0.00     0.331 C 
ATOM      9  O   UNL A   1      33.262  23.752  26.313  1.00  0.00    -0.247 OA
BRANCH   8  10
ATOM     10  C   UNL A   1      34.102  23.284  24.202  1.00  0.00     0.099 C 
ATOM     11  C   UNL A   1      33.384  23.487  23.090  1.00  0.00     0.079 C 
BRANCH  11  12
ATOM     12  C   UNL A   1      31.941  23.224  22.875  1.00  0.00     0.248 C 
ATOM     13  N   UNL A   1      30.938  24.090  23.199  1.00  0.00    -0.322 N 
ATOM     14  H   UNL A   1      30.041  23.698  23.092  1.00  0.00     0.170 HD
ATOM     15  O   UNL A   1      31.647  22.131  22.387  1.00  0.00    -0.270 OA
BRANCH  13  16
ATOM     16  C   UNL A   1      30.905  25.421  23.655  1.00  0.00     0.042 A 
ATOM     17  C   UNL A   1      31.560  27.753  23.509  1.00  0.00     0.064 A 
ATOM     18  C   UNL A   1      31.254  26.522  22.887  1.00  0.00     0.042 A 
ATOM     19  C   UNL A   1      31.448  27.919  24.913  1.00  0.00     0.050 A 
ATOM     20  C   UNL A   1      30.870  26.854  25.622  1.00  0.00     0.029 A 
ATOM     21  C   UNL A   1      30.599  25.622  25.005  1.00  0.00     0.028 A 
BRANCH  17  22
ATOM     22  C   UNL A   1      32.206  28.748  22.607  1.00  0.00     0.250 C 
ATOM     23  N   UNL A   1      31.379  29.648  22.000  1.00  0.00    -0.366 N 
ATOM     24  H   UNL A   1      31.752  30.327  21.393  1.00  0.00     0.159 HD
ATOM     25  H   UNL A   1      30.409  29.617  22.170  1.00  0.00     0.159 HD
ATOM     26  O   UNL A   1      33.421  28.802  22.472  1.00  0.00    -0.269 OA
ENDBRANCH  17  22
BRANCH  19  27
ATOM     27  N   UNL A   1      31.956  29.026  25.583  1.00  0.00    -0.366 N 
ATOM     28  C   UNL A   1      33.380  29.028  25.943  1.00  0.00     0.145 C 
ATOM     29  C   UNL A   1      31.387  30.377  25.417  1.00  0.00     0.145 C 
ATOM     30  C   UNL A   1      33.592  29.924  27.177  1.00  0.00     0.181 C 
ATOM     31  C   UNL A   1      31.667  31.203  26.686  1.00  0.00     0.181 C 
ATOM     32  O   UNL A   1      33.074  31.252  26.977  1.00  0.00    -0.378 OA
ENDBRANCH  19  27
ENDBRANCH  13  16
ENDBRANCH  11  12
ENDBRANCH   8  10
ENDBRANCH   7   8
ENDBRANCH   6   7
ENDBRANCH   5   6
ENDBRANCH   4   5
ENDBRANCH   3   4
ENDBRANCH   2   3
ENDBRANCH   1   2
BRANCH   1  33
ATOM     33  C   UNL A   1      41.165  21.182  26.311  1.00  0.00     0.188 C 
BRANCH  33  34
ATOM     34  C   UNL A   1      42.168  21.562  27.412  1.00  0.00     0.188 C 
BRANCH  34  35
ATOM     35  O   UNL A   1      41.613  22.353  28.452  1.00  0.00    -0.376 OA
BRANCH  35  36
ATOM     36  C   UNL A   1      41.790  23.757  28.327  1.00  0.00     0.202 C 
BRANCH  36  37
ATOM     37  C   UNL A   1      42.558  24.228  27.082  1.00  0.00     0.261 C 
BRANCH  37  38
ATOM     38  O   UNL A   1      43.167  25.535  27.130  1.00  0.00    -0.460 OA
BRANCH  38  39
ATOM     39  C   UNL A   1      42.998  26.394  26.098  1.00  0.00     0.338 C 
ATOM     40  O   UNL A   1      42.524  26.139  25.008  1.00  0.00    -0.246 OA
BRANCH  39  41
ATOM     41  C   UNL A   1      43.268  27.767  26.601  1.00  0.00     0.060 A 
ATOM     42  C   UNL A   1      44.288  27.956  27.545  1.00  0.00     0.016 A 
ATOM     43  C   UNL A   1      42.555  28.866  26.113  1.00  0.00     0.016 A 
ATOM     44  C   UNL A   1      44.554  29.232  28.050  1.00  0.00     0.010 A 
ATOM     45  C   UNL A   1      42.798  30.138  26.641  1.00  0.00     0.010 A 
ATOM     46  C   UNL A   1      43.764  30.317  27.649  1.00  0.00    -0.014 A 
BRANCH  46  47
ATOM     47  C   UNL A   1      43.692  31.526  28.513  1.00  0.00     0.031 A 
ATOM     48  C   UNL A   1      44.673  32.632  28.212  1.00  0.00     0.074 A 
ATOM     49  C   UNL A   1      42.809  31.660  29.518  1.00  0.00     0.049 A 
ATOM     50  N   UNL A   1      44.891  33.754  28.845  1.00  0.00    -0.248 NA
ATOM     51  C   UNL A   1      45.529  32.432  27.030  1.00  0.00     0.031 C 
ATOM     52  C   UNL A   1      41.775  30.693  29.879  1.00  0.00     0.029 A 
ATOM     53  N   UNL A   1      42.653  32.676  30.433  1.00  0.00    -0.354 N 
ATOM     54  C   UNL A   1      45.910  34.390  28.142  1.00  0.00     0.074 A 
ATOM     55  C   UNL A   1      46.287  33.515  27.055  1.00  0.00     0.031 C 
ATOM     56  C   UNL A   1      41.104  31.154  30.952  1.00  0.00     0.029 A 
ATOM     57  C   UNL A   1      41.683  32.429  31.377  1.00  0.00     0.049 A 
ATOM     58  H   UNL A   1      43.186  33.503  30.413  1.00  0.00     0.167 HD
ATOM     59  C   UNL A   1      46.480  35.595  28.375  1.00  0.00     0.034 A 
ATOM     60  C   UNL A   1      41.332  33.136  32.472  1.00  0.00     0.034 A 
ATOM     61  C   UNL A   1      46.124  36.447  29.478  1.00  0.00     0.049 A 
ATOM     62  C   UNL A   1      42.055  34.432  32.776  1.00  0.00     0.074 A 
ATOM     63  C   UNL A   1      46.644  37.684  29.815  1.00  0.00     0.029 A 
ATOM     64  N   UNL A   1      45.168  36.142  30.437  1.00  0.00    -0.354 N 
ATOM     65  N   UNL A   1      43.013  35.026  32.101  1.00  0.00    -0.248 NA
ATOM     66  C   UNL A   1      41.645  35.154  33.990  1.00  0.00     0.031 C 
ATOM     67  C   UNL A   1      46.052  38.094  31.015  1.00  0.00     0.029 A 
ATOM     68  C   UNL A   1      45.104  37.151  31.383  1.00  0.00     0.049 A 
ATOM     69  H   UNL A   1      44.615  35.327  30.444  1.00  0.00     0.167 HD
ATOM     70  C   UNL A   1      43.293  36.206  32.791  1.00  0.00     0.074 A 
ATOM     71  C   UNL A   1      42.396  36.245  33.926  1.00  0.00     0.031 C 
ATOM     72  C   UNL A   1      44.204  37.175  32.511  1.00  0.00     0.034 A 
BRANCH  59  73
ATOM     73  C   UNL A   1      47.594  36.016  27.449  1.00  0.00     0.023 A 
ATOM     74  C   UNL A   1      48.927  35.623  27.671  1.00  0.00     0.031 A 
ATOM     75  C   UNL A   1      47.327  36.865  26.362  1.00  0.00     0.131 A 
ATOM     76  C   UNL A   1      49.949  36.136  26.859  1.00  0.00     0.055 A 
ATOM     77  C   UNL A   1      48.340  37.308  25.510  1.00  0.00     0.041 A 
ATOM     78  F   UNL A   1      46.079  37.296  26.122  1.00  0.00    -0.206 F 
ATOM     79  C   UNL A   1      49.662  36.956  25.765  1.00  0.00     0.022 A 
BRANCH  76  80
ATOM     80  S   UNL A   1      51.672  35.834  27.341  1.00  0.00     0.124 S 
ATOM     81  O   UNL A   1      51.516  35.347  28.708  1.00  0.00    -0.237 OA
ATOM     82  O   UNL A   1      52.107  34.849  26.357  1.00  0.00    -0.237 OA
ATOM     83  O   UNL A   1      52.296  37.150  27.223  1.00  0.00    -0.744 OA
ENDBRANCH  76  80
ENDBRANCH  59  73
BRANCH  60  84
ATOM     84  C   UNL A   1      40.286  32.628  33.412  1.00  0.00     0.023 A 
ATOM     85  C   UNL A   1      38.989  33.168  33.422  1.00  0.00     0.031 A 
ATOM     86  C   UNL A   1      40.599  31.653  34.376  1.00  0.00     0.131 A 
ATOM     87  C   UNL A   1      38.071  32.768  34.407  1.00  0.00     0.055 A 
ATOM     88  C   UNL A   1      39.666  31.219  35.320  1.00  0.00     0.041 A 
ATOM     89  F   UNL A   1      41.826  31.110  34.418  1.00  0.00    -0.206 F 
ATOM     90  C   UNL A   1      38.396  31.789  35.349  1.00  0.00     0.022 A 
BRANCH  87  91
ATOM     91  S   UNL A   1      36.470  33.618  34.503  1.00  0.00     0.124 S 
ATOM     92  O   UNL A   1      36.759  34.875  33.823  1.00  0.00    -0.237 OA
ATOM     93  O   UNL A   1      35.594  32.690  33.793  1.00  0.00    -0.237 OA
ATOM     94  O   UNL A   1      36.226  33.724  35.940  1.00  0.00    -0.744 OA
ENDBRANCH  87  91
ENDBRANCH  60  84
BRANCH  72  95
ATOM     95  C   UNL A   1      44.232  38.384  33.414  1.00  0.00     0.023 A 
ATOM     96  C   UNL A   1      43.456  39.527  33.154  1.00  0.00     0.031 A 
ATOM     97  C   UNL A   1      45.048  38.386  34.561  1.00  0.00     0.131 A 
ATOM     98  C   UNL A   1      43.549  40.642  34.001  1.00  0.00     0.055 A 
ATOM     99  C   UNL A   1      45.092  39.475  35.432  1.00  0.00     0.041 A 
ATOM    100  F   UNL A   1      45.809  37.321  34.859  1.00  0.00    -0.206 F 
ATOM    101  C   UNL A   1      44.349  40.616  35.147  1.00  0.00     0.022 A 
BRANCH  98 102
ATOM    102  S   UNL A   1      42.677  42.164  33.541  1.00  0.00     0.124 S 
ATOM    103  O   UNL A   1      41.787  41.697  32.484  1.00  0.00    -0.237 OA
ATOM    104  O   UNL A   1      42.033  42.546  34.793  1.00  0.00    -0.237 OA
ATOM    105  O   UNL A   1      43.748  43.056  33.100  1.00  0.00    -0.744 OA
ENDBRANCH  98 102
ENDBRANCH  72  95
ENDBRANCH  46  47
ENDBRANCH  39  41
ENDBRANCH  38  39
ENDBRANCH  37  38
ENDBRANCH  36  37
ENDBRANCH  35  36
ENDBRANCH  34  35
ENDBRANCH  33  34
ENDBRANCH   1  33
TORSDOF 27
ENDMDL
MODEL 3
REMARK VINA RESULT:      -8.5      3.628      5.946
REMARK SMILES NC(=O)c1cc(NC(=O)/C=C\C(=O)OCCOCCOCCOCCOC(=O)c2ccc(-c3c4nc(c(-c5cc(S(=O)(=O)[O-])ccc5F)c5ccc([nH]5)c(-c5cc(S(=O)(=O)[O-])ccc5F)c5nc(c(-c6cc(S(=O)(=O)[O-])ccc6F)c6ccc3[nH]6)C=C5)C=C4)cc2)ccc1N1CCOCC1
REMARK SMILES IDX 20 1 19 2 18 3 17 4 16 5 15 6 14 7 12 8 13 9 11 10 10 11
REMARK SMILES IDX 8 12 7 13 9 15 6 16 4 17 5 18 94 19 93 20 92 21 2 22 1 23
REMARK SMILES IDX 3 26 95 27 96 28 100 29 97 30 99 31 98 32 21 33 22 34 23 35
REMARK SMILES IDX 24 36 25 37 26 38 27 39 28 40 29 41 30 42 91 43 31 44 90 45
REMARK SMILES IDX 32 46 33 47 34 48 84 49 35 50 89 51 83 52 85 53 36 54 88 55
REMARK SMILES IDX 82 56 81 57 37 59 69 60 49 61 68 62 50 63 53 64 67 65 86 66
REMARK SMILES IDX 51 67 52 68 66 70 87 71 54 72 38 73 39 74 47 75 40 76 46 77
REMARK SMILES IDX 48 78 45 79 41 80 42 81 43 82 44 83 70 84 71 85 79 86 72 87
REMARK SMILES IDX 78 88 80 89 77 90 73 91 74 92 75 93 76 94 55 95 56 96 64 97
REMARK SMILES IDX 57 98 63 99 65 100 62 101 58 102 59 103 60 104 61 105
REMARK H PARENT 7 14 1 24 1 25 85 58 53 69
REMARK Flexibility Score: inf
ROOT
ATOM      1  O   UNL A   1      34.889  24.671  25.045  1.00  0.00    -0.377 OA
ENDROOT
BRANCH   1   2
ATOM      2  C   UNL A   1      34.944  24.888  23.644  1.00  0.00     0.188 C 
BRANCH   2   3
ATOM      3  C   UNL A   1      33.936  25.889  23.068  1.00  0.00     0.188 C 
BRANCH   3   4
ATOM      4  O   UNL A   1      33.784  25.831  21.652  1.00  0.00    -0.376 OA
BRANCH   4   5
ATOM      5  C   UNL A   1      32.747  25.002  21.144  1.00  0.00     0.202 C 
BRANCH   5   6
ATOM      6  C   UNL A   1      31.593  24.591  22.066  1.00  0.00     0.261 C 
BRANCH   6   7
ATOM      7  O   UNL A   1      31.639  23.356  22.815  1.00  0.00    -0.460 OA
BRANCH   7   8
ATOM      8  C   UNL A   1      32.323  22.273  22.427  1.00  0.00     0.331 C 
ATOM      9  O   UNL A   1      32.109  21.519  21.496  1.00  0.00    -0.247 OA
BRANCH   8  10
ATOM     10  C   UNL A   1      33.451  22.019  23.320  1.00  0.00     0.099 C 
ATOM     11  C   UNL A   1      33.355  21.338  24.470  1.00  0.00     0.079 C 
BRANCH  11  12
ATOM     12  C   UNL A   1      32.127  20.855  25.145  1.00  0.00     0.248 C 
ATOM     13  N   UNL A   1      31.335  21.619  25.952  1.00  0.00    -0.322 N 
ATOM     14  H   UNL A   1      30.630  21.100  26.403  1.00  0.00     0.170 HD
ATOM     15  O   UNL A   1      31.830  19.673  24.970  1.00  0.00    -0.270 OA
BRANCH  13  16
ATOM     16  C   UNL A   1      31.304  22.988  26.280  1.00  0.00     0.042 A 
ATOM     17  C   UNL A   1      30.782  25.302  25.771  1.00  0.00     0.064 A 
ATOM     18  C   UNL A   1      30.489  23.925  25.662  1.00  0.00     0.042 A 
ATOM     19  C   UNL A   1      31.859  25.767  26.568  1.00  0.00     0.050 A 
ATOM     20  C   UNL A   1      32.510  24.806  27.358  1.00  0.00     0.029 A 
ATOM     21  C   UNL A   1      32.237  23.436  27.221  1.00  0.00     0.028 A 
BRANCH  17  22
ATOM     22  C   UNL A   1      30.023  26.164  24.824  1.00  0.00     0.250 C 
ATOM     23  N   UNL A   1      28.685  25.919  24.713  1.00  0.00    -0.366 N 
ATOM     24  H   UNL A   1      28.134  26.458  24.101  1.00  0.00     0.159 HD
ATOM     25  H   UNL A   1      28.271  25.201  25.247  1.00  0.00     0.159 HD
ATOM     26  O   UNL A   1      30.554  27.092  24.227  1.00  0.00    -0.269 OA
ENDBRANCH  17  22
BRANCH  19  27
ATOM     27  N   UNL A   1      32.322  27.077  26.519  1.00  0.00    -0.366 N 
ATOM     28  C   UNL A   1      31.700  28.067  27.408  1.00  0.00     0.145 C 
ATOM     29  C   UNL A   1      33.709  27.410  26.142  1.00  0.00     0.145 C 
ATOM     30  C   UNL A   1      31.832  29.468  26.783  1.00  0.00     0.181 C 
ATOM     31  C   UNL A   1      33.744  28.831  25.550  1.00  0.00     0.181 C 
ATOM     32  O   UNL A   1      33.198  29.793  26.468  1.00  0.00    -0.378 OA
ENDBRANCH  19  27
ENDBRANCH  13  16
ENDBRANCH  11  12
ENDBRANCH   8  10
ENDBRANCH   7   8
ENDBRANCH   6   7
ENDBRANCH   5   6
ENDBRANCH   4   5
ENDBRANCH   3   4
ENDBRANCH   2   3
ENDBRANCH   1   2
BRANCH   1  33
ATOM     33  C   UNL A   1      36.020  24.096  25.694  1.00  0.00     0.188 C 
BRANCH  33  34
ATOM     34  C   UNL A   1      36.067  22.582  25.951  1.00  0.00     0.188 C 
BRANCH  34  35
ATOM     35  O   UNL A   1      36.922  21.871  25.069  1.00  0.00    -0.376 OA
BRANCH  35  36
ATOM     36  C   UNL A   1      37.726  20.861  25.662  1.00  0.00     0.202 C 
BRANCH  36  37
ATOM     37  C   UNL A   1      39.235  20.959  25.390  1.00  0.00     0.261 C 
BRANCH  37  38
ATOM     38  O   UNL A   1      40.114  21.031  26.531  1.00  0.00    -0.460 OA
BRANCH  38  39
ATOM     39  C   UNL A   1      41.376  20.549  26.439  1.00  0.00     0.338 C 
ATOM     40  O   UNL A   1      41.705  19.427  26.108  1.00  0.00    -0.246 OA
BRANCH  39  41
ATOM     41  C   UNL A   1      42.311  21.696  26.579  1.00  0.00     0.060 A 
ATOM     42  C   UNL A   1      42.963  21.895  27.806  1.00  0.00     0.016 A 
ATOM     43  C   UNL A   1      42.581  22.541  25.498  1.00  0.00     0.016 A 
ATOM     44  C   UNL A   1      43.835  22.975  27.974  1.00  0.00     0.010 A 
ATOM     45  C   UNL A   1      43.428  23.640  25.675  1.00  0.00     0.010 A 
ATOM     46  C   UNL A   1      44.017  23.890  26.929  1.00  0.00    -0.014 A 
BRANCH  46  47
ATOM     47  C   UNL A   1      44.510  25.260  27.236  1.00  0.00     0.031 A 
ATOM     48  C   UNL A   1      43.502  26.234  27.791  1.00  0.00     0.074 A 
ATOM     49  C   UNL A   1      45.785  25.643  27.043  1.00  0.00     0.049 A 
ATOM     50  N   UNL A   1      43.628  27.504  28.070  1.00  0.00    -0.248 NA
ATOM     51  C   UNL A   1      42.159  25.691  28.060  1.00  0.00     0.031 C 
ATOM     52  C   UNL A   1      46.869  24.787  26.565  1.00  0.00     0.029 A 
ATOM     53  N   UNL A   1      46.379  26.870  27.220  1.00  0.00    -0.354 N 
ATOM     54  C   UNL A   1      42.385  27.911  28.544  1.00  0.00     0.074 A 
ATOM     55  C   UNL A   1      41.510  26.762  28.483  1.00  0.00     0.031 C 
ATOM     56  C   UNL A   1      47.993  25.523  26.468  1.00  0.00     0.029 A 
ATOM     57  C   UNL A   1      47.702  26.908  26.841  1.00  0.00     0.049 A 
ATOM     58  H   UNL A   1      45.903  27.651  27.586  1.00  0.00     0.167 HD
ATOM     59  C   UNL A   1      42.002  29.130  28.992  1.00  0.00     0.034 A 
ATOM     60  C   UNL A   1      48.560  27.948  26.773  1.00  0.00     0.034 A 
ATOM     61  C   UNL A   1      42.868  30.278  29.019  1.00  0.00     0.049 A 
ATOM     62  C   UNL A   1      48.083  29.326  27.179  1.00  0.00     0.074 A 
ATOM     63  C   UNL A   1      42.582  31.563  29.444  1.00  0.00     0.029 A 
ATOM     64  N   UNL A   1      44.187  30.286  28.586  1.00  0.00    -0.354 N 
ATOM     65  N   UNL A   1      46.906  29.698  27.630  1.00  0.00    -0.248 NA
ATOM     66  C   UNL A   1      49.053  30.426  27.070  1.00  0.00     0.031 C 
ATOM     67  C   UNL A   1      43.704  32.363  29.203  1.00  0.00     0.029 A 
ATOM     68  C   UNL A   1      44.718  31.559  28.704  1.00  0.00     0.049 A 
ATOM     69  H   UNL A   1      44.673  29.500  28.245  1.00  0.00     0.167 HD
ATOM     70  C   UNL A   1      47.009  31.065  27.889  1.00  0.00     0.074 A 
ATOM     71  C   UNL A   1      48.364  31.448  27.556  1.00  0.00     0.031 C 
ATOM     72  C   UNL A   1      46.073  31.926  28.365  1.00  0.00     0.034 A 
BRANCH  59  73
ATOM     73  C   UNL A   1      40.564  29.280  29.422  1.00  0.00     0.023 A 
ATOM     74  C   UNL A   1      40.195  29.285  30.779  1.00  0.00     0.031 A 
ATOM     75  C   UNL A   1      39.544  29.367  28.459  1.00  0.00     0.131 A 
ATOM     76  C   UNL A   1      38.839  29.303  31.134  1.00  0.00     0.055 A 
ATOM     77  C   UNL A   1      38.199  29.464  28.821  1.00  0.00     0.041 A 
ATOM     78  F   UNL A   1      39.835  29.337  27.149  1.00  0.00    -0.206 F 
ATOM     79  C   UNL A   1      37.839  29.418  30.164  1.00  0.00     0.022 A 
BRANCH  76  80
ATOM     80  S   UNL A   1      38.393  29.027  32.870  1.00  0.00     0.124 S 
ATOM     81  O   UNL A   1      38.735  30.312  33.471  1.00  0.00    -0.237 OA
ATOM     82  O   UNL A   1      36.969  28.719  32.786  1.00  0.00    -0.237 OA
ATOM     83  O   UNL A   1      39.248  27.912  33.271  1.00  0.00    -0.744 OA
ENDBRANCH  76  80
ENDBRANCH  59  73
BRANCH  60  84
ATOM     84  C   UNL A   1      49.948  27.763  26.248  1.00  0.00     0.023 A 
ATOM     85  C   UNL A   1      50.263  28.029  24.905  1.00  0.00     0.031 A 
ATOM     86  C   UNL A   1      50.961  27.231  27.066  1.00  0.00     0.131 A 
ATOM     87  C   UNL A   1      51.539  27.715  24.408  1.00  0.00     0.055 A 
ATOM     88  C   UNL A   1      52.244  26.970  26.581  1.00  0.00     0.041 A 
ATOM     89  F   UNL A   1      50.714  26.949  28.355  1.00  0.00    -0.206 F 
ATOM     90  C   UNL A   1      52.535  27.199  25.239  1.00  0.00     0.022 A 
BRANCH  87  91
ATOM     91  S   UNL A   1      51.851  27.901  22.630  1.00  0.00     0.124 S 
ATOM     92  O   UNL A   1      51.348  29.246  22.378  1.00  0.00    -0.237 OA
ATOM     93  O   UNL A   1      53.300  27.735  22.560  1.00  0.00    -0.237 OA
ATOM     94  O   UNL A   1      51.074  26.819  22.032  1.00  0.00    -0.744 OA
ENDBRANCH  87  91
ENDBRANCH  60  84
BRANCH  72  95
ATOM     95  C   UNL A   1      46.501  33.353  28.610  1.00  0.00     0.023 A 
ATOM     96  C   UNL A   1      47.033  33.771  29.841  1.00  0.00     0.031 A 
ATOM     97  C   UNL A   1      46.378  34.309  27.584  1.00  0.00     0.131 A 
ATOM     98  C   UNL A   1      47.378  35.118  30.032  1.00  0.00     0.055 A 
ATOM     99  C   UNL A   1      46.778  35.634  27.760  1.00  0.00     0.041 A 
ATOM    100  F   UNL A   1      45.878  33.965  26.387  1.00  0.00    -0.206 F 
ATOM    101  C   UNL A   1      47.269  36.048  28.994  1.00  0.00     0.022 A 
BRANCH  98 102
ATOM    102  S   UNL A   1      47.890  35.663  31.685  1.00  0.00     0.124 S 
ATOM    103  O   UNL A   1      46.659  35.506  32.452  1.00  0.00    -0.237 OA
ATOM    104  O   UNL A   1      48.963  34.727  32.003  1.00  0.00    -0.237 OA
ATOM    105  O   UNL A   1      48.317  37.045  31.475  1.00  0.00    -0.744 OA
ENDBRANCH  98 102
ENDBRANCH  72  95
ENDBRANCH  46  47
ENDBRANCH  39  41
ENDBRANCH  38  39
ENDBRANCH  37  38
ENDBRANCH  36  37
ENDBRANCH  35  36
ENDBRANCH  34  35
ENDBRANCH  33  34
ENDBRANCH   1  33
TORSDOF 27
ENDMDL
