MODEL 1
REMARK VINA RESULT:      -9.2      0.000      0.000
REMARK SMILES CC(C)CCc1cc2c(cc1Cl)C=C(C(=O)OCCOCCOCCOCCOC(=O)c1ccc(-c3c4nc(c(-c5cc(S(=O)(=O)[O-])ccc5F)c5ccc([nH]5)c(-c5cc(S(=O)(=O)[O-])ccc5F)c5nc(c(-c6cc(S(=O)(=O)[O-])ccc6F)c6ccc3[nH]6)C=C5)C=C4)cc1)[C@H](C(F)(F)F)O2
REMARK SMILES IDX 23 1 22 2 21 3 20 4 19 5 18 6 17 7 15 8 16 9 14 10 6 11 7 12
REMARK SMILES IDX 11 13 8 14 10 15 12 16 9 17 100 18 13 19 95 20 5 21 4 22
REMARK SMILES IDX 2 23 1 24 3 25 96 26 97 27 98 28 99 29 24 30 25 31 26 32
REMARK SMILES IDX 27 33 28 34 29 35 30 36 31 37 32 38 33 39 94 40 34 41 93 42
REMARK SMILES IDX 35 43 36 44 37 45 87 46 38 47 92 48 86 49 88 50 39 51 91 52
REMARK SMILES IDX 85 53 84 54 40 56 72 57 52 58 71 59 53 60 56 61 70 62 89 63
REMARK SMILES IDX 54 64 55 65 69 67 90 68 57 69 41 70 42 71 50 72 43 73 49 74
REMARK SMILES IDX 51 75 48 76 44 77 45 78 46 79 47 80 73 81 74 82 82 83 75 84
REMARK SMILES IDX 81 85 83 86 80 87 76 88 77 89 78 90 79 91 58 92 59 93 67 94
REMARK SMILES IDX 60 95 66 96 68 97 65 98 61 99 62 100 63 101 64 102
REMARK H PARENT 88 55 56 66
REMARK Flexibility Score: inf
ROOT
ATOM      1  O   UNL A   1      35.815  30.217  27.600  1.00  0.00    -0.377 OA
ENDROOT
BRANCH   1   2
ATOM      2  C   UNL A   1      35.119  31.442  27.726  1.00  0.00     0.188 C 
BRANCH   2   3
ATOM      3  C   UNL A   1      33.615  31.425  27.432  1.00  0.00     0.188 C 
BRANCH   3   4
ATOM      4  O   UNL A   1      33.203  30.230  26.774  1.00  0.00    -0.376 OA
BRANCH   4   5
ATOM      5  C   UNL A   1      32.150  30.332  25.825  1.00  0.00     0.202 C 
BRANCH   5   6
ATOM      6  C   UNL A   1      32.064  29.153  24.845  1.00  0.00     0.261 C 
BRANCH   6   7
ATOM      7  O   UNL A   1      33.246  28.334  24.801  1.00  0.00    -0.460 OA
BRANCH   7   8
ATOM      8  C   UNL A   1      33.650  27.913  23.591  1.00  0.00     0.338 C 
ATOM      9  O   UNL A   1      34.154  28.609  22.725  1.00  0.00    -0.246 OA
BRANCH   8  10
ATOM     10  C   UNL A   1      33.581  26.437  23.521  1.00  0.00     0.087 C 
ATOM     11  C   UNL A   1      34.025  21.602  24.923  1.00  0.00    -0.026 A 
ATOM     12  C   UNL A   1      34.125  22.305  23.698  1.00  0.00     0.052 A 
ATOM     13  C   UNL A   1      33.711  22.349  26.071  1.00  0.00     0.045 A 
ATOM     14  C   UNL A   1      33.921  23.686  23.621  1.00  0.00     0.128 A 
ATOM     15  C   UNL A   1      33.448  23.722  25.980  1.00  0.00     0.032 A 
ATOM     16  Cl  UNL A   1      33.717  21.707  27.674  1.00  0.00    -0.084 Cl
ATOM     17  C   UNL A   1      33.570  24.393  24.764  1.00  0.00     0.019 A 
ATOM     18  O   UNL A   1      34.188  24.290  22.422  1.00  0.00    -0.475 OA
ATOM     19  C   UNL A   1      33.477  25.839  24.716  1.00  0.00     0.027 C 
ATOM     20  C   UNL A   1      33.740  25.673  22.227  1.00  0.00     0.316 C 
BRANCH  11  21
ATOM     21  C   UNL A   1      34.404  20.132  24.895  1.00  0.00     0.037 C 
BRANCH  21  22
ATOM     22  C   UNL A   1      33.336  19.048  24.672  1.00  0.00     0.008 C 
BRANCH  22  23
ATOM     23  C   UNL A   1      33.839  17.595  24.737  1.00  0.00    -0.017 C 
ATOM     24  C   UNL A   1      32.823  16.679  25.419  1.00  0.00     0.007 C 
ATOM     25  C   UNL A   1      34.139  17.088  23.324  1.00  0.00     0.007 C 
ENDBRANCH  22  23
ENDBRANCH  21  22
ENDBRANCH  11  21
BRANCH  20  26
ATOM     26  C   UNL A   1      32.516  25.627  21.288  1.00  0.00     0.430 C 
ATOM     27  F   UNL A   1      32.724  24.807  20.232  1.00  0.00    -0.167 F 
ATOM     28  F   UNL A   1      31.390  25.224  21.912  1.00  0.00    -0.167 F 
ATOM     29  F   UNL A   1      32.253  26.861  20.786  1.00  0.00    -0.167 F 
ENDBRANCH  20  26
ENDBRANCH   8  10
ENDBRANCH   7   8
ENDBRANCH   6   7
ENDBRANCH   5   6
ENDBRANCH   4   5
ENDBRANCH   3   4
ENDBRANCH   2   3
ENDBRANCH   1   2
BRANCH   1  30
ATOM     30  C   UNL A   1      37.116  30.182  28.165  1.00  0.00     0.188 C 
BRANCH  30  31
ATOM     31  C   UNL A   1      37.165  29.547  29.570  1.00  0.00     0.188 C 
BRANCH  31  32
ATOM     32  O   UNL A   1      36.714  30.240  30.734  1.00  0.00    -0.376 OA
BRANCH  32  33
ATOM     33  C   UNL A   1      37.633  30.865  31.611  1.00  0.00     0.202 C 
BRANCH  33  34
ATOM     34  C   UNL A   1      37.128  31.985  32.532  1.00  0.00     0.261 C 
BRANCH  34  35
ATOM     35  O   UNL A   1      37.622  33.300  32.247  1.00  0.00    -0.460 OA
BRANCH  35  36
ATOM     36  C   UNL A   1      37.481  33.708  30.962  1.00  0.00     0.338 C 
ATOM     37  O   UNL A   1      36.442  33.781  30.327  1.00  0.00    -0.246 OA
BRANCH  36  38
ATOM     38  C   UNL A   1      38.782  34.224  30.477  1.00  0.00     0.060 A 
ATOM     39  C   UNL A   1      39.847  34.456  31.351  1.00  0.00     0.016 A 
ATOM     40  C   UNL A   1      38.926  34.478  29.107  1.00  0.00     0.016 A 
ATOM     41  C   UNL A   1      41.072  34.904  30.843  1.00  0.00     0.010 A 
ATOM     42  C   UNL A   1      40.139  34.949  28.603  1.00  0.00     0.010 A 
ATOM     43  C   UNL A   1      41.232  35.132  29.463  1.00  0.00    -0.014 A 
BRANCH  43  44
ATOM     44  C   UNL A   1      42.586  35.316  28.885  1.00  0.00     0.031 A 
ATOM     45  C   UNL A   1      43.081  36.644  28.401  1.00  0.00     0.074 A 
ATOM     46  C   UNL A   1      43.348  34.215  28.749  1.00  0.00     0.049 A 
ATOM     47  N   UNL A   1      44.259  36.947  27.920  1.00  0.00    -0.248 NA
ATOM     48  C   UNL A   1      42.142  37.772  28.454  1.00  0.00     0.031 C 
ATOM     49  C   UNL A   1      42.931  32.867  29.140  1.00  0.00     0.029 A 
ATOM     50  N   UNL A   1      44.610  34.040  28.242  1.00  0.00    -0.354 N 
ATOM     51  C   UNL A   1      44.218  38.305  27.631  1.00  0.00     0.074 A 
ATOM     52  C   UNL A   1      42.877  38.756  27.949  1.00  0.00     0.031 C 
ATOM     53  C   UNL A   1      43.921  32.007  28.870  1.00  0.00     0.029 A 
ATOM     54  C   UNL A   1      45.034  32.732  28.262  1.00  0.00     0.049 A 
ATOM     55  H   UNL A   1      45.161  34.780  27.899  1.00  0.00     0.167 HD
ATOM     56  C   UNL A   1      45.218  39.093  27.164  1.00  0.00     0.034 A 
ATOM     57  C   UNL A   1      46.186  32.172  27.842  1.00  0.00     0.034 A 
ATOM     58  C   UNL A   1      46.538  38.606  26.838  1.00  0.00     0.049 A 
ATOM     59  C   UNL A   1      47.272  33.066  27.306  1.00  0.00     0.074 A 
ATOM     60  C   UNL A   1      47.637  39.339  26.422  1.00  0.00     0.029 A 
ATOM     61  N   UNL A   1      46.938  37.277  26.872  1.00  0.00    -0.354 N 
ATOM     62  N   UNL A   1      47.265  34.372  27.165  1.00  0.00    -0.248 NA
ATOM     63  C   UNL A   1      48.526  32.426  26.889  1.00  0.00     0.031 C 
ATOM     64  C   UNL A   1      48.672  38.450  26.130  1.00  0.00     0.029 A 
ATOM     65  C   UNL A   1      48.253  37.167  26.444  1.00  0.00     0.049 A 
ATOM     66  H   UNL A   1      46.372  36.524  27.156  1.00  0.00     0.167 HD
ATOM     67  C   UNL A   1      48.520  34.711  26.671  1.00  0.00     0.074 A 
ATOM     68  C   UNL A   1      49.268  33.475  26.558  1.00  0.00     0.031 C 
ATOM     69  C   UNL A   1      49.003  35.935  26.342  1.00  0.00     0.034 A 
BRANCH  56  70
ATOM     70  C   UNL A   1      44.968  40.574  27.002  1.00  0.00     0.023 A 
ATOM     71  C   UNL A   1      44.755  41.123  25.722  1.00  0.00     0.031 A 
ATOM     72  C   UNL A   1      45.121  41.459  28.084  1.00  0.00     0.131 A 
ATOM     73  C   UNL A   1      44.744  42.515  25.553  1.00  0.00     0.055 A 
ATOM     74  C   UNL A   1      45.069  42.843  27.916  1.00  0.00     0.041 A 
ATOM     75  F   UNL A   1      45.337  40.988  29.324  1.00  0.00    -0.206 F 
ATOM     76  C   UNL A   1      44.895  43.376  26.644  1.00  0.00     0.022 A 
BRANCH  73  77
ATOM     77  S   UNL A   1      44.611  43.262  23.905  1.00  0.00     0.124 S 
ATOM     78  O   UNL A   1      44.479  42.082  23.052  1.00  0.00    -0.237 OA
ATOM     79  O   UNL A   1      43.404  44.076  24.035  1.00  0.00    -0.237 OA
ATOM     80  O   UNL A   1      45.858  44.002  23.752  1.00  0.00    -0.744 OA
ENDBRANCH  73  77
ENDBRANCH  56  70
BRANCH  57  81
ATOM     81  C   UNL A   1      46.370  30.701  28.007  1.00  0.00     0.023 A 
ATOM     82  C   UNL A   1      45.903  29.800  27.031  1.00  0.00     0.031 A 
ATOM     83  C   UNL A   1      46.885  30.174  29.202  1.00  0.00     0.131 A 
ATOM     84  C   UNL A   1      45.892  28.426  27.302  1.00  0.00     0.055 A 
ATOM     85  C   UNL A   1      46.939  28.799  29.437  1.00  0.00     0.041 A 
ATOM     86  F   UNL A   1      47.325  30.994  30.169  1.00  0.00    -0.206 F 
ATOM     87  C   UNL A   1      46.422  27.918  28.492  1.00  0.00     0.022 A 
BRANCH  84  88
ATOM     88  S   UNL A   1      45.053  27.266  26.186  1.00  0.00     0.124 S 
ATOM     89  O   UNL A   1      45.935  26.105  26.235  1.00  0.00    -0.237 OA
ATOM     90  O   UNL A   1      43.759  27.104  26.843  1.00  0.00    -0.237 OA
ATOM     91  O   UNL A   1      45.017  27.978  24.913  1.00  0.00    -0.744 OA
ENDBRANCH  84  88
ENDBRANCH  57  81
BRANCH  69  92
ATOM     92  C   UNL A   1      50.417  36.042  25.817  1.00  0.00     0.023 A 
ATOM     93  C   UNL A   1      51.505  35.975  26.709  1.00  0.00     0.031 A 
ATOM     94  C   UNL A   1      50.677  36.377  24.477  1.00  0.00     0.131 A 
ATOM     95  C   UNL A   1      52.794  36.295  26.264  1.00  0.00     0.055 A 
ATOM     96  C   UNL A   1      51.971  36.640  24.025  1.00  0.00     0.041 A 
ATOM     97  F   UNL A   1      49.674  36.462  23.589  1.00  0.00    -0.206 F 
ATOM     98  C   UNL A   1      53.035  36.617  24.925  1.00  0.00     0.022 A 
BRANCH  95  99
ATOM     99  S   UNL A   1      54.187  36.398  27.421  1.00  0.00     0.124 S 
ATOM    100  O   UNL A   1      55.085  37.323  26.734  1.00  0.00    -0.237 OA
ATOM    101  O   UNL A   1      53.548  36.928  28.623  1.00  0.00    -0.237 OA
ATOM    102  O   UNL A   1      54.667  35.024  27.519  1.00  0.00    -0.744 OA
ENDBRANCH  95  99
ENDBRANCH  69  92
ENDBRANCH  43  44
ENDBRANCH  36  38
ENDBRANCH  35  36
ENDBRANCH  34  35
ENDBRANCH  33  34
ENDBRANCH  32  33
ENDBRANCH  31  32
ENDBRANCH  30  31
ENDBRANCH   1  30
TORSDOF 27
ENDMDL
MODEL 2
REMARK VINA RESULT:      -9.0      6.396      8.614
REMARK SMILES CC(C)CCc1cc2c(cc1Cl)C=C(C(=O)OCCOCCOCCOCCOC(=O)c1ccc(-c3c4nc(c(-c5cc(S(=O)(=O)[O-])ccc5F)c5ccc([nH]5)c(-c5cc(S(=O)(=O)[O-])ccc5F)c5nc(c(-c6cc(S(=O)(=O)[O-])ccc6F)c6ccc3[nH]6)C=C5)C=C4)cc1)[C@H](C(F)(F)F)O2
REMARK SMILES IDX 23 1 22 2 21 3 20 4 19 5 18 6 17 7 15 8 16 9 14 10 6 11 7 12
REMARK SMILES IDX 11 13 8 14 10 15 12 16 9 17 100 18 13 19 95 20 5 21 4 22
REMARK SMILES IDX 2 23 1 24 3 25 96 26 97 27 98 28 99 29 24 30 25 31 26 32
REMARK SMILES IDX 27 33 28 34 29 35 30 36 31 37 32 38 33 39 94 40 34 41 93 42
REMARK SMILES IDX 35 43 36 44 37 45 87 46 38 47 92 48 86 49 88 50 39 51 91 52
REMARK SMILES IDX 85 53 84 54 40 56 72 57 52 58 71 59 53 60 56 61 70 62 89 63
REMARK SMILES IDX 54 64 55 65 69 67 90 68 57 69 41 70 42 71 50 72 43 73 49 74
REMARK SMILES IDX 51 75 48 76 44 77 45 78 46 79 47 80 73 81 74 82 82 83 75 84
REMARK SMILES IDX 81 85 83 86 80 87 76 88 77 89 78 90 79 91 58 92 59 93 67 94
REMARK SMILES IDX 60 95 66 96 68 97 65 98 61 99 62 100 63 101 64 102
REMARK H PARENT 88 55 56 66
REMARK Flexibility Score: inf
ROOT
ATOM      1  O   UNL A   1      32.873  36.470  32.582  1.00  0.00    -0.377 OA
ENDROOT
BRANCH   1   2
ATOM      2  C   UNL A   1      33.123  35.548  31.538  1.00  0.00     0.188 C 
BRANCH   2   3
ATOM      3  C   UNL A   1      32.632  35.931  30.137  1.00  0.00     0.188 C 
BRANCH   3   4
ATOM      4  O   UNL A   1      32.949  34.942  29.161  1.00  0.00    -0.376 OA
BRANCH   4   5
ATOM      5  C   UNL A   1      34.322  34.723  28.868  1.00  0.00     0.202 C 
BRANCH   5   6
ATOM      6  C   UNL A   1      34.646  33.308  28.368  1.00  0.00     0.261 C 
BRANCH   6   7
ATOM      7  O   UNL A   1      34.338  32.264  29.308  1.00  0.00    -0.460 OA
BRANCH   7   8
ATOM      8  C   UNL A   1      35.038  32.252  30.455  1.00  0.00     0.338 C 
ATOM      9  O   UNL A   1      34.583  32.442  31.571  1.00  0.00    -0.246 OA
BRANCH   8  10
ATOM     10  C   UNL A   1      36.415  31.776  30.199  1.00  0.00     0.087 C 
ATOM     11  C   UNL A   1      40.261  28.588  29.432  1.00  0.00    -0.026 A 
ATOM     12  C   UNL A   1      40.116  29.858  30.042  1.00  0.00     0.052 A 
ATOM     13  C   UNL A   1      39.113  28.014  28.860  1.00  0.00     0.045 A 
ATOM     14  C   UNL A   1      38.886  30.523  30.080  1.00  0.00     0.128 A 
ATOM     15  C   UNL A   1      37.897  28.708  28.846  1.00  0.00     0.032 A 
ATOM     16  Cl  UNL A   1      39.048  26.407  28.229  1.00  0.00    -0.084 Cl
ATOM     17  C   UNL A   1      37.777  29.950  29.470  1.00  0.00     0.019 A 
ATOM     18  O   UNL A   1      38.821  31.670  30.822  1.00  0.00    -0.475 OA
ATOM     19  C   UNL A   1      36.476  30.573  29.611  1.00  0.00     0.027 C 
ATOM     20  C   UNL A   1      37.638  32.526  30.674  1.00  0.00     0.316 C 
BRANCH  11  21
ATOM     21  C   UNL A   1      41.614  27.915  29.580  1.00  0.00     0.037 C 
BRANCH  21  22
ATOM     22  C   UNL A   1      42.446  27.542  28.342  1.00  0.00     0.008 C 
BRANCH  22  23
ATOM     23  C   UNL A   1      41.958  28.135  27.009  1.00  0.00    -0.017 C 
ATOM     24  C   UNL A   1      42.677  29.443  26.678  1.00  0.00     0.007 C 
ATOM     25  C   UNL A   1      42.168  27.120  25.882  1.00  0.00     0.007 C 
ENDBRANCH  22  23
ENDBRANCH  21  22
ENDBRANCH  11  21
BRANCH  20  26
ATOM     26  C   UNL A   1      38.067  33.757  29.847  1.00  0.00     0.430 C 
ATOM     27  F   UNL A   1      39.290  34.206  30.214  1.00  0.00    -0.167 F 
ATOM     28  F   UNL A   1      38.094  33.515  28.520  1.00  0.00    -0.167 F 
ATOM     29  F   UNL A   1      37.196  34.782  30.030  1.00  0.00    -0.167 F 
ENDBRANCH  20  26
ENDBRANCH   8  10
ENDBRANCH   7   8
ENDBRANCH   6   7
ENDBRANCH   5   6
ENDBRANCH   4   5
ENDBRANCH   3   4
ENDBRANCH   2   3
ENDBRANCH   1   2
BRANCH   1  30
ATOM     30  C   UNL A   1      33.932  36.657  33.509  1.00  0.00     0.188 C 
BRANCH  30  31
ATOM     31  C   UNL A   1      34.934  35.485  33.551  1.00  0.00     0.188 C 
BRANCH  31  32
ATOM     32  O   UNL A   1      34.832  34.431  34.508  1.00  0.00    -0.376 OA
BRANCH  32  33
ATOM     33  C   UNL A   1      35.962  34.012  35.251  1.00  0.00     0.202 C 
BRANCH  33  34
ATOM     34  C   UNL A   1      36.810  32.851  34.710  1.00  0.00     0.261 C 
BRANCH  34  35
ATOM     35  O   UNL A   1      37.571  32.126  35.683  1.00  0.00    -0.460 OA
BRANCH  35  36
ATOM     36  C   UNL A   1      38.786  32.649  35.980  1.00  0.00     0.338 C 
ATOM     37  O   UNL A   1      39.037  33.471  36.846  1.00  0.00    -0.246 OA
BRANCH  36  38
ATOM     38  C   UNL A   1      39.820  31.940  35.191  1.00  0.00     0.060 A 
ATOM     39  C   UNL A   1      39.483  30.925  34.291  1.00  0.00     0.016 A 
ATOM     40  C   UNL A   1      41.159  32.311  35.367  1.00  0.00     0.016 A 
ATOM     41  C   UNL A   1      40.489  30.311  33.536  1.00  0.00     0.010 A 
ATOM     42  C   UNL A   1      42.165  31.680  34.633  1.00  0.00     0.010 A 
ATOM     43  C   UNL A   1      41.833  30.700  33.687  1.00  0.00    -0.014 A 
BRANCH  43  44
ATOM     44  C   UNL A   1      42.853  30.275  32.696  1.00  0.00     0.031 A 
ATOM     45  C   UNL A   1      43.180  31.084  31.480  1.00  0.00     0.074 A 
ATOM     46  C   UNL A   1      43.443  29.082  32.898  1.00  0.00     0.049 A 
ATOM     47  N   UNL A   1      44.084  30.847  30.563  1.00  0.00    -0.248 NA
ATOM     48  C   UNL A   1      42.397  32.306  31.253  1.00  0.00     0.031 C 
ATOM     49  C   UNL A   1      43.149  28.196  34.027  1.00  0.00     0.029 A 
ATOM     50  N   UNL A   1      44.389  28.402  32.176  1.00  0.00    -0.354 N 
ATOM     51  C   UNL A   1      43.999  31.898  29.660  1.00  0.00     0.074 A 
ATOM     52  C   UNL A   1      42.919  32.751  30.116  1.00  0.00     0.031 C 
ATOM     53  C   UNL A   1      43.906  27.095  33.927  1.00  0.00     0.029 A 
ATOM     54  C   UNL A   1      44.720  27.181  32.717  1.00  0.00     0.049 A 
ATOM     55  H   UNL A   1      44.794  28.754  31.351  1.00  0.00     0.167 HD
ATOM     56  C   UNL A   1      44.768  32.129  28.567  1.00  0.00     0.034 A 
ATOM     57  C   UNL A   1      45.581  26.234  32.293  1.00  0.00     0.034 A 
ATOM     58  C   UNL A   1      45.824  31.246  28.128  1.00  0.00     0.049 A 
ATOM     59  C   UNL A   1      46.407  26.504  31.065  1.00  0.00     0.074 A 
ATOM     60  C   UNL A   1      46.702  31.427  27.073  1.00  0.00     0.029 A 
ATOM     61  N   UNL A   1      46.138  30.019  28.698  1.00  0.00    -0.354 N 
ATOM     62  N   UNL A   1      46.410  27.568  30.295  1.00  0.00    -0.248 NA
ATOM     63  C   UNL A   1      47.359  25.465  30.652  1.00  0.00     0.031 C 
ATOM     64  C   UNL A   1      47.489  30.281  26.956  1.00  0.00     0.029 A 
ATOM     65  C   UNL A   1      47.167  29.417  27.989  1.00  0.00     0.049 A 
ATOM     66  H   UNL A   1      45.694  29.634  29.487  1.00  0.00     0.167 HD
ATOM     67  C   UNL A   1      47.380  27.338  29.325  1.00  0.00     0.074 A 
ATOM     68  C   UNL A   1      47.959  26.042  29.619  1.00  0.00     0.031 C 
ATOM     69  C   UNL A   1      47.752  28.129  28.289  1.00  0.00     0.034 A 
BRANCH  56  70
ATOM     70  C   UNL A   1      44.548  33.393  27.769  1.00  0.00     0.023 A 
ATOM     71  C   UNL A   1      44.760  34.653  28.360  1.00  0.00     0.031 A 
ATOM     72  C   UNL A   1      43.961  33.351  26.492  1.00  0.00     0.131 A 
ATOM     73  C   UNL A   1      44.347  35.815  27.693  1.00  0.00     0.055 A 
ATOM     74  C   UNL A   1      43.588  34.513  25.815  1.00  0.00     0.041 A 
ATOM     75  F   UNL A   1      43.728  32.174  25.886  1.00  0.00    -0.206 F 
ATOM     76  C   UNL A   1      43.767  35.751  26.422  1.00  0.00     0.022 A 
BRANCH  73  77
ATOM     77  S   UNL A   1      44.474  37.446  28.476  1.00  0.00     0.124 S 
ATOM     78  O   UNL A   1      44.662  37.089  29.881  1.00  0.00    -0.237 OA
ATOM     79  O   UNL A   1      45.647  38.013  27.815  1.00  0.00    -0.237 OA
ATOM     80  O   UNL A   1      43.202  38.087  28.164  1.00  0.00    -0.744 OA
ENDBRANCH  73  77
ENDBRANCH  56  70
BRANCH  57  81
ATOM     81  C   UNL A   1      45.742  24.995  33.109  1.00  0.00     0.023 A 
ATOM     82  C   UNL A   1      46.836  24.841  33.980  1.00  0.00     0.031 A 
ATOM     83  C   UNL A   1      44.886  23.899  32.920  1.00  0.00     0.131 A 
ATOM     84  C   UNL A   1      47.086  23.595  34.570  1.00  0.00     0.055 A 
ATOM     85  C   UNL A   1      45.097  22.680  33.567  1.00  0.00     0.041 A 
ATOM     86  F   UNL A   1      43.840  23.992  32.085  1.00  0.00    -0.206 F 
ATOM     87  C   UNL A   1      46.214  22.518  34.382  1.00  0.00     0.022 A 
BRANCH  84  88
ATOM     88  S   UNL A   1      48.628  23.288  35.477  1.00  0.00     0.124 S 
ATOM     89  O   UNL A   1      49.586  24.095  34.728  1.00  0.00    -0.237 OA
ATOM     90  O   UNL A   1      48.293  23.783  36.810  1.00  0.00    -0.237 OA
ATOM     91  O   UNL A   1      48.805  21.844  35.377  1.00  0.00    -0.744 OA
ENDBRANCH  84  88
ENDBRANCH  57  81
BRANCH  69  92
ATOM     92  C   UNL A   1      48.844  27.647  27.361  1.00  0.00     0.023 A 
ATOM     93  C   UNL A   1      50.193  27.917  27.662  1.00  0.00     0.031 A 
ATOM     94  C   UNL A   1      48.545  27.079  26.111  1.00  0.00     0.131 A 
ATOM     95  C   UNL A   1      51.186  27.672  26.705  1.00  0.00     0.055 A 
ATOM     96  C   UNL A   1      49.544  26.784  25.182  1.00  0.00     0.041 A 
ATOM     97  F   UNL A   1      47.274  26.809  25.771  1.00  0.00    -0.206 F 
ATOM     98  C   UNL A   1      50.870  27.098  25.470  1.00  0.00     0.022 A 
BRANCH  95  99
ATOM     99  S   UNL A   1      52.905  28.177  26.987  1.00  0.00     0.124 S 
ATOM    100  O   UNL A   1      52.862  29.601  26.661  1.00  0.00    -0.237 OA
ATOM    101  O   UNL A   1      53.087  27.867  28.403  1.00  0.00    -0.237 OA
ATOM    102  O   UNL A   1      53.672  27.352  26.059  1.00  0.00    -0.744 OA
ENDBRANCH  95  99
ENDBRANCH  69  92
ENDBRANCH  43  44
ENDBRANCH  36  38
ENDBRANCH  35  36
ENDBRANCH  34  35
ENDBRANCH  33  34
ENDBRANCH  32  33
ENDBRANCH  31  32
ENDBRANCH  30  31
ENDBRANCH   1  30
TORSDOF 27
ENDMDL
MODEL 3
REMARK VINA RESULT:      -8.1      1.817      2.192
REMARK SMILES CC(C)CCc1cc2c(cc1Cl)C=C(C(=O)OCCOCCOCCOCCOC(=O)c1ccc(-c3c4nc(c(-c5cc(S(=O)(=O)[O-])ccc5F)c5ccc([nH]5)c(-c5cc(S(=O)(=O)[O-])ccc5F)c5nc(c(-c6cc(S(=O)(=O)[O-])ccc6F)c6ccc3[nH]6)C=C5)C=C4)cc1)[C@H](C(F)(F)F)O2
REMARK SMILES IDX 23 1 22 2 21 3 20 4 19 5 18 6 17 7 15 8 16 9 14 10 6 11 7 12
REMARK SMILES IDX 11 13 8 14 10 15 12 16 9 17 100 18 13 19 95 20 5 21 4 22
REMARK SMILES IDX 2 23 1 24 3 25 96 26 97 27 98 28 99 29 24 30 25 31 26 32
REMARK SMILES IDX 27 33 28 34 29 35 30 36 31 37 32 38 33 39 94 40 34 41 93 42
REMARK SMILES IDX 35 43 36 44 37 45 87 46 38 47 92 48 86 49 88 50 39 51 91 52
REMARK SMILES IDX 85 53 84 54 40 56 72 57 52 58 71 59 53 60 56 61 70 62 89 63
REMARK SMILES IDX 54 64 55 65 69 67 90 68 57 69 41 70 42 71 50 72 43 73 49 74
REMARK SMILES IDX 51 75 48 76 44 77 45 78 46 79 47 80 73 81 74 82 82 83 75 84
REMARK SMILES IDX 81 85 83 86 80 87 76 88 77 89 78 90 79 91 58 92 59 93 67 94
REMARK SMILES IDX 60 95 66 96 68 97 65 98 61 99 62 100 63 101 64 102
REMARK H PARENT 88 55 56 66
REMARK Flexibility Score: inf
ROOT
ATOM      1  O   UNL A   1      35.121  30.174  27.518  1.00  0.00    -0.377 OA
ENDROOT
BRANCH   1   2
ATOM      2  C   UNL A   1      34.157  31.200  27.661  1.00  0.00     0.188 C 
BRANCH   2   3
ATOM      3  C   UNL A   1      32.698  30.834  27.367  1.00  0.00     0.188 C 
BRANCH   3   4
ATOM      4  O   UNL A   1      32.389  30.899  25.977  1.00  0.00    -0.376 OA
BRANCH   4   5
ATOM      5  C   UNL A   1      31.359  30.049  25.492  1.00  0.00     0.202 C 
BRANCH   5   6
ATOM      6  C   UNL A   1      31.842  28.955  24.529  1.00  0.00     0.261 C 
BRANCH   6   7
ATOM      7  O   UNL A   1      33.207  28.549  24.732  1.00  0.00    -0.460 OA
BRANCH   7   8
ATOM      8  C   UNL A   1      33.845  28.012  23.679  1.00  0.00     0.338 C 
ATOM      9  O   UNL A   1      34.673  28.577  22.982  1.00  0.00    -0.246 OA
BRANCH   8  10
ATOM     10  C   UNL A   1      33.553  26.565  23.597  1.00  0.00     0.087 C 
ATOM     11  C   UNL A   1      33.605  21.646  24.758  1.00  0.00    -0.026 A 
ATOM     12  C   UNL A   1      33.526  22.394  23.558  1.00  0.00     0.052 A 
ATOM     13  C   UNL A   1      33.667  22.367  25.962  1.00  0.00     0.045 A 
ATOM     14  C   UNL A   1      33.509  23.792  23.559  1.00  0.00     0.128 A 
ATOM     15  C   UNL A   1      33.589  23.766  25.964  1.00  0.00     0.032 A 
ATOM     16  Cl  UNL A   1      33.942  21.646  27.508  1.00  0.00    -0.084 Cl
ATOM     17  C   UNL A   1      33.529  24.478  24.766  1.00  0.00     0.019 A 
ATOM     18  O   UNL A   1      33.583  24.416  22.343  1.00  0.00    -0.475 OA
ATOM     19  C   UNL A   1      33.636  25.924  24.771  1.00  0.00     0.027 C 
ATOM     20  C   UNL A   1      33.306  25.856  22.285  1.00  0.00     0.316 C 
BRANCH  11  21
ATOM     21  C   UNL A   1      33.754  20.142  24.613  1.00  0.00     0.037 C 
BRANCH  21  22
ATOM     22  C   UNL A   1      32.748  19.329  23.783  1.00  0.00     0.008 C 
BRANCH  22  23
ATOM     23  C   UNL A   1      32.753  17.810  24.031  1.00  0.00    -0.017 C 
ATOM     24  C   UNL A   1      33.973  17.141  23.398  1.00  0.00     0.007 C 
ATOM     25  C   UNL A   1      32.723  17.532  25.536  1.00  0.00     0.007 C 
ENDBRANCH  22  23
ENDBRANCH  21  22
ENDBRANCH  11  21
BRANCH  20  26
ATOM     26  C   UNL A   1      31.908  26.025  21.652  1.00  0.00     0.430 C 
ATOM     27  F   UNL A   1      31.426  27.277  21.829  1.00  0.00    -0.167 F 
ATOM     28  F   UNL A   1      31.893  25.756  20.330  1.00  0.00    -0.167 F 
ATOM     29  F   UNL A   1      31.020  25.173  22.225  1.00  0.00    -0.167 F 
ENDBRANCH  20  26
ENDBRANCH   8  10
ENDBRANCH   7   8
ENDBRANCH   6   7
ENDBRANCH   5   6
ENDBRANCH   4   5
ENDBRANCH   3   4
ENDBRANCH   2   3
ENDBRANCH   1   2
BRANCH   1  30
ATOM     30  C   UNL A   1      36.411  30.459  28.037  1.00  0.00     0.188 C 
BRANCH  30  31
ATOM     31  C   UNL A   1      36.715  29.744  29.370  1.00  0.00     0.188 C 
BRANCH  31  32
ATOM     32  O   UNL A   1      36.503  30.372  30.634  1.00  0.00    -0.376 OA
BRANCH  32  33
ATOM     33  C   UNL A   1      37.597  30.772  31.440  1.00  0.00     0.202 C 
BRANCH  33  34
ATOM     34  C   UNL A   1      37.319  31.612  32.696  1.00  0.00     0.261 C 
BRANCH  34  35
ATOM     35  O   UNL A   1      37.003  32.991  32.470  1.00  0.00    -0.460 OA
BRANCH  35  36
ATOM     36  C   UNL A   1      36.983  33.377  31.171  1.00  0.00     0.338 C 
ATOM     37  O   UNL A   1      36.001  33.495  30.457  1.00  0.00    -0.246 OA
BRANCH  36  38
ATOM     38  C   UNL A   1      38.345  33.808  30.776  1.00  0.00     0.060 A 
ATOM     39  C   UNL A   1      39.294  34.186  31.729  1.00  0.00     0.016 A 
ATOM     40  C   UNL A   1      38.666  33.827  29.413  1.00  0.00     0.016 A 
ATOM     41  C   UNL A   1      40.582  34.545  31.313  1.00  0.00     0.010 A 
ATOM     42  C   UNL A   1      39.942  34.210  28.997  1.00  0.00     0.010 A 
ATOM     43  C   UNL A   1      40.920  34.538  29.947  1.00  0.00    -0.014 A 
BRANCH  43  44
ATOM     44  C   UNL A   1      42.340  34.625  29.525  1.00  0.00     0.031 A 
ATOM     45  C   UNL A   1      42.986  35.919  29.138  1.00  0.00     0.074 A 
ATOM     46  C   UNL A   1      43.025  33.470  29.437  1.00  0.00     0.049 A 
ATOM     47  N   UNL A   1      44.230  36.137  28.796  1.00  0.00    -0.248 NA
ATOM     48  C   UNL A   1      42.137  37.118  29.124  1.00  0.00     0.031 C 
ATOM     49  C   UNL A   1      42.464  32.151  29.740  1.00  0.00     0.029 A 
ATOM     50  N   UNL A   1      44.318  33.206  29.065  1.00  0.00    -0.354 N 
ATOM     51  C   UNL A   1      44.327  37.500  28.547  1.00  0.00     0.074 A 
ATOM     52  C   UNL A   1      42.998  38.050  28.732  1.00  0.00     0.031 C 
ATOM     53  C   UNL A   1      43.408  31.221  29.552  1.00  0.00     0.029 A 
ATOM     54  C   UNL A   1      44.634  31.867  29.090  1.00  0.00     0.049 A 
ATOM     55  H   UNL A   1      44.958  33.906  28.806  1.00  0.00     0.167 HD
ATOM     56  C   UNL A   1      45.429  38.216  28.216  1.00  0.00     0.034 A 
ATOM     57  C   UNL A   1      45.778  31.227  28.780  1.00  0.00     0.034 A 
ATOM     58  C   UNL A   1      46.736  37.632  28.019  1.00  0.00     0.049 A 
ATOM     59  C   UNL A   1      46.982  32.042  28.392  1.00  0.00     0.074 A 
ATOM     60  C   UNL A   1      47.927  38.283  27.747  1.00  0.00     0.029 A 
ATOM     61  N   UNL A   1      47.026  36.275  28.054  1.00  0.00    -0.354 N 
ATOM     62  N   UNL A   1      47.092  33.347  28.292  1.00  0.00    -0.248 NA
ATOM     63  C   UNL A   1      48.222  31.313  28.094  1.00  0.00     0.031 C 
ATOM     64  C   UNL A   1      48.916  37.320  27.541  1.00  0.00     0.029 A 
ATOM     65  C   UNL A   1      48.368  36.069  27.768  1.00  0.00     0.049 A 
ATOM     66  H   UNL A   1      46.375  35.564  28.253  1.00  0.00     0.167 HD
ATOM     67  C   UNL A   1      48.417  33.595  27.947  1.00  0.00     0.074 A 
ATOM     68  C   UNL A   1      49.074  32.306  27.877  1.00  0.00     0.031 C 
ATOM     69  C   UNL A   1      49.027  34.783  27.709  1.00  0.00     0.034 A 
BRANCH  56  70
ATOM     70  C   UNL A   1      45.315  39.716  28.073  1.00  0.00     0.023 A 
ATOM     71  C   UNL A   1      45.429  40.549  29.202  1.00  0.00     0.031 A 
ATOM     72  C   UNL A   1      44.915  40.300  26.857  1.00  0.00     0.131 A 
ATOM     73  C   UNL A   1      45.106  41.909  29.102  1.00  0.00     0.055 A 
ATOM     74  C   UNL A   1      44.633  41.663  26.754  1.00  0.00     0.041 A 
ATOM     75  F   UNL A   1      44.780  39.549  25.751  1.00  0.00    -0.206 F 
ATOM     76  C   UNL A   1      44.713  42.471  27.883  1.00  0.00     0.022 A 
BRANCH  73  77
ATOM     77  S   UNL A   1      45.106  42.987  30.561  1.00  0.00     0.124 S 
ATOM     78  O   UNL A   1      46.531  43.055  30.881  1.00  0.00    -0.237 OA
ATOM     79  O   UNL A   1      44.527  44.219  30.031  1.00  0.00    -0.237 OA
ATOM     80  O   UNL A   1      44.286  42.270  31.530  1.00  0.00    -0.744 OA
ENDBRANCH  73  77
ENDBRANCH  56  70
BRANCH  57  81
ATOM     81  C   UNL A   1      45.829  29.742  28.918  1.00  0.00     0.023 A 
ATOM     82  C   UNL A   1      45.411  28.904  27.868  1.00  0.00     0.031 A 
ATOM     83  C   UNL A   1      46.160  29.149  30.147  1.00  0.00     0.131 A 
ATOM     84  C   UNL A   1      45.263  27.529  28.091  1.00  0.00     0.055 A 
ATOM     85  C   UNL A   1      46.080  27.769  30.344  1.00  0.00     0.041 A 
ATOM     86  F   UNL A   1      46.545  29.909  31.183  1.00  0.00    -0.206 F 
ATOM     87  C   UNL A   1      45.610  26.954  29.317  1.00  0.00     0.022 A 
BRANCH  84  88
ATOM     88  S   UNL A   1      44.474  26.465  26.851  1.00  0.00     0.124 S 
ATOM     89  O   UNL A   1      43.057  26.723  27.087  1.00  0.00    -0.237 OA
ATOM     90  O   UNL A   1      45.014  27.007  25.606  1.00  0.00    -0.237 OA
ATOM     91  O   UNL A   1      44.938  25.127  27.198  1.00  0.00    -0.744 OA
ENDBRANCH  84  88
ENDBRANCH  57  81
BRANCH  69  92
ATOM     92  C   UNL A   1      50.493  34.788  27.344  1.00  0.00     0.023 A 
ATOM     93  C   UNL A   1      51.469  34.920  28.351  1.00  0.00     0.031 A 
ATOM     94  C   UNL A   1      50.914  34.833  26.004  1.00  0.00     0.131 A 
ATOM     95  C   UNL A   1      52.806  35.148  28.004  1.00  0.00     0.055 A 
ATOM     96  C   UNL A   1      52.256  35.005  25.662  1.00  0.00     0.041 A 
ATOM     97  F   UNL A   1      50.023  34.721  25.005  1.00  0.00    -0.206 F 
ATOM     98  C   UNL A   1      53.207  35.182  26.664  1.00  0.00     0.022 A 
BRANCH  95  99
ATOM     99  S   UNL A   1      54.056  35.506  29.269  1.00  0.00     0.124 S 
ATOM    100  O   UNL A   1      53.829  34.432  30.233  1.00  0.00    -0.237 OA
ATOM    101  O   UNL A   1      55.299  35.408  28.507  1.00  0.00    -0.237 OA
ATOM    102  O   UNL A   1      53.711  36.844  29.738  1.00  0.00    -0.744 OA
ENDBRANCH  95  99
ENDBRANCH  69  92
ENDBRANCH  43  44
ENDBRANCH  36  38
ENDBRANCH  35  36
ENDBRANCH  34  35
ENDBRANCH  33  34
ENDBRANCH  32  33
ENDBRANCH  31  32
ENDBRANCH  30  31
ENDBRANCH   1  30
TORSDOF 27
ENDMDL
