MODEL 1
REMARK VINA RESULT:      -8.7      0.000      0.000
REMARK SMILES CC[C@@H](C)CNc1cc(C)ccc1C(=O)OCCOCCOCCOCCOC(=O)c1ccc(-c2c3nc(c(-c4cc(S(=O)(=O)[O-])ccc4F)c4ccc([nH]4)c(-c4cc(S(=O)(=O)[O-])ccc4F)c4nc(c(-c5cc(S(=O)(=O)[O-])ccc5F)c5ccc2[nH]5)C=C4)C=C3)cc1
REMARK SMILES IDX 21 1 20 2 19 3 18 4 17 5 16 6 14 7 15 8 13 9 7 10 8 11 9 12
REMARK SMILES IDX 12 13 10 14 11 15 6 16 5 18 3 19 4 20 2 21 1 22 22 23 23 24
REMARK SMILES IDX 24 25 25 26 26 27 27 28 28 29 29 30 30 31 31 32 32 33 93 34
REMARK SMILES IDX 33 35 92 36 34 37 35 38 36 39 86 40 37 41 91 42 85 43 87 44
REMARK SMILES IDX 38 45 90 46 84 47 83 48 39 50 71 51 51 52 70 53 52 54 55 55
REMARK SMILES IDX 69 56 88 57 53 58 54 59 68 61 89 62 56 63 40 64 41 65 49 66
REMARK SMILES IDX 42 67 48 68 50 69 47 70 43 71 44 72 45 73 46 74 72 75 73 76
REMARK SMILES IDX 81 77 74 78 80 79 82 80 79 81 75 82 76 83 77 84 78 85 57 86
REMARK SMILES IDX 58 87 66 88 59 89 65 90 67 91 64 92 60 93 61 94 62 95 63 96
REMARK H PARENT 6 17 87 49 55 60
REMARK Flexibility Score: inf
ROOT
ATOM      1  C   UNL A   1      33.612  28.726  27.214  1.00  0.00     0.188 C 
ENDROOT
BRANCH   1   2
ATOM      2  C   UNL A   1      32.189  28.127  27.133  1.00  0.00     0.188 C 
BRANCH   2   3
ATOM      3  O   UNL A   1      31.333  28.274  26.003  1.00  0.00    -0.376 OA
BRANCH   3   4
ATOM      4  C   UNL A   1      30.823  27.120  25.376  1.00  0.00     0.202 C 
BRANCH   4   5
ATOM      5  C   UNL A   1      31.669  25.895  25.544  1.00  0.00     0.261 C 
BRANCH   5   6
ATOM      6  O   UNL A   1      32.205  25.741  24.219  1.00  0.00    -0.460 OA
BRANCH   6   7
ATOM      7  C   UNL A   1      33.515  25.943  24.122  1.00  0.00     0.340 C 
ATOM      8  O   UNL A   1      34.085  26.995  24.306  1.00  0.00    -0.246 OA
BRANCH   7   9
ATOM      9  C   UNL A   1      34.183  24.624  24.279  1.00  0.00     0.083 A 
ATOM     10  C   UNL A   1      34.243  23.466  23.444  1.00  0.00     0.049 A 
ATOM     11  C   UNL A   1      35.423  22.726  23.641  1.00  0.00     0.030 A 
ATOM     12  C   UNL A   1      36.309  22.950  24.720  1.00  0.00    -0.049 A 
ATOM     13  C   UNL A   1      34.952  24.717  25.469  1.00  0.00     0.018 A 
ATOM     14  C   UNL A   1      37.627  22.258  24.814  1.00  0.00     0.044 C 
ATOM     15  C   UNL A   1      35.991  23.860  25.709  1.00  0.00     0.004 A 
BRANCH  10  16
ATOM     16  N   UNL A   1      33.261  22.993  22.523  1.00  0.00    -0.384 N 
ATOM     17  H   UNL A   1      33.469  23.019  21.561  1.00  0.00     0.160 HD
BRANCH  16  18
ATOM     18  C   UNL A   1      31.910  22.451  22.956  1.00  0.00     0.116 C 
BRANCH  18  19
ATOM     19  C   UNL A   1      31.836  21.374  24.109  1.00  0.00     0.005 C 
ATOM     20  C   UNL A   1      31.980  22.026  25.505  1.00  0.00     0.009 C 
BRANCH  19  21
ATOM     21  C   UNL A   1      32.882  20.216  24.051  1.00  0.00     0.002 C 
ATOM     22  C   UNL A   1      33.652  19.927  25.362  1.00  0.00     0.004 C 
ENDBRANCH  19  21
ENDBRANCH  18  19
ENDBRANCH  16  18
ENDBRANCH  10  16
ENDBRANCH   7   9
ENDBRANCH   6   7
ENDBRANCH   5   6
ENDBRANCH   4   5
ENDBRANCH   3   4
ENDBRANCH   2   3
ENDBRANCH   1   2
BRANCH   1  23
ATOM     23  O   UNL A   1      33.909  30.053  26.833  1.00  0.00    -0.377 OA
BRANCH  23  24
ATOM     24  C   UNL A   1      35.134  30.618  27.215  1.00  0.00     0.188 C 
BRANCH  24  25
ATOM     25  C   UNL A   1      35.662  29.944  28.457  1.00  0.00     0.188 C 
BRANCH  25  26
ATOM     26  O   UNL A   1      35.754  30.726  29.623  1.00  0.00    -0.376 OA
BRANCH  26  27
ATOM     27  C   UNL A   1      35.861  32.130  29.399  1.00  0.00     0.202 C 
BRANCH  27  28
ATOM     28  C   UNL A   1      34.687  33.084  29.786  1.00  0.00     0.261 C 
BRANCH  28  29
ATOM     29  O   UNL A   1      34.975  33.911  30.949  1.00  0.00    -0.460 OA
BRANCH  29  30
ATOM     30  C   UNL A   1      34.992  33.284  32.174  1.00  0.00     0.338 C 
ATOM     31  O   UNL A   1      34.010  32.899  32.782  1.00  0.00    -0.246 OA
BRANCH  30  32
ATOM     32  C   UNL A   1      36.400  33.206  32.719  1.00  0.00     0.060 A 
ATOM     33  C   UNL A   1      37.471  33.748  32.006  1.00  0.00     0.016 A 
ATOM     34  C   UNL A   1      36.699  32.358  33.775  1.00  0.00     0.016 A 
ATOM     35  C   UNL A   1      38.757  33.179  32.113  1.00  0.00     0.010 A 
ATOM     36  C   UNL A   1      37.922  31.689  33.763  1.00  0.00     0.010 A 
ATOM     37  C   UNL A   1      38.939  32.025  32.867  1.00  0.00    -0.014 A 
BRANCH  37  38
ATOM     38  C   UNL A   1      40.084  31.089  32.731  1.00  0.00     0.031 A 
ATOM     39  C   UNL A   1      39.924  29.859  31.919  1.00  0.00     0.074 A 
ATOM     40  C   UNL A   1      41.348  31.486  33.043  1.00  0.00     0.049 A 
ATOM     41  N   UNL A   1      40.882  29.055  31.644  1.00  0.00    -0.248 NA
ATOM     42  C   UNL A   1      38.713  29.513  31.189  1.00  0.00     0.031 C 
ATOM     43  C   UNL A   1      42.659  30.833  32.909  1.00  0.00     0.029 A 
ATOM     44  N   UNL A   1      41.735  32.636  33.710  1.00  0.00    -0.354 N 
ATOM     45  C   UNL A   1      40.583  28.369  30.489  1.00  0.00     0.074 A 
ATOM     46  C   UNL A   1      39.185  28.650  30.281  1.00  0.00     0.031 C 
ATOM     47  C   UNL A   1      43.562  31.371  33.751  1.00  0.00     0.029 A 
ATOM     48  C   UNL A   1      42.757  32.216  34.586  1.00  0.00     0.049 A 
ATOM     49  H   UNL A   1      41.376  33.546  33.597  1.00  0.00     0.167 HD
ATOM     50  C   UNL A   1      41.618  27.760  29.832  1.00  0.00     0.034 A 
ATOM     51  C   UNL A   1      42.346  31.922  35.849  1.00  0.00     0.034 A 
ATOM     52  C   UNL A   1      42.836  27.747  30.679  1.00  0.00     0.049 A 
ATOM     53  C   UNL A   1      42.597  30.374  36.018  1.00  0.00     0.074 A 
ATOM     54  C   UNL A   1      44.161  28.131  30.557  1.00  0.00     0.029 A 
ATOM     55  N   UNL A   1      42.677  27.426  32.031  1.00  0.00    -0.354 N 
ATOM     56  N   UNL A   1      42.339  29.435  35.108  1.00  0.00    -0.248 NA
ATOM     57  C   UNL A   1      43.600  29.908  36.976  1.00  0.00     0.031 C 
ATOM     58  C   UNL A   1      44.732  28.163  31.878  1.00  0.00     0.029 A 
ATOM     59  C   UNL A   1      43.753  27.800  32.802  1.00  0.00     0.049 A 
ATOM     60  H   UNL A   1      41.878  26.978  32.393  1.00  0.00     0.167 HD
ATOM     61  C   UNL A   1      43.282  28.397  35.204  1.00  0.00     0.074 A 
ATOM     62  C   UNL A   1      43.992  28.737  36.441  1.00  0.00     0.031 C 
ATOM     63  C   UNL A   1      43.742  27.503  34.234  1.00  0.00     0.034 A 
BRANCH  50  64
ATOM     64  C   UNL A   1      41.609  27.258  28.390  1.00  0.00     0.023 A 
ATOM     65  C   UNL A   1      42.213  26.014  28.088  1.00  0.00     0.031 A 
ATOM     66  C   UNL A   1      41.095  27.941  27.265  1.00  0.00     0.131 A 
ATOM     67  C   UNL A   1      42.284  25.514  26.769  1.00  0.00     0.055 A 
ATOM     68  C   UNL A   1      41.130  27.427  25.959  1.00  0.00     0.041 A 
ATOM     69  F   UNL A   1      40.554  29.159  27.346  1.00  0.00    -0.206 F 
ATOM     70  C   UNL A   1      41.728  26.207  25.701  1.00  0.00     0.022 A 
BRANCH  67  71
ATOM     71  S   UNL A   1      43.111  23.927  26.460  1.00  0.00     0.124 S 
ATOM     72  O   UNL A   1      44.517  24.272  26.641  1.00  0.00    -0.237 OA
ATOM     73  O   UNL A   1      42.519  23.062  27.474  1.00  0.00    -0.237 OA
ATOM     74  O   UNL A   1      42.728  23.608  25.084  1.00  0.00    -0.744 OA
ENDBRANCH  67  71
ENDBRANCH  50  64
BRANCH  51  75
ATOM     75  C   UNL A   1      41.334  33.003  36.298  1.00  0.00     0.023 A 
ATOM     76  C   UNL A   1      40.032  32.540  36.741  1.00  0.00     0.031 A 
ATOM     77  C   UNL A   1      41.496  34.365  36.489  1.00  0.00     0.131 A 
ATOM     78  C   UNL A   1      39.016  33.297  37.342  1.00  0.00     0.055 A 
ATOM     79  C   UNL A   1      40.485  35.157  37.126  1.00  0.00     0.041 A 
ATOM     80  F   UNL A   1      42.656  34.961  36.187  1.00  0.00    -0.206 F 
ATOM     81  C   UNL A   1      39.255  34.630  37.567  1.00  0.00     0.022 A 
BRANCH  78  82
ATOM     82  S   UNL A   1      37.425  32.527  37.820  1.00  0.00     0.124 S 
ATOM     83  O   UNL A   1      37.644  31.131  37.455  1.00  0.00    -0.237 OA
ATOM     84  O   UNL A   1      37.325  32.787  39.252  1.00  0.00    -0.237 OA
ATOM     85  O   UNL A   1      36.446  33.240  37.010  1.00  0.00    -0.744 OA
ENDBRANCH  78  82
ENDBRANCH  51  75
BRANCH  63  86
ATOM     86  C   UNL A   1      44.103  26.046  34.563  1.00  0.00     0.023 A 
ATOM     87  C   UNL A   1      45.405  25.561  34.538  1.00  0.00     0.031 A 
ATOM     88  C   UNL A   1      43.129  25.119  35.052  1.00  0.00     0.131 A 
ATOM     89  C   UNL A   1      45.724  24.300  35.067  1.00  0.00     0.055 A 
ATOM     90  C   UNL A   1      43.445  23.865  35.576  1.00  0.00     0.041 A 
ATOM     91  F   UNL A   1      41.818  25.388  35.097  1.00  0.00    -0.206 F 
ATOM     92  C   UNL A   1      44.762  23.455  35.611  1.00  0.00     0.022 A 
BRANCH  89  93
ATOM     93  S   UNL A   1      47.469  23.849  35.083  1.00  0.00     0.124 S 
ATOM     94  O   UNL A   1      47.835  24.110  36.472  1.00  0.00    -0.237 OA
ATOM     95  O   UNL A   1      47.419  22.442  34.698  1.00  0.00    -0.237 OA
ATOM     96  O   UNL A   1      48.066  24.745  34.097  1.00  0.00    -0.744 OA
ENDBRANCH  89  93
ENDBRANCH  63  86
ENDBRANCH  37  38
ENDBRANCH  30  32
ENDBRANCH  29  30
ENDBRANCH  28  29
ENDBRANCH  27  28
ENDBRANCH  26  27
ENDBRANCH  25  26
ENDBRANCH  24  25
ENDBRANCH  23  24
ENDBRANCH   1  23
TORSDOF 27
ENDMDL
MODEL 2
REMARK VINA RESULT:      -7.9      2.258      3.025
REMARK SMILES CC[C@@H](C)CNc1cc(C)ccc1C(=O)OCCOCCOCCOCCOC(=O)c1ccc(-c2c3nc(c(-c4cc(S(=O)(=O)[O-])ccc4F)c4ccc([nH]4)c(-c4cc(S(=O)(=O)[O-])ccc4F)c4nc(c(-c5cc(S(=O)(=O)[O-])ccc5F)c5ccc2[nH]5)C=C4)C=C3)cc1
REMARK SMILES IDX 21 1 20 2 19 3 18 4 17 5 16 6 14 7 15 8 13 9 7 10 8 11 9 12
REMARK SMILES IDX 12 13 10 14 11 15 6 16 5 18 3 19 4 20 2 21 1 22 22 23 23 24
REMARK SMILES IDX 24 25 25 26 26 27 27 28 28 29 29 30 30 31 31 32 32 33 93 34
REMARK SMILES IDX 33 35 92 36 34 37 35 38 36 39 86 40 37 41 91 42 85 43 87 44
REMARK SMILES IDX 38 45 90 46 84 47 83 48 39 50 71 51 51 52 70 53 52 54 55 55
REMARK SMILES IDX 69 56 88 57 53 58 54 59 68 61 89 62 56 63 40 64 41 65 49 66
REMARK SMILES IDX 42 67 48 68 50 69 47 70 43 71 44 72 45 73 46 74 72 75 73 76
REMARK SMILES IDX 81 77 74 78 80 79 82 80 79 81 75 82 76 83 77 84 78 85 57 86
REMARK SMILES IDX 58 87 66 88 59 89 65 90 67 91 64 92 60 93 61 94 62 95 63 96
REMARK H PARENT 6 17 87 49 55 60
REMARK Flexibility Score: inf
ROOT
ATOM      1  C   UNL A   1      32.130  29.641  26.537  1.00  0.00     0.188 C 
ENDROOT
BRANCH   1   2
ATOM      2  C   UNL A   1      31.478  28.964  25.309  1.00  0.00     0.188 C 
BRANCH   2   3
ATOM      3  O   UNL A   1      31.404  27.551  25.132  1.00  0.00    -0.376 OA
BRANCH   3   4
ATOM      4  C   UNL A   1      30.836  26.762  26.151  1.00  0.00     0.202 C 
BRANCH   4   5
ATOM      5  C   UNL A   1      29.909  25.690  25.664  1.00  0.00     0.261 C 
BRANCH   5   6
ATOM      6  O   UNL A   1      30.718  24.516  25.847  1.00  0.00    -0.460 OA
BRANCH   6   7
ATOM      7  C   UNL A   1      31.045  23.885  24.722  1.00  0.00     0.340 C 
ATOM      8  O   UNL A   1      30.582  24.106  23.626  1.00  0.00    -0.246 OA
BRANCH   7   9
ATOM      9  C   UNL A   1      32.387  23.278  24.925  1.00  0.00     0.083 A 
ATOM     10  C   UNL A   1      33.260  22.553  24.058  1.00  0.00     0.049 A 
ATOM     11  C   UNL A   1      34.613  22.706  24.413  1.00  0.00     0.030 A 
ATOM     12  C   UNL A   1      35.035  23.281  25.634  1.00  0.00    -0.049 A 
ATOM     13  C   UNL A   1      32.794  23.664  26.230  1.00  0.00     0.018 A 
ATOM     14  C   UNL A   1      36.472  23.572  25.912  1.00  0.00     0.044 C 
ATOM     15  C   UNL A   1      34.111  23.632  26.599  1.00  0.00     0.004 A 
BRANCH  10  16
ATOM     16  N   UNL A   1      32.911  21.706  22.964  1.00  0.00    -0.384 N 
ATOM     17  H   UNL A   1      33.146  21.993  22.053  1.00  0.00     0.160 HD
BRANCH  16  18
ATOM     18  C   UNL A   1      32.192  20.379  23.141  1.00  0.00     0.116 C 
BRANCH  18  19
ATOM     19  C   UNL A   1      33.027  19.040  23.185  1.00  0.00     0.005 C 
ATOM     20  C   UNL A   1      32.322  17.905  22.404  1.00  0.00     0.009 C 
BRANCH  19  21
ATOM     21  C   UNL A   1      33.353  18.467  24.601  1.00  0.00     0.002 C 
ATOM     22  C   UNL A   1      34.389  17.317  24.649  1.00  0.00     0.004 C 
ENDBRANCH  19  21
ENDBRANCH  18  19
ENDBRANCH  16  18
ENDBRANCH  10  16
ENDBRANCH   7   9
ENDBRANCH   6   7
ENDBRANCH   5   6
ENDBRANCH   4   5
ENDBRANCH   3   4
ENDBRANCH   2   3
ENDBRANCH   1   2
BRANCH   1  23
ATOM     23  O   UNL A   1      33.248  30.497  26.437  1.00  0.00    -0.377 OA
BRANCH  23  24
ATOM     24  C   UNL A   1      33.929  30.873  27.605  1.00  0.00     0.188 C 
BRANCH  24  25
ATOM     25  C   UNL A   1      33.606  32.301  27.967  1.00  0.00     0.188 C 
BRANCH  25  26
ATOM     26  O   UNL A   1      34.671  33.111  28.402  1.00  0.00    -0.376 OA
BRANCH  26  27
ATOM     27  C   UNL A   1      34.789  33.239  29.818  1.00  0.00     0.202 C 
BRANCH  27  28
ATOM     28  C   UNL A   1      35.470  32.114  30.660  1.00  0.00     0.261 C 
BRANCH  28  29
ATOM     29  O   UNL A   1      36.616  31.510  29.995  1.00  0.00    -0.460 OA
BRANCH  29  30
ATOM     30  C   UNL A   1      37.683  32.333  29.718  1.00  0.00     0.338 C 
ATOM     31  O   UNL A   1      37.754  33.102  28.778  1.00  0.00    -0.246 OA
BRANCH  30  32
ATOM     32  C   UNL A   1      38.813  32.095  30.696  1.00  0.00     0.060 A 
ATOM     33  C   UNL A   1      40.080  32.637  30.465  1.00  0.00     0.016 A 
ATOM     34  C   UNL A   1      38.704  31.116  31.671  1.00  0.00     0.016 A 
ATOM     35  C   UNL A   1      41.232  31.970  30.930  1.00  0.00     0.010 A 
ATOM     36  C   UNL A   1      39.837  30.368  31.989  1.00  0.00     0.010 A 
ATOM     37  C   UNL A   1      41.111  30.730  31.544  1.00  0.00    -0.014 A 
BRANCH  37  38
ATOM     38  C   UNL A   1      42.205  29.737  31.686  1.00  0.00     0.031 A 
ATOM     39  C   UNL A   1      42.251  28.571  30.772  1.00  0.00     0.074 A 
ATOM     40  C   UNL A   1      43.329  30.037  32.393  1.00  0.00     0.049 A 
ATOM     41  N   UNL A   1      43.215  27.729  30.736  1.00  0.00    -0.248 NA
ATOM     42  C   UNL A   1      41.306  28.344  29.687  1.00  0.00     0.031 C 
ATOM     43  C   UNL A   1      44.592  29.316  32.608  1.00  0.00     0.029 A 
ATOM     44  N   UNL A   1      43.540  31.119  33.231  1.00  0.00    -0.354 N 
ATOM     45  C   UNL A   1      43.254  27.135  29.495  1.00  0.00     0.074 A 
ATOM     46  C   UNL A   1      41.998  27.511  28.900  1.00  0.00     0.031 C 
ATOM     47  C   UNL A   1      45.218  29.746  33.721  1.00  0.00     0.029 A 
ATOM     48  C   UNL A   1      44.231  30.584  34.339  1.00  0.00     0.049 A 
ATOM     49  H   UNL A   1      43.267  32.054  33.087  1.00  0.00     0.167 HD
ATOM     50  C   UNL A   1      44.416  26.506  29.134  1.00  0.00     0.034 A 
ATOM     51  C   UNL A   1      43.445  30.238  35.394  1.00  0.00     0.034 A 
ATOM     52  C   UNL A   1      45.318  26.367  30.304  1.00  0.00     0.049 A 
ATOM     53  C   UNL A   1      43.572  28.671  35.511  1.00  0.00     0.074 A 
ATOM     54  C   UNL A   1      46.632  26.678  30.614  1.00  0.00     0.029 A 
ATOM     55  N   UNL A   1      44.744  25.974  31.516  1.00  0.00    -0.354 N 
ATOM     56  N   UNL A   1      43.567  27.807  34.496  1.00  0.00    -0.248 NA
ATOM     57  C   UNL A   1      44.218  28.086  36.687  1.00  0.00     0.031 C 
ATOM     58  C   UNL A   1      46.775  26.594  32.044  1.00  0.00     0.029 A 
ATOM     59  C   UNL A   1      45.549  26.235  32.602  1.00  0.00     0.049 A 
ATOM     60  H   UNL A   1      43.856  25.554  31.587  1.00  0.00     0.167 HD
ATOM     61  C   UNL A   1      44.395  26.710  34.790  1.00  0.00     0.074 A 
ATOM     62  C   UNL A   1      44.709  26.930  36.205  1.00  0.00     0.031 C 
ATOM     63  C   UNL A   1      45.092  25.851  33.937  1.00  0.00     0.034 A 
BRANCH  50  64
ATOM     64  C   UNL A   1      44.825  26.095  27.721  1.00  0.00     0.023 A 
ATOM     65  C   UNL A   1      45.742  26.902  27.005  1.00  0.00     0.031 A 
ATOM     66  C   UNL A   1      44.335  24.988  26.992  1.00  0.00     0.131 A 
ATOM     67  C   UNL A   1      46.124  26.609  25.678  1.00  0.00     0.055 A 
ATOM     68  C   UNL A   1      44.745  24.673  25.686  1.00  0.00     0.041 A 
ATOM     69  F   UNL A   1      43.409  24.158  27.477  1.00  0.00    -0.206 F 
ATOM     70  C   UNL A   1      45.642  25.485  25.018  1.00  0.00     0.022 A 
BRANCH  67  71
ATOM     71  S   UNL A   1      47.276  27.716  24.816  1.00  0.00     0.124 S 
ATOM     72  O   UNL A   1      46.617  29.010  24.949  1.00  0.00    -0.237 OA
ATOM     73  O   UNL A   1      48.510  27.535  25.572  1.00  0.00    -0.237 OA
ATOM     74  O   UNL A   1      47.308  27.178  23.454  1.00  0.00    -0.744 OA
ENDBRANCH  67  71
ENDBRANCH  50  64
BRANCH  51  75
ATOM     75  C   UNL A   1      42.387  31.349  35.600  1.00  0.00     0.023 A 
ATOM     76  C   UNL A   1      40.994  30.945  35.557  1.00  0.00     0.031 A 
ATOM     77  C   UNL A   1      42.534  32.676  35.966  1.00  0.00     0.131 A 
ATOM     78  C   UNL A   1      39.870  31.721  35.874  1.00  0.00     0.055 A 
ATOM     79  C   UNL A   1      41.405  33.485  36.321  1.00  0.00     0.041 A 
ATOM     80  F   UNL A   1      43.753  33.211  36.109  1.00  0.00    -0.206 F 
ATOM     81  C   UNL A   1      40.077  33.011  36.294  1.00  0.00     0.022 A 
BRANCH  78  82
ATOM     82  S   UNL A   1      38.180  31.029  35.742  1.00  0.00     0.124 S 
ATOM     83  O   UNL A   1      37.439  32.147  35.167  1.00  0.00    -0.237 OA
ATOM     84  O   UNL A   1      38.342  29.874  34.866  1.00  0.00    -0.237 OA
ATOM     85  O   UNL A   1      37.842  30.695  37.120  1.00  0.00    -0.744 OA
ENDBRANCH  78  82
ENDBRANCH  51  75
BRANCH  63  86
ATOM     86  C   UNL A   1      45.280  24.357  34.245  1.00  0.00     0.023 A 
ATOM     87  C   UNL A   1      46.522  23.778  34.472  1.00  0.00     0.031 A 
ATOM     88  C   UNL A   1      44.166  23.485  34.455  1.00  0.00     0.131 A 
ATOM     89  C   UNL A   1      46.638  22.474  34.979  1.00  0.00     0.055 A 
ATOM     90  C   UNL A   1      44.280  22.187  34.957  1.00  0.00     0.041 A 
ATOM     91  F   UNL A   1      42.896  23.848  34.234  1.00  0.00    -0.206 F 
ATOM     92  C   UNL A   1      45.528  21.679  35.250  1.00  0.00     0.022 A 
BRANCH  89  93
ATOM     93  S   UNL A   1      48.304  21.892  35.343  1.00  0.00     0.124 S 
ATOM     94  O   UNL A   1      48.174  21.451  36.729  1.00  0.00    -0.237 OA
ATOM     95  O   UNL A   1      48.475  20.830  34.356  1.00  0.00    -0.237 OA
ATOM     96  O   UNL A   1      49.135  23.075  35.137  1.00  0.00    -0.744 OA
ENDBRANCH  89  93
ENDBRANCH  63  86
ENDBRANCH  37  38
ENDBRANCH  30  32
ENDBRANCH  29  30
ENDBRANCH  28  29
ENDBRANCH  27  28
ENDBRANCH  26  27
ENDBRANCH  25  26
ENDBRANCH  24  25
ENDBRANCH  23  24
ENDBRANCH   1  23
TORSDOF 27
ENDMDL
MODEL 3
REMARK VINA RESULT:      -7.9      5.044      9.456
REMARK SMILES CC[C@@H](C)CNc1cc(C)ccc1C(=O)OCCOCCOCCOCCOC(=O)c1ccc(-c2c3nc(c(-c4cc(S(=O)(=O)[O-])ccc4F)c4ccc([nH]4)c(-c4cc(S(=O)(=O)[O-])ccc4F)c4nc(c(-c5cc(S(=O)(=O)[O-])ccc5F)c5ccc2[nH]5)C=C4)C=C3)cc1
REMARK SMILES IDX 21 1 20 2 19 3 18 4 17 5 16 6 14 7 15 8 13 9 7 10 8 11 9 12
REMARK SMILES IDX 12 13 10 14 11 15 6 16 5 18 3 19 4 20 2 21 1 22 22 23 23 24
REMARK SMILES IDX 24 25 25 26 26 27 27 28 28 29 29 30 30 31 31 32 32 33 93 34
REMARK SMILES IDX 33 35 92 36 34 37 35 38 36 39 86 40 37 41 91 42 85 43 87 44
REMARK SMILES IDX 38 45 90 46 84 47 83 48 39 50 71 51 51 52 70 53 52 54 55 55
REMARK SMILES IDX 69 56 88 57 53 58 54 59 68 61 89 62 56 63 40 64 41 65 49 66
REMARK SMILES IDX 42 67 48 68 50 69 47 70 43 71 44 72 45 73 46 74 72 75 73 76
REMARK SMILES IDX 81 77 74 78 80 79 82 80 79 81 75 82 76 83 77 84 78 85 57 86
REMARK SMILES IDX 58 87 66 88 59 89 65 90 67 91 64 92 60 93 61 94 62 95 63 96
REMARK H PARENT 6 17 87 49 55 60
REMARK Flexibility Score: inf
ROOT
ATOM      1  C   UNL A   1      33.270  29.066  25.309  1.00  0.00     0.188 C 
ENDROOT
BRANCH   1   2
ATOM      2  C   UNL A   1      32.274  28.028  24.745  1.00  0.00     0.188 C 
BRANCH   2   3
ATOM      3  O   UNL A   1      31.680  26.996  25.527  1.00  0.00    -0.376 OA
BRANCH   3   4
ATOM      4  C   UNL A   1      30.681  26.186  24.950  1.00  0.00     0.202 C 
BRANCH   4   5
ATOM      5  C   UNL A   1      30.820  24.724  25.242  1.00  0.00     0.261 C 
BRANCH   5   6
ATOM      6  O   UNL A   1      31.825  24.738  26.270  1.00  0.00    -0.460 OA
BRANCH   6   7
ATOM      7  C   UNL A   1      32.035  23.564  26.859  1.00  0.00     0.340 C 
ATOM      8  O   UNL A   1      31.237  22.961  27.542  1.00  0.00    -0.246 OA
BRANCH   7   9
ATOM      9  C   UNL A   1      33.147  22.894  26.134  1.00  0.00     0.083 A 
ATOM     10  C   UNL A   1      33.196  21.736  25.299  1.00  0.00     0.049 A 
ATOM     11  C   UNL A   1      34.234  21.804  24.351  1.00  0.00     0.030 A 
ATOM     12  C   UNL A   1      35.266  22.769  24.399  1.00  0.00    -0.049 A 
ATOM     13  C   UNL A   1      34.282  23.729  26.306  1.00  0.00     0.018 A 
ATOM     14  C   UNL A   1      36.261  22.914  23.297  1.00  0.00     0.044 C 
ATOM     15  C   UNL A   1      35.357  23.645  25.464  1.00  0.00     0.004 A 
BRANCH  10  16
ATOM     16  N   UNL A   1      32.374  20.570  25.360  1.00  0.00    -0.384 N 
ATOM     17  H   UNL A   1      31.664  20.531  26.040  1.00  0.00     0.160 HD
BRANCH  16  18
ATOM     18  C   UNL A   1      32.546  19.386  24.424  1.00  0.00     0.116 C 
BRANCH  18  19
ATOM     19  C   UNL A   1      33.396  18.140  24.891  1.00  0.00     0.005 C 
ATOM     20  C   UNL A   1      34.899  18.328  24.576  1.00  0.00     0.009 C 
BRANCH  19  21
ATOM     21  C   UNL A   1      32.988  16.754  24.298  1.00  0.00     0.002 C 
ATOM     22  C   UNL A   1      32.791  15.607  25.318  1.00  0.00     0.004 C 
ENDBRANCH  19  21
ENDBRANCH  18  19
ENDBRANCH  16  18
ENDBRANCH  10  16
ENDBRANCH   7   9
ENDBRANCH   6   7
ENDBRANCH   5   6
ENDBRANCH   4   5
ENDBRANCH   3   4
ENDBRANCH   2   3
ENDBRANCH   1   2
BRANCH   1  23
ATOM     23  O   UNL A   1      32.896  30.062  26.238  1.00  0.00    -0.377 OA
BRANCH  23  24
ATOM     24  C   UNL A   1      33.837  30.512  27.177  1.00  0.00     0.188 C 
BRANCH  24  25
ATOM     25  C   UNL A   1      34.831  29.422  27.491  1.00  0.00     0.188 C 
BRANCH  25  26
ATOM     26  O   UNL A   1      36.189  29.700  27.248  1.00  0.00    -0.376 OA
BRANCH  26  27
ATOM     27  C   UNL A   1      36.910  30.202  28.371  1.00  0.00     0.202 C 
BRANCH  27  28
ATOM     28  C   UNL A   1      37.668  29.225  29.325  1.00  0.00     0.261 C 
BRANCH  28  29
ATOM     29  O   UNL A   1      38.409  29.906  30.377  1.00  0.00    -0.460 OA
BRANCH  29  30
ATOM     30  C   UNL A   1      39.685  30.323  30.074  1.00  0.00     0.338 C 
ATOM     31  O   UNL A   1      40.075  31.475  30.102  1.00  0.00    -0.246 OA
BRANCH  30  32
ATOM     32  C   UNL A   1      40.535  29.160  29.610  1.00  0.00     0.060 A 
ATOM     33  C   UNL A   1      40.956  28.181  30.512  1.00  0.00     0.016 A 
ATOM     34  C   UNL A   1      41.148  29.190  28.366  1.00  0.00     0.016 A 
ATOM     35  C   UNL A   1      42.179  27.509  30.311  1.00  0.00     0.010 A 
ATOM     36  C   UNL A   1      42.429  28.654  28.246  1.00  0.00     0.010 A 
ATOM     37  C   UNL A   1      43.005  27.882  29.257  1.00  0.00    -0.014 A 
BRANCH  37  38
ATOM     38  C   UNL A   1      44.459  27.594  29.169  1.00  0.00     0.031 A 
ATOM     39  C   UNL A   1      45.430  28.599  29.663  1.00  0.00     0.074 A 
ATOM     40  C   UNL A   1      44.905  26.324  28.965  1.00  0.00     0.049 A 
ATOM     41  N   UNL A   1      46.691  28.395  29.741  1.00  0.00    -0.248 NA
ATOM     42  C   UNL A   1      45.055  29.861  30.285  1.00  0.00     0.031 C 
ATOM     43  C   UNL A   1      46.252  25.733  28.944  1.00  0.00     0.029 A 
ATOM     44  N   UNL A   1      44.165  25.214  28.594  1.00  0.00    -0.354 N 
ATOM     45  C   UNL A   1      47.228  29.226  30.698  1.00  0.00     0.074 A 
ATOM     46  C   UNL A   1      46.169  30.167  30.962  1.00  0.00     0.031 C 
ATOM     47  C   UNL A   1      46.266  24.573  28.258  1.00  0.00     0.029 A 
ATOM     48  C   UNL A   1      44.969  24.547  27.646  1.00  0.00     0.049 A 
ATOM     49  H   UNL A   1      43.274  24.949  28.919  1.00  0.00     0.167 HD
ATOM     50  C   UNL A   1      48.463  28.902  31.194  1.00  0.00     0.034 A 
ATOM     51  C   UNL A   1      44.698  24.851  26.348  1.00  0.00     0.034 A 
ATOM     52  C   UNL A   1      49.090  27.838  30.372  1.00  0.00     0.049 A 
ATOM     53  C   UNL A   1      45.989  25.584  25.815  1.00  0.00     0.074 A 
ATOM     54  C   UNL A   1      49.664  26.595  30.588  1.00  0.00     0.029 A 
ATOM     55  N   UNL A   1      48.984  27.950  28.983  1.00  0.00    -0.354 N 
ATOM     56  N   UNL A   1      46.698  26.501  26.474  1.00  0.00    -0.248 NA
ATOM     57  C   UNL A   1      46.801  24.948  24.776  1.00  0.00     0.031 C 
ATOM     58  C   UNL A   1      49.761  25.931  29.314  1.00  0.00     0.029 A 
ATOM     59  C   UNL A   1      49.244  26.768  28.327  1.00  0.00     0.049 A 
ATOM     60  H   UNL A   1      48.747  28.787  28.521  1.00  0.00     0.167 HD
ATOM     61  C   UNL A   1      48.058  26.396  26.136  1.00  0.00     0.074 A 
ATOM     62  C   UNL A   1      48.027  25.447  25.018  1.00  0.00     0.031 C 
ATOM     63  C   UNL A   1      49.199  26.740  26.865  1.00  0.00     0.034 A 
BRANCH  50  64
ATOM     64  C   UNL A   1      49.097  29.440  32.474  1.00  0.00     0.023 A 
ATOM     65  C   UNL A   1      50.386  30.022  32.415  1.00  0.00     0.031 A 
ATOM     66  C   UNL A   1      48.550  29.375  33.776  1.00  0.00     0.131 A 
ATOM     67  C   UNL A   1      51.052  30.494  33.567  1.00  0.00     0.055 A 
ATOM     68  C   UNL A   1      49.195  29.880  34.917  1.00  0.00     0.041 A 
ATOM     69  F   UNL A   1      47.376  28.795  34.037  1.00  0.00    -0.206 F 
ATOM     70  C   UNL A   1      50.454  30.442  34.820  1.00  0.00     0.022 A 
BRANCH  67  71
ATOM     71  S   UNL A   1      52.721  31.191  33.411  1.00  0.00     0.124 S 
ATOM     72  O   UNL A   1      52.574  32.090  32.272  1.00  0.00    -0.237 OA
ATOM     73  O   UNL A   1      52.921  31.819  34.712  1.00  0.00    -0.237 OA
ATOM     74  O   UNL A   1      53.558  30.016  33.164  1.00  0.00    -0.744 OA
ENDBRANCH  67  71
ENDBRANCH  50  64
BRANCH  51  75
ATOM     75  C   UNL A   1      43.162  24.900  26.167  1.00  0.00     0.023 A 
ATOM     76  C   UNL A   1      42.437  23.662  26.381  1.00  0.00     0.031 A 
ATOM     77  C   UNL A   1      42.312  25.974  25.965  1.00  0.00     0.131 A 
ATOM     78  C   UNL A   1      41.046  23.486  26.439  1.00  0.00     0.055 A 
ATOM     79  C   UNL A   1      40.888  25.828  26.045  1.00  0.00     0.041 A 
ATOM     80  F   UNL A   1      42.803  27.208  25.802  1.00  0.00    -0.206 F 
ATOM     81  C   UNL A   1      40.252  24.595  26.297  1.00  0.00     0.022 A 
BRANCH  78  82
ATOM     82  S   UNL A   1      40.318  21.827  26.706  1.00  0.00     0.124 S 
ATOM     83  O   UNL A   1      40.626  21.584  28.111  1.00  0.00    -0.237 OA
ATOM     84  O   UNL A   1      38.903  22.013  26.403  1.00  0.00    -0.237 OA
ATOM     85  O   UNL A   1      41.031  20.987  25.753  1.00  0.00    -0.744 OA
ENDBRANCH  78  82
ENDBRANCH  51  75
BRANCH  63  86
ATOM     86  C   UNL A   1      50.462  27.306  26.199  1.00  0.00     0.023 A 
ATOM     87  C   UNL A   1      50.619  28.650  25.886  1.00  0.00     0.031 A 
ATOM     88  C   UNL A   1      51.625  26.502  25.981  1.00  0.00     0.131 A 
ATOM     89  C   UNL A   1      51.865  29.170  25.499  1.00  0.00     0.055 A 
ATOM     90  C   UNL A   1      52.864  27.016  25.595  1.00  0.00     0.041 A 
ATOM     91  F   UNL A   1      51.648  25.177  26.174  1.00  0.00    -0.206 F 
ATOM     92  C   UNL A   1      52.999  28.371  25.376  1.00  0.00     0.022 A 
BRANCH  89  93
ATOM     93  S   UNL A   1      51.955  30.951  25.242  1.00  0.00     0.124 S 
ATOM     94  O   UNL A   1      50.710  31.407  25.855  1.00  0.00    -0.237 OA
ATOM     95  O   UNL A   1      53.176  31.298  25.962  1.00  0.00    -0.237 OA
ATOM     96  O   UNL A   1      52.026  31.087  23.790  1.00  0.00    -0.744 OA
ENDBRANCH  89  93
ENDBRANCH  63  86
ENDBRANCH  37  38
ENDBRANCH  30  32
ENDBRANCH  29  30
ENDBRANCH  28  29
ENDBRANCH  27  28
ENDBRANCH  26  27
ENDBRANCH  25  26
ENDBRANCH  24  25
ENDBRANCH  23  24
ENDBRANCH   1  23
TORSDOF 27
ENDMDL
