MODEL 1
REMARK VINA RESULT:      -7.3      0.000      0.000
REMARK SMILES O=C(C[C@H](NC(=O)[C@]12C[C@H]3C[C@H](C[C@H](C3)C1)C2)c1cccc([N+](=O)[O-])c1)OCCOCCOCCOCCOC(=O)c1ccc(-c2c3nc(c(-c4cc(S(=O)(=O)[O-])ccc4F)c4ccc([nH]4)c(-c4cc(S(=O)(=O)[O-])ccc4F)c4nc(c(-c5cc(S(=O)(=O)[O-])ccc5F)c5ccc2[nH]5)C=C4)C=C3)cc1
REMARK SMILES IDX 33 1 32 2 31 3 30 4 29 5 28 6 27 7 2 8 1 9 3 10 4 11 18 12
REMARK SMILES IDX 19 13 26 14 20 15 22 16 21 17 23 18 24 19 25 20 5 21 6 22
REMARK SMILES IDX 7 24 8 25 9 26 16 27 17 28 10 29 14 30 12 31 11 32 15 33
REMARK SMILES IDX 13 34 34 35 35 36 36 37 37 38 38 39 39 40 40 41 41 42 42 43
REMARK SMILES IDX 43 44 104 45 44 46 103 47 45 48 46 49 47 50 97 51 48 52
REMARK SMILES IDX 102 53 96 54 98 55 49 56 101 57 95 58 94 59 50 61 82 62
REMARK SMILES IDX 62 63 81 64 63 65 66 66 80 67 99 68 64 69 65 70 79 72 100 73
REMARK SMILES IDX 67 74 51 75 52 76 60 77 53 78 59 79 61 80 58 81 54 82 55 83
REMARK SMILES IDX 56 84 57 85 83 86 84 87 92 88 85 89 91 90 93 91 90 92 86 93
REMARK SMILES IDX 87 94 88 95 89 96 68 97 69 98 77 99 70 100 76 101 78 102
REMARK SMILES IDX 75 103 71 104 72 105 73 106 74 107
REMARK H PARENT 5 23 98 60 66 71
REMARK Flexibility Score: inf
ROOT
ATOM      1  O   UNL A   1      48.217  27.700  42.535  1.00  0.00    -0.377 OA
ENDROOT
BRANCH   1   2
ATOM      2  C   UNL A   1      47.755  27.283  41.261  1.00  0.00     0.188 C 
BRANCH   2   3
ATOM      3  C   UNL A   1      48.568  26.136  40.669  1.00  0.00     0.188 C 
BRANCH   3   4
ATOM      4  O   UNL A   1      48.452  25.949  39.272  1.00  0.00    -0.376 OA
BRANCH   4   5
ATOM      5  C   UNL A   1      47.237  26.046  38.557  1.00  0.00     0.202 C 
BRANCH   5   6
ATOM      6  C   UNL A   1      46.618  24.864  37.820  1.00  0.00     0.261 C 
BRANCH   6   7
ATOM      7  O   UNL A   1      46.043  23.792  38.595  1.00  0.00    -0.463 OA
BRANCH   7   8
ATOM      8  C   UNL A   1      46.395  22.516  38.786  1.00  0.00     0.308 C 
ATOM      9  O   UNL A   1      47.015  22.220  39.809  1.00  0.00    -0.252 OA
BRANCH   8  10
ATOM     10  C   UNL A   1      46.281  21.497  37.696  1.00  0.00     0.152 C 
BRANCH  10  11
ATOM     11  C   UNL A   1      47.378  20.490  37.360  1.00  0.00     0.123 C 
BRANCH  11  12
ATOM     12  C   UNL A   1      47.280  19.354  38.346  1.00  0.00    -0.018 A 
ATOM     13  C   UNL A   1      48.324  19.113  39.254  1.00  0.00     0.006 A 
ATOM     14  C   UNL A   1      46.087  18.626  38.446  1.00  0.00     0.091 A 
ATOM     15  C   UNL A   1      48.183  18.148  40.247  1.00  0.00     0.007 A 
ATOM     16  C   UNL A   1      45.950  17.667  39.447  1.00  0.00     0.269 A 
ATOM     17  C   UNL A   1      46.994  17.424  40.348  1.00  0.00     0.085 A 
BRANCH  16  18
ATOM     18  N   UNL A   1      44.684  16.939  39.566  1.00  0.00     0.062 N 
ATOM     19  O   UNL A   1      44.438  16.076  38.711  1.00  0.00    -0.258 OA
ATOM     20  O   UNL A   1      43.939  17.228  40.512  1.00  0.00    -0.258 OA
ENDBRANCH  16  18
ENDBRANCH  11  12
BRANCH  11  21
ATOM     21  N   UNL A   1      47.473  20.012  35.996  1.00  0.00    -0.348 N 
ATOM     22  C   UNL A   1      48.206  20.433  34.929  1.00  0.00     0.226 C 
ATOM     23  H   UNL A   1      46.898  19.236  35.805  1.00  0.00     0.164 HD
ATOM     24  O   UNL A   1      47.854  19.947  33.849  1.00  0.00    -0.274 OA
BRANCH  22  25
ATOM     25  C   UNL A   1      49.450  21.357  35.008  1.00  0.00     0.050 C 
ATOM     26  C   UNL A   1      50.522  21.026  36.072  1.00  0.00     0.020 C 
ATOM     27  C   UNL A   1      48.962  22.810  35.320  1.00  0.00     0.020 C 
ATOM     28  C   UNL A   1      50.108  21.383  33.609  1.00  0.00     0.020 C 
ATOM     29  C   UNL A   1      51.691  22.025  36.029  1.00  0.00    -0.010 C 
ATOM     30  C   UNL A   1      50.122  23.820  35.271  1.00  0.00    -0.010 C 
ATOM     31  C   UNL A   1      51.281  22.374  33.567  1.00  0.00    -0.010 C 
ATOM     32  C   UNL A   1      52.322  21.977  34.627  1.00  0.00     0.007 C 
ATOM     33  C   UNL A   1      51.174  23.435  36.318  1.00  0.00     0.007 C 
ATOM     34  C   UNL A   1      50.761  23.787  33.874  1.00  0.00     0.007 C 
ENDBRANCH  22  25
ENDBRANCH  11  21
ENDBRANCH  10  11
ENDBRANCH   8  10
ENDBRANCH   7   8
ENDBRANCH   6   7
ENDBRANCH   5   6
ENDBRANCH   4   5
ENDBRANCH   3   4
ENDBRANCH   2   3
ENDBRANCH   1   2
BRANCH   1  35
ATOM     35  C   UNL A   1      49.085  28.822  42.504  1.00  0.00     0.188 C 
BRANCH  35  36
ATOM     36  C   UNL A   1      49.666  29.195  41.120  1.00  0.00     0.188 C 
BRANCH  36  37
ATOM     37  O   UNL A   1      49.252  30.362  40.421  1.00  0.00    -0.376 OA
BRANCH  37  38
ATOM     38  C   UNL A   1      50.173  31.063  39.603  1.00  0.00     0.202 C 
BRANCH  38  39
ATOM     39  C   UNL A   1      50.825  30.372  38.394  1.00  0.00     0.261 C 
BRANCH  39  40
ATOM     40  O   UNL A   1      51.746  31.169  37.635  1.00  0.00    -0.460 OA
BRANCH  40  41
ATOM     41  C   UNL A   1      52.718  30.497  36.968  1.00  0.00     0.338 C 
ATOM     42  O   UNL A   1      53.891  30.401  37.291  1.00  0.00    -0.246 OA
BRANCH  41  43
ATOM     43  C   UNL A   1      52.090  29.686  35.895  1.00  0.00     0.060 A 
ATOM     44  C   UNL A   1      51.311  30.347  34.930  1.00  0.00     0.016 A 
ATOM     45  C   UNL A   1      52.334  28.316  35.778  1.00  0.00     0.016 A 
ATOM     46  C   UNL A   1      50.776  29.642  33.849  1.00  0.00     0.010 A 
ATOM     47  C   UNL A   1      51.758  27.602  34.720  1.00  0.00     0.010 A 
ATOM     48  C   UNL A   1      50.963  28.257  33.761  1.00  0.00    -0.014 A 
BRANCH  48  49
ATOM     49  C   UNL A   1      50.142  27.452  32.820  1.00  0.00     0.031 A 
ATOM     50  C   UNL A   1      50.655  27.299  31.414  1.00  0.00     0.074 A 
ATOM     51  C   UNL A   1      48.968  26.902  33.183  1.00  0.00     0.049 A 
ATOM     52  N   UNL A   1      50.072  26.778  30.368  1.00  0.00    -0.248 NA
ATOM     53  C   UNL A   1      52.011  27.814  31.156  1.00  0.00     0.031 C 
ATOM     54  C   UNL A   1      48.398  26.928  34.528  1.00  0.00     0.029 A 
ATOM     55  N   UNL A   1      48.028  26.234  32.433  1.00  0.00    -0.354 N 
ATOM     56  C   UNL A   1      50.978  26.921  29.323  1.00  0.00     0.074 A 
ATOM     57  C   UNL A   1      52.148  27.579  29.860  1.00  0.00     0.031 C 
ATOM     58  C   UNL A   1      47.189  26.336  34.501  1.00  0.00     0.029 A 
ATOM     59  C   UNL A   1      46.876  25.937  33.128  1.00  0.00     0.049 A 
ATOM     60  H   UNL A   1      48.166  25.991  31.490  1.00  0.00     0.167 HD
ATOM     61  C   UNL A   1      50.838  26.549  28.030  1.00  0.00     0.034 A 
ATOM     62  C   UNL A   1      45.693  25.449  32.693  1.00  0.00     0.034 A 
ATOM     63  C   UNL A   1      49.663  25.904  27.506  1.00  0.00     0.049 A 
ATOM     64  C   UNL A   1      45.528  25.136  31.219  1.00  0.00     0.074 A 
ATOM     65  C   UNL A   1      49.439  25.442  26.222  1.00  0.00     0.029 A 
ATOM     66  N   UNL A   1      48.505  25.658  28.229  1.00  0.00    -0.354 N 
ATOM     67  N   UNL A   1      46.406  25.240  30.246  1.00  0.00    -0.248 NA
ATOM     68  C   UNL A   1      44.211  24.648  30.780  1.00  0.00     0.031 C 
ATOM     69  C   UNL A   1      48.117  24.995  26.145  1.00  0.00     0.029 A 
ATOM     70  C   UNL A   1      47.543  25.100  27.403  1.00  0.00     0.049 A 
ATOM     71  H   UNL A   1      48.384  25.851  29.186  1.00  0.00     0.167 HD
ATOM     72  C   UNL A   1      45.753  24.804  29.093  1.00  0.00     0.074 A 
ATOM     73  C   UNL A   1      44.417  24.420  29.492  1.00  0.00     0.031 C 
ATOM     74  C   UNL A   1      46.213  24.728  27.818  1.00  0.00     0.034 A 
BRANCH  61  75
ATOM     75  C   UNL A   1      51.952  26.895  27.078  1.00  0.00     0.023 A 
ATOM     76  C   UNL A   1      53.079  26.074  26.916  1.00  0.00     0.031 A 
ATOM     77  C   UNL A   1      51.872  28.073  26.313  1.00  0.00     0.131 A 
ATOM     78  C   UNL A   1      54.103  26.463  26.038  1.00  0.00     0.055 A 
ATOM     79  C   UNL A   1      52.862  28.420  25.394  1.00  0.00     0.041 A 
ATOM     80  F   UNL A   1      50.829  28.907  26.451  1.00  0.00    -0.206 F 
ATOM     81  C   UNL A   1      53.989  27.617  25.257  1.00  0.00     0.022 A 
BRANCH  78  82
ATOM     82  S   UNL A   1      55.632  25.488  25.998  1.00  0.00     0.124 S 
ATOM     83  O   UNL A   1      56.578  26.446  25.431  1.00  0.00    -0.237 OA
ATOM     84  O   UNL A   1      55.828  25.151  27.402  1.00  0.00    -0.237 OA
ATOM     85  O   UNL A   1      55.298  24.363  25.127  1.00  0.00    -0.744 OA
ENDBRANCH  78  82
ENDBRANCH  61  75
BRANCH  62  86
ATOM     86  C   UNL A   1      44.526  25.310  33.619  1.00  0.00     0.023 A 
ATOM     87  C   UNL A   1      43.653  26.384  33.857  1.00  0.00     0.031 A 
ATOM     88  C   UNL A   1      44.336  24.135  34.368  1.00  0.00     0.131 A 
ATOM     89  C   UNL A   1      42.676  26.286  34.863  1.00  0.00     0.055 A 
ATOM     90  C   UNL A   1      43.321  24.018  35.321  1.00  0.00     0.041 A 
ATOM     91  F   UNL A   1      45.149  23.080  34.196  1.00  0.00    -0.206 F 
ATOM     92  C   UNL A   1      42.495  25.105  35.586  1.00  0.00     0.022 A 
BRANCH  89  93
ATOM     93  S   UNL A   1      41.737  27.773  35.310  1.00  0.00     0.124 S 
ATOM     94  O   UNL A   1      40.636  27.727  34.355  1.00  0.00    -0.237 OA
ATOM     95  O   UNL A   1      41.392  27.507  36.703  1.00  0.00    -0.237 OA
ATOM     96  O   UNL A   1      42.697  28.857  35.104  1.00  0.00    -0.744 OA
ENDBRANCH  89  93
ENDBRANCH  62  86
BRANCH  74  97
ATOM     97  C   UNL A   1      45.276  24.172  26.772  1.00  0.00     0.023 A 
ATOM     98  C   UNL A   1      45.291  22.813  26.414  1.00  0.00     0.031 A 
ATOM     99  C   UNL A   1      44.340  25.013  26.143  1.00  0.00     0.131 A 
ATOM    100  C   UNL A   1      44.416  22.343  25.424  1.00  0.00     0.055 A 
ATOM    101  C   UNL A   1      43.432  24.528  25.203  1.00  0.00     0.041 A 
ATOM    102  F   UNL A   1      44.282  26.319  26.448  1.00  0.00    -0.206 F 
ATOM    103  C   UNL A   1      43.473  23.187  24.830  1.00  0.00     0.022 A 
BRANCH 100 104
ATOM    104  S   UNL A   1      44.564  20.621  24.874  1.00  0.00     0.124 S 
ATOM    105  O   UNL A   1      44.540  20.765  23.421  1.00  0.00    -0.237 OA
ATOM    106  O   UNL A   1      45.839  20.214  25.453  1.00  0.00    -0.237 OA
ATOM    107  O   UNL A   1      43.386  19.974  25.452  1.00  0.00    -0.744 OA
ENDBRANCH 100 104
ENDBRANCH  74  97
ENDBRANCH  48  49
ENDBRANCH  41  43
ENDBRANCH  40  41
ENDBRANCH  39  40
ENDBRANCH  38  39
ENDBRANCH  37  38
ENDBRANCH  36  37
ENDBRANCH  35  36
ENDBRANCH   1  35
TORSDOF 28
ENDMDL
MODEL 2
REMARK VINA RESULT:      -6.9     12.146     18.676
REMARK SMILES O=C(C[C@H](NC(=O)[C@]12C[C@H]3C[C@H](C[C@H](C3)C1)C2)c1cccc([N+](=O)[O-])c1)OCCOCCOCCOCCOC(=O)c1ccc(-c2c3nc(c(-c4cc(S(=O)(=O)[O-])ccc4F)c4ccc([nH]4)c(-c4cc(S(=O)(=O)[O-])ccc4F)c4nc(c(-c5cc(S(=O)(=O)[O-])ccc5F)c5ccc2[nH]5)C=C4)C=C3)cc1
REMARK SMILES IDX 33 1 32 2 31 3 30 4 29 5 28 6 27 7 2 8 1 9 3 10 4 11 18 12
REMARK SMILES IDX 19 13 26 14 20 15 22 16 21 17 23 18 24 19 25 20 5 21 6 22
REMARK SMILES IDX 7 24 8 25 9 26 16 27 17 28 10 29 14 30 12 31 11 32 15 33
REMARK SMILES IDX 13 34 34 35 35 36 36 37 37 38 38 39 39 40 40 41 41 42 42 43
REMARK SMILES IDX 43 44 104 45 44 46 103 47 45 48 46 49 47 50 97 51 48 52
REMARK SMILES IDX 102 53 96 54 98 55 49 56 101 57 95 58 94 59 50 61 82 62
REMARK SMILES IDX 62 63 81 64 63 65 66 66 80 67 99 68 64 69 65 70 79 72 100 73
REMARK SMILES IDX 67 74 51 75 52 76 60 77 53 78 59 79 61 80 58 81 54 82 55 83
REMARK SMILES IDX 56 84 57 85 83 86 84 87 92 88 85 89 91 90 93 91 90 92 86 93
REMARK SMILES IDX 87 94 88 95 89 96 68 97 69 98 77 99 70 100 76 101 78 102
REMARK SMILES IDX 75 103 71 104 72 105 73 106 74 107
REMARK H PARENT 5 23 98 60 66 71
REMARK Flexibility Score: inf
ROOT
ATOM      1  O   UNL A   1      51.130  40.247  29.344  1.00  0.00    -0.377 OA
ENDROOT
BRANCH   1   2
ATOM      2  C   UNL A   1      52.113  41.263  29.249  1.00  0.00     0.188 C 
BRANCH   2   3
ATOM      3  C   UNL A   1      51.942  42.369  30.286  1.00  0.00     0.188 C 
BRANCH   3   4
ATOM      4  O   UNL A   1      50.944  43.331  30.010  1.00  0.00    -0.376 OA
BRANCH   4   5
ATOM      5  C   UNL A   1      49.939  43.717  30.926  1.00  0.00     0.202 C 
BRANCH   5   6
ATOM      6  C   UNL A   1      48.630  42.952  31.084  1.00  0.00     0.261 C 
BRANCH   6   7
ATOM      7  O   UNL A   1      48.333  41.893  30.151  1.00  0.00    -0.463 OA
BRANCH   7   8
ATOM      8  C   UNL A   1      47.640  40.754  30.256  1.00  0.00     0.308 C 
ATOM      9  O   UNL A   1      47.952  39.952  31.138  1.00  0.00    -0.252 OA
BRANCH   8  10
ATOM     10  C   UNL A   1      46.676  40.319  29.197  1.00  0.00     0.152 C 
BRANCH  10  11
ATOM     11  C   UNL A   1      45.891  41.288  28.317  1.00  0.00     0.123 C 
BRANCH  11  12
ATOM     12  C   UNL A   1      44.439  40.889  28.372  1.00  0.00    -0.018 A 
ATOM     13  C   UNL A   1      43.792  40.743  29.611  1.00  0.00     0.006 A 
ATOM     14  C   UNL A   1      43.701  40.798  27.186  1.00  0.00     0.091 A 
ATOM     15  C   UNL A   1      42.422  40.499  29.664  1.00  0.00     0.007 A 
ATOM     16  C   UNL A   1      42.329  40.561  27.246  1.00  0.00     0.269 A 
ATOM     17  C   UNL A   1      41.686  40.411  28.482  1.00  0.00     0.085 A 
BRANCH  16  18
ATOM     18  N   UNL A   1      41.561  40.506  26.000  1.00  0.00     0.062 N 
ATOM     19  O   UNL A   1      40.773  39.561  25.855  1.00  0.00    -0.258 OA
ATOM     20  O   UNL A   1      41.743  41.407  25.169  1.00  0.00    -0.258 OA
ENDBRANCH  16  18
ENDBRANCH  11  12
BRANCH  11  21
ATOM     21  N   UNL A   1      46.068  42.708  28.538  1.00  0.00    -0.348 N 
ATOM     22  C   UNL A   1      46.375  43.733  27.695  1.00  0.00     0.226 C 
ATOM     23  H   UNL A   1      45.941  42.985  29.474  1.00  0.00     0.164 HD
ATOM     24  O   UNL A   1      46.689  44.782  28.268  1.00  0.00    -0.274 OA
BRANCH  22  25
ATOM     25  C   UNL A   1      46.261  43.684  26.149  1.00  0.00     0.050 C 
ATOM     26  C   UNL A   1      46.803  42.427  25.430  1.00  0.00     0.020 C 
ATOM     27  C   UNL A   1      47.052  44.897  25.560  1.00  0.00     0.020 C 
ATOM     28  C   UNL A   1      44.772  43.883  25.780  1.00  0.00     0.020 C 
ATOM     29  C   UNL A   1      46.619  42.522  23.906  1.00  0.00    -0.010 C 
ATOM     30  C   UNL A   1      46.869  45.008  24.037  1.00  0.00    -0.010 C 
ATOM     31  C   UNL A   1      44.586  43.970  24.257  1.00  0.00    -0.010 C 
ATOM     32  C   UNL A   1      45.119  42.683  23.604  1.00  0.00     0.007 C 
ATOM     33  C   UNL A   1      47.390  43.729  23.369  1.00  0.00     0.007 C 
ATOM     34  C   UNL A   1      45.375  45.174  23.720  1.00  0.00     0.007 C 
ENDBRANCH  22  25
ENDBRANCH  11  21
ENDBRANCH  10  11
ENDBRANCH   8  10
ENDBRANCH   7   8
ENDBRANCH   6   7
ENDBRANCH   5   6
ENDBRANCH   4   5
ENDBRANCH   3   4
ENDBRANCH   2   3
ENDBRANCH   1   2
BRANCH   1  35
ATOM     35  C   UNL A   1      51.563  38.970  28.903  1.00  0.00     0.188 C 
BRANCH  35  36
ATOM     36  C   UNL A   1      51.593  38.752  27.373  1.00  0.00     0.188 C 
BRANCH  36  37
ATOM     37  O   UNL A   1      50.593  37.995  26.702  1.00  0.00    -0.376 OA
BRANCH  37  38
ATOM     38  C   UNL A   1      49.265  37.976  27.199  1.00  0.00     0.202 C 
BRANCH  38  39
ATOM     39  C   UNL A   1      48.072  37.912  26.231  1.00  0.00     0.261 C 
BRANCH  39  40
ATOM     40  O   UNL A   1      46.770  37.967  26.834  1.00  0.00    -0.460 OA
BRANCH  40  41
ATOM     41  C   UNL A   1      45.975  36.882  26.652  1.00  0.00     0.338 C 
ATOM     42  O   UNL A   1      45.907  36.187  25.652  1.00  0.00    -0.246 OA
BRANCH  41  43
ATOM     43  C   UNL A   1      45.361  36.516  27.952  1.00  0.00     0.060 A 
ATOM     44  C   UNL A   1      44.345  37.341  28.466  1.00  0.00     0.016 A 
ATOM     45  C   UNL A   1      45.704  35.336  28.616  1.00  0.00     0.016 A 
ATOM     46  C   UNL A   1      43.672  36.988  29.638  1.00  0.00     0.010 A 
ATOM     47  C   UNL A   1      45.062  35.008  29.816  1.00  0.00     0.010 A 
ATOM     48  C   UNL A   1      44.057  35.840  30.343  1.00  0.00    -0.014 A 
BRANCH  48  49
ATOM     49  C   UNL A   1      43.590  35.629  31.737  1.00  0.00     0.031 A 
ATOM     50  C   UNL A   1      42.363  34.780  31.933  1.00  0.00     0.074 A 
ATOM     51  C   UNL A   1      44.205  36.195  32.792  1.00  0.00     0.049 A 
ATOM     52  N   UNL A   1      41.669  34.560  33.016  1.00  0.00    -0.248 NA
ATOM     53  C   UNL A   1      41.848  34.093  30.735  1.00  0.00     0.031 C 
ATOM     54  C   UNL A   1      45.434  36.983  32.736  1.00  0.00     0.029 A 
ATOM     55  N   UNL A   1      43.857  36.210  34.123  1.00  0.00    -0.354 N 
ATOM     56  C   UNL A   1      40.623  33.728  32.630  1.00  0.00     0.074 A 
ATOM     57  C   UNL A   1      40.773  33.486  31.212  1.00  0.00     0.031 C 
ATOM     58  C   UNL A   1      45.717  37.437  33.971  1.00  0.00     0.029 A 
ATOM     59  C   UNL A   1      44.664  37.016  34.896  1.00  0.00     0.049 A 
ATOM     60  H   UNL A   1      43.104  35.693  34.489  1.00  0.00     0.167 HD
ATOM     61  C   UNL A   1      39.622  33.225  33.389  1.00  0.00     0.034 A 
ATOM     62  C   UNL A   1      44.533  37.407  36.183  1.00  0.00     0.034 A 
ATOM     63  C   UNL A   1      39.478  33.484  34.797  1.00  0.00     0.049 A 
ATOM     64  C   UNL A   1      43.345  36.911  36.983  1.00  0.00     0.074 A 
ATOM     65  C   UNL A   1      38.528  32.984  35.667  1.00  0.00     0.029 A 
ATOM     66  N   UNL A   1      40.289  34.335  35.533  1.00  0.00    -0.354 N 
ATOM     67  N   UNL A   1      42.383  36.093  36.616  1.00  0.00    -0.248 NA
ATOM     68  C   UNL A   1      43.218  37.395  38.366  1.00  0.00     0.031 C 
ATOM     69  C   UNL A   1      38.710  33.598  36.909  1.00  0.00     0.029 A 
ATOM     70  C   UNL A   1      39.826  34.418  36.836  1.00  0.00     0.049 A 
ATOM     71  H   UNL A   1      41.075  34.811  35.182  1.00  0.00     0.167 HD
ATOM     72  C   UNL A   1      41.558  35.948  37.731  1.00  0.00     0.074 A 
ATOM     73  C   UNL A   1      42.144  36.745  38.788  1.00  0.00     0.031 C 
ATOM     74  C   UNL A   1      40.420  35.224  37.874  1.00  0.00     0.034 A 
BRANCH  61  75
ATOM     75  C   UNL A   1      38.565  32.407  32.697  1.00  0.00     0.023 A 
ATOM     76  C   UNL A   1      37.408  32.987  32.152  1.00  0.00     0.031 A 
ATOM     77  C   UNL A   1      38.730  31.015  32.578  1.00  0.00     0.131 A 
ATOM     78  C   UNL A   1      36.439  32.171  31.546  1.00  0.00     0.055 A 
ATOM     79  C   UNL A   1      37.795  30.218  31.917  1.00  0.00     0.041 A 
ATOM     80  F   UNL A   1      39.803  30.408  33.107  1.00  0.00    -0.206 F 
ATOM     81  C   UNL A   1      36.638  30.795  31.403  1.00  0.00     0.022 A 
BRANCH  78  82
ATOM     82  S   UNL A   1      34.870  32.919  31.030  1.00  0.00     0.124 S 
ATOM     83  O   UNL A   1      35.233  34.331  30.934  1.00  0.00    -0.237 OA
ATOM     84  O   UNL A   1      34.597  32.242  29.769  1.00  0.00    -0.237 OA
ATOM     85  O   UNL A   1      33.958  32.591  32.124  1.00  0.00    -0.744 OA
ENDBRANCH  78  82
ENDBRANCH  61  75
BRANCH  62  86
ATOM     86  C   UNL A   1      45.481  38.392  36.791  1.00  0.00     0.023 A 
ATOM     87  C   UNL A   1      45.297  39.776  36.632  1.00  0.00     0.031 A 
ATOM     88  C   UNL A   1      46.650  37.960  37.445  1.00  0.00     0.131 A 
ATOM     89  C   UNL A   1      46.295  40.671  37.056  1.00  0.00     0.055 A 
ATOM     90  C   UNL A   1      47.607  38.856  37.925  1.00  0.00     0.041 A 
ATOM     91  F   UNL A   1      46.889  36.649  37.613  1.00  0.00    -0.206 F 
ATOM     92  C   UNL A   1      47.441  40.221  37.714  1.00  0.00     0.022 A 
BRANCH  89  93
ATOM     93  S   UNL A   1      46.136  42.423  36.609  1.00  0.00     0.124 S 
ATOM     94  O   UNL A   1      47.469  42.929  36.916  1.00  0.00    -0.237 OA
ATOM     95  O   UNL A   1      45.788  42.344  35.195  1.00  0.00    -0.237 OA
ATOM     96  O   UNL A   1      45.069  42.903  37.487  1.00  0.00    -0.744 OA
ENDBRANCH  89  93
ENDBRANCH  62  86
BRANCH  74  97
ATOM     97  C   UNL A   1      39.757  35.228  39.231  1.00  0.00     0.023 A 
ATOM     98  C   UNL A   1      39.854  34.131  40.105  1.00  0.00     0.031 A 
ATOM     99  C   UNL A   1      39.038  36.357  39.662  1.00  0.00     0.131 A 
ATOM    100  C   UNL A   1      39.206  34.171  41.349  1.00  0.00     0.055 A 
ATOM    101  C   UNL A   1      38.446  36.415  40.924  1.00  0.00     0.041 A 
ATOM    102  F   UNL A   1      38.915  37.433  38.868  1.00  0.00    -0.206 F 
ATOM    103  C   UNL A   1      38.520  35.313  41.772  1.00  0.00     0.022 A 
BRANCH 100 104
ATOM    104  S   UNL A   1      39.219  32.685  42.388  1.00  0.00     0.124 S 
ATOM    105  O   UNL A   1      39.984  33.133  43.548  1.00  0.00    -0.237 OA
ATOM    106  O   UNL A   1      37.798  32.447  42.614  1.00  0.00    -0.237 OA
ATOM    107  O   UNL A   1      39.887  31.688  41.552  1.00  0.00    -0.744 OA
ENDBRANCH 100 104
ENDBRANCH  74  97
ENDBRANCH  48  49
ENDBRANCH  41  43
ENDBRANCH  40  41
ENDBRANCH  39  40
ENDBRANCH  38  39
ENDBRANCH  37  38
ENDBRANCH  36  37
ENDBRANCH  35  36
ENDBRANCH   1  35
TORSDOF 28
ENDMDL
MODEL 3
REMARK VINA RESULT:      -6.7      9.418     15.542
REMARK SMILES O=C(C[C@H](NC(=O)[C@]12C[C@H]3C[C@H](C[C@H](C3)C1)C2)c1cccc([N+](=O)[O-])c1)OCCOCCOCCOCCOC(=O)c1ccc(-c2c3nc(c(-c4cc(S(=O)(=O)[O-])ccc4F)c4ccc([nH]4)c(-c4cc(S(=O)(=O)[O-])ccc4F)c4nc(c(-c5cc(S(=O)(=O)[O-])ccc5F)c5ccc2[nH]5)C=C4)C=C3)cc1
REMARK SMILES IDX 33 1 32 2 31 3 30 4 29 5 28 6 27 7 2 8 1 9 3 10 4 11 18 12
REMARK SMILES IDX 19 13 26 14 20 15 22 16 21 17 23 18 24 19 25 20 5 21 6 22
REMARK SMILES IDX 7 24 8 25 9 26 16 27 17 28 10 29 14 30 12 31 11 32 15 33
REMARK SMILES IDX 13 34 34 35 35 36 36 37 37 38 38 39 39 40 40 41 41 42 42 43
REMARK SMILES IDX 43 44 104 45 44 46 103 47 45 48 46 49 47 50 97 51 48 52
REMARK SMILES IDX 102 53 96 54 98 55 49 56 101 57 95 58 94 59 50 61 82 62
REMARK SMILES IDX 62 63 81 64 63 65 66 66 80 67 99 68 64 69 65 70 79 72 100 73
REMARK SMILES IDX 67 74 51 75 52 76 60 77 53 78 59 79 61 80 58 81 54 82 55 83
REMARK SMILES IDX 56 84 57 85 83 86 84 87 92 88 85 89 91 90 93 91 90 92 86 93
REMARK SMILES IDX 87 94 88 95 89 96 68 97 69 98 77 99 70 100 76 101 78 102
REMARK SMILES IDX 75 103 71 104 72 105 73 106 74 107
REMARK H PARENT 5 23 98 60 66 71
REMARK Flexibility Score: inf
ROOT
ATOM      1  O   UNL A   1      45.687  44.912  25.026  1.00  0.00    -0.377 OA
ENDROOT
BRANCH   1   2
ATOM      2  C   UNL A   1      44.505  44.380  24.452  1.00  0.00     0.188 C 
BRANCH   2   3
ATOM      3  C   UNL A   1      44.718  43.034  23.767  1.00  0.00     0.188 C 
BRANCH   3   4
ATOM      4  O   UNL A   1      43.893  41.974  24.208  1.00  0.00    -0.376 OA
BRANCH   4   5
ATOM      5  C   UNL A   1      43.667  41.657  25.567  1.00  0.00     0.202 C 
BRANCH   5   6
ATOM      6  C   UNL A   1      43.892  40.261  26.135  1.00  0.00     0.261 C 
BRANCH   6   7
ATOM      7  O   UNL A   1      42.907  39.715  27.036  1.00  0.00    -0.463 OA
BRANCH   7   8
ATOM      8  C   UNL A   1      42.540  38.464  27.335  1.00  0.00     0.308 C 
ATOM      9  O   UNL A   1      41.782  38.282  28.289  1.00  0.00    -0.252 OA
BRANCH   8  10
ATOM     10  C   UNL A   1      43.208  37.279  26.712  1.00  0.00     0.152 C 
BRANCH  10  11
ATOM     11  C   UNL A   1      44.583  36.765  27.131  1.00  0.00     0.123 C 
BRANCH  11  12
ATOM     12  C   UNL A   1      44.433  35.322  27.537  1.00  0.00    -0.018 A 
ATOM     13  C   UNL A   1      45.434  34.389  27.215  1.00  0.00     0.006 A 
ATOM     14  C   UNL A   1      43.361  34.941  28.353  1.00  0.00     0.091 A 
ATOM     15  C   UNL A   1      45.359  33.085  27.697  1.00  0.00     0.007 A 
ATOM     16  C   UNL A   1      43.297  33.636  28.838  1.00  0.00     0.269 A 
ATOM     17  C   UNL A   1      44.292  32.705  28.513  1.00  0.00     0.085 A 
BRANCH  16  18
ATOM     18  N   UNL A   1      42.192  33.259  29.723  1.00  0.00     0.062 N 
ATOM     19  O   UNL A   1      42.063  32.058  29.998  1.00  0.00    -0.258 OA
ATOM     20  O   UNL A   1      41.455  34.162  30.143  1.00  0.00    -0.258 OA
ENDBRANCH  16  18
ENDBRANCH  11  12
BRANCH  11  21
ATOM     21  N   UNL A   1      45.690  36.955  26.218  1.00  0.00    -0.348 N 
ATOM     22  C   UNL A   1      46.843  37.674  26.316  1.00  0.00     0.226 C 
ATOM     23  H   UNL A   1      45.591  36.474  25.364  1.00  0.00     0.164 HD
ATOM     24  O   UNL A   1      47.448  37.809  25.246  1.00  0.00    -0.274 OA
BRANCH  22  25
ATOM     25  C   UNL A   1      47.452  38.211  27.637  1.00  0.00     0.050 C 
ATOM     26  C   UNL A   1      46.503  38.936  28.620  1.00  0.00     0.020 C 
ATOM     27  C   UNL A   1      48.574  39.239  27.278  1.00  0.00     0.020 C 
ATOM     28  C   UNL A   1      48.130  37.025  28.362  1.00  0.00     0.020 C 
ATOM     29  C   UNL A   1      47.247  39.410  29.881  1.00  0.00    -0.010 C 
ATOM     30  C   UNL A   1      49.331  39.714  28.530  1.00  0.00    -0.010 C 
ATOM     31  C   UNL A   1      48.865  37.495  29.626  1.00  0.00    -0.010 C 
ATOM     32  C   UNL A   1      47.866  38.183  30.571  1.00  0.00     0.007 C 
ATOM     33  C   UNL A   1      48.347  40.397  29.488  1.00  0.00     0.007 C 
ATOM     34  C   UNL A   1      49.960  38.499  29.230  1.00  0.00     0.007 C 
ENDBRANCH  22  25
ENDBRANCH  11  21
ENDBRANCH  10  11
ENDBRANCH   8  10
ENDBRANCH   7   8
ENDBRANCH   6   7
ENDBRANCH   5   6
ENDBRANCH   4   5
ENDBRANCH   3   4
ENDBRANCH   2   3
ENDBRANCH   1   2
BRANCH   1  35
ATOM     35  C   UNL A   1      46.255  44.107  26.046  1.00  0.00     0.188 C 
BRANCH  35  36
ATOM     36  C   UNL A   1      45.876  44.479  27.498  1.00  0.00     0.188 C 
BRANCH  36  37
ATOM     37  O   UNL A   1      44.838  43.806  28.200  1.00  0.00    -0.376 OA
BRANCH  37  38
ATOM     38  C   UNL A   1      45.087  43.264  29.486  1.00  0.00     0.202 C 
BRANCH  38  39
ATOM     39  C   UNL A   1      44.462  41.922  29.901  1.00  0.00     0.261 C 
BRANCH  39  40
ATOM     40  O   UNL A   1      44.914  41.377  31.150  1.00  0.00    -0.460 OA
BRANCH  40  41
ATOM     41  C   UNL A   1      43.959  40.853  31.960  1.00  0.00     0.338 C 
ATOM     42  O   UNL A   1      42.987  41.435  32.411  1.00  0.00    -0.246 OA
BRANCH  41  43
ATOM     43  C   UNL A   1      44.145  39.383  32.030  1.00  0.00     0.060 A 
ATOM     44  C   UNL A   1      43.808  38.614  30.903  1.00  0.00     0.016 A 
ATOM     45  C   UNL A   1      44.725  38.772  33.144  1.00  0.00     0.016 A 
ATOM     46  C   UNL A   1      44.051  37.238  30.887  1.00  0.00     0.010 A 
ATOM     47  C   UNL A   1      44.924  37.386  33.145  1.00  0.00     0.010 A 
ATOM     48  C   UNL A   1      44.573  36.610  32.025  1.00  0.00    -0.014 A 
BRANCH  48  49
ATOM     49  C   UNL A   1      44.530  35.131  32.146  1.00  0.00     0.031 A 
ATOM     50  C   UNL A   1      43.376  34.533  32.903  1.00  0.00     0.074 A 
ATOM     51  C   UNL A   1      45.494  34.341  31.635  1.00  0.00     0.049 A 
ATOM     52  N   UNL A   1      43.177  33.298  33.277  1.00  0.00    -0.248 NA
ATOM     53  C   UNL A   1      42.304  35.464  33.299  1.00  0.00     0.031 C 
ATOM     54  C   UNL A   1      46.626  34.797  30.830  1.00  0.00     0.029 A 
ATOM     55  N   UNL A   1      45.685  32.983  31.745  1.00  0.00    -0.354 N 
ATOM     56  C   UNL A   1      41.971  33.305  33.969  1.00  0.00     0.074 A 
ATOM     57  C   UNL A   1      41.485  34.666  33.966  1.00  0.00     0.031 C 
ATOM     58  C   UNL A   1      47.413  33.741  30.550  1.00  0.00     0.029 A 
ATOM     59  C   UNL A   1      46.871  32.546  31.198  1.00  0.00     0.049 A 
ATOM     60  H   UNL A   1      45.035  32.381  32.173  1.00  0.00     0.167 HD
ATOM     61  C   UNL A   1      41.336  32.269  34.565  1.00  0.00     0.034 A 
ATOM     62  C   UNL A   1      47.470  31.336  31.262  1.00  0.00     0.034 A 
ATOM     63  C   UNL A   1      41.836  30.920  34.571  1.00  0.00     0.049 A 
ATOM     64  C   UNL A   1      46.785  30.219  32.024  1.00  0.00     0.074 A 
ATOM     65  C   UNL A   1      41.246  29.789  35.103  1.00  0.00     0.029 A 
ATOM     66  N   UNL A   1      43.057  30.525  34.044  1.00  0.00    -0.354 N 
ATOM     67  N   UNL A   1      45.625  30.228  32.642  1.00  0.00    -0.248 NA
ATOM     68  C   UNL A   1      47.492  28.931  32.105  1.00  0.00     0.031 C 
ATOM     69  C   UNL A   1      42.146  28.728  34.976  1.00  0.00     0.029 A 
ATOM     70  C   UNL A   1      43.263  29.177  34.288  1.00  0.00     0.049 A 
ATOM     71  H   UNL A   1      43.684  31.115  33.567  1.00  0.00     0.167 HD
ATOM     72  C   UNL A   1      45.457  28.943  33.159  1.00  0.00     0.074 A 
ATOM     73  C   UNL A   1      46.622  28.181  32.764  1.00  0.00     0.031 C 
ATOM     74  C   UNL A   1      44.434  28.436  33.892  1.00  0.00     0.034 A 
BRANCH  61  75
ATOM     75  C   UNL A   1      40.069  32.569  35.322  1.00  0.00     0.023 A 
ATOM     76  C   UNL A   1      40.053  32.735  36.717  1.00  0.00     0.031 A 
ATOM     77  C   UNL A   1      38.855  32.697  34.624  1.00  0.00     0.131 A 
ATOM     78  C   UNL A   1      38.838  32.981  37.375  1.00  0.00     0.055 A 
ATOM     79  C   UNL A   1      37.661  33.007  35.276  1.00  0.00     0.041 A 
ATOM     80  F   UNL A   1      38.811  32.520  33.294  1.00  0.00    -0.206 F 
ATOM     81  C   UNL A   1      37.647  33.144  36.660  1.00  0.00     0.022 A 
BRANCH  78  82
ATOM     82  S   UNL A   1      38.816  32.993  39.188  1.00  0.00     0.124 S 
ATOM     83  O   UNL A   1      37.808  31.976  39.478  1.00  0.00    -0.237 OA
ATOM     84  O   UNL A   1      40.192  32.642  39.522  1.00  0.00    -0.237 OA
ATOM     85  O   UNL A   1      38.424  34.361  39.517  1.00  0.00    -0.744 OA
ENDBRANCH  78  82
ENDBRANCH  61  75
BRANCH  62  86
ATOM     86  C   UNL A   1      48.831  31.116  30.682  1.00  0.00     0.023 A 
ATOM     87  C   UNL A   1      48.998  30.623  29.377  1.00  0.00     0.031 A 
ATOM     88  C   UNL A   1      49.987  31.287  31.468  1.00  0.00     0.131 A 
ATOM     89  C   UNL A   1      50.276  30.256  28.922  1.00  0.00     0.055 A 
ATOM     90  C   UNL A   1      51.262  30.982  30.988  1.00  0.00     0.041 A 
ATOM     91  F   UNL A   1      49.891  31.739  32.728  1.00  0.00    -0.206 F 
ATOM     92  C   UNL A   1      51.410  30.445  29.713  1.00  0.00     0.022 A 
BRANCH  89  93
ATOM     93  S   UNL A   1      50.416  29.393  27.331  1.00  0.00     0.124 S 
ATOM     94  O   UNL A   1      49.829  28.096  27.644  1.00  0.00    -0.237 OA
ATOM     95  O   UNL A   1      49.637  30.256  26.450  1.00  0.00    -0.237 OA
ATOM     96  O   UNL A   1      51.856  29.382  27.076  1.00  0.00    -0.744 OA
ENDBRANCH  89  93
ENDBRANCH  62  86
BRANCH  74  97
ATOM     97  C   UNL A   1      44.512  26.979  34.280  1.00  0.00     0.023 A 
ATOM     98  C   UNL A   1      44.955  26.574  35.552  1.00  0.00     0.031 A 
ATOM     99  C   UNL A   1      44.114  25.983  33.370  1.00  0.00     0.131 A 
ATOM    100  C   UNL A   1      45.028  25.209  35.863  1.00  0.00     0.055 A 
ATOM    101  C   UNL A   1      44.132  24.629  33.706  1.00  0.00     0.041 A 
ATOM    102  F   UNL A   1      43.681  26.313  32.142  1.00  0.00    -0.206 F 
ATOM    103  C   UNL A   1      44.601  24.235  34.956  1.00  0.00     0.022 A 
BRANCH 100 104
ATOM    104  S   UNL A   1      45.748  24.713  37.452  1.00  0.00     0.124 S 
ATOM    105  O   UNL A   1      47.010  25.447  37.455  1.00  0.00    -0.237 OA
ATOM    106  O   UNL A   1      44.745  25.167  38.408  1.00  0.00    -0.237 OA
ATOM    107  O   UNL A   1      45.876  23.261  37.332  1.00  0.00    -0.744 OA
ENDBRANCH 100 104
ENDBRANCH  74  97
ENDBRANCH  48  49
ENDBRANCH  41  43
ENDBRANCH  40  41
ENDBRANCH  39  40
ENDBRANCH  38  39
ENDBRANCH  37  38
ENDBRANCH  36  37
ENDBRANCH  35  36
ENDBRANCH   1  35
TORSDOF 28
ENDMDL
