MODEL 1
REMARK VINA RESULT:      -8.5      0.000      0.000
REMARK SMILES [NH3+]CCOCC(=O)N1C[C@@H](C(=O)OCCOCCOCCOCCOC(=O)c2ccc(-c3c4nc(c(-c5cc(S(=O)(=O)[O-])ccc5F)c5ccc([nH]5)c(-c5cc(S(=O)(=O)[O-])ccc5F)c5nc(c(-c6cc(S(=O)(=O)[O-])ccc6F)c6ccc3[nH]6)C=C5)C=C4)cc2)Oc2ccccc21
REMARK SMILES IDX 17 1 16 2 15 3 14 4 13 5 11 6 12 7 10 8 8 9 9 10 97 11 92 12
REMARK SMILES IDX 96 13 91 14 93 15 95 16 94 17 6 18 7 19 5 20 4 21 3 22 2 23
REMARK SMILES IDX 1 24 18 28 19 29 20 30 21 31 22 32 23 33 24 34 25 35 26 36
REMARK SMILES IDX 27 37 28 38 29 39 90 40 30 41 89 42 31 43 32 44 33 45 83 46
REMARK SMILES IDX 34 47 88 48 82 49 84 50 35 51 87 52 81 53 80 54 36 56 68 57
REMARK SMILES IDX 48 58 67 59 49 60 52 61 66 62 85 63 50 64 51 65 65 67 86 68
REMARK SMILES IDX 53 69 37 70 38 71 46 72 39 73 45 74 47 75 44 76 40 77 41 78
REMARK SMILES IDX 42 79 43 80 69 81 70 82 78 83 71 84 77 85 79 86 76 87 72 88
REMARK SMILES IDX 73 89 74 90 75 91 54 92 55 93 63 94 56 95 62 96 64 97 61 98
REMARK SMILES IDX 57 99 58 100 59 101 60 102
REMARK H PARENT 1 25 1 26 1 27 84 55 52 66
REMARK Flexibility Score: inf
ROOT
ATOM      1  C   UNL A   1      39.142  23.385  26.964  1.00  0.00     0.188 C 
ENDROOT
BRANCH   1   2
ATOM      2  O   UNL A   1      38.386  23.009  25.826  1.00  0.00    -0.376 OA
BRANCH   2   3
ATOM      3  C   UNL A   1      37.401  23.851  25.234  1.00  0.00     0.202 C 
BRANCH   3   4
ATOM      4  C   UNL A   1      35.872  23.686  25.404  1.00  0.00     0.261 C 
BRANCH   4   5
ATOM      5  O   UNL A   1      35.412  22.980  26.562  1.00  0.00    -0.460 OA
BRANCH   5   6
ATOM      6  C   UNL A   1      34.956  21.730  26.329  1.00  0.00     0.349 C 
ATOM      7  O   UNL A   1      35.506  20.945  25.567  1.00  0.00    -0.248 OA
BRANCH   6   8
ATOM      8  C   UNL A   1      33.774  21.401  27.272  1.00  0.00     0.302 C 
ATOM      9  N   UNL A   1      32.371  20.881  25.363  1.00  0.00    -0.303 N 
ATOM     10  C   UNL A   1      32.858  20.363  26.641  1.00  0.00     0.183 C 
ATOM     11  C   UNL A   1      32.036  22.294  25.423  1.00  0.00     0.086 A 
ATOM     12  C   UNL A   1      32.313  23.028  26.608  1.00  0.00     0.144 A 
ATOM     13  C   UNL A   1      31.472  23.001  24.364  1.00  0.00     0.030 A 
ATOM     14  O   UNL A   1      32.998  22.510  27.682  1.00  0.00    -0.475 OA
ATOM     15  C   UNL A   1      31.988  24.375  26.754  1.00  0.00     0.049 A 
ATOM     16  C   UNL A   1      31.180  24.369  24.494  1.00  0.00     0.002 A 
ATOM     17  C   UNL A   1      31.425  25.051  25.685  1.00  0.00     0.004 A 
BRANCH   9  18
ATOM     18  C   UNL A   1      32.521  20.150  24.177  1.00  0.00     0.253 C 
ATOM     19  O   UNL A   1      32.244  20.581  23.053  1.00  0.00    -0.272 OA
BRANCH  18  20
ATOM     20  C   UNL A   1      32.955  18.650  24.292  1.00  0.00     0.260 C 
BRANCH  20  21
ATOM     21  O   UNL A   1      34.262  18.122  24.233  1.00  0.00    -0.366 OA
BRANCH  21  22
ATOM     22  C   UNL A   1      34.404  16.735  23.934  1.00  0.00     0.222 C 
BRANCH  22  23
ATOM     23  C   UNL A   1      34.699  15.810  25.122  1.00  0.00     0.287 C 
BRANCH  23  24
ATOM     24  N   UNL A   1      35.990  16.058  25.765  1.00  0.00    -0.356 N 
ATOM     25  H   UNL A   1      35.896  16.822  26.434  1.00  0.00     0.344 HD
ATOM     26  H   UNL A   1      36.680  16.310  25.057  1.00  0.00     0.344 HD
ATOM     27  H   UNL A   1      36.295  15.215  26.252  1.00  0.00     0.344 HD
ENDBRANCH  23  24
ENDBRANCH  22  23
ENDBRANCH  21  22
ENDBRANCH  20  21
ENDBRANCH  18  20
ENDBRANCH   9  18
ENDBRANCH   6   8
ENDBRANCH   5   6
ENDBRANCH   4   5
ENDBRANCH   3   4
ENDBRANCH   2   3
ENDBRANCH   1   2
BRANCH   1  28
ATOM     28  C   UNL A   1      40.495  22.670  27.107  1.00  0.00     0.188 C 
BRANCH  28  29
ATOM     29  O   UNL A   1      40.734  21.770  26.046  1.00  0.00    -0.377 OA
BRANCH  29  30
ATOM     30  C   UNL A   1      40.245  20.444  26.204  1.00  0.00     0.188 C 
BRANCH  30  31
ATOM     31  C   UNL A   1      41.220  19.242  26.249  1.00  0.00     0.188 C 
BRANCH  31  32
ATOM     32  O   UNL A   1      42.572  19.585  26.540  1.00  0.00    -0.376 OA
BRANCH  32  33
ATOM     33  C   UNL A   1      43.530  19.464  25.500  1.00  0.00     0.202 C 
BRANCH  33  34
ATOM     34  C   UNL A   1      44.546  20.611  25.389  1.00  0.00     0.261 C 
BRANCH  34  35
ATOM     35  O   UNL A   1      44.092  21.895  25.840  1.00  0.00    -0.460 OA
BRANCH  35  36
ATOM     36  C   UNL A   1      43.977  22.876  24.916  1.00  0.00     0.338 C 
ATOM     37  O   UNL A   1      43.946  22.740  23.706  1.00  0.00    -0.246 OA
BRANCH  36  38
ATOM     38  C   UNL A   1      43.684  24.133  25.640  1.00  0.00     0.060 A 
ATOM     39  C   UNL A   1      43.260  25.259  24.919  1.00  0.00     0.016 A 
ATOM     40  C   UNL A   1      43.784  24.178  27.032  1.00  0.00     0.016 A 
ATOM     41  C   UNL A   1      42.961  26.446  25.590  1.00  0.00     0.010 A 
ATOM     42  C   UNL A   1      43.515  25.375  27.697  1.00  0.00     0.010 A 
ATOM     43  C   UNL A   1      43.133  26.521  26.977  1.00  0.00    -0.014 A 
BRANCH  43  44
ATOM     44  C   UNL A   1      43.168  27.834  27.665  1.00  0.00     0.031 A 
ATOM     45  C   UNL A   1      44.520  28.433  27.940  1.00  0.00     0.074 A 
ATOM     46  C   UNL A   1      42.050  28.460  28.072  1.00  0.00     0.049 A 
ATOM     47  N   UNL A   1      44.844  29.460  28.678  1.00  0.00    -0.248 NA
ATOM     48  C   UNL A   1      45.665  27.760  27.302  1.00  0.00     0.031 C 
ATOM     49  C   UNL A   1      40.685  28.014  27.802  1.00  0.00     0.029 A 
ATOM     50  N   UNL A   1      41.893  29.599  28.823  1.00  0.00    -0.354 N 
ATOM     51  C   UNL A   1      46.230  29.550  28.608  1.00  0.00     0.074 A 
ATOM     52  C   UNL A   1      46.685  28.455  27.779  1.00  0.00     0.031 C 
ATOM     53  C   UNL A   1      39.827  28.859  28.403  1.00  0.00     0.029 A 
ATOM     54  C   UNL A   1      40.583  29.869  29.146  1.00  0.00     0.049 A 
ATOM     55  H   UNL A   1      42.645  30.167  29.104  1.00  0.00     0.167 HD
ATOM     56  C   UNL A   1      47.048  30.463  29.185  1.00  0.00     0.034 A 
ATOM     57  C   UNL A   1      40.063  30.794  29.980  1.00  0.00     0.034 A 
ATOM     58  C   UNL A   1      46.575  31.534  30.024  1.00  0.00     0.049 A 
ATOM     59  C   UNL A   1      41.000  31.735  30.709  1.00  0.00     0.074 A 
ATOM     60  C   UNL A   1      47.310  32.516  30.661  1.00  0.00     0.029 A 
ATOM     61  N   UNL A   1      45.244  31.752  30.357  1.00  0.00    -0.354 N 
ATOM     62  N   UNL A   1      42.311  31.804  30.652  1.00  0.00    -0.248 NA
ATOM     63  C   UNL A   1      40.390  32.719  31.616  1.00  0.00     0.031 C 
ATOM     64  C   UNL A   1      46.437  33.278  31.442  1.00  0.00     0.029 A 
ATOM     65  C   UNL A   1      45.143  32.833  31.217  1.00  0.00     0.049 A 
ATOM     66  H   UNL A   1      44.485  31.218  30.029  1.00  0.00     0.167 HD
ATOM     67  C   UNL A   1      42.674  32.868  31.478  1.00  0.00     0.074 A 
ATOM     68  C   UNL A   1      41.448  33.405  32.027  1.00  0.00     0.031 C 
ATOM     69  C   UNL A   1      43.908  33.363  31.747  1.00  0.00     0.034 A 
BRANCH  56  70
ATOM     70  C   UNL A   1      48.532  30.293  28.978  1.00  0.00     0.023 A 
ATOM     71  C   UNL A   1      49.205  30.900  27.905  1.00  0.00     0.031 A 
ATOM     72  C   UNL A   1      49.278  29.479  29.848  1.00  0.00     0.131 A 
ATOM     73  C   UNL A   1      50.563  30.625  27.686  1.00  0.00     0.055 A 
ATOM     74  C   UNL A   1      50.649  29.279  29.676  1.00  0.00     0.041 A 
ATOM     75  F   UNL A   1      48.683  28.848  30.874  1.00  0.00    -0.206 F 
ATOM     76  C   UNL A   1      51.297  29.841  28.580  1.00  0.00     0.022 A 
BRANCH  73  77
ATOM     77  S   UNL A   1      51.318  31.179  26.133  1.00  0.00     0.124 S 
ATOM     78  O   UNL A   1      50.527  32.369  25.828  1.00  0.00    -0.237 OA
ATOM     79  O   UNL A   1      52.703  31.414  26.522  1.00  0.00    -0.237 OA
ATOM     80  O   UNL A   1      51.106  30.051  25.228  1.00  0.00    -0.744 OA
ENDBRANCH  73  77
ENDBRANCH  56  70
BRANCH  57  81
ATOM     81  C   UNL A   1      38.592  30.854  30.228  1.00  0.00     0.023 A 
ATOM     82  C   UNL A   1      37.765  31.718  29.491  1.00  0.00     0.031 A 
ATOM     83  C   UNL A   1      37.998  30.092  31.251  1.00  0.00     0.131 A 
ATOM     84  C   UNL A   1      36.406  31.836  29.819  1.00  0.00     0.055 A 
ATOM     85  C   UNL A   1      36.632  30.168  31.533  1.00  0.00     0.041 A 
ATOM     86  F   UNL A   1      38.741  29.256  31.994  1.00  0.00    -0.206 F 
ATOM     87  C   UNL A   1      35.830  31.055  30.823  1.00  0.00     0.022 A 
BRANCH  84  88
ATOM     88  S   UNL A   1      35.416  33.103  28.978  1.00  0.00     0.124 S 
ATOM     89  O   UNL A   1      34.126  32.960  29.643  1.00  0.00    -0.237 OA
ATOM     90  O   UNL A   1      36.163  34.320  29.279  1.00  0.00    -0.237 OA
ATOM     91  O   UNL A   1      35.448  32.686  27.577  1.00  0.00    -0.744 OA
ENDBRANCH  84  88
ENDBRANCH  57  81
BRANCH  69  92
ATOM     92  C   UNL A   1      44.000  34.601  32.607  1.00  0.00     0.023 A 
ATOM     93  C   UNL A   1      43.940  35.897  32.068  1.00  0.00     0.031 A 
ATOM     94  C   UNL A   1      44.093  34.468  34.005  1.00  0.00     0.131 A 
ATOM     95  C   UNL A   1      43.999  37.010  32.922  1.00  0.00     0.055 A 
ATOM     96  C   UNL A   1      44.096  35.576  34.852  1.00  0.00     0.041 A 
ATOM     97  F   UNL A   1      44.154  33.253  34.572  1.00  0.00    -0.206 F 
ATOM     98  C   UNL A   1      44.055  36.857  34.311  1.00  0.00     0.022 A 
BRANCH  95  99
ATOM     99  S   UNL A   1      44.050  38.672  32.196  1.00  0.00     0.124 S 
ATOM    100  O   UNL A   1      43.754  38.398  30.793  1.00  0.00    -0.237 OA
ATOM    101  O   UNL A   1      43.012  39.374  32.942  1.00  0.00    -0.237 OA
ATOM    102  O   UNL A   1      45.415  39.122  32.463  1.00  0.00    -0.744 OA
ENDBRANCH  95  99
ENDBRANCH  69  92
ENDBRANCH  43  44
ENDBRANCH  36  38
ENDBRANCH  35  36
ENDBRANCH  34  35
ENDBRANCH  33  34
ENDBRANCH  32  33
ENDBRANCH  31  32
ENDBRANCH  30  31
ENDBRANCH  29  30
ENDBRANCH  28  29
ENDBRANCH   1  28
TORSDOF 29
ENDMDL
MODEL 2
REMARK VINA RESULT:      -8.1      2.478      7.804
REMARK SMILES [NH3+]CCOCC(=O)N1C[C@@H](C(=O)OCCOCCOCCOCCOC(=O)c2ccc(-c3c4nc(c(-c5cc(S(=O)(=O)[O-])ccc5F)c5ccc([nH]5)c(-c5cc(S(=O)(=O)[O-])ccc5F)c5nc(c(-c6cc(S(=O)(=O)[O-])ccc6F)c6ccc3[nH]6)C=C5)C=C4)cc2)Oc2ccccc21
REMARK SMILES IDX 17 1 16 2 15 3 14 4 13 5 11 6 12 7 10 8 8 9 9 10 97 11 92 12
REMARK SMILES IDX 96 13 91 14 93 15 95 16 94 17 6 18 7 19 5 20 4 21 3 22 2 23
REMARK SMILES IDX 1 24 18 28 19 29 20 30 21 31 22 32 23 33 24 34 25 35 26 36
REMARK SMILES IDX 27 37 28 38 29 39 90 40 30 41 89 42 31 43 32 44 33 45 83 46
REMARK SMILES IDX 34 47 88 48 82 49 84 50 35 51 87 52 81 53 80 54 36 56 68 57
REMARK SMILES IDX 48 58 67 59 49 60 52 61 66 62 85 63 50 64 51 65 65 67 86 68
REMARK SMILES IDX 53 69 37 70 38 71 46 72 39 73 45 74 47 75 44 76 40 77 41 78
REMARK SMILES IDX 42 79 43 80 69 81 70 82 78 83 71 84 77 85 79 86 76 87 72 88
REMARK SMILES IDX 73 89 74 90 75 91 54 92 55 93 63 94 56 95 62 96 64 97 61 98
REMARK SMILES IDX 57 99 58 100 59 101 60 102
REMARK H PARENT 1 25 1 26 1 27 84 55 52 66
REMARK Flexibility Score: inf
ROOT
ATOM      1  C   UNL A   1      39.122  23.281  26.747  1.00  0.00     0.188 C 
ENDROOT
BRANCH   1   2
ATOM      2  O   UNL A   1      37.845  23.844  26.508  1.00  0.00    -0.376 OA
BRANCH   2   3
ATOM      3  C   UNL A   1      37.185  23.770  25.247  1.00  0.00     0.202 C 
BRANCH   3   4
ATOM      4  C   UNL A   1      35.751  23.230  25.026  1.00  0.00     0.261 C 
BRANCH   4   5
ATOM      5  O   UNL A   1      34.943  23.015  26.188  1.00  0.00    -0.460 OA
BRANCH   5   6
ATOM      6  C   UNL A   1      33.879  23.837  26.307  1.00  0.00     0.349 C 
ATOM      7  O   UNL A   1      33.856  24.977  25.859  1.00  0.00    -0.248 OA
BRANCH   6   8
ATOM      8  C   UNL A   1      32.678  23.083  26.927  1.00  0.00     0.302 C 
ATOM      9  N   UNL A   1      31.897  22.468  24.715  1.00  0.00    -0.303 N 
ATOM     10  C   UNL A   1      32.247  21.932  26.030  1.00  0.00     0.183 C 
ATOM     11  C   UNL A   1      31.164  23.719  24.798  1.00  0.00     0.086 A 
ATOM     12  C   UNL A   1      30.974  24.335  26.064  1.00  0.00     0.144 A 
ATOM     13  C   UNL A   1      30.643  24.386  23.691  1.00  0.00     0.030 A 
ATOM     14  O   UNL A   1      31.549  23.880  27.226  1.00  0.00    -0.475 OA
ATOM     15  C   UNL A   1      30.251  25.515  26.227  1.00  0.00     0.049 A 
ATOM     16  C   UNL A   1      29.949  25.597  23.848  1.00  0.00     0.002 A 
ATOM     17  C   UNL A   1      29.742  26.154  25.110  1.00  0.00     0.004 A 
BRANCH   9  18
ATOM     18  C   UNL A   1      32.487  21.968  23.545  1.00  0.00     0.253 C 
ATOM     19  O   UNL A   1      32.361  20.808  23.142  1.00  0.00    -0.272 OA
BRANCH  18  20
ATOM     20  C   UNL A   1      33.463  22.908  22.760  1.00  0.00     0.260 C 
BRANCH  20  21
ATOM     21  O   UNL A   1      33.248  23.529  21.512  1.00  0.00    -0.366 OA
BRANCH  21  22
ATOM     22  C   UNL A   1      33.347  24.950  21.453  1.00  0.00     0.222 C 
BRANCH  22  23
ATOM     23  C   UNL A   1      32.177  25.686  20.786  1.00  0.00     0.287 C 
BRANCH  23  24
ATOM     24  N   UNL A   1      32.169  25.593  19.325  1.00  0.00    -0.356 N 
ATOM     25  H   UNL A   1      32.595  24.713  19.038  1.00  0.00     0.344 HD
ATOM     26  H   UNL A   1      32.699  26.371  18.933  1.00  0.00     0.344 HD
ATOM     27  H   UNL A   1      31.207  25.632  18.987  1.00  0.00     0.344 HD
ENDBRANCH  23  24
ENDBRANCH  22  23
ENDBRANCH  21  22
ENDBRANCH  20  21
ENDBRANCH  18  20
ENDBRANCH   9  18
ENDBRANCH   6   8
ENDBRANCH   5   6
ENDBRANCH   4   5
ENDBRANCH   3   4
ENDBRANCH   2   3
ENDBRANCH   1   2
BRANCH   1  28
ATOM     28  C   UNL A   1      39.325  21.868  26.174  1.00  0.00     0.188 C 
BRANCH  28  29
ATOM     29  O   UNL A   1      40.691  21.530  26.070  1.00  0.00    -0.377 OA
BRANCH  29  30
ATOM     30  C   UNL A   1      41.031  20.160  26.242  1.00  0.00     0.188 C 
BRANCH  30  31
ATOM     31  C   UNL A   1      42.459  19.653  25.924  1.00  0.00     0.188 C 
BRANCH  31  32
ATOM     32  O   UNL A   1      43.182  20.460  24.999  1.00  0.00    -0.376 OA
BRANCH  32  33
ATOM     33  C   UNL A   1      44.556  20.702  25.258  1.00  0.00     0.202 C 
BRANCH  33  34
ATOM     34  C   UNL A   1      44.872  21.967  26.068  1.00  0.00     0.261 C 
BRANCH  34  35
ATOM     35  O   UNL A   1      44.949  23.188  25.319  1.00  0.00    -0.460 OA
BRANCH  35  36
ATOM     36  C   UNL A   1      43.835  23.952  25.253  1.00  0.00     0.338 C 
ATOM     37  O   UNL A   1      42.713  23.583  24.954  1.00  0.00    -0.246 OA
BRANCH  36  38
ATOM     38  C   UNL A   1      44.174  25.279  25.810  1.00  0.00     0.060 A 
ATOM     39  C   UNL A   1      44.881  25.356  27.020  1.00  0.00     0.016 A 
ATOM     40  C   UNL A   1      43.836  26.439  25.112  1.00  0.00     0.016 A 
ATOM     41  C   UNL A   1      45.225  26.601  27.549  1.00  0.00     0.010 A 
ATOM     42  C   UNL A   1      44.154  27.683  25.659  1.00  0.00     0.010 A 
ATOM     43  C   UNL A   1      44.821  27.770  26.893  1.00  0.00    -0.014 A 
BRANCH  43  44
ATOM     44  C   UNL A   1      44.856  29.079  27.590  1.00  0.00     0.031 A 
ATOM     45  C   UNL A   1      43.617  29.500  28.330  1.00  0.00     0.074 A 
ATOM     46  C   UNL A   1      45.928  29.889  27.538  1.00  0.00     0.049 A 
ATOM     47  N   UNL A   1      43.312  30.654  28.859  1.00  0.00    -0.248 NA
ATOM     48  C   UNL A   1      42.571  28.472  28.473  1.00  0.00     0.031 C 
ATOM     49  C   UNL A   1      47.207  29.562  26.913  1.00  0.00     0.029 A 
ATOM     50  N   UNL A   1      46.096  31.170  28.004  1.00  0.00    -0.354 N 
ATOM     51  C   UNL A   1      42.034  30.499  29.384  1.00  0.00     0.074 A 
ATOM     52  C   UNL A   1      41.611  29.149  29.084  1.00  0.00     0.031 C 
ATOM     53  C   UNL A   1      48.023  30.627  27.012  1.00  0.00     0.029 A 
ATOM     54  C   UNL A   1      47.304  31.728  27.655  1.00  0.00     0.049 A 
ATOM     55  H   UNL A   1      45.417  31.644  28.536  1.00  0.00     0.167 HD
ATOM     56  C   UNL A   1      41.281  31.404  30.056  1.00  0.00     0.034 A 
ATOM     57  C   UNL A   1      47.754  32.993  27.798  1.00  0.00     0.034 A 
ATOM     58  C   UNL A   1      41.713  32.751  30.327  1.00  0.00     0.049 A 
ATOM     59  C   UNL A   1      46.855  34.024  28.447  1.00  0.00     0.074 A 
ATOM     60  C   UNL A   1      41.036  33.753  30.997  1.00  0.00     0.029 A 
ATOM     61  N   UNL A   1      42.928  33.291  29.925  1.00  0.00    -0.354 N 
ATOM     62  N   UNL A   1      45.640  33.876  28.927  1.00  0.00    -0.248 NA
ATOM     63  C   UNL A   1      47.382  35.391  28.572  1.00  0.00     0.031 C 
ATOM     64  C   UNL A   1      41.804  34.919  30.930  1.00  0.00     0.029 A 
ATOM     65  C   UNL A   1      43.004  34.620  30.304  1.00  0.00     0.049 A 
ATOM     66  H   UNL A   1      43.632  32.799  29.443  1.00  0.00     0.167 HD
ATOM     67  C   UNL A   1      45.282  35.118  29.451  1.00  0.00     0.074 A 
ATOM     68  C   UNL A   1      46.402  36.005  29.222  1.00  0.00     0.031 C 
ATOM     69  C   UNL A   1      44.136  35.488  30.077  1.00  0.00     0.034 A 
BRANCH  56  70
ATOM     70  C   UNL A   1      39.896  30.978  30.476  1.00  0.00     0.023 A 
ATOM     71  C   UNL A   1      38.773  31.205  29.663  1.00  0.00     0.031 A 
ATOM     72  C   UNL A   1      39.693  30.367  31.726  1.00  0.00     0.131 A 
ATOM     73  C   UNL A   1      37.491  30.894  30.140  1.00  0.00     0.055 A 
ATOM     74  C   UNL A   1      38.424  29.979  32.158  1.00  0.00     0.041 A 
ATOM     75  F   UNL A   1      40.725  30.151  32.558  1.00  0.00    -0.206 F 
ATOM     76  C   UNL A   1      37.311  30.257  31.370  1.00  0.00     0.022 A 
BRANCH  73  77
ATOM     77  S   UNL A   1      36.054  31.475  29.199  1.00  0.00     0.124 S 
ATOM     78  O   UNL A   1      35.160  31.916  30.268  1.00  0.00    -0.237 OA
ATOM     79  O   UNL A   1      36.625  32.528  28.368  1.00  0.00    -0.237 OA
ATOM     80  O   UNL A   1      35.610  30.283  28.480  1.00  0.00    -0.744 OA
ENDBRANCH  73  77
ENDBRANCH  56  70
BRANCH  57  81
ATOM     81  C   UNL A   1      49.094  33.387  27.272  1.00  0.00     0.023 A 
ATOM     82  C   UNL A   1      50.261  33.183  28.029  1.00  0.00     0.031 A 
ATOM     83  C   UNL A   1      49.225  34.033  26.029  1.00  0.00     0.131 A 
ATOM     84  C   UNL A   1      51.494  33.663  27.560  1.00  0.00     0.055 A 
ATOM     85  C   UNL A   1      50.463  34.454  25.539  1.00  0.00     0.041 A 
ATOM     86  F   UNL A   1      48.143  34.264  25.267  1.00  0.00    -0.206 F 
ATOM     87  C   UNL A   1      51.605  34.282  26.313  1.00  0.00     0.022 A 
BRANCH  84  88
ATOM     88  S   UNL A   1      52.939  33.557  28.651  1.00  0.00     0.124 S 
ATOM     89  O   UNL A   1      53.318  34.960  28.777  1.00  0.00    -0.237 OA
ATOM     90  O   UNL A   1      52.374  32.934  29.843  1.00  0.00    -0.237 OA
ATOM     91  O   UNL A   1      53.873  32.722  27.898  1.00  0.00    -0.744 OA
ENDBRANCH  84  88
ENDBRANCH  57  81
BRANCH  69  92
ATOM     92  C   UNL A   1      44.059  36.887  30.640  1.00  0.00     0.023 A 
ATOM     93  C   UNL A   1      43.652  37.987  29.867  1.00  0.00     0.031 A 
ATOM     94  C   UNL A   1      44.349  37.103  32.000  1.00  0.00     0.131 A 
ATOM     95  C   UNL A   1      43.571  39.259  30.455  1.00  0.00     0.055 A 
ATOM     96  C   UNL A   1      44.213  38.359  32.592  1.00  0.00     0.041 A 
ATOM     97  F   UNL A   1      44.743  36.087  32.784  1.00  0.00    -0.206 F 
ATOM     98  C   UNL A   1      43.828  39.447  31.817  1.00  0.00     0.022 A 
BRANCH  95  99
ATOM     99  S   UNL A   1      43.168  40.686  29.409  1.00  0.00     0.124 S 
ATOM    100  O   UNL A   1      43.956  40.413  28.210  1.00  0.00    -0.237 OA
ATOM    101  O   UNL A   1      41.722  40.570  29.261  1.00  0.00    -0.237 OA
ATOM    102  O   UNL A   1      43.619  41.830  30.199  1.00  0.00    -0.744 OA
ENDBRANCH  95  99
ENDBRANCH  69  92
ENDBRANCH  43  44
ENDBRANCH  36  38
ENDBRANCH  35  36
ENDBRANCH  34  35
ENDBRANCH  33  34
ENDBRANCH  32  33
ENDBRANCH  31  32
ENDBRANCH  30  31
ENDBRANCH  29  30
ENDBRANCH  28  29
ENDBRANCH   1  28
TORSDOF 29
ENDMDL
MODEL 3
REMARK VINA RESULT:      -8.0      6.929     10.223
REMARK SMILES [NH3+]CCOCC(=O)N1C[C@@H](C(=O)OCCOCCOCCOCCOC(=O)c2ccc(-c3c4nc(c(-c5cc(S(=O)(=O)[O-])ccc5F)c5ccc([nH]5)c(-c5cc(S(=O)(=O)[O-])ccc5F)c5nc(c(-c6cc(S(=O)(=O)[O-])ccc6F)c6ccc3[nH]6)C=C5)C=C4)cc2)Oc2ccccc21
REMARK SMILES IDX 17 1 16 2 15 3 14 4 13 5 11 6 12 7 10 8 8 9 9 10 97 11 92 12
REMARK SMILES IDX 96 13 91 14 93 15 95 16 94 17 6 18 7 19 5 20 4 21 3 22 2 23
REMARK SMILES IDX 1 24 18 28 19 29 20 30 21 31 22 32 23 33 24 34 25 35 26 36
REMARK SMILES IDX 27 37 28 38 29 39 90 40 30 41 89 42 31 43 32 44 33 45 83 46
REMARK SMILES IDX 34 47 88 48 82 49 84 50 35 51 87 52 81 53 80 54 36 56 68 57
REMARK SMILES IDX 48 58 67 59 49 60 52 61 66 62 85 63 50 64 51 65 65 67 86 68
REMARK SMILES IDX 53 69 37 70 38 71 46 72 39 73 45 74 47 75 44 76 40 77 41 78
REMARK SMILES IDX 42 79 43 80 69 81 70 82 78 83 71 84 77 85 79 86 76 87 72 88
REMARK SMILES IDX 73 89 74 90 75 91 54 92 55 93 63 94 56 95 62 96 64 97 61 98
REMARK SMILES IDX 57 99 58 100 59 101 60 102
REMARK H PARENT 1 25 1 26 1 27 84 55 52 66
REMARK Flexibility Score: inf
ROOT
ATOM      1  C   UNL A   1      39.153  23.863  26.915  1.00  0.00     0.188 C 
ENDROOT
BRANCH   1   2
ATOM      2  O   UNL A   1      38.036  23.582  26.090  1.00  0.00    -0.376 OA
BRANCH   2   3
ATOM      3  C   UNL A   1      37.666  22.261  25.707  1.00  0.00     0.202 C 
BRANCH   3   4
ATOM      4  C   UNL A   1      36.349  21.881  24.988  1.00  0.00     0.261 C 
BRANCH   4   5
ATOM      5  O   UNL A   1      35.203  22.702  25.238  1.00  0.00    -0.460 OA
BRANCH   5   6
ATOM      6  C   UNL A   1      34.784  23.439  24.188  1.00  0.00     0.349 C 
ATOM      7  O   UNL A   1      35.254  24.533  23.904  1.00  0.00    -0.248 OA
BRANCH   6   8
ATOM      8  C   UNL A   1      33.775  22.637  23.332  1.00  0.00     0.302 C 
ATOM      9  N   UNL A   1      32.376  24.604  23.099  1.00  0.00    -0.303 N 
ATOM     10  C   UNL A   1      33.059  23.550  22.349  1.00  0.00     0.183 C 
ATOM     11  C   UNL A   1      31.751  24.110  24.315  1.00  0.00     0.086 A 
ATOM     12  C   UNL A   1      31.953  22.759  24.704  1.00  0.00     0.144 A 
ATOM     13  C   UNL A   1      30.970  24.896  25.157  1.00  0.00     0.030 A 
ATOM     14  O   UNL A   1      32.812  21.900  24.060  1.00  0.00    -0.475 OA
ATOM     15  C   UNL A   1      31.357  22.203  25.835  1.00  0.00     0.049 A 
ATOM     16  C   UNL A   1      30.401  24.350  26.320  1.00  0.00     0.002 A 
ATOM     17  C   UNL A   1      30.582  23.008  26.652  1.00  0.00     0.004 A 
BRANCH   9  18
ATOM     18  C   UNL A   1      32.590  25.959  22.810  1.00  0.00     0.253 C 
ATOM     19  O   UNL A   1      33.423  26.670  23.380  1.00  0.00    -0.272 OA
BRANCH  18  20
ATOM     20  C   UNL A   1      31.630  26.647  21.782  1.00  0.00     0.260 C 
BRANCH  20  21
ATOM     21  O   UNL A   1      30.513  27.464  22.057  1.00  0.00    -0.366 OA
BRANCH  21  22
ATOM     22  C   UNL A   1      30.757  28.817  22.433  1.00  0.00     0.222 C 
BRANCH  22  23
ATOM     23  C   UNL A   1      30.368  29.205  23.866  1.00  0.00     0.287 C 
BRANCH  23  24
ATOM     24  N   UNL A   1      31.381  29.995  24.567  1.00  0.00    -0.356 N 
ATOM     25  H   UNL A   1      32.160  30.183  23.938  1.00  0.00     0.344 HD
ATOM     26  H   UNL A   1      31.715  29.476  25.378  1.00  0.00     0.344 HD
ATOM     27  H   UNL A   1      30.971  30.878  24.873  1.00  0.00     0.344 HD
ENDBRANCH  23  24
ENDBRANCH  22  23
ENDBRANCH  21  22
ENDBRANCH  20  21
ENDBRANCH  18  20
ENDBRANCH   9  18
ENDBRANCH   6   8
ENDBRANCH   5   6
ENDBRANCH   4   5
ENDBRANCH   3   4
ENDBRANCH   2   3
ENDBRANCH   1   2
BRANCH   1  28
ATOM     28  C   UNL A   1      39.880  22.626  27.466  1.00  0.00     0.188 C 
BRANCH  28  29
ATOM     29  O   UNL A   1      41.241  22.887  27.735  1.00  0.00    -0.377 OA
BRANCH  29  30
ATOM     30  C   UNL A   1      42.096  21.761  27.884  1.00  0.00     0.188 C 
BRANCH  30  31
ATOM     31  C   UNL A   1      41.621  20.347  27.470  1.00  0.00     0.188 C 
BRANCH  31  32
ATOM     32  O   UNL A   1      41.672  20.090  26.069  1.00  0.00    -0.376 OA
BRANCH  32  33
ATOM     33  C   UNL A   1      42.831  19.459  25.549  1.00  0.00     0.202 C 
BRANCH  33  34
ATOM     34  C   UNL A   1      44.064  20.358  25.381  1.00  0.00     0.261 C 
BRANCH  34  35
ATOM     35  O   UNL A   1      44.007  21.304  24.304  1.00  0.00    -0.460 OA
BRANCH  35  36
ATOM     36  C   UNL A   1      43.585  22.556  24.593  1.00  0.00     0.338 C 
ATOM     37  O   UNL A   1      42.443  22.903  24.837  1.00  0.00    -0.246 OA
BRANCH  36  38
ATOM     38  C   UNL A   1      44.788  23.399  24.768  1.00  0.00     0.060 A 
ATOM     39  C   UNL A   1      46.037  22.907  24.363  1.00  0.00     0.016 A 
ATOM     40  C   UNL A   1      44.668  24.689  25.288  1.00  0.00     0.016 A 
ATOM     41  C   UNL A   1      47.179  23.699  24.504  1.00  0.00     0.010 A 
ATOM     42  C   UNL A   1      45.815  25.466  25.457  1.00  0.00     0.010 A 
ATOM     43  C   UNL A   1      47.077  24.963  25.095  1.00  0.00    -0.014 A 
BRANCH  43  44
ATOM     44  C   UNL A   1      48.287  25.673  25.578  1.00  0.00     0.031 A 
ATOM     45  C   UNL A   1      49.165  26.322  24.543  1.00  0.00     0.074 A 
ATOM     46  C   UNL A   1      48.625  25.709  26.878  1.00  0.00     0.049 A 
ATOM     47  N   UNL A   1      50.358  26.837  24.665  1.00  0.00    -0.248 NA
ATOM     48  C   UNL A   1      48.618  26.376  23.177  1.00  0.00     0.031 C 
ATOM     49  C   UNL A   1      47.822  25.179  27.977  1.00  0.00     0.029 A 
ATOM     50  N   UNL A   1      49.754  26.198  27.489  1.00  0.00    -0.354 N 
ATOM     51  C   UNL A   1      50.714  27.264  23.390  1.00  0.00     0.074 A 
ATOM     52  C   UNL A   1      49.621  26.919  22.506  1.00  0.00     0.031 C 
ATOM     53  C   UNL A   1      48.496  25.349  29.129  1.00  0.00     0.029 A 
ATOM     54  C   UNL A   1      49.801  25.946  28.841  1.00  0.00     0.049 A 
ATOM     55  H   UNL A   1      50.462  26.682  27.006  1.00  0.00     0.167 HD
ATOM     56  C   UNL A   1      51.851  27.885  22.994  1.00  0.00     0.034 A 
ATOM     57  C   UNL A   1      50.801  26.135  29.729  1.00  0.00     0.034 A 
ATOM     58  C   UNL A   1      52.936  28.200  23.887  1.00  0.00     0.049 A 
ATOM     59  C   UNL A   1      52.110  26.724  29.247  1.00  0.00     0.074 A 
ATOM     60  C   UNL A   1      54.134  28.827  23.597  1.00  0.00     0.029 A 
ATOM     61  N   UNL A   1      52.962  27.896  25.242  1.00  0.00    -0.354 N 
ATOM     62  N   UNL A   1      52.447  27.110  28.037  1.00  0.00    -0.248 NA
ATOM     63  C   UNL A   1      53.174  26.901  30.246  1.00  0.00     0.031 C 
ATOM     64  C   UNL A   1      54.916  28.829  24.755  1.00  0.00     0.029 A 
ATOM     65  C   UNL A   1      54.169  28.292  25.793  1.00  0.00     0.049 A 
ATOM     66  H   UNL A   1      52.229  27.463  25.738  1.00  0.00     0.167 HD
ATOM     67  C   UNL A   1      53.742  27.617  28.144  1.00  0.00     0.074 A 
ATOM     68  C   UNL A   1      54.128  27.482  29.531  1.00  0.00     0.031 C 
ATOM     69  C   UNL A   1      54.534  28.159  27.184  1.00  0.00     0.034 A 
BRANCH  56  70
ATOM     70  C   UNL A   1      51.995  28.196  21.525  1.00  0.00     0.023 A 
ATOM     71  C   UNL A   1      52.416  27.226  20.600  1.00  0.00     0.031 A 
ATOM     72  C   UNL A   1      51.740  29.494  21.048  1.00  0.00     0.131 A 
ATOM     73  C   UNL A   1      52.643  27.586  19.264  1.00  0.00     0.055 A 
ATOM     74  C   UNL A   1      51.884  29.824  19.700  1.00  0.00     0.041 A 
ATOM     75  F   UNL A   1      51.364  30.470  21.890  1.00  0.00    -0.206 F 
ATOM     76  C   UNL A   1      52.354  28.871  18.801  1.00  0.00     0.022 A 
BRANCH  73  77
ATOM     77  S   UNL A   1      53.470  26.394  18.175  1.00  0.00     0.124 S 
ATOM     78  O   UNL A   1      52.491  25.310  18.126  1.00  0.00    -0.237 OA
ATOM     79  O   UNL A   1      53.641  27.156  16.945  1.00  0.00    -0.237 OA
ATOM     80  O   UNL A   1      54.704  26.075  18.890  1.00  0.00    -0.744 OA
ENDBRANCH  73  77
ENDBRANCH  56  70
BRANCH  57  81
ATOM     81  C   UNL A   1      50.642  25.715  31.152  1.00  0.00     0.023 A 
ATOM     82  C   UNL A   1      51.035  24.436  31.581  1.00  0.00     0.031 A 
ATOM     83  C   UNL A   1      50.036  26.565  32.096  1.00  0.00     0.131 A 
ATOM     84  C   UNL A   1      50.774  24.027  32.898  1.00  0.00     0.055 A 
ATOM     85  C   UNL A   1      49.832  26.175  33.421  1.00  0.00     0.041 A 
ATOM     86  F   UNL A   1      49.630  27.795  31.741  1.00  0.00    -0.206 F 
ATOM     87  C   UNL A   1      50.191  24.892  33.825  1.00  0.00     0.022 A 
BRANCH  84  88
ATOM     88  S   UNL A   1      51.116  22.305  33.357  1.00  0.00     0.124 S 
ATOM     89  O   UNL A   1      49.789  21.707  33.268  1.00  0.00    -0.237 OA
ATOM     90  O   UNL A   1      52.072  21.902  32.330  1.00  0.00    -0.237 OA
ATOM     91  O   UNL A   1      51.664  22.416  34.707  1.00  0.00    -0.744 OA
ENDBRANCH  84  88
ENDBRANCH  57  81
BRANCH  69  92
ATOM     92  C   UNL A   1      55.867  28.728  27.607  1.00  0.00     0.023 A 
ATOM     93  C   UNL A   1      56.018  30.060  28.024  1.00  0.00     0.031 A 
ATOM     94  C   UNL A   1      56.998  27.890  27.643  1.00  0.00     0.131 A 
ATOM     95  C   UNL A   1      57.278  30.523  28.435  1.00  0.00     0.055 A 
ATOM     96  C   UNL A   1      58.234  28.340  28.105  1.00  0.00     0.041 A 
ATOM     97  F   UNL A   1      56.909  26.607  27.254  1.00  0.00    -0.206 F 
ATOM     98  C   UNL A   1      58.381  29.666  28.499  1.00  0.00     0.022 A 
BRANCH  95  99
ATOM     99  S   UNL A   1      57.477  32.279  28.846  1.00  0.00     0.124 S 
ATOM    100  O   UNL A   1      56.613  32.920  27.860  1.00  0.00    -0.237 OA
ATOM    101  O   UNL A   1      57.016  32.333  30.229  1.00  0.00    -0.237 OA
ATOM    102  O   UNL A   1      58.907  32.515  28.663  1.00  0.00    -0.744 OA
ENDBRANCH  95  99
ENDBRANCH  69  92
ENDBRANCH  43  44
ENDBRANCH  36  38
ENDBRANCH  35  36
ENDBRANCH  34  35
ENDBRANCH  33  34
ENDBRANCH  32  33
ENDBRANCH  31  32
ENDBRANCH  30  31
ENDBRANCH  29  30
ENDBRANCH  28  29
ENDBRANCH   1  28
TORSDOF 29
ENDMDL
