MODEL 1
REMARK VINA RESULT:      -9.9      0.000      0.000
REMARK SMILES Cc1nc2scc(C)n2c1CNc1ccc(C(=O)OCCOCCOCCOCCOC(=O)c2ccc(-c3c4nc(c(-c5cc(S(=O)(=O)[O-])ccc5F)c5ccc([nH]5)c(-c5cc(S(=O)(=O)[O-])ccc5F)c5nc(c(-c6cc(S(=O)(=O)[O-])ccc6F)c6ccc3[nH]6)C=C5)C=C4)cc2)cc1
REMARK SMILES IDX 25 1 24 2 23 3 22 4 21 5 20 6 19 7 17 8 18 9 16 10 13 11
REMARK SMILES IDX 14 12 98 13 15 14 97 15 12 16 11 18 10 19 1 20 2 21 3 22
REMARK SMILES IDX 4 23 9 24 5 25 7 26 6 27 8 28 26 29 27 30 28 31 29 32 30 33
REMARK SMILES IDX 31 34 32 35 33 36 34 37 35 38 96 39 36 40 95 41 37 42 38 43
REMARK SMILES IDX 39 44 89 45 40 46 94 47 88 48 90 49 41 50 93 51 87 52 86 53
REMARK SMILES IDX 42 55 74 56 54 57 73 58 55 59 58 60 72 61 91 62 56 63 57 64
REMARK SMILES IDX 71 66 92 67 59 68 43 69 44 70 52 71 45 72 51 73 53 74 50 75
REMARK SMILES IDX 46 76 47 77 48 78 49 79 75 80 76 81 84 82 77 83 83 84 85 85
REMARK SMILES IDX 82 86 78 87 79 88 80 89 81 90 60 91 61 92 69 93 62 94 68 95
REMARK SMILES IDX 70 96 67 97 63 98 64 99 65 100 66 101
REMARK H PARENT 12 17 90 54 58 65
REMARK Flexibility Score: inf
ROOT
ATOM      1  O   UNL A   1      41.558  21.971  27.589  1.00  0.00    -0.377 OA
ENDROOT
BRANCH   1   2
ATOM      2  C   UNL A   1      41.882  20.640  27.234  1.00  0.00     0.188 C 
BRANCH   2   3
ATOM      3  C   UNL A   1      40.850  19.971  26.298  1.00  0.00     0.188 C 
BRANCH   3   4
ATOM      4  O   UNL A   1      39.566  20.532  26.080  1.00  0.00    -0.376 OA
BRANCH   4   5
ATOM      5  C   UNL A   1      38.598  19.957  25.222  1.00  0.00     0.202 C 
BRANCH   5   6
ATOM      6  C   UNL A   1      37.467  20.727  24.517  1.00  0.00     0.261 C 
BRANCH   6   7
ATOM      7  O   UNL A   1      36.364  21.141  25.314  1.00  0.00    -0.460 OA
BRANCH   7   8
ATOM      8  C   UNL A   1      35.150  20.782  24.857  1.00  0.00     0.338 C 
ATOM      9  O   UNL A   1      34.671  19.659  24.819  1.00  0.00    -0.246 OA
BRANCH   8  10
ATOM     10  C   UNL A   1      34.385  22.009  24.566  1.00  0.00     0.060 A 
ATOM     11  C   UNL A   1      33.011  24.295  23.752  1.00  0.00     0.034 A 
ATOM     12  C   UNL A   1      32.522  23.031  23.415  1.00  0.00     0.026 A 
ATOM     13  C   UNL A   1      34.088  24.389  24.648  1.00  0.00     0.026 A 
ATOM     14  C   UNL A   1      33.231  21.891  23.782  1.00  0.00     0.018 A 
ATOM     15  C   UNL A   1      34.772  23.250  25.067  1.00  0.00     0.018 A 
BRANCH  11  16
ATOM     16  N   UNL A   1      32.588  25.391  23.011  1.00  0.00    -0.379 N 
ATOM     17  H   UNL A   1      33.122  25.737  22.260  1.00  0.00     0.160 HD
BRANCH  16  18
ATOM     18  C   UNL A   1      31.326  26.006  23.386  1.00  0.00     0.169 C 
BRANCH  18  19
ATOM     19  C   UNL A   1      31.315  26.644  24.727  1.00  0.00     0.066 A 
ATOM     20  C   UNL A   1      30.027  24.896  26.143  1.00  0.00     0.069 C 
ATOM     21  C   UNL A   1      30.769  26.160  25.917  1.00  0.00     0.062 A 
ATOM     22  N   UNL A   1      31.024  27.004  26.974  1.00  0.00    -0.224 NA
ATOM     23  C   UNL A   1      31.711  27.965  26.432  1.00  0.00     0.194 A 
ATOM     24  N   UNL A   1      31.939  27.822  25.087  1.00  0.00    -0.290 N 
ATOM     25  S   UNL A   1      32.448  29.396  27.077  1.00  0.00    -0.105 S 
ATOM     26  C   UNL A   1      32.709  28.846  24.536  1.00  0.00     0.032 A 
ATOM     27  C   UNL A   1      33.058  29.757  25.469  1.00  0.00     0.090 A 
ATOM     28  C   UNL A   1      33.133  28.953  23.121  1.00  0.00     0.066 C 
ENDBRANCH  18  19
ENDBRANCH  16  18
ENDBRANCH  11  16
ENDBRANCH   8  10
ENDBRANCH   7   8
ENDBRANCH   6   7
ENDBRANCH   5   6
ENDBRANCH   4   5
ENDBRANCH   3   4
ENDBRANCH   2   3
ENDBRANCH   1   2
BRANCH   1  29
ATOM     29  C   UNL A   1      42.399  22.605  28.552  1.00  0.00     0.188 C 
BRANCH  29  30
ATOM     30  C   UNL A   1      42.892  24.058  28.320  1.00  0.00     0.188 C 
BRANCH  30  31
ATOM     31  O   UNL A   1      44.046  24.178  27.503  1.00  0.00    -0.376 OA
BRANCH  31  32
ATOM     32  C   UNL A   1      44.134  25.077  26.416  1.00  0.00     0.202 C 
BRANCH  32  33
ATOM     33  C   UNL A   1      43.539  26.472  26.558  1.00  0.00     0.261 C 
BRANCH  33  34
ATOM     34  O   UNL A   1      42.617  26.816  25.545  1.00  0.00    -0.460 OA
BRANCH  34  35
ATOM     35  C   UNL A   1      41.393  26.295  25.707  1.00  0.00     0.338 C 
ATOM     36  O   UNL A   1      40.922  25.323  25.114  1.00  0.00    -0.246 OA
BRANCH  35  37
ATOM     37  C   UNL A   1      40.645  27.170  26.601  1.00  0.00     0.060 A 
ATOM     38  C   UNL A   1      40.821  28.539  26.427  1.00  0.00     0.016 A 
ATOM     39  C   UNL A   1      40.096  26.623  27.775  1.00  0.00     0.016 A 
ATOM     40  C   UNL A   1      40.695  29.340  27.536  1.00  0.00     0.010 A 
ATOM     41  C   UNL A   1      39.988  27.421  28.883  1.00  0.00     0.010 A 
ATOM     42  C   UNL A   1      40.387  28.746  28.769  1.00  0.00    -0.014 A 
BRANCH  42  43
ATOM     43  C   UNL A   1      40.365  29.590  29.939  1.00  0.00     0.031 A 
ATOM     44  C   UNL A   1      39.063  30.263  30.085  1.00  0.00     0.074 A 
ATOM     45  C   UNL A   1      41.391  29.709  30.800  1.00  0.00     0.049 A 
ATOM     46  N   UNL A   1      38.803  31.487  29.774  1.00  0.00    -0.248 NA
ATOM     47  C   UNL A   1      37.874  29.442  30.353  1.00  0.00     0.031 C 
ATOM     48  C   UNL A   1      42.635  28.942  30.866  1.00  0.00     0.029 A 
ATOM     49  N   UNL A   1      41.492  30.539  31.872  1.00  0.00    -0.354 N 
ATOM     50  C   UNL A   1      37.462  31.661  30.068  1.00  0.00     0.074 A 
ATOM     51  C   UNL A   1      36.903  30.341  30.181  1.00  0.00     0.031 C 
ATOM     52  C   UNL A   1      43.255  29.195  32.046  1.00  0.00     0.029 A 
ATOM     53  C   UNL A   1      42.525  30.237  32.753  1.00  0.00     0.049 A 
ATOM     54  H   UNL A   1      40.879  31.297  32.013  1.00  0.00     0.167 HD
ATOM     55  C   UNL A   1      37.003  32.876  30.467  1.00  0.00     0.034 A 
ATOM     56  C   UNL A   1      42.725  30.783  33.986  1.00  0.00     0.034 A 
ATOM     57  C   UNL A   1      37.954  33.919  30.150  1.00  0.00     0.049 A 
ATOM     58  C   UNL A   1      42.039  32.103  33.979  1.00  0.00     0.074 A 
ATOM     59  C   UNL A   1      38.520  34.381  28.976  1.00  0.00     0.029 A 
ATOM     60  N   UNL A   1      38.775  34.372  31.161  1.00  0.00    -0.354 N 
ATOM     61  N   UNL A   1      42.430  33.097  33.228  1.00  0.00    -0.248 NA
ATOM     62  C   UNL A   1      40.640  32.153  34.385  1.00  0.00     0.031 C 
ATOM     63  C   UNL A   1      39.881  34.653  29.303  1.00  0.00     0.029 A 
ATOM     64  C   UNL A   1      40.059  34.431  30.670  1.00  0.00     0.049 A 
ATOM     65  H   UNL A   1      38.492  34.609  32.073  1.00  0.00     0.167 HD
ATOM     66  C   UNL A   1      41.262  33.631  32.702  1.00  0.00     0.074 A 
ATOM     67  C   UNL A   1      40.189  33.070  33.522  1.00  0.00     0.031 C 
ATOM     68  C   UNL A   1      41.252  34.241  31.478  1.00  0.00     0.034 A 
BRANCH  55  69
ATOM     69  C   UNL A   1      35.905  33.063  31.481  1.00  0.00     0.023 A 
ATOM     70  C   UNL A   1      34.823  33.876  31.105  1.00  0.00     0.031 A 
ATOM     71  C   UNL A   1      35.993  32.745  32.857  1.00  0.00     0.131 A 
ATOM     72  C   UNL A   1      33.956  34.408  32.073  1.00  0.00     0.055 A 
ATOM     73  C   UNL A   1      35.086  33.218  33.806  1.00  0.00     0.041 A 
ATOM     74  F   UNL A   1      37.008  32.048  33.382  1.00  0.00    -0.206 F 
ATOM     75  C   UNL A   1      34.078  34.082  33.421  1.00  0.00     0.022 A 
BRANCH  72  76
ATOM     76  S   UNL A   1      32.775  35.676  31.555  1.00  0.00     0.124 S 
ATOM     77  O   UNL A   1      32.568  35.328  30.153  1.00  0.00    -0.237 OA
ATOM     78  O   UNL A   1      31.653  35.425  32.454  1.00  0.00    -0.237 OA
ATOM     79  O   UNL A   1      33.495  36.924  31.790  1.00  0.00    -0.744 OA
ENDBRANCH  72  76
ENDBRANCH  55  69
BRANCH  56  80
ATOM     80  C   UNL A   1      43.132  30.075  35.238  1.00  0.00     0.023 A 
ATOM     81  C   UNL A   1      42.569  28.844  35.654  1.00  0.00     0.031 A 
ATOM     82  C   UNL A   1      44.293  30.496  35.923  1.00  0.00     0.131 A 
ATOM     83  C   UNL A   1      43.170  28.099  36.702  1.00  0.00     0.055 A 
ATOM     84  C   UNL A   1      44.883  29.755  36.952  1.00  0.00     0.041 A 
ATOM     85  F   UNL A   1      44.954  31.605  35.557  1.00  0.00    -0.206 F 
ATOM     86  C   UNL A   1      44.328  28.547  37.339  1.00  0.00     0.022 A 
BRANCH  83  87
ATOM     87  S   UNL A   1      42.499  26.476  37.206  1.00  0.00     0.124 S 
ATOM     88  O   UNL A   1      42.794  25.642  36.047  1.00  0.00    -0.237 OA
ATOM     89  O   UNL A   1      43.250  26.189  38.422  1.00  0.00    -0.237 OA
ATOM     90  O   UNL A   1      41.075  26.746  37.420  1.00  0.00    -0.744 OA
ENDBRANCH  83  87
ENDBRANCH  56  80
BRANCH  68  91
ATOM     91  C   UNL A   1      42.585  34.580  30.832  1.00  0.00     0.023 A 
ATOM     92  C   UNL A   1      43.367  35.725  31.118  1.00  0.00     0.031 A 
ATOM     93  C   UNL A   1      43.132  33.625  29.956  1.00  0.00     0.131 A 
ATOM     94  C   UNL A   1      44.636  35.881  30.520  1.00  0.00     0.055 A 
ATOM     95  C   UNL A   1      44.396  33.770  29.389  1.00  0.00     0.041 A 
ATOM     96  F   UNL A   1      42.450  32.505  29.660  1.00  0.00    -0.206 F 
ATOM     97  C   UNL A   1      45.151  34.904  29.663  1.00  0.00     0.022 A 
BRANCH  94  98
ATOM     98  S   UNL A   1      45.636  37.376  30.824  1.00  0.00     0.124 S 
ATOM     99  O   UNL A   1      45.626  38.062  29.536  1.00  0.00    -0.237 OA
ATOM    100  O   UNL A   1      44.904  38.032  31.903  1.00  0.00    -0.237 OA
ATOM    101  O   UNL A   1      46.941  36.838  31.215  1.00  0.00    -0.744 OA
ENDBRANCH  94  98
ENDBRANCH  68  91
ENDBRANCH  42  43
ENDBRANCH  35  37
ENDBRANCH  34  35
ENDBRANCH  33  34
ENDBRANCH  32  33
ENDBRANCH  31  32
ENDBRANCH  30  31
ENDBRANCH  29  30
ENDBRANCH   1  29
TORSDOF 26
ENDMDL
MODEL 2
REMARK VINA RESULT:      -9.6      2.517      7.276
REMARK SMILES Cc1nc2scc(C)n2c1CNc1ccc(C(=O)OCCOCCOCCOCCOC(=O)c2ccc(-c3c4nc(c(-c5cc(S(=O)(=O)[O-])ccc5F)c5ccc([nH]5)c(-c5cc(S(=O)(=O)[O-])ccc5F)c5nc(c(-c6cc(S(=O)(=O)[O-])ccc6F)c6ccc3[nH]6)C=C5)C=C4)cc2)cc1
REMARK SMILES IDX 25 1 24 2 23 3 22 4 21 5 20 6 19 7 17 8 18 9 16 10 13 11
REMARK SMILES IDX 14 12 98 13 15 14 97 15 12 16 11 18 10 19 1 20 2 21 3 22
REMARK SMILES IDX 4 23 9 24 5 25 7 26 6 27 8 28 26 29 27 30 28 31 29 32 30 33
REMARK SMILES IDX 31 34 32 35 33 36 34 37 35 38 96 39 36 40 95 41 37 42 38 43
REMARK SMILES IDX 39 44 89 45 40 46 94 47 88 48 90 49 41 50 93 51 87 52 86 53
REMARK SMILES IDX 42 55 74 56 54 57 73 58 55 59 58 60 72 61 91 62 56 63 57 64
REMARK SMILES IDX 71 66 92 67 59 68 43 69 44 70 52 71 45 72 51 73 53 74 50 75
REMARK SMILES IDX 46 76 47 77 48 78 49 79 75 80 76 81 84 82 77 83 83 84 85 85
REMARK SMILES IDX 82 86 78 87 79 88 80 89 81 90 60 91 61 92 69 93 62 94 68 95
REMARK SMILES IDX 70 96 67 97 63 98 64 99 65 100 66 101
REMARK H PARENT 12 17 90 54 58 65
REMARK Flexibility Score: inf
ROOT
ATOM      1  O   UNL A   1      37.616  22.555  25.425  1.00  0.00    -0.377 OA
ENDROOT
BRANCH   1   2
ATOM      2  C   UNL A   1      36.924  23.040  24.290  1.00  0.00     0.188 C 
BRANCH   2   3
ATOM      3  C   UNL A   1      35.390  22.877  24.372  1.00  0.00     0.188 C 
BRANCH   3   4
ATOM      4  O   UNL A   1      34.560  23.047  23.233  1.00  0.00    -0.376 OA
BRANCH   4   5
ATOM      5  C   UNL A   1      33.274  22.468  23.112  1.00  0.00     0.202 C 
BRANCH   5   6
ATOM      6  C   UNL A   1      31.942  23.225  23.260  1.00  0.00     0.261 C 
BRANCH   6   7
ATOM      7  O   UNL A   1      31.141  22.923  24.396  1.00  0.00    -0.460 OA
BRANCH   7   8
ATOM      8  C   UNL A   1      31.744  23.079  25.589  1.00  0.00     0.338 C 
ATOM      9  O   UNL A   1      32.262  22.215  26.281  1.00  0.00    -0.246 OA
BRANCH   8  10
ATOM     10  C   UNL A   1      31.854  24.523  25.865  1.00  0.00     0.060 A 
ATOM     11  C   UNL A   1      31.992  27.297  26.123  1.00  0.00     0.034 A 
ATOM     12  C   UNL A   1      30.751  26.670  25.995  1.00  0.00     0.026 A 
ATOM     13  C   UNL A   1      33.138  26.505  26.301  1.00  0.00     0.026 A 
ATOM     14  C   UNL A   1      30.684  25.291  25.821  1.00  0.00     0.018 A 
ATOM     15  C   UNL A   1      33.074  25.118  26.183  1.00  0.00     0.018 A 
BRANCH  11  16
ATOM     16  N   UNL A   1      32.087  28.651  25.826  1.00  0.00    -0.379 N 
ATOM     17  H   UNL A   1      31.971  29.336  26.524  1.00  0.00     0.160 HD
BRANCH  16  18
ATOM     18  C   UNL A   1      32.364  29.017  24.448  1.00  0.00     0.169 C 
BRANCH  18  19
ATOM     19  C   UNL A   1      31.181  29.020  23.551  1.00  0.00     0.066 A 
ATOM     20  C   UNL A   1      31.520  26.832  22.205  1.00  0.00     0.069 C 
ATOM     21  C   UNL A   1      30.808  28.072  22.596  1.00  0.00     0.062 A 
ATOM     22  N   UNL A   1      29.601  28.385  22.012  1.00  0.00    -0.224 NA
ATOM     23  C   UNL A   1      29.256  29.487  22.609  1.00  0.00     0.194 A 
ATOM     24  N   UNL A   1      30.144  29.933  23.554  1.00  0.00    -0.290 N 
ATOM     25  S   UNL A   1      27.859  30.507  22.483  1.00  0.00    -0.105 S 
ATOM     26  C   UNL A   1      29.733  31.096  24.205  1.00  0.00     0.032 A 
ATOM     27  C   UNL A   1      28.538  31.522  23.747  1.00  0.00     0.090 A 
ATOM     28  C   UNL A   1      30.470  31.799  25.281  1.00  0.00     0.066 C 
ENDBRANCH  18  19
ENDBRANCH  16  18
ENDBRANCH  11  16
ENDBRANCH   8  10
ENDBRANCH   7   8
ENDBRANCH   6   7
ENDBRANCH   5   6
ENDBRANCH   4   5
ENDBRANCH   3   4
ENDBRANCH   2   3
ENDBRANCH   1   2
BRANCH   1  29
ATOM     29  C   UNL A   1      38.105  21.216  25.359  1.00  0.00     0.188 C 
BRANCH  29  30
ATOM     30  C   UNL A   1      39.561  20.895  25.791  1.00  0.00     0.188 C 
BRANCH  30  31
ATOM     31  O   UNL A   1      39.890  21.274  27.118  1.00  0.00    -0.376 OA
BRANCH  31  32
ATOM     32  C   UNL A   1      41.191  21.663  27.510  1.00  0.00     0.202 C 
BRANCH  32  33
ATOM     33  C   UNL A   1      42.304  21.685  26.471  1.00  0.00     0.261 C 
BRANCH  33  34
ATOM     34  O   UNL A   1      42.376  22.880  25.721  1.00  0.00    -0.460 OA
BRANCH  34  35
ATOM     35  C   UNL A   1      43.230  23.791  26.208  1.00  0.00     0.338 C 
ATOM     36  O   UNL A   1      44.446  23.839  26.014  1.00  0.00    -0.246 OA
BRANCH  35  37
ATOM     37  C   UNL A   1      42.500  24.639  27.142  1.00  0.00     0.060 A 
ATOM     38  C   UNL A   1      41.482  25.425  26.608  1.00  0.00     0.016 A 
ATOM     39  C   UNL A   1      43.064  24.891  28.406  1.00  0.00     0.016 A 
ATOM     40  C   UNL A   1      41.217  26.622  27.227  1.00  0.00     0.010 A 
ATOM     41  C   UNL A   1      42.809  26.094  29.010  1.00  0.00     0.010 A 
ATOM     42  C   UNL A   1      41.966  26.982  28.356  1.00  0.00    -0.014 A 
BRANCH  42  43
ATOM     43  C   UNL A   1      41.745  28.290  28.925  1.00  0.00     0.031 A 
ATOM     44  C   UNL A   1      42.737  29.260  28.432  1.00  0.00     0.074 A 
ATOM     45  C   UNL A   1      40.736  28.584  29.765  1.00  0.00     0.049 A 
ATOM     46  N   UNL A   1      43.777  29.673  29.072  1.00  0.00    -0.248 NA
ATOM     47  C   UNL A   1      42.729  29.608  27.004  1.00  0.00     0.031 C 
ATOM     48  C   UNL A   1      39.589  27.764  30.154  1.00  0.00     0.029 A 
ATOM     49  N   UNL A   1      40.503  29.756  30.413  1.00  0.00    -0.354 N 
ATOM     50  C   UNL A   1      44.410  30.552  28.211  1.00  0.00     0.074 A 
ATOM     51  C   UNL A   1      43.872  30.288  26.904  1.00  0.00     0.031 C 
ATOM     52  C   UNL A   1      38.678  28.542  30.790  1.00  0.00     0.029 A 
ATOM     53  C   UNL A   1      39.234  29.875  30.972  1.00  0.00     0.049 A 
ATOM     54  H   UNL A   1      41.181  30.467  30.482  1.00  0.00     0.167 HD
ATOM     55  C   UNL A   1      45.112  31.605  28.706  1.00  0.00     0.034 A 
ATOM     56  C   UNL A   1      38.683  31.005  31.500  1.00  0.00     0.034 A 
ATOM     57  C   UNL A   1      45.407  31.417  30.110  1.00  0.00     0.049 A 
ATOM     58  C   UNL A   1      39.818  31.881  31.896  1.00  0.00     0.074 A 
ATOM     59  C   UNL A   1      46.099  30.460  30.829  1.00  0.00     0.029 A 
ATOM     60  N   UNL A   1      44.609  32.066  31.028  1.00  0.00    -0.354 N 
ATOM     61  N   UNL A   1      40.650  31.569  32.853  1.00  0.00    -0.248 NA
ATOM     62  C   UNL A   1      40.340  32.818  30.910  1.00  0.00     0.031 C 
ATOM     63  C   UNL A   1      45.330  30.260  32.013  1.00  0.00     0.029 A 
ATOM     64  C   UNL A   1      44.263  31.161  32.004  1.00  0.00     0.049 A 
ATOM     65  H   UNL A   1      44.334  33.010  30.990  1.00  0.00     0.167 HD
ATOM     66  C   UNL A   1      41.905  31.890  32.358  1.00  0.00     0.074 A 
ATOM     67  C   UNL A   1      41.645  32.741  31.197  1.00  0.00     0.031 C 
ATOM     68  C   UNL A   1      43.019  31.204  32.755  1.00  0.00     0.034 A 
BRANCH  55  69
ATOM     69  C   UNL A   1      45.179  32.953  28.038  1.00  0.00     0.023 A 
ATOM     70  C   UNL A   1      44.241  33.915  28.448  1.00  0.00     0.031 A 
ATOM     71  C   UNL A   1      45.892  33.249  26.852  1.00  0.00     0.131 A 
ATOM     72  C   UNL A   1      43.977  35.043  27.655  1.00  0.00     0.055 A 
ATOM     73  C   UNL A   1      45.677  34.408  26.105  1.00  0.00     0.041 A 
ATOM     74  F   UNL A   1      46.760  32.399  26.291  1.00  0.00    -0.206 F 
ATOM     75  C   UNL A   1      44.692  35.298  26.487  1.00  0.00     0.022 A 
BRANCH  72  76
ATOM     76  S   UNL A   1      42.559  36.077  28.089  1.00  0.00     0.124 S 
ATOM     77  O   UNL A   1      42.341  35.706  29.483  1.00  0.00    -0.237 OA
ATOM     78  O   UNL A   1      43.083  37.418  27.853  1.00  0.00    -0.237 OA
ATOM     79  O   UNL A   1      41.525  35.639  27.156  1.00  0.00    -0.744 OA
ENDBRANCH  72  76
ENDBRANCH  55  69
BRANCH  56  80
ATOM     80  C   UNL A   1      37.284  31.500  31.326  1.00  0.00     0.023 A 
ATOM     81  C   UNL A   1      36.548  32.131  32.358  1.00  0.00     0.031 A 
ATOM     82  C   UNL A   1      36.737  31.583  30.027  1.00  0.00     0.131 A 
ATOM     83  C   UNL A   1      35.335  32.805  32.064  1.00  0.00     0.055 A 
ATOM     84  C   UNL A   1      35.543  32.252  29.743  1.00  0.00     0.041 A 
ATOM     85  F   UNL A   1      37.391  31.091  28.963  1.00  0.00    -0.206 F 
ATOM     86  C   UNL A   1      34.841  32.875  30.760  1.00  0.00     0.022 A 
BRANCH  83  87
ATOM     87  S   UNL A   1      34.406  33.684  33.370  1.00  0.00     0.124 S 
ATOM     88  O   UNL A   1      34.543  35.078  32.965  1.00  0.00    -0.237 OA
ATOM     89  O   UNL A   1      33.074  33.101  33.256  1.00  0.00    -0.237 OA
ATOM     90  O   UNL A   1      35.123  33.329  34.597  1.00  0.00    -0.744 OA
ENDBRANCH  83  87
ENDBRANCH  56  80
BRANCH  68  91
ATOM     91  C   UNL A   1      42.905  30.281  33.956  1.00  0.00     0.023 A 
ATOM     92  C   UNL A   1      42.808  28.869  33.898  1.00  0.00     0.031 A 
ATOM     93  C   UNL A   1      43.009  30.871  35.228  1.00  0.00     0.131 A 
ATOM     94  C   UNL A   1      42.802  28.113  35.090  1.00  0.00     0.055 A 
ATOM     95  C   UNL A   1      43.030  30.118  36.401  1.00  0.00     0.041 A 
ATOM     96  F   UNL A   1      43.126  32.204  35.352  1.00  0.00    -0.206 F 
ATOM     97  C   UNL A   1      42.919  28.735  36.336  1.00  0.00     0.022 A 
BRANCH  94  98
ATOM     98  S   UNL A   1      42.616  26.299  35.046  1.00  0.00     0.124 S 
ATOM     99  O   UNL A   1      41.203  26.092  35.348  1.00  0.00    -0.237 OA
ATOM    100  O   UNL A   1      43.033  25.970  33.686  1.00  0.00    -0.237 OA
ATOM    101  O   UNL A   1      43.533  25.837  36.090  1.00  0.00    -0.744 OA
ENDBRANCH  94  98
ENDBRANCH  68  91
ENDBRANCH  42  43
ENDBRANCH  35  37
ENDBRANCH  34  35
ENDBRANCH  33  34
ENDBRANCH  32  33
ENDBRANCH  31  32
ENDBRANCH  30  31
ENDBRANCH  29  30
ENDBRANCH   1  29
TORSDOF 26
ENDMDL
MODEL 3
REMARK VINA RESULT:      -9.6      2.789      7.519
REMARK SMILES Cc1nc2scc(C)n2c1CNc1ccc(C(=O)OCCOCCOCCOCCOC(=O)c2ccc(-c3c4nc(c(-c5cc(S(=O)(=O)[O-])ccc5F)c5ccc([nH]5)c(-c5cc(S(=O)(=O)[O-])ccc5F)c5nc(c(-c6cc(S(=O)(=O)[O-])ccc6F)c6ccc3[nH]6)C=C5)C=C4)cc2)cc1
REMARK SMILES IDX 25 1 24 2 23 3 22 4 21 5 20 6 19 7 17 8 18 9 16 10 13 11
REMARK SMILES IDX 14 12 98 13 15 14 97 15 12 16 11 18 10 19 1 20 2 21 3 22
REMARK SMILES IDX 4 23 9 24 5 25 7 26 6 27 8 28 26 29 27 30 28 31 29 32 30 33
REMARK SMILES IDX 31 34 32 35 33 36 34 37 35 38 96 39 36 40 95 41 37 42 38 43
REMARK SMILES IDX 39 44 89 45 40 46 94 47 88 48 90 49 41 50 93 51 87 52 86 53
REMARK SMILES IDX 42 55 74 56 54 57 73 58 55 59 58 60 72 61 91 62 56 63 57 64
REMARK SMILES IDX 71 66 92 67 59 68 43 69 44 70 52 71 45 72 51 73 53 74 50 75
REMARK SMILES IDX 46 76 47 77 48 78 49 79 75 80 76 81 84 82 77 83 83 84 85 85
REMARK SMILES IDX 82 86 78 87 79 88 80 89 81 90 60 91 61 92 69 93 62 94 68 95
REMARK SMILES IDX 70 96 67 97 63 98 64 99 65 100 66 101
REMARK H PARENT 12 17 90 54 58 65
REMARK Flexibility Score: inf
ROOT
ATOM      1  O   UNL A   1      37.600  22.577  25.236  1.00  0.00    -0.377 OA
ENDROOT
BRANCH   1   2
ATOM      2  C   UNL A   1      37.074  23.067  24.017  1.00  0.00     0.188 C 
BRANCH   2   3
ATOM      3  C   UNL A   1      35.633  23.613  24.129  1.00  0.00     0.188 C 
BRANCH   3   4
ATOM      4  O   UNL A   1      34.797  23.750  22.990  1.00  0.00    -0.376 OA
BRANCH   4   5
ATOM      5  C   UNL A   1      33.643  22.960  22.770  1.00  0.00     0.202 C 
BRANCH   5   6
ATOM      6  C   UNL A   1      32.195  23.407  23.039  1.00  0.00     0.261 C 
BRANCH   6   7
ATOM      7  O   UNL A   1      31.529  22.825  24.154  1.00  0.00    -0.460 OA
BRANCH   7   8
ATOM      8  C   UNL A   1      32.137  22.986  25.343  1.00  0.00     0.338 C 
ATOM      9  O   UNL A   1      32.799  22.164  25.958  1.00  0.00    -0.246 OA
BRANCH   8  10
ATOM     10  C   UNL A   1      32.037  24.407  25.724  1.00  0.00     0.060 A 
ATOM     11  C   UNL A   1      31.750  27.142  26.190  1.00  0.00     0.034 A 
ATOM     12  C   UNL A   1      30.619  26.327  26.103  1.00  0.00     0.026 A 
ATOM     13  C   UNL A   1      33.018  26.541  26.220  1.00  0.00     0.026 A 
ATOM     14  C   UNL A   1      30.760  24.971  25.827  1.00  0.00     0.018 A 
ATOM     15  C   UNL A   1      33.168  25.174  25.998  1.00  0.00     0.018 A 
BRANCH  11  16
ATOM     16  N   UNL A   1      31.600  28.509  25.995  1.00  0.00    -0.379 N 
ATOM     17  H   UNL A   1      31.213  29.085  26.694  1.00  0.00     0.160 HD
BRANCH  16  18
ATOM     18  C   UNL A   1      32.038  29.057  24.723  1.00  0.00     0.169 C 
BRANCH  18  19
ATOM     19  C   UNL A   1      30.992  29.109  23.671  1.00  0.00     0.066 A 
ATOM     20  C   UNL A   1      31.385  26.878  22.411  1.00  0.00     0.069 C 
ATOM     21  C   UNL A   1      30.700  28.164  22.685  1.00  0.00     0.062 A 
ATOM     22  N   UNL A   1      29.605  28.532  21.935  1.00  0.00    -0.224 NA
ATOM     23  C   UNL A   1      29.245  29.664  22.465  1.00  0.00     0.194 A 
ATOM     24  N   UNL A   1      30.020  30.078  23.518  1.00  0.00    -0.290 N 
ATOM     25  S   UNL A   1      27.941  30.758  22.134  1.00  0.00    -0.105 S 
ATOM     26  C   UNL A   1      29.592  31.275  24.092  1.00  0.00     0.032 A 
ATOM     27  C   UNL A   1      28.498  31.758  23.468  1.00  0.00     0.090 A 
ATOM     28  C   UNL A   1      30.214  31.957  25.252  1.00  0.00     0.066 C 
ENDBRANCH  18  19
ENDBRANCH  16  18
ENDBRANCH  11  16
ENDBRANCH   8  10
ENDBRANCH   7   8
ENDBRANCH   6   7
ENDBRANCH   5   6
ENDBRANCH   4   5
ENDBRANCH   3   4
ENDBRANCH   2   3
ENDBRANCH   1   2
BRANCH   1  29
ATOM     29  C   UNL A   1      38.022  21.214  25.255  1.00  0.00     0.188 C 
BRANCH  29  30
ATOM     30  C   UNL A   1      39.425  20.840  25.802  1.00  0.00     0.188 C 
BRANCH  30  31
ATOM     31  O   UNL A   1      39.701  21.303  27.114  1.00  0.00    -0.376 OA
BRANCH  31  32
ATOM     32  C   UNL A   1      40.973  21.772  27.516  1.00  0.00     0.202 C 
BRANCH  32  33
ATOM     33  C   UNL A   1      42.116  21.770  26.511  1.00  0.00     0.261 C 
BRANCH  33  34
ATOM     34  O   UNL A   1      42.222  22.953  25.747  1.00  0.00    -0.460 OA
BRANCH  34  35
ATOM     35  C   UNL A   1      43.109  23.841  26.219  1.00  0.00     0.338 C 
ATOM     36  O   UNL A   1      44.328  23.830  26.042  1.00  0.00    -0.246 OA
BRANCH  35  37
ATOM     37  C   UNL A   1      42.404  24.749  27.115  1.00  0.00     0.060 A 
ATOM     38  C   UNL A   1      41.391  25.521  26.553  1.00  0.00     0.016 A 
ATOM     39  C   UNL A   1      42.989  25.059  28.356  1.00  0.00     0.016 A 
ATOM     40  C   UNL A   1      41.152  26.753  27.110  1.00  0.00     0.010 A 
ATOM     41  C   UNL A   1      42.761  26.297  28.899  1.00  0.00     0.010 A 
ATOM     42  C   UNL A   1      41.922  27.161  28.209  1.00  0.00    -0.014 A 
BRANCH  42  43
ATOM     43  C   UNL A   1      41.728  28.501  28.710  1.00  0.00     0.031 A 
ATOM     44  C   UNL A   1      42.698  29.437  28.115  1.00  0.00     0.074 A 
ATOM     45  C   UNL A   1      40.760  28.848  29.576  1.00  0.00     0.049 A 
ATOM     46  N   UNL A   1      43.766  29.884  28.681  1.00  0.00    -0.248 NA
ATOM     47  C   UNL A   1      42.623  29.702  26.671  1.00  0.00     0.031 C 
ATOM     48  C   UNL A   1      39.631  28.055  30.066  1.00  0.00     0.029 A 
ATOM     49  N   UNL A   1      40.557  30.056  30.165  1.00  0.00    -0.354 N 
ATOM     50  C   UNL A   1      44.359  30.708  27.742  1.00  0.00     0.074 A 
ATOM     51  C   UNL A   1      43.761  30.370  26.479  1.00  0.00     0.031 C 
ATOM     52  C   UNL A   1      38.751  28.873  30.696  1.00  0.00     0.029 A 
ATOM     53  C   UNL A   1      39.316  30.212  30.773  1.00  0.00     0.049 A 
ATOM     54  H   UNL A   1      41.238  30.767  30.160  1.00  0.00     0.167 HD
ATOM     55  C   UNL A   1      45.084  31.786  28.141  1.00  0.00     0.034 A 
ATOM     56  C   UNL A   1      38.790  31.372  31.259  1.00  0.00     0.034 A 
ATOM     57  C   UNL A   1      45.443  31.680  29.539  1.00  0.00     0.049 A 
ATOM     58  C   UNL A   1      39.943  32.267  31.551  1.00  0.00     0.074 A 
ATOM     59  C   UNL A   1      46.167  30.764  30.280  1.00  0.00     0.029 A 
ATOM     60  N   UNL A   1      44.689  32.384  30.453  1.00  0.00    -0.354 N 
ATOM     61  N   UNL A   1      40.818  32.009  32.485  1.00  0.00    -0.248 NA
ATOM     62  C   UNL A   1      40.420  33.142  30.488  1.00  0.00     0.031 C 
ATOM     63  C   UNL A   1      45.453  30.636  31.508  1.00  0.00     0.029 A 
ATOM     64  C   UNL A   1      44.388  31.539  31.496  1.00  0.00     0.049 A 
ATOM     65  H   UNL A   1      44.413  33.326  30.372  1.00  0.00     0.167 HD
ATOM     66  C   UNL A   1      42.049  32.296  31.914  1.00  0.00     0.074 A 
ATOM     67  C   UNL A   1      41.736  33.078  30.718  1.00  0.00     0.031 C 
ATOM     68  C   UNL A   1      43.180  31.631  32.299  1.00  0.00     0.034 A 
BRANCH  55  69
ATOM     69  C   UNL A   1      45.121  33.093  27.393  1.00  0.00     0.023 A 
ATOM     70  C   UNL A   1      46.366  33.503  26.888  1.00  0.00     0.031 A 
ATOM     71  C   UNL A   1      44.102  34.074  27.400  1.00  0.00     0.131 A 
ATOM     72  C   UNL A   1      46.584  34.839  26.515  1.00  0.00     0.055 A 
ATOM     73  C   UNL A   1      44.304  35.383  26.961  1.00  0.00     0.041 A 
ATOM     74  F   UNL A   1      42.887  33.862  27.922  1.00  0.00    -0.206 F 
ATOM     75  C   UNL A   1      45.559  35.782  26.544  1.00  0.00     0.022 A 
BRANCH  72  76
ATOM     76  S   UNL A   1      48.279  35.359  26.159  1.00  0.00     0.124 S 
ATOM     77  O   UNL A   1      49.024  34.667  27.205  1.00  0.00    -0.237 OA
ATOM     78  O   UNL A   1      48.464  34.863  24.799  1.00  0.00    -0.237 OA
ATOM     79  O   UNL A   1      48.220  36.812  26.290  1.00  0.00    -0.744 OA
ENDBRANCH  72  76
ENDBRANCH  55  69
BRANCH  56  80
ATOM     80  C   UNL A   1      37.385  31.861  31.121  1.00  0.00     0.023 A 
ATOM     81  C   UNL A   1      36.623  32.355  32.208  1.00  0.00     0.031 A 
ATOM     82  C   UNL A   1      36.856  32.087  29.831  1.00  0.00     0.131 A 
ATOM     83  C   UNL A   1      35.401  33.038  31.974  1.00  0.00     0.055 A 
ATOM     84  C   UNL A   1      35.654  32.765  29.608  1.00  0.00     0.041 A 
ATOM     85  F   UNL A   1      37.535  31.734  28.729  1.00  0.00    -0.206 F 
ATOM     86  C   UNL A   1      34.926  33.253  30.680  1.00  0.00     0.022 A 
BRANCH  83  87
ATOM     87  S   UNL A   1      34.438  33.742  33.358  1.00  0.00     0.124 S 
ATOM     88  O   UNL A   1      33.144  33.089  33.201  1.00  0.00    -0.237 OA
ATOM     89  O   UNL A   1      35.226  33.353  34.521  1.00  0.00    -0.237 OA
ATOM     90  O   UNL A   1      34.436  35.179  33.078  1.00  0.00    -0.744 OA
ENDBRANCH  83  87
ENDBRANCH  56  80
BRANCH  68  91
ATOM     91  C   UNL A   1      43.121  30.779  33.557  1.00  0.00     0.023 A 
ATOM     92  C   UNL A   1      43.392  31.237  34.869  1.00  0.00     0.031 A 
ATOM     93  C   UNL A   1      42.660  29.459  33.414  1.00  0.00     0.131 A 
ATOM     94  C   UNL A   1      43.211  30.371  35.969  1.00  0.00     0.055 A 
ATOM     95  C   UNL A   1      42.456  28.617  34.505  1.00  0.00     0.041 A 
ATOM     96  F   UNL A   1      42.363  28.971  32.197  1.00  0.00    -0.206 F 
ATOM     97  C   UNL A   1      42.739  29.068  35.788  1.00  0.00     0.022 A 
BRANCH  94  98
ATOM     98  S   UNL A   1      43.613  30.915  37.664  1.00  0.00     0.124 S 
ATOM     99  O   UNL A   1      42.319  31.304  38.214  1.00  0.00    -0.237 OA
ATOM    100  O   UNL A   1      44.221  29.721  38.244  1.00  0.00    -0.237 OA
ATOM    101  O   UNL A   1      44.541  32.027  37.453  1.00  0.00    -0.744 OA
ENDBRANCH  94  98
ENDBRANCH  68  91
ENDBRANCH  42  43
ENDBRANCH  35  37
ENDBRANCH  34  35
ENDBRANCH  33  34
ENDBRANCH  32  33
ENDBRANCH  31  32
ENDBRANCH  30  31
ENDBRANCH  29  30
ENDBRANCH   1  29
TORSDOF 26
ENDMDL
