MODEL 1
REMARK VINA RESULT:      -6.3      0.000      0.000
REMARK SMILES CC[C@H](NC(=O)N1CCO[C@@H](CC(=O)OCCOCCOCCOCCOC(=O)c2ccc(-c3c4nc(c(-c5cc(S(=O)(=O)[O-])ccc5F)c5ccc([nH]5)c(-c5cc(S(=O)(=O)[O-])ccc5F)c5nc(c(-c6cc(S(=O)(=O)[O-])ccc6F)c6ccc3[nH]6)C=C5)C=C4)cc2)C1)c1cccs1
REMARK SMILES IDX 20 1 19 2 18 3 17 4 16 5 15 6 13 7 14 8 12 9 11 10 7 11 8 12
REMARK SMILES IDX 93 13 9 14 10 15 5 16 4 17 6 19 3 20 2 21 1 22 94 23 95 24
REMARK SMILES IDX 98 25 96 26 97 27 21 28 22 29 23 30 24 31 25 32 26 33 27 34
REMARK SMILES IDX 28 35 29 36 30 37 31 38 92 39 32 40 91 41 33 42 34 43 35 44
REMARK SMILES IDX 85 45 36 46 90 47 84 48 86 49 37 50 89 51 83 52 82 53 38 55
REMARK SMILES IDX 70 56 50 57 69 58 51 59 54 60 68 61 87 62 52 63 53 64 67 66
REMARK SMILES IDX 88 67 55 68 39 69 40 70 48 71 41 72 47 73 49 74 46 75 42 76
REMARK SMILES IDX 43 77 44 78 45 79 71 80 72 81 80 82 73 83 79 84 81 85 78 86
REMARK SMILES IDX 74 87 75 88 76 89 77 90 56 91 57 92 65 93 58 94 64 95 66 96
REMARK SMILES IDX 63 97 59 98 60 99 61 100 62 101
REMARK H PARENT 4 18 86 54 54 65
REMARK Flexibility Score: inf
ROOT
ATOM      1  C   UNL A   1      43.669  37.729  34.155  1.00  0.00     0.188 C 
ENDROOT
BRANCH   1   2
ATOM      2  C   UNL A   1      43.323  36.576  35.101  1.00  0.00     0.188 C 
BRANCH   2   3
ATOM      3  O   UNL A   1      42.107  36.650  35.806  1.00  0.00    -0.376 OA
BRANCH   3   4
ATOM      4  C   UNL A   1      41.583  35.542  36.521  1.00  0.00     0.202 C 
BRANCH   4   5
ATOM      5  C   UNL A   1      40.793  34.363  35.922  1.00  0.00     0.261 C 
BRANCH   5   6
ATOM      6  O   UNL A   1      40.581  34.356  34.507  1.00  0.00    -0.463 OA
BRANCH   6   7
ATOM      7  C   UNL A   1      39.354  34.748  34.108  1.00  0.00     0.308 C 
ATOM      8  O   UNL A   1      38.498  35.219  34.855  1.00  0.00    -0.252 OA
BRANCH   7   9
ATOM      9  C   UNL A   1      39.073  34.579  32.646  1.00  0.00     0.156 C 
BRANCH   9  10
ATOM     10  C   UNL A   1      37.987  33.660  32.104  1.00  0.00     0.149 C 
ATOM     11  N   UNL A   1      36.611  31.618  32.295  1.00  0.00    -0.320 N 
ATOM     12  C   UNL A   1      35.497  32.454  32.685  1.00  0.00     0.150 C 
ATOM     13  C   UNL A   1      37.885  32.235  32.715  1.00  0.00     0.154 C 
ATOM     14  C   UNL A   1      35.591  33.761  31.921  1.00  0.00     0.182 C 
ATOM     15  O   UNL A   1      36.775  34.447  32.341  1.00  0.00    -0.374 OA
BRANCH  11  16
ATOM     16  C   UNL A   1      36.555  30.360  31.768  1.00  0.00     0.318 C 
ATOM     17  N   UNL A   1      36.371  30.130  30.436  1.00  0.00    -0.330 N 
ATOM     18  H   UNL A   1      35.758  29.385  30.240  1.00  0.00     0.166 HD
ATOM     19  O   UNL A   1      36.653  29.357  32.478  1.00  0.00    -0.249 OA
BRANCH  17  20
ATOM     20  C   UNL A   1      36.918  30.788  29.234  1.00  0.00     0.124 C 
BRANCH  20  21
ATOM     21  C   UNL A   1      37.336  29.790  28.116  1.00  0.00     0.027 C 
ATOM     22  C   UNL A   1      38.284  28.678  28.517  1.00  0.00     0.006 C 
ENDBRANCH  20  21
BRANCH  20  23
ATOM     23  C   UNL A   1      35.881  31.695  28.611  1.00  0.00     0.027 A 
ATOM     24  C   UNL A   1      34.595  31.385  28.197  1.00  0.00     0.017 A 
ATOM     25  S   UNL A   1      36.236  33.353  28.321  1.00  0.00    -0.147 S 
ATOM     26  C   UNL A   1      33.831  32.555  27.920  1.00  0.00     0.012 A 
ATOM     27  C   UNL A   1      34.593  33.698  27.993  1.00  0.00     0.065 A 
ENDBRANCH  20  23
ENDBRANCH  17  20
ENDBRANCH  11  16
ENDBRANCH   9  10
ENDBRANCH   7   9
ENDBRANCH   6   7
ENDBRANCH   5   6
ENDBRANCH   4   5
ENDBRANCH   3   4
ENDBRANCH   2   3
ENDBRANCH   1   2
BRANCH   1  28
ATOM     28  O   UNL A   1      44.585  38.706  34.601  1.00  0.00    -0.377 OA
BRANCH  28  29
ATOM     29  C   UNL A   1      44.351  40.090  34.344  1.00  0.00     0.188 C 
BRANCH  29  30
ATOM     30  C   UNL A   1      43.019  40.760  34.744  1.00  0.00     0.188 C 
BRANCH  30  31
ATOM     31  O   UNL A   1      42.246  41.253  33.664  1.00  0.00    -0.376 OA
BRANCH  31  32
ATOM     32  C   UNL A   1      42.338  42.635  33.353  1.00  0.00     0.202 C 
BRANCH  32  33
ATOM     33  C   UNL A   1      42.382  43.031  31.871  1.00  0.00     0.261 C 
BRANCH  33  34
ATOM     34  O   UNL A   1      42.234  41.964  30.918  1.00  0.00    -0.460 OA
BRANCH  34  35
ATOM     35  C   UNL A   1      43.190  41.797  29.982  1.00  0.00     0.338 C 
ATOM     36  O   UNL A   1      43.759  42.671  29.350  1.00  0.00    -0.246 OA
BRANCH  35  37
ATOM     37  C   UNL A   1      43.556  40.366  29.967  1.00  0.00     0.060 A 
ATOM     38  C   UNL A   1      44.417  39.859  30.947  1.00  0.00     0.016 A 
ATOM     39  C   UNL A   1      43.043  39.527  28.979  1.00  0.00     0.016 A 
ATOM     40  C   UNL A   1      44.777  38.509  30.931  1.00  0.00     0.010 A 
ATOM     41  C   UNL A   1      43.410  38.180  28.957  1.00  0.00     0.010 A 
ATOM     42  C   UNL A   1      44.300  37.670  29.917  1.00  0.00    -0.014 A 
BRANCH  42  43
ATOM     43  C   UNL A   1      44.861  36.308  29.737  1.00  0.00     0.031 A 
ATOM     44  C   UNL A   1      46.133  36.159  28.950  1.00  0.00     0.074 A 
ATOM     45  C   UNL A   1      44.252  35.225  30.251  1.00  0.00     0.049 A 
ATOM     46  N   UNL A   1      46.754  35.075  28.564  1.00  0.00    -0.248 NA
ATOM     47  C   UNL A   1      46.784  37.410  28.533  1.00  0.00     0.031 C 
ATOM     48  C   UNL A   1      43.047  35.247  31.077  1.00  0.00     0.029 A 
ATOM     49  N   UNL A   1      44.561  33.892  30.141  1.00  0.00    -0.354 N 
ATOM     50  C   UNL A   1      47.865  35.512  27.847  1.00  0.00     0.074 A 
ATOM     51  C   UNL A   1      47.805  36.959  27.823  1.00  0.00     0.031 C 
ATOM     52  C   UNL A   1      42.718  33.983  31.400  1.00  0.00     0.029 A 
ATOM     53  C   UNL A   1      43.653  33.061  30.755  1.00  0.00     0.049 A 
ATOM     54  H   UNL A   1      45.359  33.561  29.668  1.00  0.00     0.167 HD
ATOM     55  C   UNL A   1      48.844  34.773  27.270  1.00  0.00     0.034 A 
ATOM     56  C   UNL A   1      43.568  31.714  30.760  1.00  0.00     0.034 A 
ATOM     57  C   UNL A   1      48.874  33.331  27.289  1.00  0.00     0.049 A 
ATOM     58  C   UNL A   1      44.599  30.911  30.001  1.00  0.00     0.074 A 
ATOM     59  C   UNL A   1      49.823  32.482  26.748  1.00  0.00     0.029 A 
ATOM     60  N   UNL A   1      47.900  32.523  27.863  1.00  0.00    -0.354 N 
ATOM     61  N   UNL A   1      45.648  31.330  29.329  1.00  0.00    -0.248 NA
ATOM     62  C   UNL A   1      44.431  29.451  29.998  1.00  0.00     0.031 C 
ATOM     63  C   UNL A   1      49.378  31.167  26.914  1.00  0.00     0.029 A 
ATOM     64  C   UNL A   1      48.201  31.186  27.646  1.00  0.00     0.049 A 
ATOM     65  H   UNL A   1      47.111  32.850  28.352  1.00  0.00     0.167 HD
ATOM     66  C   UNL A   1      46.283  30.181  28.858  1.00  0.00     0.074 A 
ATOM     67  C   UNL A   1      45.506  29.055  29.330  1.00  0.00     0.031 C 
ATOM     68  C   UNL A   1      47.412  30.069  28.112  1.00  0.00     0.034 A 
BRANCH  55  69
ATOM     69  C   UNL A   1      49.918  35.519  26.513  1.00  0.00     0.023 A 
ATOM     70  C   UNL A   1      51.007  36.120  27.170  1.00  0.00     0.031 A 
ATOM     71  C   UNL A   1      49.827  35.673  25.118  1.00  0.00     0.131 A 
ATOM     72  C   UNL A   1      51.907  36.918  26.446  1.00  0.00     0.055 A 
ATOM     73  C   UNL A   1      50.779  36.390  24.392  1.00  0.00     0.041 A 
ATOM     74  F   UNL A   1      48.797  35.146  24.438  1.00  0.00    -0.206 F 
ATOM     75  C   UNL A   1      51.817  37.034  25.058  1.00  0.00     0.022 A 
BRANCH  72  76
ATOM     76  S   UNL A   1      53.087  37.942  27.368  1.00  0.00     0.124 S 
ATOM     77  O   UNL A   1      53.315  39.042  26.435  1.00  0.00    -0.237 OA
ATOM     78  O   UNL A   1      52.342  38.272  28.577  1.00  0.00    -0.237 OA
ATOM     79  O   UNL A   1      54.232  37.053  27.563  1.00  0.00    -0.744 OA
ENDBRANCH  72  76
ENDBRANCH  55  69
BRANCH  56  80
ATOM     80  C   UNL A   1      42.449  31.027  31.468  1.00  0.00     0.023 A 
ATOM     81  C   UNL A   1      42.523  30.759  32.845  1.00  0.00     0.031 A 
ATOM     82  C   UNL A   1      41.316  30.567  30.770  1.00  0.00     0.131 A 
ATOM     83  C   UNL A   1      41.511  30.013  33.470  1.00  0.00     0.055 A 
ATOM     84  C   UNL A   1      40.283  29.881  31.409  1.00  0.00     0.041 A 
ATOM     85  F   UNL A   1      41.198  30.782  29.451  1.00  0.00    -0.206 F 
ATOM     86  C   UNL A   1      40.383  29.587  32.766  1.00  0.00     0.022 A 
BRANCH  83  87
ATOM     87  S   UNL A   1      41.741  29.519  35.200  1.00  0.00     0.124 S 
ATOM     88  O   UNL A   1      41.241  30.689  35.912  1.00  0.00    -0.237 OA
ATOM     89  O   UNL A   1      40.919  28.316  35.284  1.00  0.00    -0.237 OA
ATOM     90  O   UNL A   1      43.182  29.294  35.300  1.00  0.00    -0.744 OA
ENDBRANCH  83  87
ENDBRANCH  56  80
BRANCH  68  91
ATOM     91  C   UNL A   1      47.907  28.674  27.803  1.00  0.00     0.023 A 
ATOM     92  C   UNL A   1      47.506  27.979  26.649  1.00  0.00     0.031 A 
ATOM     93  C   UNL A   1      48.805  28.036  28.678  1.00  0.00     0.131 A 
ATOM     94  C   UNL A   1      47.965  26.670  26.425  1.00  0.00     0.055 A 
ATOM     95  C   UNL A   1      49.311  26.762  28.417  1.00  0.00     0.041 A 
ATOM     96  F   UNL A   1      49.219  28.648  29.799  1.00  0.00    -0.206 F 
ATOM     97  C   UNL A   1      48.881  26.066  27.290  1.00  0.00     0.022 A 
BRANCH  94  98
ATOM     98  S   UNL A   1      47.281  25.731  25.032  1.00  0.00     0.124 S 
ATOM     99  O   UNL A   1      48.432  25.628  24.142  1.00  0.00    -0.237 OA
ATOM    100  O   UNL A   1      46.855  24.489  25.670  1.00  0.00    -0.237 OA
ATOM    101  O   UNL A   1      46.195  26.580  24.546  1.00  0.00    -0.744 OA
ENDBRANCH  94  98
ENDBRANCH  68  91
ENDBRANCH  42  43
ENDBRANCH  35  37
ENDBRANCH  34  35
ENDBRANCH  33  34
ENDBRANCH  32  33
ENDBRANCH  31  32
ENDBRANCH  30  31
ENDBRANCH  29  30
ENDBRANCH  28  29
ENDBRANCH   1  28
TORSDOF 28
ENDMDL
MODEL 2
REMARK VINA RESULT:      -6.0      4.924     11.242
REMARK SMILES CC[C@H](NC(=O)N1CCO[C@@H](CC(=O)OCCOCCOCCOCCOC(=O)c2ccc(-c3c4nc(c(-c5cc(S(=O)(=O)[O-])ccc5F)c5ccc([nH]5)c(-c5cc(S(=O)(=O)[O-])ccc5F)c5nc(c(-c6cc(S(=O)(=O)[O-])ccc6F)c6ccc3[nH]6)C=C5)C=C4)cc2)C1)c1cccs1
REMARK SMILES IDX 20 1 19 2 18 3 17 4 16 5 15 6 13 7 14 8 12 9 11 10 7 11 8 12
REMARK SMILES IDX 93 13 9 14 10 15 5 16 4 17 6 19 3 20 2 21 1 22 94 23 95 24
REMARK SMILES IDX 98 25 96 26 97 27 21 28 22 29 23 30 24 31 25 32 26 33 27 34
REMARK SMILES IDX 28 35 29 36 30 37 31 38 92 39 32 40 91 41 33 42 34 43 35 44
REMARK SMILES IDX 85 45 36 46 90 47 84 48 86 49 37 50 89 51 83 52 82 53 38 55
REMARK SMILES IDX 70 56 50 57 69 58 51 59 54 60 68 61 87 62 52 63 53 64 67 66
REMARK SMILES IDX 88 67 55 68 39 69 40 70 48 71 41 72 47 73 49 74 46 75 42 76
REMARK SMILES IDX 43 77 44 78 45 79 71 80 72 81 80 82 73 83 79 84 81 85 78 86
REMARK SMILES IDX 74 87 75 88 76 89 77 90 56 91 57 92 65 93 58 94 64 95 66 96
REMARK SMILES IDX 63 97 59 98 60 99 61 100 62 101
REMARK H PARENT 4 18 86 54 54 65
REMARK Flexibility Score: inf
ROOT
ATOM      1  C   UNL A   1      43.135  42.785  31.350  1.00  0.00     0.188 C 
ENDROOT
BRANCH   1   2
ATOM      2  C   UNL A   1      42.444  41.496  30.898  1.00  0.00     0.188 C 
BRANCH   2   3
ATOM      3  O   UNL A   1      43.228  40.526  30.246  1.00  0.00    -0.376 OA
BRANCH   3   4
ATOM      4  C   UNL A   1      43.428  40.540  28.841  1.00  0.00     0.202 C 
BRANCH   4   5
ATOM      5  C   UNL A   1      44.231  41.588  28.047  1.00  0.00     0.261 C 
BRANCH   5   6
ATOM      6  O   UNL A   1      45.654  41.448  28.012  1.00  0.00    -0.463 OA
BRANCH   6   7
ATOM      7  C   UNL A   1      46.162  41.027  26.836  1.00  0.00     0.308 C 
ATOM      8  O   UNL A   1      46.007  39.896  26.378  1.00  0.00    -0.252 OA
BRANCH   7   9
ATOM      9  C   UNL A   1      46.955  42.049  26.079  1.00  0.00     0.156 C 
BRANCH   9  10
ATOM     10  C   UNL A   1      46.376  42.884  24.945  1.00  0.00     0.149 C 
ATOM     11  N   UNL A   1      44.587  43.322  23.299  1.00  0.00    -0.320 N 
ATOM     12  C   UNL A   1      44.148  44.421  24.130  1.00  0.00     0.150 C 
ATOM     13  C   UNL A   1      45.205  42.268  24.129  1.00  0.00     0.154 C 
ATOM     14  C   UNL A   1      45.370  45.060  24.760  1.00  0.00     0.182 C 
ATOM     15  O   UNL A   1      45.976  44.109  25.640  1.00  0.00    -0.374 OA
BRANCH  11  16
ATOM     16  C   UNL A   1      44.347  43.145  21.966  1.00  0.00     0.318 C 
ATOM     17  N   UNL A   1      44.675  44.082  21.031  1.00  0.00    -0.330 N 
ATOM     18  H   UNL A   1      43.994  44.204  20.331  1.00  0.00     0.166 HD
ATOM     19  O   UNL A   1      43.801  42.126  21.539  1.00  0.00    -0.249 OA
BRANCH  17  20
ATOM     20  C   UNL A   1      45.860  44.947  20.872  1.00  0.00     0.124 C 
BRANCH  20  21
ATOM     21  C   UNL A   1      46.939  44.353  19.920  1.00  0.00     0.027 C 
ATOM     22  C   UNL A   1      48.379  44.720  20.213  1.00  0.00     0.006 C 
ENDBRANCH  20  21
BRANCH  20  23
ATOM     23  C   UNL A   1      45.465  46.277  20.269  1.00  0.00     0.027 A 
ATOM     24  C   UNL A   1      45.748  47.554  20.726  1.00  0.00     0.017 A 
ATOM     25  S   UNL A   1      44.529  46.334  18.827  1.00  0.00    -0.147 S 
ATOM     26  C   UNL A   1      45.448  48.546  19.748  1.00  0.00     0.012 A 
ATOM     27  C   UNL A   1      44.820  48.011  18.647  1.00  0.00     0.065 A 
ENDBRANCH  20  23
ENDBRANCH  17  20
ENDBRANCH  11  16
ENDBRANCH   9  10
ENDBRANCH   7   9
ENDBRANCH   6   7
ENDBRANCH   5   6
ENDBRANCH   4   5
ENDBRANCH   3   4
ENDBRANCH   2   3
ENDBRANCH   1   2
BRANCH   1  28
ATOM     28  O   UNL A   1      42.328  43.860  31.780  1.00  0.00    -0.377 OA
BRANCH  28  29
ATOM     29  C   UNL A   1      42.312  44.252  33.151  1.00  0.00     0.188 C 
BRANCH  29  30
ATOM     30  C   UNL A   1      42.173  43.205  34.277  1.00  0.00     0.188 C 
BRANCH  30  31
ATOM     31  O   UNL A   1      43.312  43.061  35.108  1.00  0.00    -0.376 OA
BRANCH  31  32
ATOM     32  C   UNL A   1      44.006  41.823  35.080  1.00  0.00     0.202 C 
BRANCH  32  33
ATOM     33  C   UNL A   1      43.373  40.667  34.295  1.00  0.00     0.261 C 
BRANCH  33  34
ATOM     34  O   UNL A   1      43.986  39.376  34.448  1.00  0.00    -0.460 OA
BRANCH  34  35
ATOM     35  C   UNL A   1      45.024  39.054  33.649  1.00  0.00     0.338 C 
ATOM     36  O   UNL A   1      46.071  39.667  33.523  1.00  0.00    -0.246 OA
BRANCH  35  37
ATOM     37  C   UNL A   1      44.745  37.725  33.067  1.00  0.00     0.060 A 
ATOM     38  C   UNL A   1      44.757  36.591  33.888  1.00  0.00     0.016 A 
ATOM     39  C   UNL A   1      44.472  37.606  31.705  1.00  0.00     0.016 A 
ATOM     40  C   UNL A   1      44.506  35.330  33.341  1.00  0.00     0.010 A 
ATOM     41  C   UNL A   1      44.230  36.345  31.156  1.00  0.00     0.010 A 
ATOM     42  C   UNL A   1      44.273  35.198  31.966  1.00  0.00    -0.014 A 
BRANCH  42  43
ATOM     43  C   UNL A   1      44.252  33.857  31.329  1.00  0.00     0.031 A 
ATOM     44  C   UNL A   1      42.931  33.149  31.202  1.00  0.00     0.074 A 
ATOM     45  C   UNL A   1      45.379  33.276  30.883  1.00  0.00     0.049 A 
ATOM     46  N   UNL A   1      42.671  31.937  30.788  1.00  0.00    -0.248 NA
ATOM     47  C   UNL A   1      41.745  33.917  31.609  1.00  0.00     0.031 C 
ATOM     48  C   UNL A   1      46.707  33.884  30.900  1.00  0.00     0.029 A 
ATOM     49  N   UNL A   1      45.584  32.033  30.337  1.00  0.00    -0.354 N 
ATOM     50  C   UNL A   1      41.291  31.790  30.896  1.00  0.00     0.074 A 
ATOM     51  C   UNL A   1      40.780  33.025  31.451  1.00  0.00     0.031 C 
ATOM     52  C   UNL A   1      47.592  33.011  30.388  1.00  0.00     0.029 A 
ATOM     53  C   UNL A   1      46.904  31.761  30.062  1.00  0.00     0.049 A 
ATOM     54  H   UNL A   1      44.855  31.395  30.158  1.00  0.00     0.167 HD
ATOM     55  C   UNL A   1      40.525  30.724  30.558  1.00  0.00     0.034 A 
ATOM     56  C   UNL A   1      47.489  30.623  29.633  1.00  0.00     0.034 A 
ATOM     57  C   UNL A   1      41.056  29.494  30.024  1.00  0.00     0.049 A 
ATOM     58  C   UNL A   1      46.630  29.405  29.385  1.00  0.00     0.074 A 
ATOM     59  C   UNL A   1      40.371  28.356  29.636  1.00  0.00     0.029 A 
ATOM     60  N   UNL A   1      42.406  29.231  29.823  1.00  0.00    -0.354 N 
ATOM     61  N   UNL A   1      45.326  29.273  29.485  1.00  0.00    -0.248 NA
ATOM     62  C   UNL A   1      47.323  28.178  28.968  1.00  0.00     0.031 C 
ATOM     63  C   UNL A   1      41.309  27.378  29.288  1.00  0.00     0.029 A 
ATOM     64  C   UNL A   1      42.576  27.934  29.363  1.00  0.00     0.049 A 
ATOM     65  H   UNL A   1      43.136  29.873  29.984  1.00  0.00     0.167 HD
ATOM     66  C   UNL A   1      45.044  27.961  29.107  1.00  0.00     0.074 A 
ATOM     67  C   UNL A   1      46.310  27.347  28.768  1.00  0.00     0.031 C 
ATOM     68  C   UNL A   1      43.846  27.326  29.037  1.00  0.00     0.034 A 
BRANCH  55  69
ATOM     69  C   UNL A   1      39.041  30.827  30.825  1.00  0.00     0.023 A 
ATOM     70  C   UNL A   1      38.157  31.398  29.892  1.00  0.00     0.031 A 
ATOM     71  C   UNL A   1      38.508  30.391  32.051  1.00  0.00     0.131 A 
ATOM     72  C   UNL A   1      36.811  31.599  30.235  1.00  0.00     0.055 A 
ATOM     73  C   UNL A   1      37.150  30.508  32.348  1.00  0.00     0.041 A 
ATOM     74  F   UNL A   1      39.304  29.862  32.993  1.00  0.00    -0.206 F 
ATOM     75  C   UNL A   1      36.295  31.132  31.445  1.00  0.00     0.022 A 
BRANCH  72  76
ATOM     76  S   UNL A   1      35.789  32.635  29.151  1.00  0.00     0.124 S 
ATOM     77  O   UNL A   1      36.167  33.978  29.585  1.00  0.00    -0.237 OA
ATOM     78  O   UNL A   1      36.240  32.242  27.821  1.00  0.00    -0.237 OA
ATOM     79  O   UNL A   1      34.423  32.241  29.490  1.00  0.00    -0.744 OA
ENDBRANCH  72  76
ENDBRANCH  55  69
BRANCH  56  80
ATOM     80  C   UNL A   1      48.969  30.553  29.448  1.00  0.00     0.023 A 
ATOM     81  C   UNL A   1      49.542  30.684  28.173  1.00  0.00     0.031 A 
ATOM     82  C   UNL A   1      49.827  30.288  30.531  1.00  0.00     0.131 A 
ATOM     83  C   UNL A   1      50.924  30.503  28.004  1.00  0.00     0.055 A 
ATOM     84  C   UNL A   1      51.208  30.171  30.367  1.00  0.00     0.041 A 
ATOM     85  F   UNL A   1      49.333  30.139  31.769  1.00  0.00    -0.206 F 
ATOM     86  C   UNL A   1      51.764  30.266  29.095  1.00  0.00     0.022 A 
BRANCH  83  87
ATOM     87  S   UNL A   1      51.597  30.483  26.320  1.00  0.00     0.124 S 
ATOM     88  O   UNL A   1      52.891  29.842  26.526  1.00  0.00    -0.237 OA
ATOM     89  O   UNL A   1      50.597  29.698  25.603  1.00  0.00    -0.237 OA
ATOM     90  O   UNL A   1      51.650  31.898  25.959  1.00  0.00    -0.744 OA
ENDBRANCH  83  87
ENDBRANCH  56  80
BRANCH  68  91
ATOM     91  C   UNL A   1      43.841  25.904  28.523  1.00  0.00     0.023 A 
ATOM     92  C   UNL A   1      43.755  25.606  27.152  1.00  0.00     0.031 A 
ATOM     93  C   UNL A   1      43.936  24.830  29.427  1.00  0.00     0.131 A 
ATOM     94  C   UNL A   1      43.718  24.268  26.728  1.00  0.00     0.055 A 
ATOM     95  C   UNL A   1      43.966  23.503  28.995  1.00  0.00     0.041 A 
ATOM     96  F   UNL A   1      44.015  25.053  30.749  1.00  0.00    -0.206 F 
ATOM     97  C   UNL A   1      43.845  23.215  27.638  1.00  0.00     0.022 A 
BRANCH  94  98
ATOM     98  S   UNL A   1      43.413  23.915  24.975  1.00  0.00     0.124 S 
ATOM     99  O   UNL A   1      42.594  25.053  24.574  1.00  0.00    -0.237 OA
ATOM    100  O   UNL A   1      44.764  23.876  24.423  1.00  0.00    -0.237 OA
ATOM    101  O   UNL A   1      42.719  22.629  24.999  1.00  0.00    -0.744 OA
ENDBRANCH  94  98
ENDBRANCH  68  91
ENDBRANCH  42  43
ENDBRANCH  35  37
ENDBRANCH  34  35
ENDBRANCH  33  34
ENDBRANCH  32  33
ENDBRANCH  31  32
ENDBRANCH  30  31
ENDBRANCH  29  30
ENDBRANCH  28  29
ENDBRANCH   1  28
TORSDOF 28
ENDMDL
MODEL 3
REMARK VINA RESULT:      -5.9      9.342     15.006
REMARK SMILES CC[C@H](NC(=O)N1CCO[C@@H](CC(=O)OCCOCCOCCOCCOC(=O)c2ccc(-c3c4nc(c(-c5cc(S(=O)(=O)[O-])ccc5F)c5ccc([nH]5)c(-c5cc(S(=O)(=O)[O-])ccc5F)c5nc(c(-c6cc(S(=O)(=O)[O-])ccc6F)c6ccc3[nH]6)C=C5)C=C4)cc2)C1)c1cccs1
REMARK SMILES IDX 20 1 19 2 18 3 17 4 16 5 15 6 13 7 14 8 12 9 11 10 7 11 8 12
REMARK SMILES IDX 93 13 9 14 10 15 5 16 4 17 6 19 3 20 2 21 1 22 94 23 95 24
REMARK SMILES IDX 98 25 96 26 97 27 21 28 22 29 23 30 24 31 25 32 26 33 27 34
REMARK SMILES IDX 28 35 29 36 30 37 31 38 92 39 32 40 91 41 33 42 34 43 35 44
REMARK SMILES IDX 85 45 36 46 90 47 84 48 86 49 37 50 89 51 83 52 82 53 38 55
REMARK SMILES IDX 70 56 50 57 69 58 51 59 54 60 68 61 87 62 52 63 53 64 67 66
REMARK SMILES IDX 88 67 55 68 39 69 40 70 48 71 41 72 47 73 49 74 46 75 42 76
REMARK SMILES IDX 43 77 44 78 45 79 71 80 72 81 80 82 73 83 79 84 81 85 78 86
REMARK SMILES IDX 74 87 75 88 76 89 77 90 56 91 57 92 65 93 58 94 64 95 66 96
REMARK SMILES IDX 63 97 59 98 60 99 61 100 62 101
REMARK H PARENT 4 18 86 54 54 65
REMARK Flexibility Score: inf
ROOT
ATOM      1  C   UNL A   1      50.585  21.056  36.776  1.00  0.00     0.188 C 
ENDROOT
BRANCH   1   2
ATOM      2  C   UNL A   1      50.396  19.717  37.494  1.00  0.00     0.188 C 
BRANCH   2   3
ATOM      3  O   UNL A   1      49.096  19.379  37.915  1.00  0.00    -0.376 OA
BRANCH   3   4
ATOM      4  C   UNL A   1      48.212  20.339  38.473  1.00  0.00     0.202 C 
BRANCH   4   5
ATOM      5  C   UNL A   1      48.028  20.642  39.972  1.00  0.00     0.261 C 
BRANCH   5   6
ATOM      6  O   UNL A   1      49.130  20.377  40.845  1.00  0.00    -0.463 OA
BRANCH   6   7
ATOM      7  C   UNL A   1      48.935  19.378  41.730  1.00  0.00     0.308 C 
ATOM      8  O   UNL A   1      49.048  19.498  42.948  1.00  0.00    -0.252 OA
BRANCH   7   9
ATOM      9  C   UNL A   1      48.554  18.059  41.130  1.00  0.00     0.156 C 
BRANCH   9  10
ATOM     10  C   UNL A   1      47.212  17.384  41.380  1.00  0.00     0.149 C 
ATOM     11  N   UNL A   1      44.830  17.513  42.018  1.00  0.00    -0.320 N 
ATOM     12  C   UNL A   1      44.488  17.334  40.625  1.00  0.00     0.150 C 
ATOM     13  C   UNL A   1      46.132  18.201  42.142  1.00  0.00     0.154 C 
ATOM     14  C   UNL A   1      45.506  16.398  40.002  1.00  0.00     0.182 C 
ATOM     15  O   UNL A   1      46.785  17.040  40.022  1.00  0.00    -0.374 OA
BRANCH  11  16
ATOM     16  C   UNL A   1      44.038  17.263  43.103  1.00  0.00     0.318 C 
ATOM     17  N   UNL A   1      43.494  16.036  43.346  1.00  0.00    -0.330 N 
ATOM     18  H   UNL A   1      42.563  16.069  43.665  1.00  0.00     0.166 HD
ATOM     19  O   UNL A   1      43.760  18.146  43.916  1.00  0.00    -0.249 OA
BRANCH  17  20
ATOM     20  C   UNL A   1      44.037  14.671  43.220  1.00  0.00     0.124 C 
BRANCH  20  21
ATOM     21  C   UNL A   1      45.053  14.301  44.339  1.00  0.00     0.027 C 
ATOM     22  C   UNL A   1      46.489  14.731  44.123  1.00  0.00     0.006 C 
ENDBRANCH  20  21
BRANCH  20  23
ATOM     23  C   UNL A   1      42.926  13.649  43.317  1.00  0.00     0.027 A 
ATOM     24  C   UNL A   1      41.637  13.720  42.812  1.00  0.00     0.017 A 
ATOM     25  S   UNL A   1      43.178  12.166  44.149  1.00  0.00    -0.147 S 
ATOM     26  C   UNL A   1      40.977  12.459  42.864  1.00  0.00     0.012 A 
ATOM     27  C   UNL A   1      41.724  11.513  43.528  1.00  0.00     0.065 A 
ENDBRANCH  20  23
ENDBRANCH  17  20
ENDBRANCH  11  16
ENDBRANCH   9  10
ENDBRANCH   7   9
ENDBRANCH   6   7
ENDBRANCH   5   6
ENDBRANCH   4   5
ENDBRANCH   3   4
ENDBRANCH   2   3
ENDBRANCH   1   2
BRANCH   1  28
ATOM     28  O   UNL A   1      51.025  21.038  35.435  1.00  0.00    -0.377 OA
BRANCH  28  29
ATOM     29  C   UNL A   1      50.083  21.022  34.363  1.00  0.00     0.188 C 
BRANCH  29  30
ATOM     30  C   UNL A   1      48.718  21.731  34.492  1.00  0.00     0.188 C 
BRANCH  30  31
ATOM     31  O   UNL A   1      47.655  20.911  34.943  1.00  0.00    -0.376 OA
BRANCH  31  32
ATOM     32  C   UNL A   1      46.337  21.435  34.888  1.00  0.00     0.202 C 
BRANCH  32  33
ATOM     33  C   UNL A   1      45.672  21.832  36.212  1.00  0.00     0.261 C 
BRANCH  33  34
ATOM     34  O   UNL A   1      46.384  22.776  37.030  1.00  0.00    -0.460 OA
BRANCH  34  35
ATOM     35  C   UNL A   1      45.691  23.509  37.926  1.00  0.00     0.338 C 
ATOM     36  O   UNL A   1      45.514  23.250  39.105  1.00  0.00    -0.246 OA
BRANCH  35  37
ATOM     37  C   UNL A   1      45.318  24.779  37.271  1.00  0.00     0.060 A 
ATOM     38  C   UNL A   1      43.967  25.122  37.141  1.00  0.00     0.016 A 
ATOM     39  C   UNL A   1      46.310  25.629  36.785  1.00  0.00     0.016 A 
ATOM     40  C   UNL A   1      43.607  26.317  36.511  1.00  0.00     0.010 A 
ATOM     41  C   UNL A   1      45.952  26.817  36.147  1.00  0.00     0.010 A 
ATOM     42  C   UNL A   1      44.597  27.154  35.983  1.00  0.00    -0.014 A 
BRANCH  42  43
ATOM     43  C   UNL A   1      44.233  28.291  35.100  1.00  0.00     0.031 A 
ATOM     44  C   UNL A   1      44.130  28.039  33.621  1.00  0.00     0.074 A 
ATOM     45  C   UNL A   1      44.009  29.520  35.596  1.00  0.00     0.049 A 
ATOM     46  N   UNL A   1      43.938  28.884  32.642  1.00  0.00    -0.248 NA
ATOM     47  C   UNL A   1      44.274  26.639  33.193  1.00  0.00     0.031 C 
ATOM     48  C   UNL A   1      44.026  29.875  37.013  1.00  0.00     0.029 A 
ATOM     49  N   UNL A   1      43.736  30.703  34.954  1.00  0.00    -0.354 N 
ATOM     50  C   UNL A   1      43.950  28.121  31.478  1.00  0.00     0.074 A 
ATOM     51  C   UNL A   1      44.207  26.753  31.876  1.00  0.00     0.031 C 
ATOM     52  C   UNL A   1      43.773  31.190  37.134  1.00  0.00     0.029 A 
ATOM     53  C   UNL A   1      43.636  31.781  35.803  1.00  0.00     0.049 A 
ATOM     54  H   UNL A   1      43.620  30.773  33.979  1.00  0.00     0.167 HD
ATOM     55  C   UNL A   1      43.759  28.526  30.199  1.00  0.00     0.034 A 
ATOM     56  C   UNL A   1      43.490  33.095  35.530  1.00  0.00     0.034 A 
ATOM     57  C   UNL A   1      43.523  29.898  29.821  1.00  0.00     0.049 A 
ATOM     58  C   UNL A   1      43.408  33.540  34.088  1.00  0.00     0.074 A 
ATOM     59  C   UNL A   1      43.304  30.419  28.558  1.00  0.00     0.029 A 
ATOM     60  N   UNL A   1      43.497  30.973  30.702  1.00  0.00    -0.354 N 
ATOM     61  N   UNL A   1      43.417  32.814  32.993  1.00  0.00    -0.248 NA
ATOM     62  C   UNL A   1      43.301  34.985  33.845  1.00  0.00     0.031 C 
ATOM     63  C   UNL A   1      43.237  31.812  28.664  1.00  0.00     0.029 A 
ATOM     64  C   UNL A   1      43.314  32.157  30.004  1.00  0.00     0.049 A 
ATOM     65  H   UNL A   1      43.594  30.903  31.679  1.00  0.00     0.167 HD
ATOM     66  C   UNL A   1      43.277  33.714  31.937  1.00  0.00     0.074 A 
ATOM     67  C   UNL A   1      43.177  35.032  32.526  1.00  0.00     0.031 C 
ATOM     68  C   UNL A   1      43.226  33.470  30.602  1.00  0.00     0.034 A 
BRANCH  55  69
ATOM     69  C   UNL A   1      43.868  27.476  29.117  1.00  0.00     0.023 A 
ATOM     70  C   UNL A   1      45.051  27.291  28.380  1.00  0.00     0.031 A 
ATOM     71  C   UNL A   1      42.756  26.681  28.785  1.00  0.00     0.131 A 
ATOM     72  C   UNL A   1      45.067  26.402  27.294  1.00  0.00     0.055 A 
ATOM     73  C   UNL A   1      42.809  25.731  27.765  1.00  0.00     0.041 A 
ATOM     74  F   UNL A   1      41.591  26.830  29.434  1.00  0.00    -0.206 F 
ATOM     75  C   UNL A   1      43.963  25.600  26.999  1.00  0.00     0.022 A 
BRANCH  72  76
ATOM     76  S   UNL A   1      46.489  26.439  26.167  1.00  0.00     0.124 S 
ATOM     77  O   UNL A   1      47.010  27.784  26.395  1.00  0.00    -0.237 OA
ATOM     78  O   UNL A   1      47.312  25.341  26.662  1.00  0.00    -0.237 OA
ATOM     79  O   UNL A   1      45.888  26.226  24.852  1.00  0.00    -0.744 OA
ENDBRANCH  72  76
ENDBRANCH  55  69
BRANCH  56  80
ATOM     80  C   UNL A   1      43.454  34.100  36.633  1.00  0.00     0.023 A 
ATOM     81  C   UNL A   1      42.232  34.576  37.134  1.00  0.00     0.031 A 
ATOM     82  C   UNL A   1      44.638  34.650  37.158  1.00  0.00     0.131 A 
ATOM     83  C   UNL A   1      42.218  35.602  38.092  1.00  0.00     0.055 A 
ATOM     84  C   UNL A   1      44.620  35.626  38.155  1.00  0.00     0.041 A 
ATOM     85  F   UNL A   1      45.835  34.243  36.706  1.00  0.00    -0.206 F 
ATOM     86  C   UNL A   1      43.404  36.118  38.619  1.00  0.00     0.022 A 
BRANCH  83  87
ATOM     87  S   UNL A   1      40.624  36.326  38.566  1.00  0.00     0.124 S 
ATOM     88  O   UNL A   1      39.955  36.440  37.275  1.00  0.00    -0.237 OA
ATOM     89  O   UNL A   1      40.093  35.318  39.479  1.00  0.00    -0.237 OA
ATOM     90  O   UNL A   1      40.999  37.593  39.191  1.00  0.00    -0.744 OA
ENDBRANCH  83  87
ENDBRANCH  56  80
BRANCH  68  91
ATOM     91  C   UNL A   1      43.000  34.652  29.687  1.00  0.00     0.023 A 
ATOM     92  C   UNL A   1      44.038  35.532  29.333  1.00  0.00     0.031 A 
ATOM     93  C   UNL A   1      41.721  34.893  29.151  1.00  0.00     0.131 A 
ATOM     94  C   UNL A   1      43.769  36.636  28.509  1.00  0.00     0.055 A 
ATOM     95  C   UNL A   1      41.474  35.953  28.278  1.00  0.00     0.041 A 
ATOM     96  F   UNL A   1      40.689  34.089  29.457  1.00  0.00    -0.206 F 
ATOM     97  C   UNL A   1      42.499  36.840  27.961  1.00  0.00     0.022 A 
BRANCH  94  98
ATOM     98  S   UNL A   1      45.081  37.857  28.228  1.00  0.00     0.124 S 
ATOM     99  O   UNL A   1      46.163  37.334  29.054  1.00  0.00    -0.237 OA
ATOM    100  O   UNL A   1      45.283  37.775  26.785  1.00  0.00    -0.237 OA
ATOM    101  O   UNL A   1      44.492  39.109  28.699  1.00  0.00    -0.744 OA
ENDBRANCH  94  98
ENDBRANCH  68  91
ENDBRANCH  42  43
ENDBRANCH  35  37
ENDBRANCH  34  35
ENDBRANCH  33  34
ENDBRANCH  32  33
ENDBRANCH  31  32
ENDBRANCH  30  31
ENDBRANCH  29  30
ENDBRANCH  28  29
ENDBRANCH   1  28
TORSDOF 28
ENDMDL
