MODEL 1
REMARK VINA RESULT:      -8.6      0.000      0.000
REMARK SMILES CSCc1ccc(C(=O)N2C[C@@H](O)C[C@@H]2C(=O)OCCOCCOCCOCCOC(=O)c2ccc(-c3c4nc(c(-c5cc(S(=O)(=O)[O-])ccc5F)c5ccc([nH]5)c(-c5cc(S(=O)(=O)[O-])ccc5F)c5nc(c(-c6cc(S(=O)(=O)[O-])ccc6F)c6ccc3[nH]6)C=C5)C=C4)cc2)o1
REMARK SMILES IDX 23 1 22 2 21 3 20 4 19 5 18 6 16 7 17 8 15 9 10 10 11 11
REMARK SMILES IDX 12 12 14 13 8 14 9 15 7 16 4 17 5 18 96 19 6 20 3 21 2 22
REMARK SMILES IDX 1 23 13 24 24 26 25 27 26 28 27 29 28 30 29 31 30 32 31 33
REMARK SMILES IDX 32 34 33 35 34 36 95 37 35 38 94 39 36 40 37 41 38 42 88 43
REMARK SMILES IDX 39 44 93 45 87 46 89 47 40 48 92 49 86 50 85 51 41 53 73 54
REMARK SMILES IDX 53 55 72 56 54 57 57 58 71 59 90 60 55 61 56 62 70 64 91 65
REMARK SMILES IDX 58 66 42 67 43 68 51 69 44 70 50 71 52 72 49 73 45 74 46 75
REMARK SMILES IDX 47 76 48 77 74 78 75 79 83 80 76 81 82 82 84 83 81 84 77 85
REMARK SMILES IDX 78 86 79 87 80 88 59 89 60 90 68 91 61 92 67 93 69 94 66 95
REMARK SMILES IDX 62 96 63 97 64 98 65 99
REMARK H PARENT 13 25 89 52 57 63
REMARK Flexibility Score: inf
ROOT
ATOM      1  C   UNL A   1      44.940  41.476  25.673  1.00  0.00     0.188 C 
ENDROOT
BRANCH   1   2
ATOM      2  C   UNL A   1      44.395  42.901  25.415  1.00  0.00     0.188 C 
BRANCH   2   3
ATOM      3  O   UNL A   1      45.397  43.878  25.201  1.00  0.00    -0.376 OA
BRANCH   3   4
ATOM      4  C   UNL A   1      45.442  44.491  23.927  1.00  0.00     0.202 C 
BRANCH   4   5
ATOM      5  C   UNL A   1      44.198  44.346  23.039  1.00  0.00     0.261 C 
BRANCH   5   6
ATOM      6  O   UNL A   1      44.370  43.629  21.801  1.00  0.00    -0.462 OA
BRANCH   6   7
ATOM      7  C   UNL A   1      45.569  43.684  21.166  1.00  0.00     0.329 C 
ATOM      8  O   UNL A   1      46.392  42.777  21.142  1.00  0.00    -0.250 OA
BRANCH   7   9
ATOM      9  C   UNL A   1      45.730  45.037  20.438  1.00  0.00     0.198 C 
ATOM     10  N   UNL A   1      45.185  45.008  19.064  1.00  0.00    -0.319 N 
ATOM     11  C   UNL A   1      46.236  45.259  18.104  1.00  0.00     0.152 C 
ATOM     12  C   UNL A   1      47.497  44.821  18.835  1.00  0.00     0.136 C 
ATOM     13  C   UNL A   1      47.224  45.303  20.261  1.00  0.00     0.071 C 
BRANCH  10  14
ATOM     14  C   UNL A   1      43.879  45.355  18.741  1.00  0.00     0.290 C 
ATOM     15  O   UNL A   1      42.963  44.548  18.874  1.00  0.00    -0.265 OA
BRANCH  14  16
ATOM     16  C   UNL A   1      43.733  46.682  18.152  1.00  0.00     0.191 A 
ATOM     17  C   UNL A   1      44.142  48.851  17.959  1.00  0.00     0.114 A 
ATOM     18  C   UNL A   1      43.035  48.591  17.182  1.00  0.00     0.047 A 
ATOM     19  O   UNL A   1      44.587  47.692  18.537  1.00  0.00    -0.455 OA
ATOM     20  C   UNL A   1      42.762  47.214  17.321  1.00  0.00     0.056 A 
BRANCH  17  21
ATOM     21  C   UNL A   1      44.808  50.131  18.321  1.00  0.00     0.144 C 
BRANCH  21  22
ATOM     22  S   UNL A   1      46.537  49.923  18.833  1.00  0.00    -0.157 SA
ATOM     23  C   UNL A   1      47.296  51.146  17.739  1.00  0.00     0.085 C 
ENDBRANCH  21  22
ENDBRANCH  17  21
ENDBRANCH  14  16
ENDBRANCH  10  14
BRANCH  12  24
ATOM     24  O   UNL A   1      48.673  45.391  18.296  1.00  0.00    -0.391 OA
ATOM     25  H   UNL A   1      49.422  45.207  18.886  1.00  0.00     0.211 HD
ENDBRANCH  12  24
ENDBRANCH   7   9
ENDBRANCH   6   7
ENDBRANCH   5   6
ENDBRANCH   4   5
ENDBRANCH   3   4
ENDBRANCH   2   3
ENDBRANCH   1   2
BRANCH   1  26
ATOM     26  O   UNL A   1      44.085  40.425  26.099  1.00  0.00    -0.377 OA
BRANCH  26  27
ATOM     27  C   UNL A   1      42.774  40.736  26.531  1.00  0.00     0.188 C 
BRANCH  27  28
ATOM     28  C   UNL A   1      42.303  40.211  27.903  1.00  0.00     0.188 C 
BRANCH  28  29
ATOM     29  O   UNL A   1      43.290  39.518  28.651  1.00  0.00    -0.376 OA
BRANCH  29  30
ATOM     30  C   UNL A   1      43.691  40.040  29.903  1.00  0.00     0.202 C 
BRANCH  30  31
ATOM     31  C   UNL A   1      44.180  39.069  30.986  1.00  0.00     0.261 C 
BRANCH  31  32
ATOM     32  O   UNL A   1      44.172  37.682  30.637  1.00  0.00    -0.460 OA
BRANCH  32  33
ATOM     33  C   UNL A   1      45.324  37.151  30.178  1.00  0.00     0.338 C 
ATOM     34  O   UNL A   1      46.437  37.651  30.229  1.00  0.00    -0.246 OA
BRANCH  33  35
ATOM     35  C   UNL A   1      45.023  35.758  29.800  1.00  0.00     0.060 A 
ATOM     36  C   UNL A   1      44.775  35.453  28.455  1.00  0.00     0.016 A 
ATOM     37  C   UNL A   1      45.065  34.749  30.765  1.00  0.00     0.016 A 
ATOM     38  C   UNL A   1      44.574  34.130  28.070  1.00  0.00     0.010 A 
ATOM     39  C   UNL A   1      44.819  33.430  30.386  1.00  0.00     0.010 A 
ATOM     40  C   UNL A   1      44.551  33.122  29.042  1.00  0.00    -0.014 A 
BRANCH  40  41
ATOM     41  C   UNL A   1      43.997  31.796  28.690  1.00  0.00     0.031 A 
ATOM     42  C   UNL A   1      42.651  31.440  29.254  1.00  0.00     0.074 A 
ATOM     43  C   UNL A   1      44.654  30.949  27.880  1.00  0.00     0.049 A 
ATOM     44  N   UNL A   1      41.966  30.334  29.140  1.00  0.00    -0.248 NA
ATOM     45  C   UNL A   1      41.991  32.481  30.059  1.00  0.00     0.031 C 
ATOM     46  C   UNL A   1      45.937  31.218  27.235  1.00  0.00     0.029 A 
ATOM     47  N   UNL A   1      44.326  29.683  27.465  1.00  0.00    -0.354 N 
ATOM     48  C   UNL A   1      40.795  30.544  29.862  1.00  0.00     0.074 A 
ATOM     49  C   UNL A   1      40.883  31.867  30.440  1.00  0.00     0.031 C 
ATOM     50  C   UNL A   1      46.295  30.142  26.514  1.00  0.00     0.029 A 
ATOM     51  C   UNL A   1      45.287  29.094  26.677  1.00  0.00     0.049 A 
ATOM     52  H   UNL A   1      43.482  29.238  27.708  1.00  0.00     0.167 HD
ATOM     53  C   UNL A   1      39.741  29.710  30.020  1.00  0.00     0.034 A 
ATOM     54  C   UNL A   1      45.351  27.844  26.175  1.00  0.00     0.034 A 
ATOM     55  C   UNL A   1      39.689  28.384  29.457  1.00  0.00     0.049 A 
ATOM     56  C   UNL A   1      44.211  26.890  26.455  1.00  0.00     0.074 A 
ATOM     57  C   UNL A   1      38.675  27.449  29.550  1.00  0.00     0.029 A 
ATOM     58  N   UNL A   1      40.706  27.798  28.713  1.00  0.00    -0.354 N 
ATOM     59  N   UNL A   1      43.104  27.097  27.132  1.00  0.00    -0.248 NA
ATOM     60  C   UNL A   1      44.328  25.536  25.897  1.00  0.00     0.031 C 
ATOM     61  C   UNL A   1      39.112  26.271  28.935  1.00  0.00     0.029 A 
ATOM     62  C   UNL A   1      40.358  26.499  28.374  1.00  0.00     0.049 A 
ATOM     63  H   UNL A   1      41.549  28.240  28.462  1.00  0.00     0.167 HD
ATOM     64  C   UNL A   1      42.378  25.910  27.050  1.00  0.00     0.074 A 
ATOM     65  C   UNL A   1      43.169  24.998  26.248  1.00  0.00     0.031 C 
ATOM     66  C   UNL A   1      41.166  25.600  27.581  1.00  0.00     0.034 A 
BRANCH  53  67
ATOM     67  C   UNL A   1      38.603  30.193  30.886  1.00  0.00     0.023 A 
ATOM     68  C   UNL A   1      37.470  30.822  30.341  1.00  0.00     0.031 A 
ATOM     69  C   UNL A   1      38.677  30.067  32.285  1.00  0.00     0.131 A 
ATOM     70  C   UNL A   1      36.496  31.368  31.189  1.00  0.00     0.055 A 
ATOM     71  C   UNL A   1      37.661  30.536  33.120  1.00  0.00     0.041 A 
ATOM     72  F   UNL A   1      39.748  29.505  32.865  1.00  0.00    -0.206 F 
ATOM     73  C   UNL A   1      36.570  31.205  32.574  1.00  0.00     0.022 A 
BRANCH  70  74
ATOM     74  S   UNL A   1      35.215  32.432  30.468  1.00  0.00     0.124 S 
ATOM     75  O   UNL A   1      36.013  33.531  29.931  1.00  0.00    -0.237 OA
ATOM     76  O   UNL A   1      34.593  31.554  29.484  1.00  0.00    -0.237 OA
ATOM     77  O   UNL A   1      34.376  32.782  31.613  1.00  0.00    -0.744 OA
ENDBRANCH  70  74
ENDBRANCH  53  67
BRANCH  54  78
ATOM     78  C   UNL A   1      46.543  27.399  25.397  1.00  0.00     0.023 A 
ATOM     79  C   UNL A   1      46.783  27.871  24.096  1.00  0.00     0.031 A 
ATOM     80  C   UNL A   1      47.432  26.443  25.923  1.00  0.00     0.131 A 
ATOM     81  C   UNL A   1      47.856  27.356  23.351  1.00  0.00     0.055 A 
ATOM     82  C   UNL A   1      48.530  25.975  25.198  1.00  0.00     0.041 A 
ATOM     83  F   UNL A   1      47.247  25.950  27.158  1.00  0.00    -0.206 F 
ATOM     84  C   UNL A   1      48.739  26.422  23.898  1.00  0.00     0.022 A 
BRANCH  81  85
ATOM     85  S   UNL A   1      48.028  27.856  21.615  1.00  0.00     0.124 S 
ATOM     86  O   UNL A   1      46.742  28.494  21.361  1.00  0.00    -0.237 OA
ATOM     87  O   UNL A   1      49.186  28.743  21.670  1.00  0.00    -0.237 OA
ATOM     88  O   UNL A   1      48.248  26.592  20.917  1.00  0.00    -0.744 OA
ENDBRANCH  81  85
ENDBRANCH  54  78
BRANCH  66  89
ATOM     89  C   UNL A   1      40.600  24.236  27.264  1.00  0.00     0.023 A 
ATOM     90  C   UNL A   1      39.424  24.073  26.512  1.00  0.00     0.031 A 
ATOM     91  C   UNL A   1      41.254  23.078  27.725  1.00  0.00     0.131 A 
ATOM     92  C   UNL A   1      38.907  22.787  26.293  1.00  0.00     0.055 A 
ATOM     93  C   UNL A   1      40.773  21.799  27.443  1.00  0.00     0.041 A 
ATOM     94  F   UNL A   1      42.380  23.172  28.451  1.00  0.00    -0.206 F 
ATOM     95  C   UNL A   1      39.585  21.648  26.736  1.00  0.00     0.022 A 
BRANCH  92  96
ATOM     96  S   UNL A   1      37.279  22.624  25.510  1.00  0.00     0.124 S 
ATOM     97  O   UNL A   1      36.424  22.308  26.650  1.00  0.00    -0.237 OA
ATOM     98  O   UNL A   1      37.086  23.942  24.914  1.00  0.00    -0.237 OA
ATOM     99  O   UNL A   1      37.465  21.534  24.554  1.00  0.00    -0.744 OA
ENDBRANCH  92  96
ENDBRANCH  66  89
ENDBRANCH  40  41
ENDBRANCH  33  35
ENDBRANCH  32  33
ENDBRANCH  31  32
ENDBRANCH  30  31
ENDBRANCH  29  30
ENDBRANCH  28  29
ENDBRANCH  27  28
ENDBRANCH  26  27
ENDBRANCH   1  26
TORSDOF 28
ENDMDL
MODEL 2
REMARK VINA RESULT:      -8.4      7.461     14.352
REMARK SMILES CSCc1ccc(C(=O)N2C[C@@H](O)C[C@@H]2C(=O)OCCOCCOCCOCCOC(=O)c2ccc(-c3c4nc(c(-c5cc(S(=O)(=O)[O-])ccc5F)c5ccc([nH]5)c(-c5cc(S(=O)(=O)[O-])ccc5F)c5nc(c(-c6cc(S(=O)(=O)[O-])ccc6F)c6ccc3[nH]6)C=C5)C=C4)cc2)o1
REMARK SMILES IDX 23 1 22 2 21 3 20 4 19 5 18 6 16 7 17 8 15 9 10 10 11 11
REMARK SMILES IDX 12 12 14 13 8 14 9 15 7 16 4 17 5 18 96 19 6 20 3 21 2 22
REMARK SMILES IDX 1 23 13 24 24 26 25 27 26 28 27 29 28 30 29 31 30 32 31 33
REMARK SMILES IDX 32 34 33 35 34 36 95 37 35 38 94 39 36 40 37 41 38 42 88 43
REMARK SMILES IDX 39 44 93 45 87 46 89 47 40 48 92 49 86 50 85 51 41 53 73 54
REMARK SMILES IDX 53 55 72 56 54 57 57 58 71 59 90 60 55 61 56 62 70 64 91 65
REMARK SMILES IDX 58 66 42 67 43 68 51 69 44 70 50 71 52 72 49 73 45 74 46 75
REMARK SMILES IDX 47 76 48 77 74 78 75 79 83 80 76 81 82 82 84 83 81 84 77 85
REMARK SMILES IDX 78 86 79 87 80 88 59 89 60 90 68 91 61 92 67 93 69 94 66 95
REMARK SMILES IDX 62 96 63 97 64 98 65 99
REMARK H PARENT 13 25 89 52 57 63
REMARK Flexibility Score: inf
ROOT
ATOM      1  C   UNL A   1      37.152  32.022  30.017  1.00  0.00     0.188 C 
ENDROOT
BRANCH   1   2
ATOM      2  C   UNL A   1      36.365  30.790  29.512  1.00  0.00     0.188 C 
BRANCH   2   3
ATOM      3  O   UNL A   1      35.135  31.101  28.884  1.00  0.00    -0.376 OA
BRANCH   3   4
ATOM      4  C   UNL A   1      34.989  30.732  27.526  1.00  0.00     0.202 C 
BRANCH   4   5
ATOM      5  C   UNL A   1      33.762  29.882  27.164  1.00  0.00     0.261 C 
BRANCH   5   6
ATOM      6  O   UNL A   1      33.050  30.256  25.968  1.00  0.00    -0.462 OA
BRANCH   6   7
ATOM      7  C   UNL A   1      32.843  29.325  25.002  1.00  0.00     0.329 C 
ATOM      8  O   UNL A   1      33.692  28.937  24.209  1.00  0.00    -0.250 OA
BRANCH   7   9
ATOM      9  C   UNL A   1      31.397  28.790  25.073  1.00  0.00     0.198 C 
ATOM     10  N   UNL A   1      31.299  27.369  24.674  1.00  0.00    -0.319 N 
ATOM     11  C   UNL A   1      30.457  27.235  23.506  1.00  0.00     0.152 C 
ATOM     12  C   UNL A   1      30.556  28.599  22.838  1.00  0.00     0.136 C 
ATOM     13  C   UNL A   1      30.562  29.545  24.039  1.00  0.00     0.071 C 
BRANCH  10  14
ATOM     14  C   UNL A   1      31.394  26.307  25.563  1.00  0.00     0.290 C 
ATOM     15  O   UNL A   1      30.559  26.154  26.451  1.00  0.00    -0.265 OA
BRANCH  14  16
ATOM     16  C   UNL A   1      32.595  25.492  25.407  1.00  0.00     0.191 A 
ATOM     17  C   UNL A   1      33.718  23.606  25.105  1.00  0.00     0.114 A 
ATOM     18  C   UNL A   1      34.639  24.552  25.499  1.00  0.00     0.047 A 
ATOM     19  O   UNL A   1      32.474  24.174  25.026  1.00  0.00    -0.455 OA
ATOM     20  C   UNL A   1      33.921  25.747  25.711  1.00  0.00     0.056 A 
BRANCH  17  21
ATOM     21  C   UNL A   1      33.851  22.142  24.876  1.00  0.00     0.144 C 
BRANCH  21  22
ATOM     22  S   UNL A   1      32.309  21.226  25.162  1.00  0.00    -0.157 SA
ATOM     23  C   UNL A   1      32.440  20.040  23.803  1.00  0.00     0.085 C 
ENDBRANCH  21  22
ENDBRANCH  17  21
ENDBRANCH  14  16
ENDBRANCH  10  14
BRANCH  12  24
ATOM     24  O   UNL A   1      29.482  28.862  21.957  1.00  0.00    -0.391 OA
ATOM     25  H   UNL A   1      29.350  28.100  21.371  1.00  0.00     0.211 HD
ENDBRANCH  12  24
ENDBRANCH   7   9
ENDBRANCH   6   7
ENDBRANCH   5   6
ENDBRANCH   4   5
ENDBRANCH   3   4
ENDBRANCH   2   3
ENDBRANCH   1   2
BRANCH   1  26
ATOM     26  O   UNL A   1      36.537  33.008  30.832  1.00  0.00    -0.377 OA
BRANCH  26  27
ATOM     27  C   UNL A   1      35.710  32.596  31.904  1.00  0.00     0.188 C 
BRANCH  27  28
ATOM     28  C   UNL A   1      36.347  31.819  33.075  1.00  0.00     0.188 C 
BRANCH  28  29
ATOM     29  O   UNL A   1      37.487  32.435  33.653  1.00  0.00    -0.376 OA
BRANCH  29  30
ATOM     30  C   UNL A   1      37.485  33.837  33.840  1.00  0.00     0.202 C 
BRANCH  30  31
ATOM     31  C   UNL A   1      38.678  34.652  33.325  1.00  0.00     0.261 C 
BRANCH  31  32
ATOM     32  O   UNL A   1      39.738  33.903  32.723  1.00  0.00    -0.460 OA
BRANCH  32  33
ATOM     33  C   UNL A   1      40.866  33.736  33.444  1.00  0.00     0.338 C 
ATOM     34  O   UNL A   1      41.029  33.995  34.627  1.00  0.00    -0.246 OA
BRANCH  33  35
ATOM     35  C   UNL A   1      41.799  32.976  32.592  1.00  0.00     0.060 A 
ATOM     36  C   UNL A   1      42.836  32.251  33.193  1.00  0.00     0.016 A 
ATOM     37  C   UNL A   1      41.594  32.919  31.211  1.00  0.00     0.016 A 
ATOM     38  C   UNL A   1      43.673  31.460  32.411  1.00  0.00     0.010 A 
ATOM     39  C   UNL A   1      42.460  32.163  30.423  1.00  0.00     0.010 A 
ATOM     40  C   UNL A   1      43.515  31.450  31.019  1.00  0.00    -0.014 A 
BRANCH  40  41
ATOM     41  C   UNL A   1      44.600  30.904  30.175  1.00  0.00     0.031 A 
ATOM     42  C   UNL A   1      44.516  29.451  29.799  1.00  0.00     0.074 A 
ATOM     43  C   UNL A   1      45.610  31.674  29.737  1.00  0.00     0.049 A 
ATOM     44  N   UNL A   1      45.351  28.718  29.114  1.00  0.00    -0.248 NA
ATOM     45  C   UNL A   1      43.321  28.730  30.268  1.00  0.00     0.031 C 
ATOM     46  C   UNL A   1      45.757  33.105  29.996  1.00  0.00     0.029 A 
ATOM     47  N   UNL A   1      46.709  31.353  28.981  1.00  0.00    -0.354 N 
ATOM     48  C   UNL A   1      44.784  27.449  29.070  1.00  0.00     0.074 A 
ATOM     49  C   UNL A   1      43.556  27.504  29.832  1.00  0.00     0.031 C 
ATOM     50  C   UNL A   1      46.890  33.537  29.417  1.00  0.00     0.029 A 
ATOM     51  C   UNL A   1      47.569  32.407  28.782  1.00  0.00     0.049 A 
ATOM     52  H   UNL A   1      46.867  30.452  28.616  1.00  0.00     0.167 HD
ATOM     53  C   UNL A   1      45.246  26.341  28.444  1.00  0.00     0.034 A 
ATOM     54  C   UNL A   1      48.776  32.440  28.181  1.00  0.00     0.034 A 
ATOM     55  C   UNL A   1      46.489  26.302  27.715  1.00  0.00     0.049 A 
ATOM     56  C   UNL A   1      49.324  31.164  27.583  1.00  0.00     0.074 A 
ATOM     57  C   UNL A   1      47.059  25.238  27.041  1.00  0.00     0.029 A 
ATOM     58  N   UNL A   1      47.364  27.374  27.582  1.00  0.00    -0.354 N 
ATOM     59  N   UNL A   1      48.781  29.968  27.538  1.00  0.00    -0.248 NA
ATOM     60  C   UNL A   1      50.647  31.245  26.947  1.00  0.00     0.031 C 
ATOM     61  C   UNL A   1      48.314  25.642  26.573  1.00  0.00     0.029 A 
ATOM     62  C   UNL A   1      48.488  26.984  26.871  1.00  0.00     0.049 A 
ATOM     63  H   UNL A   1      47.208  28.277  27.941  1.00  0.00     0.167 HD
ATOM     64  C   UNL A   1      49.681  29.165  26.839  1.00  0.00     0.074 A 
ATOM     65  C   UNL A   1      50.794  30.017  26.472  1.00  0.00     0.031 C 
ATOM     66  C   UNL A   1      49.595  27.846  26.522  1.00  0.00     0.034 A 
BRANCH  53  67
ATOM     67  C   UNL A   1      44.431  25.078  28.587  1.00  0.00     0.023 A 
ATOM     68  C   UNL A   1      43.481  24.695  27.623  1.00  0.00     0.031 A 
ATOM     69  C   UNL A   1      44.571  24.272  29.730  1.00  0.00     0.131 A 
ATOM     70  C   UNL A   1      42.657  23.584  27.856  1.00  0.00     0.055 A 
ATOM     71  C   UNL A   1      43.807  23.117  29.914  1.00  0.00     0.041 A 
ATOM     72  F   UNL A   1      45.438  24.603  30.699  1.00  0.00    -0.206 F 
ATOM     73  C   UNL A   1      42.832  22.777  28.982  1.00  0.00     0.022 A 
BRANCH  70  74
ATOM     74  S   UNL A   1      41.248  23.302  26.747  1.00  0.00     0.124 S 
ATOM     75  O   UNL A   1      41.810  22.346  25.796  1.00  0.00    -0.237 OA
ATOM     76  O   UNL A   1      40.233  22.779  27.654  1.00  0.00    -0.237 OA
ATOM     77  O   UNL A   1      40.974  24.628  26.198  1.00  0.00    -0.744 OA
ENDBRANCH  70  74
ENDBRANCH  53  67
BRANCH  54  78
ATOM     78  C   UNL A   1      49.573  33.701  28.147  1.00  0.00     0.023 A 
ATOM     79  C   UNL A   1      49.444  34.617  27.090  1.00  0.00     0.031 A 
ATOM     80  C   UNL A   1      50.523  33.980  29.146  1.00  0.00     0.131 A 
ATOM     81  C   UNL A   1      50.281  35.743  27.033  1.00  0.00     0.055 A 
ATOM     82  C   UNL A   1      51.314  35.131  29.114  1.00  0.00     0.041 A 
ATOM     83  F   UNL A   1      50.695  33.137  30.176  1.00  0.00    -0.206 F 
ATOM     84  C   UNL A   1      51.204  36.013  28.045  1.00  0.00     0.022 A 
BRANCH  81  85
ATOM     85  S   UNL A   1      50.209  36.806  25.564  1.00  0.00     0.124 S 
ATOM     86  O   UNL A   1      49.182  37.768  25.944  1.00  0.00    -0.237 OA
ATOM     87  O   UNL A   1      51.575  37.317  25.495  1.00  0.00    -0.237 OA
ATOM     88  O   UNL A   1      49.837  35.883  24.494  1.00  0.00    -0.744 OA
ENDBRANCH  81  85
ENDBRANCH  54  78
BRANCH  66  89
ATOM     89  C   UNL A   1      50.712  27.260  25.692  1.00  0.00     0.023 A 
ATOM     90  C   UNL A   1      50.875  27.576  24.333  1.00  0.00     0.031 A 
ATOM     91  C   UNL A   1      51.631  26.369  26.277  1.00  0.00     0.131 A 
ATOM     92  C   UNL A   1      51.895  26.961  23.589  1.00  0.00     0.055 A 
ATOM     93  C   UNL A   1      52.685  25.815  25.551  1.00  0.00     0.041 A 
ATOM     94  F   UNL A   1      51.523  26.028  27.572  1.00  0.00    -0.206 F 
ATOM     95  C   UNL A   1      52.813  26.099  24.195  1.00  0.00     0.022 A 
BRANCH  92  96
ATOM     96  S   UNL A   1      51.943  27.221  21.795  1.00  0.00     0.124 S 
ATOM     97  O   UNL A   1      52.539  25.974  21.324  1.00  0.00    -0.237 OA
ATOM     98  O   UNL A   1      50.534  27.417  21.470  1.00  0.00    -0.237 OA
ATOM     99  O   UNL A   1      52.784  28.407  21.642  1.00  0.00    -0.744 OA
ENDBRANCH  92  96
ENDBRANCH  66  89
ENDBRANCH  40  41
ENDBRANCH  33  35
ENDBRANCH  32  33
ENDBRANCH  31  32
ENDBRANCH  30  31
ENDBRANCH  29  30
ENDBRANCH  28  29
ENDBRANCH  27  28
ENDBRANCH  26  27
ENDBRANCH   1  26
TORSDOF 28
ENDMDL
MODEL 3
REMARK VINA RESULT:      -8.3     12.375     17.540
REMARK SMILES CSCc1ccc(C(=O)N2C[C@@H](O)C[C@@H]2C(=O)OCCOCCOCCOCCOC(=O)c2ccc(-c3c4nc(c(-c5cc(S(=O)(=O)[O-])ccc5F)c5ccc([nH]5)c(-c5cc(S(=O)(=O)[O-])ccc5F)c5nc(c(-c6cc(S(=O)(=O)[O-])ccc6F)c6ccc3[nH]6)C=C5)C=C4)cc2)o1
REMARK SMILES IDX 23 1 22 2 21 3 20 4 19 5 18 6 16 7 17 8 15 9 10 10 11 11
REMARK SMILES IDX 12 12 14 13 8 14 9 15 7 16 4 17 5 18 96 19 6 20 3 21 2 22
REMARK SMILES IDX 1 23 13 24 24 26 25 27 26 28 27 29 28 30 29 31 30 32 31 33
REMARK SMILES IDX 32 34 33 35 34 36 95 37 35 38 94 39 36 40 37 41 38 42 88 43
REMARK SMILES IDX 39 44 93 45 87 46 89 47 40 48 92 49 86 50 85 51 41 53 73 54
REMARK SMILES IDX 53 55 72 56 54 57 57 58 71 59 90 60 55 61 56 62 70 64 91 65
REMARK SMILES IDX 58 66 42 67 43 68 51 69 44 70 50 71 52 72 49 73 45 74 46 75
REMARK SMILES IDX 47 76 48 77 74 78 75 79 83 80 76 81 82 82 84 83 81 84 77 85
REMARK SMILES IDX 78 86 79 87 80 88 59 89 60 90 68 91 61 92 67 93 69 94 66 95
REMARK SMILES IDX 62 96 63 97 64 98 65 99
REMARK H PARENT 13 25 89 52 57 63
REMARK Flexibility Score: inf
ROOT
ATOM      1  C   UNL A   1      56.948  25.413  30.639  1.00  0.00     0.188 C 
ENDROOT
BRANCH   1   2
ATOM      2  C   UNL A   1      55.403  25.448  30.717  1.00  0.00     0.188 C 
BRANCH   2   3
ATOM      3  O   UNL A   1      54.886  25.434  32.035  1.00  0.00    -0.376 OA
BRANCH   3   4
ATOM      4  C   UNL A   1      54.868  24.192  32.711  1.00  0.00     0.202 C 
BRANCH   4   5
ATOM      5  C   UNL A   1      53.653  23.285  32.469  1.00  0.00     0.261 C 
BRANCH   5   6
ATOM      6  O   UNL A   1      52.954  22.817  33.639  1.00  0.00    -0.462 OA
BRANCH   6   7
ATOM      7  C   UNL A   1      52.416  21.570  33.634  1.00  0.00     0.329 C 
ATOM      8  O   UNL A   1      52.686  20.693  32.823  1.00  0.00    -0.250 OA
BRANCH   7   9
ATOM      9  C   UNL A   1      51.449  21.398  34.825  1.00  0.00     0.198 C 
ATOM     10  N   UNL A   1      50.773  22.662  35.192  1.00  0.00    -0.319 N 
ATOM     11  C   UNL A   1      51.121  23.040  36.543  1.00  0.00     0.152 C 
ATOM     12  C   UNL A   1      52.467  22.366  36.766  1.00  0.00     0.136 C 
ATOM     13  C   UNL A   1      52.275  21.026  36.056  1.00  0.00     0.071 C 
BRANCH  10  14
ATOM     14  C   UNL A   1      49.550  23.065  34.672  1.00  0.00     0.290 C 
ATOM     15  O   UNL A   1      49.488  23.646  33.590  1.00  0.00    -0.265 OA
BRANCH  14  16
ATOM     16  C   UNL A   1      48.411  22.838  35.554  1.00  0.00     0.191 A 
ATOM     17  C   UNL A   1      47.115  23.239  37.306  1.00  0.00     0.114 A 
ATOM     18  C   UNL A   1      46.740  22.008  36.816  1.00  0.00     0.047 A 
ATOM     19  O   UNL A   1      48.117  23.762  36.533  1.00  0.00    -0.455 OA
ATOM     20  C   UNL A   1      47.578  21.743  35.713  1.00  0.00     0.056 A 
BRANCH  17  21
ATOM     21  C   UNL A   1      46.696  23.978  38.527  1.00  0.00     0.144 C 
BRANCH  21  22
ATOM     22  S   UNL A   1      46.847  25.780  38.366  1.00  0.00    -0.157 SA
ATOM     23  C   UNL A   1      45.130  26.163  37.948  1.00  0.00     0.085 C 
ENDBRANCH  21  22
ENDBRANCH  17  21
ENDBRANCH  14  16
ENDBRANCH  10  14
BRANCH  12  24
ATOM     24  O   UNL A   1      52.783  22.204  38.134  1.00  0.00    -0.391 OA
ATOM     25  H   UNL A   1      52.054  22.543  38.677  1.00  0.00     0.211 HD
ENDBRANCH  12  24
ENDBRANCH   7   9
ENDBRANCH   6   7
ENDBRANCH   5   6
ENDBRANCH   4   5
ENDBRANCH   3   4
ENDBRANCH   2   3
ENDBRANCH   1   2
BRANCH   1  26
ATOM     26  O   UNL A   1      57.638  25.825  29.468  1.00  0.00    -0.377 OA
BRANCH  26  27
ATOM     27  C   UNL A   1      57.102  25.492  28.201  1.00  0.00     0.188 C 
BRANCH  27  28
ATOM     28  C   UNL A   1      57.460  26.377  26.990  1.00  0.00     0.188 C 
BRANCH  28  29
ATOM     29  O   UNL A   1      56.421  26.540  26.037  1.00  0.00    -0.376 OA
BRANCH  29  30
ATOM     30  C   UNL A   1      56.646  27.370  24.915  1.00  0.00     0.202 C 
BRANCH  30  31
ATOM     31  C   UNL A   1      55.573  27.440  23.821  1.00  0.00     0.261 C 
BRANCH  31  32
ATOM     32  O   UNL A   1      54.827  26.241  23.595  1.00  0.00    -0.460 OA
BRANCH  32  33
ATOM     33  C   UNL A   1      53.570  26.371  23.123  1.00  0.00     0.338 C 
ATOM     34  O   UNL A   1      53.215  26.342  21.954  1.00  0.00    -0.246 OA
BRANCH  33  35
ATOM     35  C   UNL A   1      52.676  26.334  24.295  1.00  0.00     0.060 A 
ATOM     36  C   UNL A   1      52.739  25.240  25.168  1.00  0.00     0.016 A 
ATOM     37  C   UNL A   1      51.838  27.418  24.567  1.00  0.00     0.016 A 
ATOM     38  C   UNL A   1      51.964  25.230  26.324  1.00  0.00     0.010 A 
ATOM     39  C   UNL A   1      51.028  27.387  25.702  1.00  0.00     0.010 A 
ATOM     40  C   UNL A   1      51.073  26.283  26.570  1.00  0.00    -0.014 A 
BRANCH  40  41
ATOM     41  C   UNL A   1      50.015  26.108  27.589  1.00  0.00     0.031 A 
ATOM     42  C   UNL A   1      50.319  26.576  28.984  1.00  0.00     0.074 A 
ATOM     43  C   UNL A   1      48.820  25.576  27.283  1.00  0.00     0.049 A 
ATOM     44  N   UNL A   1      49.592  26.499  30.066  1.00  0.00    -0.248 NA
ATOM     45  C   UNL A   1      51.630  27.218  29.180  1.00  0.00     0.031 C 
ATOM     46  C   UNL A   1      48.404  25.142  25.951  1.00  0.00     0.029 A 
ATOM     47  N   UNL A   1      47.737  25.308  28.080  1.00  0.00    -0.354 N 
ATOM     48  C   UNL A   1      50.356  27.080  31.072  1.00  0.00     0.074 A 
ATOM     49  C   UNL A   1      51.617  27.467  30.479  1.00  0.00     0.031 C 
ATOM     50  C   UNL A   1      47.155  24.650  26.026  1.00  0.00     0.029 A 
ATOM     51  C   UNL A   1      46.700  24.697  27.415  1.00  0.00     0.049 A 
ATOM     52  H   UNL A   1      47.704  25.532  29.038  1.00  0.00     0.167 HD
ATOM     53  C   UNL A   1      50.030  27.278  32.371  1.00  0.00     0.034 A 
ATOM     54  C   UNL A   1      45.535  24.208  27.888  1.00  0.00     0.034 A 
ATOM     55  C   UNL A   1      48.778  26.856  32.946  1.00  0.00     0.049 A 
ATOM     56  C   UNL A   1      45.237  24.341  29.364  1.00  0.00     0.074 A 
ATOM     57  C   UNL A   1      48.337  27.001  34.249  1.00  0.00     0.029 A 
ATOM     58  N   UNL A   1      47.774  26.187  32.257  1.00  0.00    -0.354 N 
ATOM     59  N   UNL A   1      45.961  24.898  30.310  1.00  0.00    -0.248 NA
ATOM     60  C   UNL A   1      43.961  23.786  29.836  1.00  0.00     0.031 C 
ATOM     61  C   UNL A   1      47.105  26.348  34.366  1.00  0.00     0.029 A 
ATOM     62  C   UNL A   1      46.731  25.878  33.117  1.00  0.00     0.049 A 
ATOM     63  H   UNL A   1      47.799  25.965  31.298  1.00  0.00     0.167 HD
ATOM     64  C   UNL A   1      45.210  24.790  31.479  1.00  0.00     0.074 A 
ATOM     65  C   UNL A   1      43.974  24.126  31.116  1.00  0.00     0.031 C 
ATOM     66  C   UNL A   1      45.509  25.206  32.739  1.00  0.00     0.034 A 
BRANCH  53  67
ATOM     67  C   UNL A   1      51.074  27.916  33.255  1.00  0.00     0.023 A 
ATOM     68  C   UNL A   1      52.097  27.163  33.858  1.00  0.00     0.031 A 
ATOM     69  C   UNL A   1      51.014  29.291  33.541  1.00  0.00     0.131 A 
ATOM     70  C   UNL A   1      52.969  27.772  34.772  1.00  0.00     0.055 A 
ATOM     71  C   UNL A   1      51.939  29.909  34.384  1.00  0.00     0.041 A 
ATOM     72  F   UNL A   1      50.042  30.056  33.020  1.00  0.00    -0.206 F 
ATOM     73  C   UNL A   1      52.914  29.145  35.019  1.00  0.00     0.022 A 
BRANCH  70  74
ATOM     74  S   UNL A   1      54.071  26.717  35.755  1.00  0.00     0.124 S 
ATOM     75  O   UNL A   1      55.341  26.882  35.051  1.00  0.00    -0.237 OA
ATOM     76  O   UNL A   1      53.991  27.324  37.079  1.00  0.00    -0.237 OA
ATOM     77  O   UNL A   1      53.469  25.390  35.638  1.00  0.00    -0.744 OA
ENDBRANCH  70  74
ENDBRANCH  53  67
BRANCH  54  78
ATOM     78  C   UNL A   1      44.580  23.510  26.978  1.00  0.00     0.023 A 
ATOM     79  C   UNL A   1      44.836  22.210  26.511  1.00  0.00     0.031 A 
ATOM     80  C   UNL A   1      43.422  24.159  26.513  1.00  0.00     0.131 A 
ATOM     81  C   UNL A   1      43.971  21.620  25.575  1.00  0.00     0.055 A 
ATOM     82  C   UNL A   1      42.535  23.545  25.625  1.00  0.00     0.041 A 
ATOM     83  F   UNL A   1      43.131  25.405  26.919  1.00  0.00    -0.206 F 
ATOM     84  C   UNL A   1      42.816  22.273  25.141  1.00  0.00     0.022 A 
BRANCH  81  85
ATOM     85  S   UNL A   1      44.428  20.016  24.861  1.00  0.00     0.124 S 
ATOM     86  O   UNL A   1      43.183  19.268  24.990  1.00  0.00    -0.237 OA
ATOM     87  O   UNL A   1      44.816  20.389  23.504  1.00  0.00    -0.237 OA
ATOM     88  O   UNL A   1      45.522  19.562  25.716  1.00  0.00    -0.744 OA
ENDBRANCH  81  85
ENDBRANCH  54  78
BRANCH  66  89
ATOM     89  C   UNL A   1      44.456  25.002  33.802  1.00  0.00     0.023 A 
ATOM     90  C   UNL A   1      43.587  26.033  34.197  1.00  0.00     0.031 A 
ATOM     91  C   UNL A   1      44.323  23.750  34.430  1.00  0.00     0.131 A 
ATOM     92  C   UNL A   1      42.663  25.811  35.231  1.00  0.00     0.055 A 
ATOM     93  C   UNL A   1      43.356  23.514  35.407  1.00  0.00     0.041 A 
ATOM     94  F   UNL A   1      45.128  22.728  34.095  1.00  0.00    -0.206 F 
ATOM     95  C   UNL A   1      42.528  24.552  35.824  1.00  0.00     0.022 A 
BRANCH  92  96
ATOM     96  S   UNL A   1      41.710  27.217  35.865  1.00  0.00     0.124 S 
ATOM     97  O   UNL A   1      41.034  27.692  34.662  1.00  0.00    -0.237 OA
ATOM     98  O   UNL A   1      40.857  26.589  36.869  1.00  0.00    -0.237 OA
ATOM     99  O   UNL A   1      42.734  28.115  36.396  1.00  0.00    -0.744 OA
ENDBRANCH  92  96
ENDBRANCH  66  89
ENDBRANCH  40  41
ENDBRANCH  33  35
ENDBRANCH  32  33
ENDBRANCH  31  32
ENDBRANCH  30  31
ENDBRANCH  29  30
ENDBRANCH  28  29
ENDBRANCH  27  28
ENDBRANCH  26  27
ENDBRANCH   1  26
TORSDOF 28
ENDMDL
