MODEL 1
REMARK VINA RESULT:      -8.4      0.000      0.000
REMARK SMILES O=C(OCCOCCOCCOCCOC(=O)[C@H]1CC[C@@H](CN2CC(=O)N3CCCC[C@H]3C2=O)O1)c1ccc(-c2c3nc(c(-c4cc(S(=O)(=O)[O-])ccc4F)c4ccc([nH]4)c(-c4cc(S(=O)(=O)[O-])ccc4F)c4nc(c(-c5cc(S(=O)(=O)[O-])ccc5F)c5ccc2[nH]5)C=C4)C=C3)cc1
REMARK SMILES IDX 8 1 7 2 6 3 5 4 4 5 3 6 2 7 1 8 36 9 37 10 98 11 38 12 97 13
REMARK SMILES IDX 39 14 40 15 41 16 91 17 42 18 96 19 90 20 92 21 43 22 95 23
REMARK SMILES IDX 89 24 88 25 44 27 76 28 56 29 75 30 57 31 60 32 74 33 93 34
REMARK SMILES IDX 58 35 59 36 73 38 94 39 61 40 45 41 46 42 54 43 47 44 53 45
REMARK SMILES IDX 55 46 52 47 48 48 49 49 50 50 51 51 77 52 78 53 86 54 79 55
REMARK SMILES IDX 85 56 87 57 84 58 80 59 81 60 82 61 83 62 62 63 63 64 71 65
REMARK SMILES IDX 64 66 70 67 72 68 69 69 65 70 66 71 67 72 68 73 9 74 10 75
REMARK SMILES IDX 11 76 12 77 13 78 14 79 15 80 16 81 17 82 18 83 19 84 35 85
REMARK SMILES IDX 20 86 21 87 22 88 23 89 24 90 33 91 25 92 32 93 34 94 26 95
REMARK SMILES IDX 27 96 31 97 28 98 30 99 29 100
REMARK H PARENT 92 26 60 37
REMARK Flexibility Score: inf
ROOT
ATOM      1  C   UNL A   1      44.069  18.706  25.861  1.00  0.00     0.188 C 
ENDROOT
BRANCH   1   2
ATOM      2  C   UNL A   1      42.566  18.573  26.083  1.00  0.00     0.188 C 
BRANCH   2   3
ATOM      3  O   UNL A   1      42.169  19.469  27.107  1.00  0.00    -0.376 OA
BRANCH   3   4
ATOM      4  C   UNL A   1      41.809  20.800  26.776  1.00  0.00     0.202 C 
BRANCH   4   5
ATOM      5  C   UNL A   1      40.338  21.010  26.461  1.00  0.00     0.261 C 
BRANCH   5   6
ATOM      6  O   UNL A   1      39.746  22.158  27.089  1.00  0.00    -0.460 OA
BRANCH   6   7
ATOM      7  C   UNL A   1      39.336  23.338  26.567  1.00  0.00     0.338 C 
ATOM      8  O   UNL A   1      38.634  23.308  25.557  1.00  0.00    -0.246 OA
BRANCH   7   9
ATOM      9  C   UNL A   1      39.624  24.675  27.157  1.00  0.00     0.060 A 
ATOM     10  C   UNL A   1      40.134  25.779  26.478  1.00  0.00     0.016 A 
ATOM     11  C   UNL A   1      39.232  24.853  28.493  1.00  0.00     0.016 A 
ATOM     12  C   UNL A   1      40.382  26.980  27.119  1.00  0.00     0.010 A 
ATOM     13  C   UNL A   1      39.426  26.076  29.140  1.00  0.00     0.010 A 
ATOM     14  C   UNL A   1      40.058  27.123  28.459  1.00  0.00    -0.014 A 
BRANCH  14  15
ATOM     15  C   UNL A   1      40.616  28.284  29.167  1.00  0.00     0.031 A 
ATOM     16  C   UNL A   1      39.634  29.245  29.768  1.00  0.00     0.074 A 
ATOM     17  C   UNL A   1      41.937  28.365  29.404  1.00  0.00     0.049 A 
ATOM     18  N   UNL A   1      39.840  30.394  30.344  1.00  0.00    -0.248 NA
ATOM     19  C   UNL A   1      38.216  28.844  29.713  1.00  0.00     0.031 C 
ATOM     20  C   UNL A   1      42.928  27.359  29.009  1.00  0.00     0.029 A 
ATOM     21  N   UNL A   1      42.669  29.313  30.063  1.00  0.00    -0.354 N 
ATOM     22  C   UNL A   1      38.578  30.876  30.676  1.00  0.00     0.074 A 
ATOM     23  C   UNL A   1      37.612  29.901  30.228  1.00  0.00     0.031 C 
ATOM     24  C   UNL A   1      44.138  27.739  29.450  1.00  0.00     0.029 A 
ATOM     25  C   UNL A   1      44.020  29.054  30.066  1.00  0.00     0.049 A 
ATOM     26  H   UNL A   1      42.269  30.101  30.493  1.00  0.00     0.167 HD
ATOM     27  C   UNL A   1      38.272  32.040  31.291  1.00  0.00     0.034 A 
ATOM     28  C   UNL A   1      45.040  29.836  30.471  1.00  0.00     0.034 A 
ATOM     29  C   UNL A   1      39.287  32.969  31.714  1.00  0.00     0.049 A 
ATOM     30  C   UNL A   1      44.679  31.188  31.035  1.00  0.00     0.074 A 
ATOM     31  C   UNL A   1      39.141  34.224  32.269  1.00  0.00     0.029 A 
ATOM     32  N   UNL A   1      40.656  32.727  31.619  1.00  0.00    -0.354 N 
ATOM     33  N   UNL A   1      43.486  31.705  31.239  1.00  0.00    -0.248 NA
ATOM     34  C   UNL A   1      45.790  32.066  31.411  1.00  0.00     0.031 C 
ATOM     35  C   UNL A   1      40.420  34.768  32.440  1.00  0.00     0.029 A 
ATOM     36  C   UNL A   1      41.367  33.819  32.079  1.00  0.00     0.049 A 
ATOM     37  H   UNL A   1      41.059  31.898  31.275  1.00  0.00     0.167 HD
ATOM     38  C   UNL A   1      43.703  32.963  31.789  1.00  0.00     0.074 A 
ATOM     39  C   UNL A   1      45.142  33.112  31.903  1.00  0.00     0.031 C 
ATOM     40  C   UNL A   1      42.807  33.914  32.166  1.00  0.00     0.034 A 
BRANCH  27  41
ATOM     41  C   UNL A   1      36.809  32.389  31.408  1.00  0.00     0.023 A 
ATOM     42  C   UNL A   1      36.048  32.826  30.307  1.00  0.00     0.031 A 
ATOM     43  C   UNL A   1      36.194  32.394  32.672  1.00  0.00     0.131 A 
ATOM     44  C   UNL A   1      34.750  33.326  30.507  1.00  0.00     0.055 A 
ATOM     45  C   UNL A   1      34.874  32.811  32.852  1.00  0.00     0.041 A 
ATOM     46  F   UNL A   1      36.880  32.027  33.767  1.00  0.00    -0.206 F 
ATOM     47  C   UNL A   1      34.150  33.298  31.768  1.00  0.00     0.022 A 
BRANCH  44  48
ATOM     48  S   UNL A   1      33.922  34.173  29.131  1.00  0.00     0.124 S 
ATOM     49  O   UNL A   1      32.747  34.734  29.794  1.00  0.00    -0.237 OA
ATOM     50  O   UNL A   1      34.929  35.135  28.698  1.00  0.00    -0.237 OA
ATOM     51  O   UNL A   1      33.640  33.095  28.184  1.00  0.00    -0.744 OA
ENDBRANCH  44  48
ENDBRANCH  27  41
BRANCH  28  52
ATOM     52  C   UNL A   1      46.459  29.414  30.268  1.00  0.00     0.023 A 
ATOM     53  C   UNL A   1      47.203  29.846  29.158  1.00  0.00     0.031 A 
ATOM     54  C   UNL A   1      47.081  28.522  31.162  1.00  0.00     0.131 A 
ATOM     55  C   UNL A   1      48.503  29.354  28.951  1.00  0.00     0.055 A 
ATOM     56  C   UNL A   1      48.395  28.087  30.987  1.00  0.00     0.041 A 
ATOM     57  F   UNL A   1      46.419  28.060  32.236  1.00  0.00    -0.206 F 
ATOM     58  C   UNL A   1      49.111  28.492  29.867  1.00  0.00     0.022 A 
BRANCH  55  59
ATOM     59  S   UNL A   1      49.358  29.770  27.404  1.00  0.00     0.124 S 
ATOM     60  O   UNL A   1      48.250  29.818  26.458  1.00  0.00    -0.237 OA
ATOM     61  O   UNL A   1      49.977  31.050  27.732  1.00  0.00    -0.237 OA
ATOM     62  O   UNL A   1      50.288  28.658  27.218  1.00  0.00    -0.744 OA
ENDBRANCH  55  59
ENDBRANCH  28  52
BRANCH  40  63
ATOM     63  C   UNL A   1      43.377  35.164  32.780  1.00  0.00     0.023 A 
ATOM     64  C   UNL A   1      43.642  36.308  32.010  1.00  0.00     0.031 A 
ATOM     65  C   UNL A   1      43.653  35.206  34.157  1.00  0.00     0.131 A 
ATOM     66  C   UNL A   1      44.228  37.428  32.612  1.00  0.00     0.055 A 
ATOM     67  C   UNL A   1      44.167  36.350  34.765  1.00  0.00     0.041 A 
ATOM     68  F   UNL A   1      43.417  34.137  34.935  1.00  0.00    -0.206 F 
ATOM     69  C   UNL A   1      44.472  37.465  33.988  1.00  0.00     0.022 A 
BRANCH  66  70
ATOM     70  S   UNL A   1      44.766  38.797  31.554  1.00  0.00     0.124 S 
ATOM     71  O   UNL A   1      43.718  39.786  31.786  1.00  0.00    -0.237 OA
ATOM     72  O   UNL A   1      46.079  39.119  32.105  1.00  0.00    -0.237 OA
ATOM     73  O   UNL A   1      44.782  38.210  30.216  1.00  0.00    -0.744 OA
ENDBRANCH  66  70
ENDBRANCH  40  63
ENDBRANCH  14  15
ENDBRANCH   7   9
ENDBRANCH   6   7
ENDBRANCH   5   6
ENDBRANCH   4   5
ENDBRANCH   3   4
ENDBRANCH   2   3
ENDBRANCH   1   2
BRANCH   1  74
ATOM     74  O   UNL A   1      44.514  18.438  24.531  1.00  0.00    -0.377 OA
BRANCH  74  75
ATOM     75  C   UNL A   1      45.486  19.331  23.990  1.00  0.00     0.188 C 
BRANCH  75  76
ATOM     76  C   UNL A   1      45.865  20.625  24.759  1.00  0.00     0.188 C 
BRANCH  76  77
ATOM     77  O   UNL A   1      45.753  21.833  24.021  1.00  0.00    -0.376 OA
BRANCH  77  78
ATOM     78  C   UNL A   1      44.510  22.518  24.138  1.00  0.00     0.202 C 
BRANCH  78  79
ATOM     79  C   UNL A   1      44.616  23.927  24.734  1.00  0.00     0.261 C 
BRANCH  79  80
ATOM     80  O   UNL A   1      44.540  24.045  26.166  1.00  0.00    -0.461 OA
BRANCH  80  81
ATOM     81  C   UNL A   1      45.689  24.162  26.874  1.00  0.00     0.335 C 
ATOM     82  O   UNL A   1      46.513  23.280  27.009  1.00  0.00    -0.249 OA
BRANCH  81  83
ATOM     83  C   UNL A   1      45.906  25.594  27.378  1.00  0.00     0.228 C 
ATOM     84  C   UNL A   1      47.053  25.782  28.346  1.00  0.00     0.047 C 
ATOM     85  O   UNL A   1      46.200  26.458  26.278  1.00  0.00    -0.361 OA
ATOM     86  C   UNL A   1      48.228  25.872  27.403  1.00  0.00     0.037 C 
ATOM     87  C   UNL A   1      47.631  26.529  26.158  1.00  0.00     0.139 C 
BRANCH  87  88
ATOM     88  C   UNL A   1      48.057  25.983  24.778  1.00  0.00     0.152 C 
BRANCH  88  89
ATOM     89  N   UNL A   1      49.168  26.682  24.113  1.00  0.00    -0.329 N 
ATOM     90  C   UNL A   1      50.545  26.367  24.520  1.00  0.00     0.219 C 
ATOM     91  C   UNL A   1      48.965  27.249  22.863  1.00  0.00     0.245 C 
ATOM     92  C   UNL A   1      51.596  27.443  24.192  1.00  0.00     0.242 C 
ATOM     93  C   UNL A   1      50.176  27.962  22.241  1.00  0.00     0.174 C 
ATOM     94  O   UNL A   1      47.896  27.160  22.257  1.00  0.00    -0.272 OA
ATOM     95  O   UNL A   1      52.712  27.447  24.706  1.00  0.00    -0.273 OA
ATOM     96  N   UNL A   1      51.248  28.312  23.162  1.00  0.00    -0.329 N 
ATOM     97  C   UNL A   1      50.794  27.199  21.072  1.00  0.00     0.035 C 
ATOM     98  C   UNL A   1      52.243  29.232  22.622  1.00  0.00     0.120 C 
ATOM     99  C   UNL A   1      51.880  28.061  20.406  1.00  0.00     0.004 C 
ATOM    100  C   UNL A   1      52.914  28.597  21.408  1.00  0.00     0.022 C 
ENDBRANCH  88  89
ENDBRANCH  87  88
ENDBRANCH  81  83
ENDBRANCH  80  81
ENDBRANCH  79  80
ENDBRANCH  78  79
ENDBRANCH  77  78
ENDBRANCH  76  77
ENDBRANCH  75  76
ENDBRANCH  74  75
ENDBRANCH   1  74
TORSDOF 25
ENDMDL
MODEL 2
REMARK VINA RESULT:      -8.2      3.883     11.392
REMARK SMILES O=C(OCCOCCOCCOCCOC(=O)[C@H]1CC[C@@H](CN2CC(=O)N3CCCC[C@H]3C2=O)O1)c1ccc(-c2c3nc(c(-c4cc(S(=O)(=O)[O-])ccc4F)c4ccc([nH]4)c(-c4cc(S(=O)(=O)[O-])ccc4F)c4nc(c(-c5cc(S(=O)(=O)[O-])ccc5F)c5ccc2[nH]5)C=C4)C=C3)cc1
REMARK SMILES IDX 8 1 7 2 6 3 5 4 4 5 3 6 2 7 1 8 36 9 37 10 98 11 38 12 97 13
REMARK SMILES IDX 39 14 40 15 41 16 91 17 42 18 96 19 90 20 92 21 43 22 95 23
REMARK SMILES IDX 89 24 88 25 44 27 76 28 56 29 75 30 57 31 60 32 74 33 93 34
REMARK SMILES IDX 58 35 59 36 73 38 94 39 61 40 45 41 46 42 54 43 47 44 53 45
REMARK SMILES IDX 55 46 52 47 48 48 49 49 50 50 51 51 77 52 78 53 86 54 79 55
REMARK SMILES IDX 85 56 87 57 84 58 80 59 81 60 82 61 83 62 62 63 63 64 71 65
REMARK SMILES IDX 64 66 70 67 72 68 69 69 65 70 66 71 67 72 68 73 9 74 10 75
REMARK SMILES IDX 11 76 12 77 13 78 14 79 15 80 16 81 17 82 18 83 19 84 35 85
REMARK SMILES IDX 20 86 21 87 22 88 23 89 24 90 33 91 25 92 32 93 34 94 26 95
REMARK SMILES IDX 27 96 31 97 28 98 30 99 29 100
REMARK H PARENT 92 26 60 37
REMARK Flexibility Score: inf
ROOT
ATOM      1  C   UNL A   1      33.167  35.296  28.880  1.00  0.00     0.188 C 
ENDROOT
BRANCH   1   2
ATOM      2  C   UNL A   1      34.685  35.198  28.776  1.00  0.00     0.188 C 
BRANCH   2   3
ATOM      3  O   UNL A   1      35.023  34.045  28.023  1.00  0.00    -0.376 OA
BRANCH   3   4
ATOM      4  C   UNL A   1      34.802  32.757  28.574  1.00  0.00     0.202 C 
BRANCH   4   5
ATOM      5  C   UNL A   1      34.195  31.744  27.619  1.00  0.00     0.261 C 
BRANCH   5   6
ATOM      6  O   UNL A   1      34.320  30.375  28.035  1.00  0.00    -0.460 OA
BRANCH   6   7
ATOM      7  C   UNL A   1      35.160  29.398  27.620  1.00  0.00     0.338 C 
ATOM      8  O   UNL A   1      34.706  28.522  26.884  1.00  0.00    -0.246 OA
BRANCH   7   9
ATOM      9  C   UNL A   1      36.613  29.332  27.941  1.00  0.00     0.060 A 
ATOM     10  C   UNL A   1      37.658  29.702  27.099  1.00  0.00     0.016 A 
ATOM     11  C   UNL A   1      36.933  28.970  29.259  1.00  0.00     0.016 A 
ATOM     12  C   UNL A   1      38.983  29.591  27.484  1.00  0.00     0.010 A 
ATOM     13  C   UNL A   1      38.263  28.903  29.681  1.00  0.00     0.010 A 
ATOM     14  C   UNL A   1      39.290  29.162  28.766  1.00  0.00    -0.014 A 
BRANCH  14  15
ATOM     15  C   UNL A   1      40.681  28.764  29.027  1.00  0.00     0.031 A 
ATOM     16  C   UNL A   1      41.518  29.717  29.828  1.00  0.00     0.074 A 
ATOM     17  C   UNL A   1      41.105  27.528  28.709  1.00  0.00     0.049 A 
ATOM     18  N   UNL A   1      42.788  29.674  30.110  1.00  0.00    -0.248 NA
ATOM     19  C   UNL A   1      40.813  30.882  30.394  1.00  0.00     0.031 C 
ATOM     20  C   UNL A   1      40.278  26.483  28.098  1.00  0.00     0.029 A 
ATOM     21  N   UNL A   1      42.320  26.929  28.886  1.00  0.00    -0.354 N 
ATOM     22  C   UNL A   1      43.044  30.828  30.843  1.00  0.00     0.074 A 
ATOM     23  C   UNL A   1      41.803  31.556  30.954  1.00  0.00     0.031 C 
ATOM     24  C   UNL A   1      41.009  25.365  27.968  1.00  0.00     0.029 A 
ATOM     25  C   UNL A   1      42.375  25.647  28.391  1.00  0.00     0.049 A 
ATOM     26  H   UNL A   1      43.082  27.371  29.326  1.00  0.00     0.167 HD
ATOM     27  C   UNL A   1      44.226  31.233  31.361  1.00  0.00     0.034 A 
ATOM     28  C   UNL A   1      43.436  24.829  28.247  1.00  0.00     0.034 A 
ATOM     29  C   UNL A   1      45.429  30.457  31.215  1.00  0.00     0.049 A 
ATOM     30  C   UNL A   1      44.770  25.356  28.714  1.00  0.00     0.074 A 
ATOM     31  C   UNL A   1      46.717  30.767  31.603  1.00  0.00     0.029 A 
ATOM     32  N   UNL A   1      45.479  29.197  30.621  1.00  0.00    -0.354 N 
ATOM     33  N   UNL A   1      45.045  26.502  29.300  1.00  0.00    -0.248 NA
ATOM     34  C   UNL A   1      45.935  24.495  28.495  1.00  0.00     0.031 C 
ATOM     35  C   UNL A   1      47.554  29.728  31.178  1.00  0.00     0.029 A 
ATOM     36  C   UNL A   1      46.779  28.728  30.607  1.00  0.00     0.049 A 
ATOM     37  H   UNL A   1      44.701  28.711  30.265  1.00  0.00     0.167 HD
ATOM     38  C   UNL A   1      46.414  26.491  29.539  1.00  0.00     0.074 A 
ATOM     39  C   UNL A   1      46.900  25.213  29.053  1.00  0.00     0.031 C 
ATOM     40  C   UNL A   1      47.207  27.441  30.104  1.00  0.00     0.034 A 
BRANCH  27  41
ATOM     41  C   UNL A   1      44.261  32.600  31.998  1.00  0.00     0.023 A 
ATOM     42  C   UNL A   1      44.467  33.775  31.249  1.00  0.00     0.031 A 
ATOM     43  C   UNL A   1      44.202  32.718  33.398  1.00  0.00     0.131 A 
ATOM     44  C   UNL A   1      44.691  34.995  31.908  1.00  0.00     0.055 A 
ATOM     45  C   UNL A   1      44.339  33.949  34.043  1.00  0.00     0.041 A 
ATOM     46  F   UNL A   1      44.049  31.630  34.169  1.00  0.00    -0.206 F 
ATOM     47  C   UNL A   1      44.602  35.094  33.299  1.00  0.00     0.022 A 
BRANCH  44  48
ATOM     48  S   UNL A   1      45.268  36.417  30.937  1.00  0.00     0.124 S 
ATOM     49  O   UNL A   1      44.015  37.114  30.659  1.00  0.00    -0.237 OA
ATOM     50  O   UNL A   1      46.177  37.084  31.861  1.00  0.00    -0.237 OA
ATOM     51  O   UNL A   1      45.903  35.802  29.773  1.00  0.00    -0.744 OA
ENDBRANCH  44  48
ENDBRANCH  27  41
BRANCH  28  52
ATOM     52  C   UNL A   1      43.301  23.509  27.560  1.00  0.00     0.023 A 
ATOM     53  C   UNL A   1      44.031  23.205  26.400  1.00  0.00     0.031 A 
ATOM     54  C   UNL A   1      42.391  22.542  28.030  1.00  0.00     0.131 A 
ATOM     55  C   UNL A   1      43.808  21.990  25.729  1.00  0.00     0.055 A 
ATOM     56  C   UNL A   1      42.220  21.310  27.396  1.00  0.00     0.041 A 
ATOM     57  F   UNL A   1      41.651  22.776  29.126  1.00  0.00    -0.206 F 
ATOM     58  C   UNL A   1      42.922  21.034  26.229  1.00  0.00     0.022 A 
BRANCH  55  59
ATOM     59  S   UNL A   1      44.614  21.719  24.125  1.00  0.00     0.124 S 
ATOM     60  O   UNL A   1      43.827  22.578  23.249  1.00  0.00    -0.237 OA
ATOM     61  O   UNL A   1      45.981  22.155  24.393  1.00  0.00    -0.237 OA
ATOM     62  O   UNL A   1      44.452  20.284  23.900  1.00  0.00    -0.744 OA
ENDBRANCH  55  59
ENDBRANCH  28  52
BRANCH  40  63
ATOM     63  C   UNL A   1      48.662  27.091  30.262  1.00  0.00     0.023 A 
ATOM     64  C   UNL A   1      49.126  26.358  31.366  1.00  0.00     0.031 A 
ATOM     65  C   UNL A   1      49.590  27.496  29.289  1.00  0.00     0.131 A 
ATOM     66  C   UNL A   1      50.497  26.107  31.503  1.00  0.00     0.055 A 
ATOM     67  C   UNL A   1      50.943  27.179  29.392  1.00  0.00     0.041 A 
ATOM     68  F   UNL A   1      49.194  28.200  28.215  1.00  0.00    -0.206 F 
ATOM     69  C   UNL A   1      51.405  26.493  30.512  1.00  0.00     0.022 A 
BRANCH  66  70
ATOM     70  S   UNL A   1      51.091  25.362  33.044  1.00  0.00     0.124 S 
ATOM     71  O   UNL A   1      50.752  26.388  34.025  1.00  0.00    -0.237 OA
ATOM     72  O   UNL A   1      50.311  24.130  33.115  1.00  0.00    -0.237 OA
ATOM     73  O   UNL A   1      52.521  25.178  32.806  1.00  0.00    -0.744 OA
ENDBRANCH  66  70
ENDBRANCH  40  63
ENDBRANCH  14  15
ENDBRANCH   7   9
ENDBRANCH   6   7
ENDBRANCH   5   6
ENDBRANCH   4   5
ENDBRANCH   3   4
ENDBRANCH   2   3
ENDBRANCH   1   2
BRANCH   1  74
ATOM     74  O   UNL A   1      32.625  35.007  30.170  1.00  0.00    -0.377 OA
BRANCH  74  75
ATOM     75  C   UNL A   1      33.197  35.703  31.276  1.00  0.00     0.188 C 
BRANCH  75  76
ATOM     76  C   UNL A   1      33.847  34.908  32.441  1.00  0.00     0.188 C 
BRANCH  76  77
ATOM     77  O   UNL A   1      35.265  34.954  32.498  1.00  0.00    -0.376 OA
BRANCH  77  78
ATOM     78  C   UNL A   1      35.938  33.741  32.172  1.00  0.00     0.202 C 
BRANCH  78  79
ATOM     79  C   UNL A   1      36.020  32.732  33.323  1.00  0.00     0.261 C 
BRANCH  79  80
ATOM     80  O   UNL A   1      37.294  32.112  33.569  1.00  0.00    -0.461 OA
BRANCH  80  81
ATOM     81  C   UNL A   1      37.883  32.283  34.777  1.00  0.00     0.335 C 
ATOM     82  O   UNL A   1      37.409  31.926  35.836  1.00  0.00    -0.249 OA
BRANCH  81  83
ATOM     83  C   UNL A   1      39.297  32.863  34.646  1.00  0.00     0.228 C 
ATOM     84  C   UNL A   1      40.074  32.994  35.937  1.00  0.00     0.047 C 
ATOM     85  O   UNL A   1      40.094  32.016  33.814  1.00  0.00    -0.361 OA
ATOM     86  C   UNL A   1      40.601  31.591  36.114  1.00  0.00     0.037 C 
ATOM     87  C   UNL A   1      40.795  31.104  34.677  1.00  0.00     0.139 C 
BRANCH  87  88
ATOM     88  C   UNL A   1      40.378  29.656  34.341  1.00  0.00     0.152 C 
BRANCH  88  89
ATOM     89  N   UNL A   1      41.422  28.628  34.468  1.00  0.00    -0.329 N 
ATOM     90  C   UNL A   1      42.597  28.702  33.586  1.00  0.00     0.219 C 
ATOM     91  C   UNL A   1      41.531  27.910  35.649  1.00  0.00     0.245 C 
ATOM     92  C   UNL A   1      43.368  27.383  33.397  1.00  0.00     0.242 C 
ATOM     93  C   UNL A   1      42.647  26.854  35.697  1.00  0.00     0.174 C 
ATOM     94  O   UNL A   1      40.812  28.123  36.627  1.00  0.00    -0.272 OA
ATOM     95  O   UNL A   1      44.185  27.226  32.493  1.00  0.00    -0.273 OA
ATOM     96  N   UNL A   1      43.188  26.445  34.409  1.00  0.00    -0.329 N 
ATOM     97  C   UNL A   1      43.818  27.249  36.594  1.00  0.00     0.035 C 
ATOM     98  C   UNL A   1      44.025  25.252  34.448  1.00  0.00     0.120 C 
ATOM     99  C   UNL A   1      44.797  26.069  36.718  1.00  0.00     0.004 C 
ATOM    100  C   UNL A   1      45.226  25.504  35.355  1.00  0.00     0.022 C 
ENDBRANCH  88  89
ENDBRANCH  87  88
ENDBRANCH  81  83
ENDBRANCH  80  81
ENDBRANCH  79  80
ENDBRANCH  78  79
ENDBRANCH  77  78
ENDBRANCH  76  77
ENDBRANCH  75  76
ENDBRANCH  74  75
ENDBRANCH   1  74
TORSDOF 25
ENDMDL
MODEL 3
REMARK VINA RESULT:      -8.1      5.034     12.464
REMARK SMILES O=C(OCCOCCOCCOCCOC(=O)[C@H]1CC[C@@H](CN2CC(=O)N3CCCC[C@H]3C2=O)O1)c1ccc(-c2c3nc(c(-c4cc(S(=O)(=O)[O-])ccc4F)c4ccc([nH]4)c(-c4cc(S(=O)(=O)[O-])ccc4F)c4nc(c(-c5cc(S(=O)(=O)[O-])ccc5F)c5ccc2[nH]5)C=C4)C=C3)cc1
REMARK SMILES IDX 8 1 7 2 6 3 5 4 4 5 3 6 2 7 1 8 36 9 37 10 98 11 38 12 97 13
REMARK SMILES IDX 39 14 40 15 41 16 91 17 42 18 96 19 90 20 92 21 43 22 95 23
REMARK SMILES IDX 89 24 88 25 44 27 76 28 56 29 75 30 57 31 60 32 74 33 93 34
REMARK SMILES IDX 58 35 59 36 73 38 94 39 61 40 45 41 46 42 54 43 47 44 53 45
REMARK SMILES IDX 55 46 52 47 48 48 49 49 50 50 51 51 77 52 78 53 86 54 79 55
REMARK SMILES IDX 85 56 87 57 84 58 80 59 81 60 82 61 83 62 62 63 63 64 71 65
REMARK SMILES IDX 64 66 70 67 72 68 69 69 65 70 66 71 67 72 68 73 9 74 10 75
REMARK SMILES IDX 11 76 12 77 13 78 14 79 15 80 16 81 17 82 18 83 19 84 35 85
REMARK SMILES IDX 20 86 21 87 22 88 23 89 24 90 33 91 25 92 32 93 34 94 26 95
REMARK SMILES IDX 27 96 31 97 28 98 30 99 29 100
REMARK H PARENT 92 26 60 37
REMARK Flexibility Score: inf
ROOT
ATOM      1  C   UNL A   1      32.898  35.791  29.853  1.00  0.00     0.188 C 
ENDROOT
BRANCH   1   2
ATOM      2  C   UNL A   1      32.585  36.238  31.277  1.00  0.00     0.188 C 
BRANCH   2   3
ATOM      3  O   UNL A   1      32.602  35.106  32.131  1.00  0.00    -0.376 OA
BRANCH   3   4
ATOM      4  C   UNL A   1      33.542  35.038  33.191  1.00  0.00     0.202 C 
BRANCH   4   5
ATOM      5  C   UNL A   1      34.991  35.226  32.779  1.00  0.00     0.261 C 
BRANCH   5   6
ATOM      6  O   UNL A   1      35.432  34.362  31.719  1.00  0.00    -0.460 OA
BRANCH   6   7
ATOM      7  C   UNL A   1      35.748  33.046  31.725  1.00  0.00     0.338 C 
ATOM      8  O   UNL A   1      34.832  32.235  31.865  1.00  0.00    -0.246 OA
BRANCH   7   9
ATOM      9  C   UNL A   1      37.117  32.499  31.518  1.00  0.00     0.060 A 
ATOM     10  C   UNL A   1      38.072  32.279  32.508  1.00  0.00     0.016 A 
ATOM     11  C   UNL A   1      37.413  32.063  30.217  1.00  0.00     0.016 A 
ATOM     12  C   UNL A   1      39.328  31.778  32.214  1.00  0.00     0.010 A 
ATOM     13  C   UNL A   1      38.657  31.506  29.913  1.00  0.00     0.010 A 
ATOM     14  C   UNL A   1      39.636  31.419  30.911  1.00  0.00    -0.014 A 
BRANCH  14  15
ATOM     15  C   UNL A   1      41.053  31.192  30.591  1.00  0.00     0.031 A 
ATOM     16  C   UNL A   1      41.841  32.385  30.139  1.00  0.00     0.074 A 
ATOM     17  C   UNL A   1      41.631  30.011  30.867  1.00  0.00     0.049 A 
ATOM     18  N   UNL A   1      43.063  32.455  29.693  1.00  0.00    -0.248 NA
ATOM     19  C   UNL A   1      41.149  33.686  30.206  1.00  0.00     0.031 C 
ATOM     20  C   UNL A   1      40.958  28.866  31.489  1.00  0.00     0.029 A 
ATOM     21  N   UNL A   1      42.919  29.587  30.697  1.00  0.00    -0.354 N 
ATOM     22  C   UNL A   1      43.269  33.794  29.381  1.00  0.00     0.074 A 
ATOM     23  C   UNL A   1      42.046  34.501  29.678  1.00  0.00     0.031 C 
ATOM     24  C   UNL A   1      41.847  27.876  31.663  1.00  0.00     0.029 A 
ATOM     25  C   UNL A   1      43.118  28.280  31.075  1.00  0.00     0.049 A 
ATOM     26  H   UNL A   1      43.634  30.161  30.340  1.00  0.00     0.167 HD
ATOM     27  C   UNL A   1      44.388  34.364  28.880  1.00  0.00     0.034 A 
ATOM     28  C   UNL A   1      44.198  27.493  30.901  1.00  0.00     0.034 A 
ATOM     29  C   UNL A   1      45.577  33.600  28.608  1.00  0.00     0.049 A 
ATOM     30  C   UNL A   1      45.391  28.116  30.219  1.00  0.00     0.074 A 
ATOM     31  C   UNL A   1      46.758  34.007  28.021  1.00  0.00     0.029 A 
ATOM     32  N   UNL A   1      45.723  32.248  28.912  1.00  0.00    -0.354 N 
ATOM     33  N   UNL A   1      45.552  29.356  29.807  1.00  0.00    -0.248 NA
ATOM     34  C   UNL A   1      46.540  27.243  29.967  1.00  0.00     0.031 C 
ATOM     35  C   UNL A   1      47.588  32.886  27.905  1.00  0.00     0.029 A 
ATOM     36  C   UNL A   1      46.964  31.798  28.501  1.00  0.00     0.049 A 
ATOM     37  H   UNL A   1      45.043  31.693  29.356  1.00  0.00     0.167 HD
ATOM     38  C   UNL A   1      46.830  29.416  29.265  1.00  0.00     0.074 A 
ATOM     39  C   UNL A   1      47.402  28.092  29.426  1.00  0.00     0.031 C 
ATOM     40  C   UNL A   1      47.481  30.460  28.685  1.00  0.00     0.034 A 
BRANCH  27  41
ATOM     41  C   UNL A   1      44.302  35.821  28.498  1.00  0.00     0.023 A 
ATOM     42  C   UNL A   1      44.617  36.856  29.399  1.00  0.00     0.031 A 
ATOM     43  C   UNL A   1      43.783  36.182  27.242  1.00  0.00     0.131 A 
ATOM     44  C   UNL A   1      44.330  38.190  29.062  1.00  0.00     0.055 A 
ATOM     45  C   UNL A   1      43.582  37.515  26.880  1.00  0.00     0.041 A 
ATOM     46  F   UNL A   1      43.426  35.240  26.355  1.00  0.00    -0.206 F 
ATOM     47  C   UNL A   1      43.839  38.527  27.799  1.00  0.00     0.022 A 
BRANCH  44  48
ATOM     48  S   UNL A   1      44.445  39.459  30.355  1.00  0.00     0.124 S 
ATOM     49  O   UNL A   1      45.877  39.749  30.359  1.00  0.00    -0.237 OA
ATOM     50  O   UNL A   1      43.582  40.516  29.840  1.00  0.00    -0.237 OA
ATOM     51  O   UNL A   1      43.952  38.777  31.550  1.00  0.00    -0.744 OA
ENDBRANCH  44  48
ENDBRANCH  27  41
BRANCH  28  52
ATOM     52  C   UNL A   1      44.164  26.047  31.274  1.00  0.00     0.023 A 
ATOM     53  C   UNL A   1      44.405  25.620  32.590  1.00  0.00     0.031 A 
ATOM     54  C   UNL A   1      43.937  25.055  30.300  1.00  0.00     0.131 A 
ATOM     55  C   UNL A   1      44.457  24.247  32.885  1.00  0.00     0.055 A 
ATOM     56  C   UNL A   1      43.925  23.695  30.610  1.00  0.00     0.041 A 
ATOM     57  F   UNL A   1      43.714  25.395  29.020  1.00  0.00    -0.206 F 
ATOM     58  C   UNL A   1      44.201  23.282  31.908  1.00  0.00     0.022 A 
BRANCH  55  59
ATOM     59  S   UNL A   1      44.974  23.730  34.546  1.00  0.00     0.124 S 
ATOM     60  O   UNL A   1      43.710  23.290  35.126  1.00  0.00    -0.237 OA
ATOM     61  O   UNL A   1      45.943  22.680  34.252  1.00  0.00    -0.237 OA
ATOM     62  O   UNL A   1      45.534  24.950  35.125  1.00  0.00    -0.744 OA
ENDBRANCH  55  59
ENDBRANCH  28  52
BRANCH  40  63
ATOM     63  C   UNL A   1      48.895  30.203  28.239  1.00  0.00     0.023 A 
ATOM     64  C   UNL A   1      49.993  30.501  29.062  1.00  0.00     0.031 A 
ATOM     65  C   UNL A   1      49.140  29.647  26.972  1.00  0.00     0.131 A 
ATOM     66  C   UNL A   1      51.292  30.301  28.583  1.00  0.00     0.055 A 
ATOM     67  C   UNL A   1      50.434  29.380  26.529  1.00  0.00     0.041 A 
ATOM     68  F   UNL A   1      48.122  29.345  26.148  1.00  0.00    -0.206 F 
ATOM     69  C   UNL A   1      51.520  29.721  27.330  1.00  0.00     0.022 A 
BRANCH  66  70
ATOM     70  S   UNL A   1      52.683  30.905  29.573  1.00  0.00     0.124 S 
ATOM     71  O   UNL A   1      53.475  29.692  29.753  1.00  0.00    -0.237 OA
ATOM     72  O   UNL A   1      53.266  31.923  28.704  1.00  0.00    -0.237 OA
ATOM     73  O   UNL A   1      52.044  31.416  30.784  1.00  0.00    -0.744 OA
ENDBRANCH  66  70
ENDBRANCH  40  63
ENDBRANCH  14  15
ENDBRANCH   7   9
ENDBRANCH   6   7
ENDBRANCH   5   6
ENDBRANCH   4   5
ENDBRANCH   3   4
ENDBRANCH   2   3
ENDBRANCH   1   2
BRANCH   1  74
ATOM     74  O   UNL A   1      33.026  34.381  29.671  1.00  0.00    -0.377 OA
BRANCH  74  75
ATOM     75  C   UNL A   1      33.836  33.946  28.581  1.00  0.00     0.188 C 
BRANCH  75  76
ATOM     76  C   UNL A   1      33.784  32.465  28.117  1.00  0.00     0.188 C 
BRANCH  76  77
ATOM     77  O   UNL A   1      32.811  32.167  27.127  1.00  0.00    -0.376 OA
BRANCH  77  78
ATOM     78  C   UNL A   1      32.344  30.821  27.102  1.00  0.00     0.202 C 
BRANCH  78  79
ATOM     79  C   UNL A   1      31.639  30.418  25.801  1.00  0.00     0.261 C 
BRANCH  79  80
ATOM     80  O   UNL A   1      31.926  29.112  25.272  1.00  0.00    -0.461 OA
BRANCH  80  81
ATOM     81  C   UNL A   1      31.559  28.827  23.999  1.00  0.00     0.335 C 
ATOM     82  O   UNL A   1      30.418  28.837  23.587  1.00  0.00    -0.249 OA
BRANCH  81  83
ATOM     83  C   UNL A   1      32.777  28.622  23.088  1.00  0.00     0.228 C 
ATOM     84  C   UNL A   1      34.030  28.121  23.772  1.00  0.00     0.047 C 
ATOM     85  O   UNL A   1      32.477  27.642  22.091  1.00  0.00    -0.361 OA
ATOM     86  C   UNL A   1      33.759  26.638  23.844  1.00  0.00     0.037 C 
ATOM     87  C   UNL A   1      32.925  26.371  22.590  1.00  0.00     0.139 C 
BRANCH  87  88
ATOM     88  C   UNL A   1      31.719  25.415  22.714  1.00  0.00     0.152 C 
BRANCH  88  89
ATOM     89  N   UNL A   1      31.976  24.115  23.352  1.00  0.00    -0.329 N 
ATOM     90  C   UNL A   1      31.075  23.662  24.421  1.00  0.00     0.219 C 
ATOM     91  C   UNL A   1      32.729  23.164  22.680  1.00  0.00     0.245 C 
ATOM     92  C   UNL A   1      31.655  22.601  25.373  1.00  0.00     0.242 C 
ATOM     93  C   UNL A   1      32.953  21.834  23.419  1.00  0.00     0.174 C 
ATOM     94  O   UNL A   1      33.163  23.341  21.541  1.00  0.00    -0.272 OA
ATOM     95  O   UNL A   1      31.136  22.336  26.455  1.00  0.00    -0.273 OA
ATOM     96  N   UNL A   1      32.712  21.859  24.855  1.00  0.00    -0.329 N 
ATOM     97  C   UNL A   1      32.156  20.672  22.830  1.00  0.00     0.035 C 
ATOM     98  C   UNL A   1      33.201  20.691  25.577  1.00  0.00     0.120 C 
ATOM     99  C   UNL A   1      32.572  19.359  23.516  1.00  0.00     0.004 C 
ATOM    100  C   UNL A   1      32.505  19.440  25.049  1.00  0.00     0.022 C 
ENDBRANCH  88  89
ENDBRANCH  87  88
ENDBRANCH  81  83
ENDBRANCH  80  81
ENDBRANCH  79  80
ENDBRANCH  78  79
ENDBRANCH  77  78
ENDBRANCH  76  77
ENDBRANCH  75  76
ENDBRANCH  74  75
ENDBRANCH   1  74
TORSDOF 25
ENDMDL
