MODEL 1
REMARK VINA RESULT:      -8.0      0.000      0.000
REMARK SMILES O=C(CCC(=O)OCCOCCOCCOCCOC(=O)c1ccc(-c2c3nc(c(-c4cc(S(=O)(=O)[O-])ccc4F)c4ccc([nH]4)c(-c4cc(S(=O)(=O)[O-])ccc4F)c4nc(c(-c5cc(S(=O)(=O)[O-])ccc5F)c5ccc2[nH]5)C=C4)C=C3)cc1)/[NH+]=C1\S[C@H]2CS(=O)(=O)C[C@@H]2N1c1ccc(Oc2ccccc2)cc1
REMARK SMILES IDX 12 1 11 2 10 3 9 4 8 5 7 6 5 7 6 8 4 9 3 10 2 11 1 12 85 13
REMARK SMILES IDX 86 14 87 16 95 17 88 18 94 19 89 20 93 21 90 22 91 23 92 24
REMARK SMILES IDX 96 25 97 26 108 27 98 28 107 29 99 30 100 31 101 32 102 33
REMARK SMILES IDX 106 34 103 35 105 36 104 37 13 38 14 39 15 40 16 41 17 42
REMARK SMILES IDX 18 43 19 44 20 45 21 46 22 47 23 48 84 49 24 50 83 51 25 52
REMARK SMILES IDX 26 53 27 54 77 55 28 56 82 57 76 58 78 59 29 60 81 61 75 62
REMARK SMILES IDX 74 63 30 65 62 66 42 67 61 68 43 69 46 70 60 71 79 72 44 73
REMARK SMILES IDX 45 74 59 76 80 77 47 78 31 79 32 80 40 81 33 82 39 83 41 84
REMARK SMILES IDX 38 85 34 86 35 87 36 88 37 89 63 90 64 91 72 92 65 93 71 94
REMARK SMILES IDX 73 95 70 96 66 97 67 98 68 99 69 100 48 101 49 102 57 103
REMARK SMILES IDX 50 104 56 105 58 106 55 107 51 108 52 109 53 110 54 111
REMARK H PARENT 85 15 78 64 46 75
REMARK Flexibility Score: inf
ROOT
ATOM      1  C   UNL A   1      33.639  27.002  22.658  1.00  0.00     0.188 C 
ENDROOT
BRANCH   1   2
ATOM      2  C   UNL A   1      32.968  25.641  22.169  1.00  0.00     0.188 C 
BRANCH   2   3
ATOM      3  O   UNL A   1      33.877  24.513  22.182  1.00  0.00    -0.376 OA
BRANCH   3   4
ATOM      4  C   UNL A   1      34.504  24.137  23.431  1.00  0.00     0.202 C 
BRANCH   4   5
ATOM      5  C   UNL A   1      35.168  22.724  23.614  1.00  0.00     0.261 C 
BRANCH   5   6
ATOM      6  O   UNL A   1      36.058  22.519  24.729  1.00  0.00    -0.463 OA
BRANCH   6   7
ATOM      7  C   UNL A   1      36.495  21.275  24.979  1.00  0.00     0.306 C 
ATOM      8  O   UNL A   1      35.760  20.302  25.086  1.00  0.00    -0.252 OA
BRANCH   7   9
ATOM      9  C   UNL A   1      38.003  21.219  25.124  1.00  0.00     0.135 C 
BRANCH   9  10
ATOM     10  C   UNL A   1      38.667  22.196  26.121  1.00  0.00     0.139 C 
BRANCH  10  11
ATOM     11  C   UNL A   1      40.071  21.789  26.604  1.00  0.00     0.308 C 
ATOM     12  O   UNL A   1      40.159  20.614  26.979  1.00  0.00    -0.247 OA
ATOM     13  N   UNL A   1      41.230  22.570  26.573  1.00  0.00    -0.204 N 
ATOM     14  C   UNL A   1      41.360  23.848  26.659  1.00  0.00     0.319 C 
ATOM     15  H   UNL A   1      42.071  22.069  26.471  1.00  0.00     0.316 HD
ATOM     16  S   UNL A   1      40.026  24.916  26.602  1.00  0.00    -0.029 SA
ATOM     17  N   UNL A   1      42.468  24.688  26.814  1.00  0.00    -0.217 N 
ATOM     18  C   UNL A   1      40.942  26.360  26.232  1.00  0.00     0.120 C 
ATOM     19  C   UNL A   1      42.176  26.124  27.060  1.00  0.00     0.212 C 
ATOM     20  C   UNL A   1      40.449  27.755  26.509  1.00  0.00     0.156 C 
ATOM     21  C   UNL A   1      43.078  27.225  26.502  1.00  0.00     0.188 C 
ATOM     22  S   UNL A   1      41.980  28.662  26.447  1.00  0.00     0.155 S 
ATOM     23  O   UNL A   1      42.080  29.300  25.168  1.00  0.00    -0.229 OA
ATOM     24  O   UNL A   1      42.101  29.396  27.703  1.00  0.00    -0.229 OA
BRANCH  17  25
ATOM     25  C   UNL A   1      43.805  24.324  26.772  1.00  0.00     0.128 A 
ATOM     26  C   UNL A   1      44.556  24.265  27.954  1.00  0.00     0.056 A 
ATOM     27  C   UNL A   1      44.448  24.166  25.550  1.00  0.00     0.056 A 
ATOM     28  C   UNL A   1      45.939  24.187  27.913  1.00  0.00     0.051 A 
ATOM     29  C   UNL A   1      45.833  24.072  25.511  1.00  0.00     0.051 A 
ATOM     30  C   UNL A   1      46.582  24.128  26.685  1.00  0.00     0.127 A 
BRANCH  30  31
ATOM     31  O   UNL A   1      47.954  24.116  26.745  1.00  0.00    -0.457 OA
BRANCH  31  32
ATOM     32  C   UNL A   1      48.559  25.157  27.399  1.00  0.00     0.127 A 
ATOM     33  C   UNL A   1      49.555  24.851  28.321  1.00  0.00     0.047 A 
ATOM     34  C   UNL A   1      48.156  26.478  27.177  1.00  0.00     0.047 A 
ATOM     35  C   UNL A   1      50.160  25.880  29.034  1.00  0.00     0.004 A 
ATOM     36  C   UNL A   1      48.770  27.504  27.888  1.00  0.00     0.004 A 
ATOM     37  C   UNL A   1      49.760  27.201  28.825  1.00  0.00     0.000 A 
ENDBRANCH  31  32
ENDBRANCH  30  31
ENDBRANCH  17  25
ENDBRANCH  10  11
ENDBRANCH   9  10
ENDBRANCH   7   9
ENDBRANCH   6   7
ENDBRANCH   5   6
ENDBRANCH   4   5
ENDBRANCH   3   4
ENDBRANCH   2   3
ENDBRANCH   1   2
BRANCH   1  38
ATOM     38  O   UNL A   1      32.795  27.709  23.572  1.00  0.00    -0.377 OA
BRANCH  38  39
ATOM     39  C   UNL A   1      32.555  27.324  24.933  1.00  0.00     0.188 C 
BRANCH  39  40
ATOM     40  C   UNL A   1      32.196  28.303  26.074  1.00  0.00     0.188 C 
BRANCH  40  41
ATOM     41  O   UNL A   1      32.171  29.688  25.784  1.00  0.00    -0.376 OA
BRANCH  41  42
ATOM     42  C   UNL A   1      32.418  30.560  26.871  1.00  0.00     0.202 C 
BRANCH  42  43
ATOM     43  C   UNL A   1      33.797  30.481  27.552  1.00  0.00     0.261 C 
BRANCH  43  44
ATOM     44  O   UNL A   1      34.529  31.727  27.643  1.00  0.00    -0.460 OA
BRANCH  44  45
ATOM     45  C   UNL A   1      34.601  32.274  28.888  1.00  0.00     0.338 C 
ATOM     46  O   UNL A   1      33.651  32.547  29.603  1.00  0.00    -0.246 OA
BRANCH  45  47
ATOM     47  C   UNL A   1      36.007  32.412  29.360  1.00  0.00     0.060 A 
ATOM     48  C   UNL A   1      36.811  33.380  28.744  1.00  0.00     0.016 A 
ATOM     49  C   UNL A   1      36.585  31.529  30.278  1.00  0.00     0.016 A 
ATOM     50  C   UNL A   1      38.185  33.443  29.018  1.00  0.00     0.010 A 
ATOM     51  C   UNL A   1      37.971  31.588  30.542  1.00  0.00     0.010 A 
ATOM     52  C   UNL A   1      38.792  32.528  29.895  1.00  0.00    -0.014 A 
BRANCH  52  53
ATOM     53  C   UNL A   1      40.288  32.426  29.943  1.00  0.00     0.031 A 
ATOM     54  C   UNL A   1      41.098  33.663  29.633  1.00  0.00     0.074 A 
ATOM     55  C   UNL A   1      40.939  31.305  30.318  1.00  0.00     0.049 A 
ATOM     56  N   UNL A   1      42.398  33.828  29.602  1.00  0.00    -0.248 NA
ATOM     57  C   UNL A   1      40.332  34.873  29.300  1.00  0.00     0.031 C 
ATOM     58  C   UNL A   1      40.304  30.046  30.687  1.00  0.00     0.029 A 
ATOM     59  N   UNL A   1      42.285  31.060  30.505  1.00  0.00    -0.354 N 
ATOM     60  C   UNL A   1      42.605  35.159  29.260  1.00  0.00     0.074 A 
ATOM     61  C   UNL A   1      41.297  35.747  29.058  1.00  0.00     0.031 C 
ATOM     62  C   UNL A   1      41.241  29.199  31.151  1.00  0.00     0.029 A 
ATOM     63  C   UNL A   1      42.565  29.810  31.017  1.00  0.00     0.049 A 
ATOM     64  H   UNL A   1      42.983  31.721  30.292  1.00  0.00     0.167 HD
ATOM     65  C   UNL A   1      43.772  35.838  29.140  1.00  0.00     0.034 A 
ATOM     66  C   UNL A   1      43.744  29.217  31.323  1.00  0.00     0.034 A 
ATOM     67  C   UNL A   1      45.078  35.261  29.339  1.00  0.00     0.049 A 
ATOM     68  C   UNL A   1      45.038  29.960  31.047  1.00  0.00     0.074 A 
ATOM     69  C   UNL A   1      46.316  35.866  29.191  1.00  0.00     0.029 A 
ATOM     70  N   UNL A   1      45.324  33.949  29.719  1.00  0.00    -0.354 N 
ATOM     71  N   UNL A   1      45.219  31.206  30.671  1.00  0.00    -0.248 NA
ATOM     72  C   UNL A   1      46.290  29.202  31.207  1.00  0.00     0.031 C 
ATOM     73  C   UNL A   1      47.307  34.904  29.414  1.00  0.00     0.029 A 
ATOM     74  C   UNL A   1      46.691  33.720  29.782  1.00  0.00     0.049 A 
ATOM     75  H   UNL A   1      44.630  33.279  29.915  1.00  0.00     0.167 HD
ATOM     76  C   UNL A   1      46.600  31.375  30.559  1.00  0.00     0.074 A 
ATOM     77  C   UNL A   1      47.207  30.122  30.946  1.00  0.00     0.031 C 
ATOM     78  C   UNL A   1      47.301  32.467  30.160  1.00  0.00     0.034 A 
BRANCH  65  79
ATOM     79  C   UNL A   1      43.682  37.279  28.709  1.00  0.00     0.023 A 
ATOM     80  C   UNL A   1      43.692  38.332  29.639  1.00  0.00     0.031 A 
ATOM     81  C   UNL A   1      43.546  37.600  27.346  1.00  0.00     0.131 A 
ATOM     82  C   UNL A   1      43.499  39.650  29.200  1.00  0.00     0.055 A 
ATOM     83  C   UNL A   1      43.433  38.919  26.909  1.00  0.00     0.041 A 
ATOM     84  F   UNL A   1      43.508  36.630  26.418  1.00  0.00    -0.206 F 
ATOM     85  C   UNL A   1      43.394  39.953  27.840  1.00  0.00     0.022 A 
BRANCH  82  86
ATOM     86  S   UNL A   1      43.235  40.944  30.442  1.00  0.00     0.124 S 
ATOM     87  O   UNL A   1      43.979  42.062  29.867  1.00  0.00    -0.237 OA
ATOM     88  O   UNL A   1      41.783  41.079  30.450  1.00  0.00    -0.237 OA
ATOM     89  O   UNL A   1      43.817  40.377  31.657  1.00  0.00    -0.744 OA
ENDBRANCH  82  86
ENDBRANCH  65  79
BRANCH  66  90
ATOM     90  C   UNL A   1      43.803  27.808  31.841  1.00  0.00     0.023 A 
ATOM     91  C   UNL A   1      43.787  27.530  33.222  1.00  0.00     0.031 A 
ATOM     92  C   UNL A   1      44.000  26.725  30.966  1.00  0.00     0.131 A 
ATOM     93  C   UNL A   1      44.011  26.218  33.681  1.00  0.00     0.055 A 
ATOM     94  C   UNL A   1      44.144  25.413  31.424  1.00  0.00     0.041 A 
ATOM     95  F   UNL A   1      44.071  26.925  29.640  1.00  0.00    -0.206 F 
ATOM     96  C   UNL A   1      44.166  25.156  32.790  1.00  0.00     0.022 A 
BRANCH  93  97
ATOM     97  S   UNL A   1      44.230  25.934  35.462  1.00  0.00     0.124 S 
ATOM     98  O   UNL A   1      42.949  25.341  35.827  1.00  0.00    -0.237 OA
ATOM     99  O   UNL A   1      45.382  25.038  35.490  1.00  0.00    -0.237 OA
ATOM    100  O   UNL A   1      44.472  27.273  35.996  1.00  0.00    -0.744 OA
ENDBRANCH  93  97
ENDBRANCH  66  90
BRANCH  78 101
ATOM    101  C   UNL A   1      48.812  32.372  30.156  1.00  0.00     0.023 A 
ATOM    102  C   UNL A   1      49.535  32.063  28.989  1.00  0.00     0.031 A 
ATOM    103  C   UNL A   1      49.541  32.612  31.336  1.00  0.00     0.131 A 
ATOM    104  C   UNL A   1      50.936  31.961  29.037  1.00  0.00     0.055 A 
ATOM    105  C   UNL A   1      50.937  32.568  31.364  1.00  0.00     0.041 A 
ATOM    106  F   UNL A   1      48.908  32.910  32.481  1.00  0.00    -0.206 F 
ATOM    107  C   UNL A   1      51.642  32.231  30.212  1.00  0.00     0.022 A 
BRANCH 104 108
ATOM    108  S   UNL A   1      51.826  31.400  27.558  1.00  0.00     0.124 S 
ATOM    109  O   UNL A   1      50.944  30.353  27.051  1.00  0.00    -0.237 OA
ATOM    110  O   UNL A   1      51.899  32.617  26.756  1.00  0.00    -0.237 OA
ATOM    111  O   UNL A   1      53.107  30.930  28.085  1.00  0.00    -0.744 OA
ENDBRANCH 104 108
ENDBRANCH  78 101
ENDBRANCH  52  53
ENDBRANCH  45  47
ENDBRANCH  44  45
ENDBRANCH  43  44
ENDBRANCH  42  43
ENDBRANCH  41  42
ENDBRANCH  40  41
ENDBRANCH  39  40
ENDBRANCH  38  39
ENDBRANCH   1  38
TORSDOF 28
ENDMDL
MODEL 2
REMARK VINA RESULT:      -7.6      2.001      2.362
REMARK SMILES O=C(CCC(=O)OCCOCCOCCOCCOC(=O)c1ccc(-c2c3nc(c(-c4cc(S(=O)(=O)[O-])ccc4F)c4ccc([nH]4)c(-c4cc(S(=O)(=O)[O-])ccc4F)c4nc(c(-c5cc(S(=O)(=O)[O-])ccc5F)c5ccc2[nH]5)C=C4)C=C3)cc1)/[NH+]=C1\S[C@H]2CS(=O)(=O)C[C@@H]2N1c1ccc(Oc2ccccc2)cc1
REMARK SMILES IDX 12 1 11 2 10 3 9 4 8 5 7 6 5 7 6 8 4 9 3 10 2 11 1 12 85 13
REMARK SMILES IDX 86 14 87 16 95 17 88 18 94 19 89 20 93 21 90 22 91 23 92 24
REMARK SMILES IDX 96 25 97 26 108 27 98 28 107 29 99 30 100 31 101 32 102 33
REMARK SMILES IDX 106 34 103 35 105 36 104 37 13 38 14 39 15 40 16 41 17 42
REMARK SMILES IDX 18 43 19 44 20 45 21 46 22 47 23 48 84 49 24 50 83 51 25 52
REMARK SMILES IDX 26 53 27 54 77 55 28 56 82 57 76 58 78 59 29 60 81 61 75 62
REMARK SMILES IDX 74 63 30 65 62 66 42 67 61 68 43 69 46 70 60 71 79 72 44 73
REMARK SMILES IDX 45 74 59 76 80 77 47 78 31 79 32 80 40 81 33 82 39 83 41 84
REMARK SMILES IDX 38 85 34 86 35 87 36 88 37 89 63 90 64 91 72 92 65 93 71 94
REMARK SMILES IDX 73 95 70 96 66 97 67 98 68 99 69 100 48 101 49 102 57 103
REMARK SMILES IDX 50 104 56 105 58 106 55 107 51 108 52 109 53 110 54 111
REMARK H PARENT 85 15 78 64 46 75
REMARK Flexibility Score: inf
ROOT
ATOM      1  C   UNL A   1      33.683  26.756  22.610  1.00  0.00     0.188 C 
ENDROOT
BRANCH   1   2
ATOM      2  C   UNL A   1      32.834  25.503  22.105  1.00  0.00     0.188 C 
BRANCH   2   3
ATOM      3  O   UNL A   1      33.517  24.238  22.278  1.00  0.00    -0.376 OA
BRANCH   3   4
ATOM      4  C   UNL A   1      34.040  23.900  23.585  1.00  0.00     0.202 C 
BRANCH   4   5
ATOM      5  C   UNL A   1      34.646  22.479  23.875  1.00  0.00     0.261 C 
BRANCH   5   6
ATOM      6  O   UNL A   1      35.589  22.339  24.955  1.00  0.00    -0.463 OA
BRANCH   6   7
ATOM      7  C   UNL A   1      36.372  21.250  24.985  1.00  0.00     0.306 C 
ATOM      8  O   UNL A   1      35.949  20.107  25.099  1.00  0.00    -0.252 OA
BRANCH   7   9
ATOM      9  C   UNL A   1      37.843  21.602  24.869  1.00  0.00     0.135 C 
BRANCH   9  10
ATOM     10  C   UNL A   1      38.523  22.259  26.091  1.00  0.00     0.139 C 
BRANCH  10  11
ATOM     11  C   UNL A   1      39.966  21.798  26.367  1.00  0.00     0.308 C 
ATOM     12  O   UNL A   1      40.072  20.599  26.650  1.00  0.00    -0.247 OA
ATOM     13  N   UNL A   1      41.131  22.561  26.242  1.00  0.00    -0.204 N 
ATOM     14  C   UNL A   1      41.301  23.828  26.394  1.00  0.00     0.319 C 
ATOM     15  H   UNL A   1      41.940  22.055  26.003  1.00  0.00     0.316 HD
ATOM     16  S   UNL A   1      39.996  24.918  26.574  1.00  0.00    -0.029 SA
ATOM     17  N   UNL A   1      42.439  24.638  26.463  1.00  0.00    -0.217 N 
ATOM     18  C   UNL A   1      40.894  26.369  26.187  1.00  0.00     0.120 C 
ATOM     19  C   UNL A   1      42.215  26.059  26.836  1.00  0.00     0.212 C 
ATOM     20  C   UNL A   1      40.473  27.750  26.614  1.00  0.00     0.156 C 
ATOM     21  C   UNL A   1      43.066  27.181  26.242  1.00  0.00     0.188 C 
ATOM     22  S   UNL A   1      42.005  28.635  26.420  1.00  0.00     0.155 S 
ATOM     23  O   UNL A   1      41.960  29.356  25.182  1.00  0.00    -0.229 OA
ATOM     24  O   UNL A   1      42.298  29.280  27.696  1.00  0.00    -0.229 OA
BRANCH  17  25
ATOM     25  C   UNL A   1      43.752  24.258  26.230  1.00  0.00     0.128 A 
ATOM     26  C   UNL A   1      44.668  24.204  27.289  1.00  0.00     0.056 A 
ATOM     27  C   UNL A   1      44.206  24.076  24.929  1.00  0.00     0.056 A 
ATOM     28  C   UNL A   1      46.029  24.108  27.047  1.00  0.00     0.051 A 
ATOM     29  C   UNL A   1      45.570  23.964  24.688  1.00  0.00     0.051 A 
ATOM     30  C   UNL A   1      46.484  24.026  25.739  1.00  0.00     0.127 A 
BRANCH  30  31
ATOM     31  O   UNL A   1      47.849  23.997  25.596  1.00  0.00    -0.457 OA
BRANCH  31  32
ATOM     32  C   UNL A   1      48.500  25.203  25.575  1.00  0.00     0.127 A 
ATOM     33  C   UNL A   1      48.423  25.960  24.411  1.00  0.00     0.047 A 
ATOM     34  C   UNL A   1      49.253  25.632  26.672  1.00  0.00     0.047 A 
ATOM     35  C   UNL A   1      49.107  27.169  24.340  1.00  0.00     0.004 A 
ATOM     36  C   UNL A   1      49.930  26.846  26.598  1.00  0.00     0.004 A 
ATOM     37  C   UNL A   1      49.867  27.603  25.427  1.00  0.00     0.000 A 
ENDBRANCH  31  32
ENDBRANCH  30  31
ENDBRANCH  17  25
ENDBRANCH  10  11
ENDBRANCH   9  10
ENDBRANCH   7   9
ENDBRANCH   6   7
ENDBRANCH   5   6
ENDBRANCH   4   5
ENDBRANCH   3   4
ENDBRANCH   2   3
ENDBRANCH   1   2
BRANCH   1  38
ATOM     38  O   UNL A   1      32.882  27.663  23.372  1.00  0.00    -0.377 OA
BRANCH  38  39
ATOM     39  C   UNL A   1      32.222  27.341  24.604  1.00  0.00     0.188 C 
BRANCH  39  40
ATOM     40  C   UNL A   1      31.865  28.365  25.706  1.00  0.00     0.188 C 
BRANCH  40  41
ATOM     41  O   UNL A   1      32.214  29.721  25.497  1.00  0.00    -0.376 OA
BRANCH  41  42
ATOM     42  C   UNL A   1      32.704  30.423  26.625  1.00  0.00     0.202 C 
BRANCH  42  43
ATOM     43  C   UNL A   1      33.975  29.884  27.307  1.00  0.00     0.261 C 
BRANCH  43  44
ATOM     44  O   UNL A   1      35.070  30.822  27.434  1.00  0.00    -0.460 OA
BRANCH  44  45
ATOM     45  C   UNL A   1      35.061  31.582  28.565  1.00  0.00     0.338 C 
ATOM     46  O   UNL A   1      34.077  32.103  29.066  1.00  0.00    -0.246 OA
BRANCH  45  47
ATOM     47  C   UNL A   1      36.398  31.630  29.220  1.00  0.00     0.060 A 
ATOM     48  C   UNL A   1      37.232  32.714  28.923  1.00  0.00     0.016 A 
ATOM     49  C   UNL A   1      36.897  30.576  29.993  1.00  0.00     0.016 A 
ATOM     50  C   UNL A   1      38.563  32.730  29.366  1.00  0.00     0.010 A 
ATOM     51  C   UNL A   1      38.240  30.590  30.427  1.00  0.00     0.010 A 
ATOM     52  C   UNL A   1      39.097  31.655  30.096  1.00  0.00    -0.014 A 
BRANCH  52  53
ATOM     53  C   UNL A   1      40.580  31.560  30.300  1.00  0.00     0.031 A 
ATOM     54  C   UNL A   1      41.387  32.838  30.284  1.00  0.00     0.074 A 
ATOM     55  C   UNL A   1      41.215  30.399  30.566  1.00  0.00     0.049 A 
ATOM     56  N   UNL A   1      42.676  33.016  30.430  1.00  0.00    -0.248 NA
ATOM     57  C   UNL A   1      40.630  34.078  30.060  1.00  0.00     0.031 C 
ATOM     58  C   UNL A   1      40.576  29.091  30.656  1.00  0.00     0.029 A 
ATOM     59  N   UNL A   1      42.537  30.139  30.866  1.00  0.00    -0.354 N 
ATOM     60  C   UNL A   1      42.884  34.387  30.328  1.00  0.00     0.074 A 
ATOM     61  C   UNL A   1      41.592  34.988  30.071  1.00  0.00     0.031 C 
ATOM     62  C   UNL A   1      41.478  28.190  31.086  1.00  0.00     0.029 A 
ATOM     63  C   UNL A   1      42.792  28.826  31.204  1.00  0.00     0.049 A 
ATOM     64  H   UNL A   1      43.237  30.831  30.842  1.00  0.00     0.167 HD
ATOM     65  C   UNL A   1      44.039  35.086  30.453  1.00  0.00     0.034 A 
ATOM     66  C   UNL A   1      43.944  28.202  31.546  1.00  0.00     0.034 A 
ATOM     67  C   UNL A   1      45.330  34.496  30.707  1.00  0.00     0.049 A 
ATOM     68  C   UNL A   1      45.240  28.990  31.542  1.00  0.00     0.074 A 
ATOM     69  C   UNL A   1      46.559  35.128  30.801  1.00  0.00     0.029 A 
ATOM     70  N   UNL A   1      45.567  33.143  30.902  1.00  0.00    -0.354 N 
ATOM     71  N   UNL A   1      45.428  30.282  31.391  1.00  0.00    -0.248 NA
ATOM     72  C   UNL A   1      46.486  28.228  31.725  1.00  0.00     0.031 C 
ATOM     73  C   UNL A   1      47.544  34.152  30.981  1.00  0.00     0.029 A 
ATOM     74  C   UNL A   1      46.924  32.918  31.084  1.00  0.00     0.049 A 
ATOM     75  H   UNL A   1      44.873  32.444  30.908  1.00  0.00     0.167 HD
ATOM     76  C   UNL A   1      46.809  30.479  31.467  1.00  0.00     0.074 A 
ATOM     77  C   UNL A   1      47.402  29.185  31.719  1.00  0.00     0.031 C 
ATOM     78  C   UNL A   1      47.521  31.626  31.329  1.00  0.00     0.034 A 
BRANCH  65  79
ATOM     79  C   UNL A   1      43.960  36.577  30.246  1.00  0.00     0.023 A 
ATOM     80  C   UNL A   1      43.914  37.146  28.962  1.00  0.00     0.031 A 
ATOM     81  C   UNL A   1      43.968  37.443  31.355  1.00  0.00     0.131 A 
ATOM     82  C   UNL A   1      43.947  38.540  28.817  1.00  0.00     0.055 A 
ATOM     83  C   UNL A   1      43.923  38.829  31.205  1.00  0.00     0.041 A 
ATOM     84  F   UNL A   1      44.035  36.953  32.603  1.00  0.00    -0.206 F 
ATOM     85  C   UNL A   1      43.928  39.385  29.929  1.00  0.00     0.022 A 
BRANCH  82  86
ATOM     86  S   UNL A   1      44.172  39.230  27.156  1.00  0.00     0.124 S 
ATOM     87  O   UNL A   1      45.316  38.462  26.669  1.00  0.00    -0.237 OA
ATOM     88  O   UNL A   1      42.892  38.942  26.520  1.00  0.00    -0.237 OA
ATOM     89  O   UNL A   1      44.443  40.644  27.406  1.00  0.00    -0.744 OA
ENDBRANCH  82  86
ENDBRANCH  65  79
BRANCH  66  90
ATOM     90  C   UNL A   1      43.983  26.729  31.839  1.00  0.00     0.023 A 
ATOM     91  C   UNL A   1      43.907  26.238  33.157  1.00  0.00     0.031 A 
ATOM     92  C   UNL A   1      44.218  25.795  30.814  1.00  0.00     0.131 A 
ATOM     93  C   UNL A   1      44.112  24.869  33.414  1.00  0.00     0.055 A 
ATOM     94  C   UNL A   1      44.344  24.427  31.067  1.00  0.00     0.041 A 
ATOM     95  F   UNL A   1      44.346  26.200  29.540  1.00  0.00    -0.206 F 
ATOM     96  C   UNL A   1      44.308  23.959  32.375  1.00  0.00     0.022 A 
BRANCH  93  97
ATOM     97  S   UNL A   1      44.255  24.308  35.137  1.00  0.00     0.124 S 
ATOM     98  O   UNL A   1      44.868  25.467  35.776  1.00  0.00    -0.237 OA
ATOM     99  O   UNL A   1      42.864  24.042  35.488  1.00  0.00    -0.237 OA
ATOM    100  O   UNL A   1      45.109  23.125  35.042  1.00  0.00    -0.744 OA
ENDBRANCH  93  97
ENDBRANCH  66  90
BRANCH  78 101
ATOM    101  C   UNL A   1      49.024  31.547  31.484  1.00  0.00     0.023 A 
ATOM    102  C   UNL A   1      49.637  31.423  32.745  1.00  0.00     0.031 A 
ATOM    103  C   UNL A   1      49.857  31.579  30.350  1.00  0.00     0.131 A 
ATOM    104  C   UNL A   1      51.038  31.378  32.843  1.00  0.00     0.055 A 
ATOM    105  C   UNL A   1      51.246  31.474  30.449  1.00  0.00     0.041 A 
ATOM    106  F   UNL A   1      49.332  31.697  29.120  1.00  0.00    -0.206 F 
ATOM    107  C   UNL A   1      51.845  31.383  31.702  1.00  0.00     0.022 A 
BRANCH 104 108
ATOM    108  S   UNL A   1      51.803  31.385  34.489  1.00  0.00     0.124 S 
ATOM    109  O   UNL A   1      51.825  29.964  34.821  1.00  0.00    -0.237 OA
ATOM    110  O   UNL A   1      53.101  32.000  34.228  1.00  0.00    -0.237 OA
ATOM    111  O   UNL A   1      50.887  32.194  35.292  1.00  0.00    -0.744 OA
ENDBRANCH 104 108
ENDBRANCH  78 101
ENDBRANCH  52  53
ENDBRANCH  45  47
ENDBRANCH  44  45
ENDBRANCH  43  44
ENDBRANCH  42  43
ENDBRANCH  41  42
ENDBRANCH  40  41
ENDBRANCH  39  40
ENDBRANCH  38  39
ENDBRANCH   1  38
TORSDOF 28
ENDMDL
MODEL 3
REMARK VINA RESULT:      -7.0      4.950     10.861
REMARK SMILES O=C(CCC(=O)OCCOCCOCCOCCOC(=O)c1ccc(-c2c3nc(c(-c4cc(S(=O)(=O)[O-])ccc4F)c4ccc([nH]4)c(-c4cc(S(=O)(=O)[O-])ccc4F)c4nc(c(-c5cc(S(=O)(=O)[O-])ccc5F)c5ccc2[nH]5)C=C4)C=C3)cc1)/[NH+]=C1\S[C@H]2CS(=O)(=O)C[C@@H]2N1c1ccc(Oc2ccccc2)cc1
REMARK SMILES IDX 12 1 11 2 10 3 9 4 8 5 7 6 5 7 6 8 4 9 3 10 2 11 1 12 85 13
REMARK SMILES IDX 86 14 87 16 95 17 88 18 94 19 89 20 93 21 90 22 91 23 92 24
REMARK SMILES IDX 96 25 97 26 108 27 98 28 107 29 99 30 100 31 101 32 102 33
REMARK SMILES IDX 106 34 103 35 105 36 104 37 13 38 14 39 15 40 16 41 17 42
REMARK SMILES IDX 18 43 19 44 20 45 21 46 22 47 23 48 84 49 24 50 83 51 25 52
REMARK SMILES IDX 26 53 27 54 77 55 28 56 82 57 76 58 78 59 29 60 81 61 75 62
REMARK SMILES IDX 74 63 30 65 62 66 42 67 61 68 43 69 46 70 60 71 79 72 44 73
REMARK SMILES IDX 45 74 59 76 80 77 47 78 31 79 32 80 40 81 33 82 39 83 41 84
REMARK SMILES IDX 38 85 34 86 35 87 36 88 37 89 63 90 64 91 72 92 65 93 71 94
REMARK SMILES IDX 73 95 70 96 66 97 67 98 68 99 69 100 48 101 49 102 57 103
REMARK SMILES IDX 50 104 56 105 58 106 55 107 51 108 52 109 53 110 54 111
REMARK H PARENT 85 15 78 64 46 75
REMARK Flexibility Score: inf
ROOT
ATOM      1  C   UNL A   1      43.729  39.840  32.553  1.00  0.00     0.188 C 
ENDROOT
BRANCH   1   2
ATOM      2  C   UNL A   1      44.411  38.737  31.625  1.00  0.00     0.188 C 
BRANCH   2   3
ATOM      3  O   UNL A   1      43.994  37.385  31.934  1.00  0.00    -0.376 OA
BRANCH   3   4
ATOM      4  C   UNL A   1      43.827  36.441  30.849  1.00  0.00     0.202 C 
BRANCH   4   5
ATOM      5  C   UNL A   1      43.859  36.912  29.350  1.00  0.00     0.261 C 
BRANCH   5   6
ATOM      6  O   UNL A   1      44.043  35.922  28.320  1.00  0.00    -0.463 OA
BRANCH   6   7
ATOM      7  C   UNL A   1      43.143  34.931  28.216  1.00  0.00     0.306 C 
ATOM      8  O   UNL A   1      41.938  35.085  28.373  1.00  0.00    -0.252 OA
BRANCH   7   9
ATOM      9  C   UNL A   1      43.794  33.601  27.891  1.00  0.00     0.135 C 
BRANCH   9  10
ATOM     10  C   UNL A   1      43.501  32.409  28.829  1.00  0.00     0.139 C 
BRANCH  10  11
ATOM     11  C   UNL A   1      43.538  32.733  30.334  1.00  0.00     0.308 C 
ATOM     12  O   UNL A   1      44.669  32.965  30.776  1.00  0.00    -0.247 OA
ATOM     13  N   UNL A   1      42.442  32.872  31.192  1.00  0.00    -0.204 N 
ATOM     14  C   UNL A   1      41.288  32.304  31.146  1.00  0.00     0.319 C 
ATOM     15  H   UNL A   1      42.573  33.495  31.942  1.00  0.00     0.316 HD
ATOM     16  S   UNL A   1      40.771  31.376  29.806  1.00  0.00    -0.029 SA
ATOM     17  N   UNL A   1      40.215  32.246  32.041  1.00  0.00    -0.217 N 
ATOM     18  C   UNL A   1      39.063  31.413  30.186  1.00  0.00     0.120 C 
ATOM     19  C   UNL A   1      39.111  31.317  31.686  1.00  0.00     0.212 C 
ATOM     20  C   UNL A   1      38.073  30.398  29.680  1.00  0.00     0.156 C 
ATOM     21  C   UNL A   1      37.656  31.649  32.015  1.00  0.00     0.188 C 
ATOM     22  S   UNL A   1      36.731  30.651  30.821  1.00  0.00     0.155 S 
ATOM     23  O   UNL A   1      35.736  31.461  30.182  1.00  0.00    -0.229 OA
ATOM     24  O   UNL A   1      36.424  29.359  31.425  1.00  0.00    -0.229 OA
BRANCH  17  25
ATOM     25  C   UNL A   1      40.074  32.954  33.224  1.00  0.00     0.128 A 
ATOM     26  C   UNL A   1      40.151  32.289  34.455  1.00  0.00     0.056 A 
ATOM     27  C   UNL A   1      39.705  34.293  33.197  1.00  0.00     0.056 A 
ATOM     28  C   UNL A   1      39.736  32.908  35.624  1.00  0.00     0.051 A 
ATOM     29  C   UNL A   1      39.305  34.918  34.372  1.00  0.00     0.051 A 
ATOM     30  C   UNL A   1      39.275  34.216  35.576  1.00  0.00     0.127 A 
BRANCH  30  31
ATOM     31  O   UNL A   1      38.828  34.722  36.771  1.00  0.00    -0.457 OA
BRANCH  31  32
ATOM     32  C   UNL A   1      39.772  35.217  37.631  1.00  0.00     0.127 A 
ATOM     33  C   UNL A   1      40.899  35.819  37.081  1.00  0.00     0.047 A 
ATOM     34  C   UNL A   1      39.626  35.079  39.016  1.00  0.00     0.047 A 
ATOM     35  C   UNL A   1      41.897  36.294  37.924  1.00  0.00     0.004 A 
ATOM     36  C   UNL A   1      40.625  35.562  39.856  1.00  0.00     0.004 A 
ATOM     37  C   UNL A   1      41.764  36.154  39.307  1.00  0.00     0.000 A 
ENDBRANCH  31  32
ENDBRANCH  30  31
ENDBRANCH  17  25
ENDBRANCH  10  11
ENDBRANCH   9  10
ENDBRANCH   7   9
ENDBRANCH   6   7
ENDBRANCH   5   6
ENDBRANCH   4   5
ENDBRANCH   3   4
ENDBRANCH   2   3
ENDBRANCH   1   2
BRANCH   1  38
ATOM     38  O   UNL A   1      44.195  41.155  32.241  1.00  0.00    -0.377 OA
BRANCH  38  39
ATOM     39  C   UNL A   1      44.146  42.277  33.133  1.00  0.00     0.188 C 
BRANCH  39  40
ATOM     40  C   UNL A   1      45.237  42.625  34.172  1.00  0.00     0.188 C 
BRANCH  40  41
ATOM     41  O   UNL A   1      45.378  41.783  35.301  1.00  0.00    -0.376 OA
BRANCH  41  42
ATOM     42  C   UNL A   1      45.231  42.401  36.566  1.00  0.00     0.202 C 
BRANCH  42  43
ATOM     43  C   UNL A   1      45.843  41.689  37.786  1.00  0.00     0.261 C 
BRANCH  43  44
ATOM     44  O   UNL A   1      46.059  40.264  37.643  1.00  0.00    -0.460 OA
BRANCH  44  45
ATOM     45  C   UNL A   1      45.032  39.472  38.055  1.00  0.00     0.338 C 
ATOM     46  O   UNL A   1      44.237  39.739  38.943  1.00  0.00    -0.246 OA
BRANCH  45  47
ATOM     47  C   UNL A   1      44.894  38.249  37.216  1.00  0.00     0.060 A 
ATOM     48  C   UNL A   1      45.617  37.112  37.595  1.00  0.00     0.016 A 
ATOM     49  C   UNL A   1      44.195  38.241  36.004  1.00  0.00     0.016 A 
ATOM     50  C   UNL A   1      45.669  35.989  36.756  1.00  0.00     0.010 A 
ATOM     51  C   UNL A   1      44.260  37.113  35.157  1.00  0.00     0.010 A 
ATOM     52  C   UNL A   1      45.019  35.985  35.511  1.00  0.00    -0.014 A 
BRANCH  52  53
ATOM     53  C   UNL A   1      45.329  34.905  34.515  1.00  0.00     0.031 A 
ATOM     54  C   UNL A   1      46.401  35.171  33.484  1.00  0.00     0.074 A 
ATOM     55  C   UNL A   1      44.749  33.687  34.544  1.00  0.00     0.049 A 
ATOM     56  N   UNL A   1      46.843  34.404  32.519  1.00  0.00    -0.248 NA
ATOM     57  C   UNL A   1      47.047  36.490  33.547  1.00  0.00     0.031 C 
ATOM     58  C   UNL A   1      43.732  33.261  35.498  1.00  0.00     0.029 A 
ATOM     59  N   UNL A   1      44.972  32.560  33.779  1.00  0.00    -0.354 N 
ATOM     60  C   UNL A   1      47.828  35.140  31.869  1.00  0.00     0.074 A 
ATOM     61  C   UNL A   1      47.890  36.428  32.528  1.00  0.00     0.031 C 
ATOM     62  C   UNL A   1      43.494  31.947  35.330  1.00  0.00     0.029 A 
ATOM     63  C   UNL A   1      44.262  31.450  34.187  1.00  0.00     0.049 A 
ATOM     64  H   UNL A   1      45.587  32.550  33.009  1.00  0.00     0.167 HD
ATOM     65  C   UNL A   1      48.620  34.776  30.831  1.00  0.00     0.034 A 
ATOM     66  C   UNL A   1      44.215  30.191  33.691  1.00  0.00     0.034 A 
ATOM     67  C   UNL A   1      48.565  33.496  30.169  1.00  0.00     0.049 A 
ATOM     68  C   UNL A   1      45.014  29.858  32.444  1.00  0.00     0.074 A 
ATOM     69  C   UNL A   1      49.300  33.061  29.078  1.00  0.00     0.029 A 
ATOM     70  N   UNL A   1      47.729  32.447  30.524  1.00  0.00    -0.354 N 
ATOM     71  N   UNL A   1      45.904  30.585  31.807  1.00  0.00    -0.248 NA
ATOM     72  C   UNL A   1      44.777  28.541  31.831  1.00  0.00     0.031 C 
ATOM     73  C   UNL A   1      48.859  31.780  28.731  1.00  0.00     0.029 A 
ATOM     74  C   UNL A   1      47.908  31.380  29.655  1.00  0.00     0.049 A 
ATOM     75  H   UNL A   1      47.099  32.459  31.281  1.00  0.00     0.167 HD
ATOM     76  C   UNL A   1      46.331  29.808  30.728  1.00  0.00     0.074 A 
ATOM     77  C   UNL A   1      45.635  28.545  30.822  1.00  0.00     0.031 C 
ATOM     78  C   UNL A   1      47.210  30.119  29.742  1.00  0.00     0.034 A 
BRANCH  65  79
ATOM     79  C   UNL A   1      49.577  35.815  30.306  1.00  0.00     0.023 A 
ATOM     80  C   UNL A   1      49.259  36.623  29.202  1.00  0.00     0.031 A 
ATOM     81  C   UNL A   1      50.844  35.969  30.898  1.00  0.00     0.131 A 
ATOM     82  C   UNL A   1      50.221  37.502  28.683  1.00  0.00     0.055 A 
ATOM     83  C   UNL A   1      51.768  36.901  30.425  1.00  0.00     0.041 A 
ATOM     84  F   UNL A   1      51.207  35.206  31.941  1.00  0.00    -0.206 F 
ATOM     85  C   UNL A   1      51.464  37.663  29.301  1.00  0.00     0.022 A 
BRANCH  82  86
ATOM     86  S   UNL A   1      49.882  38.317  27.099  1.00  0.00     0.124 S 
ATOM     87  O   UNL A   1      51.163  38.172  26.412  1.00  0.00    -0.237 OA
ATOM     88  O   UNL A   1      48.779  37.524  26.569  1.00  0.00    -0.237 OA
ATOM     89  O   UNL A   1      49.540  39.685  27.484  1.00  0.00    -0.744 OA
ENDBRANCH  82  86
ENDBRANCH  65  79
BRANCH  66  90
ATOM     90  C   UNL A   1      43.321  29.143  34.290  1.00  0.00     0.023 A 
ATOM     91  C   UNL A   1      43.739  28.355  35.380  1.00  0.00     0.031 A 
ATOM     92  C   UNL A   1      42.081  28.831  33.705  1.00  0.00     0.131 A 
ATOM     93  C   UNL A   1      42.949  27.272  35.812  1.00  0.00     0.055 A 
ATOM     94  C   UNL A   1      41.266  27.805  34.187  1.00  0.00     0.041 A 
ATOM     95  F   UNL A   1      41.643  29.513  32.634  1.00  0.00    -0.206 F 
ATOM     96  C   UNL A   1      41.706  27.008  35.237  1.00  0.00     0.022 A 
BRANCH  93  97
ATOM     97  S   UNL A   1      43.626  26.127  37.051  1.00  0.00     0.124 S 
ATOM     98  O   UNL A   1      44.781  25.581  36.349  1.00  0.00    -0.237 OA
ATOM     99  O   UNL A   1      43.916  27.020  38.167  1.00  0.00    -0.237 OA
ATOM    100  O   UNL A   1      42.533  25.184  37.278  1.00  0.00    -0.744 OA
ENDBRANCH  93  97
ENDBRANCH  66  90
BRANCH  78 101
ATOM    101  C   UNL A   1      47.504  29.062  28.700  1.00  0.00     0.023 A 
ATOM    102  C   UNL A   1      46.802  29.001  27.482  1.00  0.00     0.031 A 
ATOM    103  C   UNL A   1      48.516  28.108  28.922  1.00  0.00     0.131 A 
ATOM    104  C   UNL A   1      47.091  27.987  26.554  1.00  0.00     0.055 A 
ATOM    105  C   UNL A   1      48.839  27.138  27.970  1.00  0.00     0.041 A 
ATOM    106  F   UNL A   1      49.220  28.113  30.064  1.00  0.00    -0.206 F 
ATOM    107  C   UNL A   1      48.118  27.067  26.782  1.00  0.00     0.022 A 
BRANCH 104 108
ATOM    108  S   UNL A   1      46.058  27.834  25.069  1.00  0.00     0.124 S 
ATOM    109  O   UNL A   1      46.111  26.400  24.807  1.00  0.00    -0.237 OA
ATOM    110  O   UNL A   1      44.773  28.353  25.527  1.00  0.00    -0.237 OA
ATOM    111  O   UNL A   1      46.745  28.669  24.084  1.00  0.00    -0.744 OA
ENDBRANCH 104 108
ENDBRANCH  78 101
ENDBRANCH  52  53
ENDBRANCH  45  47
ENDBRANCH  44  45
ENDBRANCH  43  44
ENDBRANCH  42  43
ENDBRANCH  41  42
ENDBRANCH  40  41
ENDBRANCH  39  40
ENDBRANCH  38  39
ENDBRANCH   1  38
TORSDOF 28
ENDMDL
