MODEL 1
REMARK VINA RESULT:      -8.3      0.000      0.000
REMARK SMILES CCCC[C@H](C(=O)OCCOCCOCCOCCOC(=O)c1ccc(-c2c3nc(c(-c4cc(S(=O)(=O)[O-])ccc4F)c4ccc([nH]4)c(-c4cc(S(=O)(=O)[O-])ccc4F)c4nc(c(-c5cc(S(=O)(=O)[O-])ccc5F)c5ccc2[nH]5)C=C4)C=C3)cc1)N1C(=O)/C(=C/c2ccc(C)cc2)SC1=S
REMARK SMILES IDX 14 1 13 2 12 3 11 4 10 5 9 6 8 7 6 8 7 9 5 10 4 11 3 12 2 13
REMARK SMILES IDX 1 14 86 15 87 16 99 17 88 18 89 19 98 20 100 21 90 22 91 23
REMARK SMILES IDX 92 24 97 25 93 26 96 27 94 28 95 29 15 30 16 31 17 32 18 33
REMARK SMILES IDX 19 34 20 35 21 36 22 37 23 38 24 39 85 40 25 41 84 42 26 43
REMARK SMILES IDX 27 44 28 45 78 46 29 47 83 48 77 49 79 50 30 51 82 52 76 53
REMARK SMILES IDX 75 54 31 56 63 57 43 58 62 59 44 60 47 61 61 62 80 63 45 64
REMARK SMILES IDX 46 65 60 67 81 68 48 69 32 70 33 71 41 72 34 73 40 74 42 75
REMARK SMILES IDX 39 76 35 77 36 78 37 79 38 80 64 81 65 82 73 83 66 84 72 85
REMARK SMILES IDX 74 86 71 87 67 88 68 89 69 90 70 91 49 92 50 93 58 94 51 95
REMARK SMILES IDX 57 96 59 97 56 98 52 99 53 100 54 101 55 102
REMARK H PARENT 79 55 47 66
REMARK Flexibility Score: inf
ROOT
ATOM      1  O   UNL A   1      36.270  29.409  28.876  1.00  0.00    -0.377 OA
ENDROOT
BRANCH   1   2
ATOM      2  C   UNL A   1      35.909  30.363  27.883  1.00  0.00     0.188 C 
BRANCH   2   3
ATOM      3  C   UNL A   1      34.458  30.319  27.401  1.00  0.00     0.188 C 
BRANCH   3   4
ATOM      4  O   UNL A   1      33.847  29.045  27.261  1.00  0.00    -0.376 OA
BRANCH   4   5
ATOM      5  C   UNL A   1      32.424  28.963  27.259  1.00  0.00     0.202 C 
BRANCH   5   6
ATOM      6  C   UNL A   1      31.710  28.538  25.966  1.00  0.00     0.261 C 
BRANCH   6   7
ATOM      7  O   UNL A   1      32.381  28.973  24.761  1.00  0.00    -0.462 OA
BRANCH   7   8
ATOM      8  C   UNL A   1      32.709  27.989  23.891  1.00  0.00     0.329 C 
ATOM      9  O   UNL A   1      33.797  27.938  23.318  1.00  0.00    -0.250 OA
BRANCH   8  10
ATOM     10  C   UNL A   1      31.617  26.914  23.635  1.00  0.00     0.202 C 
BRANCH  10  11
ATOM     11  C   UNL A   1      30.664  27.524  22.566  1.00  0.00     0.038 C 
BRANCH  11  12
ATOM     12  C   UNL A   1      29.369  28.132  23.112  1.00  0.00     0.002 C 
BRANCH  12  13
ATOM     13  C   UNL A   1      28.953  29.444  22.444  1.00  0.00    -0.003 C 
ATOM     14  C   UNL A   1      29.056  30.652  23.365  1.00  0.00     0.004 C 
ENDBRANCH  12  13
ENDBRANCH  11  12
ENDBRANCH  10  11
BRANCH  10  15
ATOM     15  N   UNL A   1      31.948  25.465  23.435  1.00  0.00    -0.278 N 
ATOM     16  C   UNL A   1      31.918  24.533  24.464  1.00  0.00     0.266 C 
ATOM     17  C   UNL A   1      32.403  24.965  22.224  1.00  0.00     0.149 C 
ATOM     18  O   UNL A   1      31.491  24.694  25.600  1.00  0.00    -0.268 OA
ATOM     19  C   UNL A   1      32.526  23.229  24.051  1.00  0.00     0.081 C 
ATOM     20  S   UNL A   1      32.842  23.259  22.374  1.00  0.00    -0.054 SA
ATOM     21  S   UNL A   1      32.617  25.778  20.782  1.00  0.00    -0.052 S 
ATOM     22  C   UNL A   1      32.743  22.247  24.945  1.00  0.00     0.029 C 
BRANCH  22  23
ATOM     23  C   UNL A   1      33.268  20.876  24.770  1.00  0.00    -0.024 A 
ATOM     24  C   UNL A   1      32.350  19.853  24.481  1.00  0.00     0.008 A 
ATOM     25  C   UNL A   1      34.610  20.521  24.937  1.00  0.00     0.008 A 
ATOM     26  C   UNL A   1      32.770  18.532  24.288  1.00  0.00     0.004 A 
ATOM     27  C   UNL A   1      35.035  19.197  24.739  1.00  0.00     0.004 A 
ATOM     28  C   UNL A   1      34.122  18.196  24.391  1.00  0.00    -0.051 A 
ATOM     29  C   UNL A   1      34.570  16.787  24.126  1.00  0.00     0.044 C 
ENDBRANCH  22  23
ENDBRANCH  10  15
ENDBRANCH   8  10
ENDBRANCH   7   8
ENDBRANCH   6   7
ENDBRANCH   5   6
ENDBRANCH   4   5
ENDBRANCH   3   4
ENDBRANCH   2   3
ENDBRANCH   1   2
BRANCH   1  30
ATOM     30  C   UNL A   1      37.271  29.750  29.842  1.00  0.00     0.188 C 
BRANCH  30  31
ATOM     31  C   UNL A   1      37.453  31.237  30.169  1.00  0.00     0.188 C 
BRANCH  31  32
ATOM     32  O   UNL A   1      36.709  31.772  31.270  1.00  0.00    -0.376 OA
BRANCH  32  33
ATOM     33  C   UNL A   1      37.290  31.744  32.570  1.00  0.00     0.202 C 
BRANCH  33  34
ATOM     34  C   UNL A   1      38.816  31.815  32.620  1.00  0.00     0.261 C 
BRANCH  34  35
ATOM     35  O   UNL A   1      39.302  33.079  33.085  1.00  0.00    -0.460 OA
BRANCH  35  36
ATOM     36  C   UNL A   1      39.086  34.121  32.240  1.00  0.00     0.338 C 
ATOM     37  O   UNL A   1      38.121  34.857  32.206  1.00  0.00    -0.246 OA
BRANCH  36  38
ATOM     38  C   UNL A   1      40.307  34.327  31.438  1.00  0.00     0.060 A 
ATOM     39  C   UNL A   1      40.228  34.214  30.043  1.00  0.00     0.016 A 
ATOM     40  C   UNL A   1      41.525  34.588  32.065  1.00  0.00     0.016 A 
ATOM     41  C   UNL A   1      41.375  34.361  29.267  1.00  0.00     0.010 A 
ATOM     42  C   UNL A   1      42.677  34.704  31.291  1.00  0.00     0.010 A 
ATOM     43  C   UNL A   1      42.608  34.574  29.893  1.00  0.00    -0.014 A 
BRANCH  43  44
ATOM     44  C   UNL A   1      43.862  34.509  29.114  1.00  0.00     0.031 A 
ATOM     45  C   UNL A   1      44.562  33.189  28.996  1.00  0.00     0.074 A 
ATOM     46  C   UNL A   1      44.373  35.616  28.551  1.00  0.00     0.049 A 
ATOM     47  N   UNL A   1      45.741  32.914  28.506  1.00  0.00    -0.248 NA
ATOM     48  C   UNL A   1      43.833  32.021  29.516  1.00  0.00     0.031 C 
ATOM     49  C   UNL A   1      43.735  36.931  28.548  1.00  0.00     0.029 A 
ATOM     50  N   UNL A   1      45.557  35.811  27.889  1.00  0.00    -0.354 N 
ATOM     51  C   UNL A   1      45.903  31.542  28.664  1.00  0.00     0.074 A 
ATOM     52  C   UNL A   1      44.714  31.052  29.330  1.00  0.00     0.031 C 
ATOM     53  C   UNL A   1      44.548  37.805  27.931  1.00  0.00     0.029 A 
ATOM     54  C   UNL A   1      45.784  37.123  27.550  1.00  0.00     0.049 A 
ATOM     55  H   UNL A   1      46.184  35.082  27.678  1.00  0.00     0.167 HD
ATOM     56  C   UNL A   1      46.950  30.770  28.284  1.00  0.00     0.034 A 
ATOM     57  C   UNL A   1      46.884  37.708  27.036  1.00  0.00     0.034 A 
ATOM     58  C   UNL A   1      48.133  31.295  27.649  1.00  0.00     0.049 A 
ATOM     59  C   UNL A   1      48.096  36.853  26.755  1.00  0.00     0.074 A 
ATOM     60  C   UNL A   1      49.253  30.612  27.211  1.00  0.00     0.029 A 
ATOM     61  N   UNL A   1      48.360  32.640  27.383  1.00  0.00    -0.354 N 
ATOM     62  N   UNL A   1      48.246  35.556  26.902  1.00  0.00    -0.248 NA
ATOM     63  C   UNL A   1      49.290  37.542  26.247  1.00  0.00     0.031 C 
ATOM     64  C   UNL A   1      50.190  31.550  26.763  1.00  0.00     0.029 A 
ATOM     65  C   UNL A   1      49.622  32.813  26.836  1.00  0.00     0.049 A 
ATOM     66  H   UNL A   1      47.717  33.366  27.556  1.00  0.00     0.167 HD
ATOM     67  C   UNL A   1      49.543  35.272  26.481  1.00  0.00     0.074 A 
ATOM     68  C   UNL A   1      50.127  36.530  26.062  1.00  0.00     0.031 C 
ATOM     69  C   UNL A   1      50.193  34.080  26.441  1.00  0.00     0.034 A 
BRANCH  56  70
ATOM     70  C   UNL A   1      46.876  29.298  28.610  1.00  0.00     0.023 A 
ATOM     71  C   UNL A   1      46.411  28.357  27.675  1.00  0.00     0.031 A 
ATOM     72  C   UNL A   1      47.224  28.834  29.891  1.00  0.00     0.131 A 
ATOM     73  C   UNL A   1      46.222  27.021  28.060  1.00  0.00     0.055 A 
ATOM     74  C   UNL A   1      47.121  27.486  30.239  1.00  0.00     0.041 A 
ATOM     75  F   UNL A   1      47.648  29.687  30.836  1.00  0.00    -0.206 F 
ATOM     76  C   UNL A   1      46.599  26.573  29.328  1.00  0.00     0.022 A 
BRANCH  73  77
ATOM     77  S   UNL A   1      45.312  25.921  26.942  1.00  0.00     0.124 S 
ATOM     78  O   UNL A   1      44.533  26.876  26.157  1.00  0.00    -0.237 OA
ATOM     79  O   UNL A   1      46.386  25.235  26.231  1.00  0.00    -0.237 OA
ATOM     80  O   UNL A   1      44.527  25.084  27.847  1.00  0.00    -0.744 OA
ENDBRANCH  73  77
ENDBRANCH  56  70
BRANCH  57  81
ATOM     81  C   UNL A   1      46.916  39.179  26.804  1.00  0.00     0.023 A 
ATOM     82  C   UNL A   1      46.619  39.713  25.541  1.00  0.00     0.031 A 
ATOM     83  C   UNL A   1      47.279  40.072  27.828  1.00  0.00     0.131 A 
ATOM     84  C   UNL A   1      46.726  41.095  25.324  1.00  0.00     0.055 A 
ATOM     85  C   UNL A   1      47.327  41.452  27.623  1.00  0.00     0.041 A 
ATOM     86  F   UNL A   1      47.581  39.614  29.054  1.00  0.00    -0.206 F 
ATOM     87  C   UNL A   1      47.060  41.970  26.360  1.00  0.00     0.022 A 
BRANCH  84  88
ATOM     88  S   UNL A   1      46.500  41.724  23.639  1.00  0.00     0.124 S 
ATOM     89  O   UNL A   1      47.480  42.803  23.592  1.00  0.00    -0.237 OA
ATOM     90  O   UNL A   1      46.802  40.546  22.832  1.00  0.00    -0.237 OA
ATOM     91  O   UNL A   1      45.102  42.148  23.619  1.00  0.00    -0.744 OA
ENDBRANCH  84  88
ENDBRANCH  57  81
BRANCH  69  92
ATOM     92  C   UNL A   1      51.603  34.079  25.901  1.00  0.00     0.023 A 
ATOM     93  C   UNL A   1      51.893  33.642  24.597  1.00  0.00     0.031 A 
ATOM     94  C   UNL A   1      52.666  34.548  26.694  1.00  0.00     0.131 A 
ATOM     95  C   UNL A   1      53.219  33.645  24.138  1.00  0.00     0.055 A 
ATOM     96  C   UNL A   1      53.974  34.607  26.210  1.00  0.00     0.041 A 
ATOM     97  F   UNL A   1      52.447  34.973  27.949  1.00  0.00    -0.206 F 
ATOM     98  C   UNL A   1      54.257  34.145  24.928  1.00  0.00     0.022 A 
BRANCH  95  99
ATOM     99  S   UNL A   1      53.581  32.917  22.517  1.00  0.00     0.124 S 
ATOM    100  O   UNL A   1      54.430  33.937  21.910  1.00  0.00    -0.237 OA
ATOM    101  O   UNL A   1      54.242  31.667  22.874  1.00  0.00    -0.237 OA
ATOM    102  O   UNL A   1      52.260  32.767  21.907  1.00  0.00    -0.744 OA
ENDBRANCH  95  99
ENDBRANCH  69  92
ENDBRANCH  43  44
ENDBRANCH  36  38
ENDBRANCH  35  36
ENDBRANCH  34  35
ENDBRANCH  33  34
ENDBRANCH  32  33
ENDBRANCH  31  32
ENDBRANCH  30  31
ENDBRANCH   1  30
TORSDOF 28
ENDMDL
MODEL 2
REMARK VINA RESULT:      -8.2      3.330      4.735
REMARK SMILES CCCC[C@H](C(=O)OCCOCCOCCOCCOC(=O)c1ccc(-c2c3nc(c(-c4cc(S(=O)(=O)[O-])ccc4F)c4ccc([nH]4)c(-c4cc(S(=O)(=O)[O-])ccc4F)c4nc(c(-c5cc(S(=O)(=O)[O-])ccc5F)c5ccc2[nH]5)C=C4)C=C3)cc1)N1C(=O)/C(=C/c2ccc(C)cc2)SC1=S
REMARK SMILES IDX 14 1 13 2 12 3 11 4 10 5 9 6 8 7 6 8 7 9 5 10 4 11 3 12 2 13
REMARK SMILES IDX 1 14 86 15 87 16 99 17 88 18 89 19 98 20 100 21 90 22 91 23
REMARK SMILES IDX 92 24 97 25 93 26 96 27 94 28 95 29 15 30 16 31 17 32 18 33
REMARK SMILES IDX 19 34 20 35 21 36 22 37 23 38 24 39 85 40 25 41 84 42 26 43
REMARK SMILES IDX 27 44 28 45 78 46 29 47 83 48 77 49 79 50 30 51 82 52 76 53
REMARK SMILES IDX 75 54 31 56 63 57 43 58 62 59 44 60 47 61 61 62 80 63 45 64
REMARK SMILES IDX 46 65 60 67 81 68 48 69 32 70 33 71 41 72 34 73 40 74 42 75
REMARK SMILES IDX 39 76 35 77 36 78 37 79 38 80 64 81 65 82 73 83 66 84 72 85
REMARK SMILES IDX 74 86 71 87 67 88 68 89 69 90 70 91 49 92 50 93 58 94 51 95
REMARK SMILES IDX 57 96 59 97 56 98 52 99 53 100 54 101 55 102
REMARK H PARENT 79 55 47 66
REMARK Flexibility Score: inf
ROOT
ATOM      1  O   UNL A   1      36.040  30.694  29.113  1.00  0.00    -0.377 OA
ENDROOT
BRANCH   1   2
ATOM      2  C   UNL A   1      34.995  31.515  28.603  1.00  0.00     0.188 C 
BRANCH   2   3
ATOM      3  C   UNL A   1      34.032  30.849  27.619  1.00  0.00     0.188 C 
BRANCH   3   4
ATOM      4  O   UNL A   1      34.439  29.626  27.022  1.00  0.00    -0.376 OA
BRANCH   4   5
ATOM      5  C   UNL A   1      33.490  28.569  26.910  1.00  0.00     0.202 C 
BRANCH   5   6
ATOM      6  C   UNL A   1      32.908  28.242  25.525  1.00  0.00     0.261 C 
BRANCH   6   7
ATOM      7  O   UNL A   1      33.863  28.376  24.447  1.00  0.00    -0.462 OA
BRANCH   7   8
ATOM      8  C   UNL A   1      33.468  27.873  23.254  1.00  0.00     0.329 C 
ATOM      9  O   UNL A   1      34.026  28.151  22.193  1.00  0.00    -0.250 OA
BRANCH   8  10
ATOM     10  C   UNL A   1      32.242  26.920  23.290  1.00  0.00     0.202 C 
BRANCH  10  11
ATOM     11  C   UNL A   1      31.161  27.586  22.388  1.00  0.00     0.038 C 
BRANCH  11  12
ATOM     12  C   UNL A   1      29.980  28.214  23.134  1.00  0.00     0.002 C 
BRANCH  12  13
ATOM     13  C   UNL A   1      29.296  29.361  22.388  1.00  0.00    -0.003 C 
ATOM     14  C   UNL A   1      28.060  29.895  23.099  1.00  0.00     0.004 C 
ENDBRANCH  12  13
ENDBRANCH  11  12
ENDBRANCH  10  11
BRANCH  10  15
ATOM     15  N   UNL A   1      32.373  25.435  23.127  1.00  0.00    -0.278 N 
ATOM     16  C   UNL A   1      32.437  24.559  24.203  1.00  0.00     0.266 C 
ATOM     17  C   UNL A   1      32.539  24.832  21.889  1.00  0.00     0.149 C 
ATOM     18  O   UNL A   1      32.248  24.818  25.385  1.00  0.00    -0.268 OA
ATOM     19  C   UNL A   1      32.815  23.176  23.772  1.00  0.00     0.081 C 
ATOM     20  S   UNL A   1      32.813  23.095  22.067  1.00  0.00    -0.054 SA
ATOM     21  S   UNL A   1      32.565  25.551  20.382  1.00  0.00    -0.052 S 
ATOM     22  C   UNL A   1      33.088  22.216  24.674  1.00  0.00     0.029 C 
BRANCH  22  23
ATOM     23  C   UNL A   1      33.422  20.786  24.496  1.00  0.00    -0.024 A 
ATOM     24  C   UNL A   1      32.431  19.940  23.973  1.00  0.00     0.008 A 
ATOM     25  C   UNL A   1      34.639  20.211  24.875  1.00  0.00     0.008 A 
ATOM     26  C   UNL A   1      32.674  18.578  23.763  1.00  0.00     0.004 A 
ATOM     27  C   UNL A   1      34.888  18.846  24.660  1.00  0.00     0.004 A 
ATOM     28  C   UNL A   1      33.915  18.022  24.082  1.00  0.00    -0.051 A 
ATOM     29  C   UNL A   1      34.186  16.573  23.799  1.00  0.00     0.044 C 
ENDBRANCH  22  23
ENDBRANCH  10  15
ENDBRANCH   8  10
ENDBRANCH   7   8
ENDBRANCH   6   7
ENDBRANCH   5   6
ENDBRANCH   4   5
ENDBRANCH   3   4
ENDBRANCH   2   3
ENDBRANCH   1   2
BRANCH   1  30
ATOM     30  C   UNL A   1      37.388  31.177  29.079  1.00  0.00     0.188 C 
BRANCH  30  31
ATOM     31  C   UNL A   1      37.752  32.310  30.046  1.00  0.00     0.188 C 
BRANCH  31  32
ATOM     32  O   UNL A   1      36.839  32.595  31.112  1.00  0.00    -0.376 OA
BRANCH  32  33
ATOM     33  C   UNL A   1      37.168  32.168  32.429  1.00  0.00     0.202 C 
BRANCH  33  34
ATOM     34  C   UNL A   1      38.612  31.715  32.643  1.00  0.00     0.261 C 
BRANCH  34  35
ATOM     35  O   UNL A   1      39.361  32.606  33.476  1.00  0.00    -0.460 OA
BRANCH  35  36
ATOM     36  C   UNL A   1      39.842  33.709  32.846  1.00  0.00     0.338 C 
ATOM     37  O   UNL A   1      39.478  34.859  32.988  1.00  0.00    -0.246 OA
BRANCH  36  38
ATOM     38  C   UNL A   1      41.015  33.310  32.045  1.00  0.00     0.060 A 
ATOM     39  C   UNL A   1      41.104  33.739  30.715  1.00  0.00     0.016 A 
ATOM     40  C   UNL A   1      41.995  32.484  32.597  1.00  0.00     0.016 A 
ATOM     41  C   UNL A   1      42.180  33.340  29.925  1.00  0.00     0.010 A 
ATOM     42  C   UNL A   1      43.055  32.061  31.798  1.00  0.00     0.010 A 
ATOM     43  C   UNL A   1      43.140  32.472  30.457  1.00  0.00    -0.014 A 
BRANCH  43  44
ATOM     44  C   UNL A   1      44.160  31.860  29.580  1.00  0.00     0.031 A 
ATOM     45  C   UNL A   1      43.834  30.561  28.905  1.00  0.00     0.074 A 
ATOM     46  C   UNL A   1      45.360  32.441  29.419  1.00  0.00     0.049 A 
ATOM     47  N   UNL A   1      44.611  29.761  28.224  1.00  0.00    -0.248 NA
ATOM     48  C   UNL A   1      42.443  30.100  29.027  1.00  0.00     0.031 C 
ATOM     49  C   UNL A   1      45.750  33.737  29.975  1.00  0.00     0.029 A 
ATOM     50  N   UNL A   1      46.477  32.006  28.755  1.00  0.00    -0.354 N 
ATOM     51  C   UNL A   1      43.806  28.694  27.842  1.00  0.00     0.074 A 
ATOM     52  C   UNL A   1      42.492  28.936  28.400  1.00  0.00     0.031 C 
ATOM     53  C   UNL A   1      47.029  33.981  29.645  1.00  0.00     0.029 A 
ATOM     54  C   UNL A   1      47.561  32.837  28.907  1.00  0.00     0.049 A 
ATOM     55  H   UNL A   1      46.500  31.179  28.222  1.00  0.00     0.167 HD
ATOM     56  C   UNL A   1      44.140  27.616  27.092  1.00  0.00     0.034 A 
ATOM     57  C   UNL A   1      48.844  32.664  28.534  1.00  0.00     0.034 A 
ATOM     58  C   UNL A   1      45.467  27.389  26.575  1.00  0.00     0.049 A 
ATOM     59  C   UNL A   1      49.228  31.386  27.826  1.00  0.00     0.074 A 
ATOM     60  C   UNL A   1      45.923  26.341  25.797  1.00  0.00     0.029 A 
ATOM     61  N   UNL A   1      46.559  28.217  26.807  1.00  0.00    -0.354 N 
ATOM     62  N   UNL A   1      48.466  30.380  27.462  1.00  0.00    -0.248 NA
ATOM     63  C   UNL A   1      50.647  31.218  27.487  1.00  0.00     0.031 C 
ATOM     64  C   UNL A   1      47.305  26.488  25.634  1.00  0.00     0.029 A 
ATOM     65  C   UNL A   1      47.699  27.675  26.232  1.00  0.00     0.049 A 
ATOM     66  H   UNL A   1      46.529  29.065  27.306  1.00  0.00     0.167 HD
ATOM     67  C   UNL A   1      49.310  29.471  26.829  1.00  0.00     0.074 A 
ATOM     68  C   UNL A   1      50.636  30.055  26.849  1.00  0.00     0.031 C 
ATOM     69  C   UNL A   1      49.017  28.264  26.279  1.00  0.00     0.034 A 
BRANCH  56  70
ATOM     70  C   UNL A   1      43.066  26.582  26.851  1.00  0.00     0.023 A 
ATOM     71  C   UNL A   1      43.106  25.318  27.464  1.00  0.00     0.031 A 
ATOM     72  C   UNL A   1      42.015  26.843  25.954  1.00  0.00     0.131 A 
ATOM     73  C   UNL A   1      42.171  24.335  27.106  1.00  0.00     0.055 A 
ATOM     74  C   UNL A   1      41.034  25.891  25.672  1.00  0.00     0.041 A 
ATOM     75  F   UNL A   1      41.937  28.021  25.315  1.00  0.00    -0.206 F 
ATOM     76  C   UNL A   1      41.119  24.621  26.234  1.00  0.00     0.022 A 
BRANCH  73  77
ATOM     77  S   UNL A   1      42.456  22.631  27.658  1.00  0.00     0.124 S 
ATOM     78  O   UNL A   1      43.844  22.696  28.113  1.00  0.00    -0.237 OA
ATOM     79  O   UNL A   1      41.450  22.465  28.700  1.00  0.00    -0.237 OA
ATOM     80  O   UNL A   1      42.241  21.839  26.449  1.00  0.00    -0.744 OA
ENDBRANCH  73  77
ENDBRANCH  56  70
BRANCH  57  81
ATOM     81  C   UNL A   1      49.870  33.692  28.865  1.00  0.00     0.023 A 
ATOM     82  C   UNL A   1      50.160  34.731  27.967  1.00  0.00     0.031 A 
ATOM     83  C   UNL A   1      50.602  33.634  30.064  1.00  0.00     0.131 A 
ATOM     84  C   UNL A   1      51.181  35.646  28.264  1.00  0.00     0.055 A 
ATOM     85  C   UNL A   1      51.576  34.582  30.382  1.00  0.00     0.041 A 
ATOM     86  F   UNL A   1      50.370  32.657  30.955  1.00  0.00    -0.206 F 
ATOM     87  C   UNL A   1      51.878  35.591  29.473  1.00  0.00     0.022 A 
BRANCH  84  88
ATOM     88  S   UNL A   1      51.640  36.867  27.005  1.00  0.00     0.124 S 
ATOM     89  O   UNL A   1      51.199  36.208  25.780  1.00  0.00    -0.237 OA
ATOM     90  O   UNL A   1      50.869  38.034  27.419  1.00  0.00    -0.237 OA
ATOM     91  O   UNL A   1      53.087  36.991  27.162  1.00  0.00    -0.744 OA
ENDBRANCH  84  88
ENDBRANCH  57  81
BRANCH  69  92
ATOM     92  C   UNL A   1      50.151  27.508  25.630  1.00  0.00     0.023 A 
ATOM     93  C   UNL A   1      50.603  27.823  24.337  1.00  0.00     0.031 A 
ATOM     94  C   UNL A   1      50.803  26.475  26.326  1.00  0.00     0.131 A 
ATOM     95  C   UNL A   1      51.651  27.085  23.764  1.00  0.00     0.055 A 
ATOM     96  C   UNL A   1      51.886  25.787  25.776  1.00  0.00     0.041 A 
ATOM     97  F   UNL A   1      50.410  26.129  27.562  1.00  0.00    -0.206 F 
ATOM     98  C   UNL A   1      52.309  26.085  24.484  1.00  0.00     0.022 A 
BRANCH  95  99
ATOM     99  S   UNL A   1      52.096  27.403  22.036  1.00  0.00     0.124 S 
ATOM    100  O   UNL A   1      50.792  27.402  21.382  1.00  0.00    -0.237 OA
ATOM    101  O   UNL A   1      52.768  28.695  22.116  1.00  0.00    -0.237 OA
ATOM    102  O   UNL A   1      52.962  26.275  21.693  1.00  0.00    -0.744 OA
ENDBRANCH  95  99
ENDBRANCH  69  92
ENDBRANCH  43  44
ENDBRANCH  36  38
ENDBRANCH  35  36
ENDBRANCH  34  35
ENDBRANCH  33  34
ENDBRANCH  32  33
ENDBRANCH  31  32
ENDBRANCH  30  31
ENDBRANCH   1  30
TORSDOF 28
ENDMDL
MODEL 3
REMARK VINA RESULT:      -8.1      7.117      9.641
REMARK SMILES CCCC[C@H](C(=O)OCCOCCOCCOCCOC(=O)c1ccc(-c2c3nc(c(-c4cc(S(=O)(=O)[O-])ccc4F)c4ccc([nH]4)c(-c4cc(S(=O)(=O)[O-])ccc4F)c4nc(c(-c5cc(S(=O)(=O)[O-])ccc5F)c5ccc2[nH]5)C=C4)C=C3)cc1)N1C(=O)/C(=C/c2ccc(C)cc2)SC1=S
REMARK SMILES IDX 14 1 13 2 12 3 11 4 10 5 9 6 8 7 6 8 7 9 5 10 4 11 3 12 2 13
REMARK SMILES IDX 1 14 86 15 87 16 99 17 88 18 89 19 98 20 100 21 90 22 91 23
REMARK SMILES IDX 92 24 97 25 93 26 96 27 94 28 95 29 15 30 16 31 17 32 18 33
REMARK SMILES IDX 19 34 20 35 21 36 22 37 23 38 24 39 85 40 25 41 84 42 26 43
REMARK SMILES IDX 27 44 28 45 78 46 29 47 83 48 77 49 79 50 30 51 82 52 76 53
REMARK SMILES IDX 75 54 31 56 63 57 43 58 62 59 44 60 47 61 61 62 80 63 45 64
REMARK SMILES IDX 46 65 60 67 81 68 48 69 32 70 33 71 41 72 34 73 40 74 42 75
REMARK SMILES IDX 39 76 35 77 36 78 37 79 38 80 64 81 65 82 73 83 66 84 72 85
REMARK SMILES IDX 74 86 71 87 67 88 68 89 69 90 70 91 49 92 50 93 58 94 51 95
REMARK SMILES IDX 57 96 59 97 56 98 52 99 53 100 54 101 55 102
REMARK H PARENT 79 55 47 66
REMARK Flexibility Score: inf
ROOT
ATOM      1  O   UNL A   1      36.680  30.767  29.951  1.00  0.00    -0.377 OA
ENDROOT
BRANCH   1   2
ATOM      2  C   UNL A   1      36.173  31.765  29.071  1.00  0.00     0.188 C 
BRANCH   2   3
ATOM      3  C   UNL A   1      35.451  31.258  27.821  1.00  0.00     0.188 C 
BRANCH   3   4
ATOM      4  O   UNL A   1      34.138  30.742  27.979  1.00  0.00    -0.376 OA
BRANCH   4   5
ATOM      5  C   UNL A   1      33.703  29.695  27.116  1.00  0.00     0.202 C 
BRANCH   5   6
ATOM      6  C   UNL A   1      32.955  30.063  25.825  1.00  0.00     0.261 C 
BRANCH   6   7
ATOM      7  O   UNL A   1      31.941  29.105  25.447  1.00  0.00    -0.462 OA
BRANCH   7   8
ATOM      8  C   UNL A   1      30.991  29.567  24.601  1.00  0.00     0.329 C 
ATOM      9  O   UNL A   1      30.579  30.727  24.627  1.00  0.00    -0.250 OA
BRANCH   8  10
ATOM     10  C   UNL A   1      30.425  28.538  23.584  1.00  0.00     0.202 C 
BRANCH  10  11
ATOM     11  C   UNL A   1      30.172  29.335  22.270  1.00  0.00     0.038 C 
BRANCH  11  12
ATOM     12  C   UNL A   1      28.732  29.810  22.057  1.00  0.00     0.002 C 
BRANCH  12  13
ATOM     13  C   UNL A   1      28.600  31.069  21.199  1.00  0.00    -0.003 C 
ATOM     14  C   UNL A   1      28.262  32.317  22.003  1.00  0.00     0.004 C 
ENDBRANCH  12  13
ENDBRANCH  11  12
ENDBRANCH  10  11
BRANCH  10  15
ATOM     15  N   UNL A   1      31.032  27.180  23.393  1.00  0.00    -0.278 N 
ATOM     16  C   UNL A   1      30.398  26.007  23.781  1.00  0.00     0.266 C 
ATOM     17  C   UNL A   1      32.315  27.000  22.900  1.00  0.00     0.149 C 
ATOM     18  O   UNL A   1      29.245  25.880  24.175  1.00  0.00    -0.268 OA
ATOM     19  C   UNL A   1      31.317  24.828  23.707  1.00  0.00     0.081 C 
ATOM     20  S   UNL A   1      32.772  25.293  22.945  1.00  0.00    -0.054 SA
ATOM     21  S   UNL A   1      33.397  28.159  22.376  1.00  0.00    -0.052 S 
ATOM     22  C   UNL A   1      30.951  23.627  24.192  1.00  0.00     0.029 C 
BRANCH  22  23
ATOM     23  C   UNL A   1      31.650  22.324  24.182  1.00  0.00    -0.024 A 
ATOM     24  C   UNL A   1      32.043  21.780  25.416  1.00  0.00     0.008 A 
ATOM     25  C   UNL A   1      32.001  21.630  23.020  1.00  0.00     0.008 A 
ATOM     26  C   UNL A   1      32.697  20.545  25.491  1.00  0.00     0.004 A 
ATOM     27  C   UNL A   1      32.652  20.388  23.093  1.00  0.00     0.004 A 
ATOM     28  C   UNL A   1      32.986  19.825  24.330  1.00  0.00    -0.051 A 
ATOM     29  C   UNL A   1      33.636  18.474  24.424  1.00  0.00     0.044 C 
ENDBRANCH  22  23
ENDBRANCH  10  15
ENDBRANCH   8  10
ENDBRANCH   7   8
ENDBRANCH   6   7
ENDBRANCH   5   6
ENDBRANCH   4   5
ENDBRANCH   3   4
ENDBRANCH   2   3
ENDBRANCH   1   2
BRANCH   1  30
ATOM     30  C   UNL A   1      37.280  31.166  31.188  1.00  0.00     0.188 C 
BRANCH  30  31
ATOM     31  C   UNL A   1      36.379  31.192  32.428  1.00  0.00     0.188 C 
BRANCH  31  32
ATOM     32  O   UNL A   1      35.497  32.309  32.589  1.00  0.00    -0.376 OA
BRANCH  32  33
ATOM     33  C   UNL A   1      36.053  33.584  32.890  1.00  0.00     0.202 C 
BRANCH  33  34
ATOM     34  C   UNL A   1      36.002  34.005  34.358  1.00  0.00     0.261 C 
BRANCH  34  35
ATOM     35  O   UNL A   1      37.103  33.502  35.123  1.00  0.00    -0.460 OA
BRANCH  35  36
ATOM     36  C   UNL A   1      38.308  34.048  34.817  1.00  0.00     0.338 C 
ATOM     37  O   UNL A   1      38.634  35.215  34.900  1.00  0.00    -0.246 OA
BRANCH  36  38
ATOM     38  C   UNL A   1      39.245  32.953  34.501  1.00  0.00     0.060 A 
ATOM     39  C   UNL A   1      38.921  31.649  34.898  1.00  0.00     0.016 A 
ATOM     40  C   UNL A   1      40.451  33.223  33.854  1.00  0.00     0.016 A 
ATOM     41  C   UNL A   1      39.808  30.605  34.650  1.00  0.00     0.010 A 
ATOM     42  C   UNL A   1      41.351  32.183  33.633  1.00  0.00     0.010 A 
ATOM     43  C   UNL A   1      41.041  30.877  34.046  1.00  0.00    -0.014 A 
BRANCH  43  44
ATOM     44  C   UNL A   1      42.084  29.833  33.976  1.00  0.00     0.031 A 
ATOM     45  C   UNL A   1      43.014  29.674  35.141  1.00  0.00     0.074 A 
ATOM     46  C   UNL A   1      42.211  29.067  32.881  1.00  0.00     0.049 A 
ATOM     47  N   UNL A   1      44.094  28.946  35.250  1.00  0.00    -0.248 NA
ATOM     48  C   UNL A   1      42.684  30.455  36.344  1.00  0.00     0.031 C 
ATOM     49  C   UNL A   1      41.316  29.095  31.725  1.00  0.00     0.029 A 
ATOM     50  N   UNL A   1      43.157  28.130  32.555  1.00  0.00    -0.354 N 
ATOM     51  C   UNL A   1      44.580  29.186  36.530  1.00  0.00     0.074 A 
ATOM     52  C   UNL A   1      43.695  30.154  37.142  1.00  0.00     0.031 C 
ATOM     53  C   UNL A   1      41.770  28.227  30.805  1.00  0.00     0.029 A 
ATOM     54  C   UNL A   1      43.015  27.629  31.283  1.00  0.00     0.049 A 
ATOM     55  H   UNL A   1      43.868  27.844  33.173  1.00  0.00     0.167 HD
ATOM     56  C   UNL A   1      45.665  28.642  37.133  1.00  0.00     0.034 A 
ATOM     57  C   UNL A   1      43.827  26.820  30.576  1.00  0.00     0.034 A 
ATOM     58  C   UNL A   1      46.544  27.700  36.484  1.00  0.00     0.049 A 
ATOM     59  C   UNL A   1      45.109  26.339  31.213  1.00  0.00     0.074 A 
ATOM     60  C   UNL A   1      47.666  27.075  36.993  1.00  0.00     0.029 A 
ATOM     61  N   UNL A   1      46.410  27.267  35.170  1.00  0.00    -0.354 N 
ATOM     62  N   UNL A   1      45.565  26.563  32.425  1.00  0.00    -0.248 NA
ATOM     63  C   UNL A   1      45.988  25.504  30.385  1.00  0.00     0.031 C 
ATOM     64  C   UNL A   1      48.260  26.335  35.964  1.00  0.00     0.029 A 
ATOM     65  C   UNL A   1      47.459  26.425  34.836  1.00  0.00     0.049 A 
ATOM     66  H   UNL A   1      45.676  27.521  34.564  1.00  0.00     0.167 HD
ATOM     67  C   UNL A   1      46.774  25.876  32.510  1.00  0.00     0.074 A 
ATOM     68  C   UNL A   1      46.967  25.219  31.233  1.00  0.00     0.031 C 
ATOM     69  C   UNL A   1      47.644  25.793  33.549  1.00  0.00     0.034 A 
BRANCH  56  70
ATOM     70  C   UNL A   1      45.984  29.107  38.532  1.00  0.00     0.023 A 
ATOM     71  C   UNL A   1      46.778  30.243  38.770  1.00  0.00     0.031 A 
ATOM     72  C   UNL A   1      45.535  28.376  39.646  1.00  0.00     0.131 A 
ATOM     73  C   UNL A   1      47.171  30.562  40.079  1.00  0.00     0.055 A 
ATOM     74  C   UNL A   1      45.853  28.752  40.952  1.00  0.00     0.041 A 
ATOM     75  F   UNL A   1      44.797  27.267  39.484  1.00  0.00    -0.206 F 
ATOM     76  C   UNL A   1      46.693  29.840  41.174  1.00  0.00     0.022 A 
BRANCH  73  77
ATOM     77  S   UNL A   1      48.457  31.819  40.312  1.00  0.00     0.124 S 
ATOM     78  O   UNL A   1      47.663  32.988  40.686  1.00  0.00    -0.237 OA
ATOM     79  O   UNL A   1      49.277  31.239  41.370  1.00  0.00    -0.237 OA
ATOM     80  O   UNL A   1      49.096  31.903  39.001  1.00  0.00    -0.744 OA
ENDBRANCH  73  77
ENDBRANCH  56  70
BRANCH  57  81
ATOM     81  C   UNL A   1      43.488  26.454  29.172  1.00  0.00     0.023 A 
ATOM     82  C   UNL A   1      43.677  27.370  28.126  1.00  0.00     0.031 A 
ATOM     83  C   UNL A   1      42.934  25.199  28.858  1.00  0.00     0.131 A 
ATOM     84  C   UNL A   1      43.282  27.033  26.822  1.00  0.00     0.055 A 
ATOM     85  C   UNL A   1      42.598  24.847  27.550  1.00  0.00     0.041 A 
ATOM     86  F   UNL A   1      42.724  24.289  29.822  1.00  0.00    -0.206 F 
ATOM     87  C   UNL A   1      42.761  25.771  26.523  1.00  0.00     0.022 A 
BRANCH  84  88
ATOM     88  S   UNL A   1      43.386  28.303  25.533  1.00  0.00     0.124 S 
ATOM     89  O   UNL A   1      42.319  27.892  24.627  1.00  0.00    -0.237 OA
ATOM     90  O   UNL A   1      43.150  29.526  26.292  1.00  0.00    -0.237 OA
ATOM     91  O   UNL A   1      44.742  28.148  25.011  1.00  0.00    -0.744 OA
ENDBRANCH  84  88
ENDBRANCH  57  81
BRANCH  69  92
ATOM     92  C   UNL A   1      48.872  24.937  33.354  1.00  0.00     0.023 A 
ATOM     93  C   UNL A   1      48.953  23.633  33.872  1.00  0.00     0.031 A 
ATOM     94  C   UNL A   1      49.967  25.427  32.618  1.00  0.00     0.131 A 
ATOM     95  C   UNL A   1      50.120  22.877  33.680  1.00  0.00     0.055 A 
ATOM     96  C   UNL A   1      51.098  24.647  32.377  1.00  0.00     0.041 A 
ATOM     97  F   UNL A   1      49.946  26.667  32.105  1.00  0.00    -0.206 F 
ATOM     98  C   UNL A   1      51.183  23.367  32.917  1.00  0.00     0.022 A 
BRANCH  95  99
ATOM     99  S   UNL A   1      50.258  21.267  34.503  1.00  0.00     0.124 S 
ATOM    100  O   UNL A   1      50.025  20.341  33.399  1.00  0.00    -0.237 OA
ATOM    101  O   UNL A   1      51.617  21.300  35.032  1.00  0.00    -0.237 OA
ATOM    102  O   UNL A   1      49.200  21.307  35.512  1.00  0.00    -0.744 OA
ENDBRANCH  95  99
ENDBRANCH  69  92
ENDBRANCH  43  44
ENDBRANCH  36  38
ENDBRANCH  35  36
ENDBRANCH  34  35
ENDBRANCH  33  34
ENDBRANCH  32  33
ENDBRANCH  31  32
ENDBRANCH  30  31
ENDBRANCH   1  30
TORSDOF 28
ENDMDL
