MODEL 1
REMARK VINA RESULT:      -9.8      0.000      0.000
REMARK SMILES CC1=C(C)C[C@H](C(=O)OCCOCCOCCOCCOC(=O)c2ccc(-c3c4nc(c(-c5cc(S(=O)(=O)[O-])ccc5F)c5ccc([nH]5)c(-c5cc(S(=O)(=O)[O-])ccc5F)c5nc(c(-c6cc(S(=O)(=O)[O-])ccc6F)c6ccc3[nH]6)C=C5)C=C4)cc2)[C@@H](C(=O)Nc2sc3c(c2C(=O)NC2CCCC2)CCCC3)C1
REMARK SMILES IDX 14 1 13 2 12 3 11 4 10 5 9 6 7 7 8 8 6 9 1 10 2 11 3 12
REMARK SMILES IDX 108 13 4 14 5 15 87 16 88 17 89 18 90 19 91 21 92 22 95 23
REMARK SMILES IDX 93 24 94 25 107 26 104 27 106 28 105 29 96 30 97 31 98 32
REMARK SMILES IDX 99 34 100 35 103 36 101 37 102 38 15 39 16 40 17 41 18 42
REMARK SMILES IDX 19 43 20 44 21 45 22 46 23 47 24 48 25 49 86 50 26 51 85 52
REMARK SMILES IDX 27 53 28 54 29 55 79 56 30 57 84 58 78 59 80 60 31 61 83 62
REMARK SMILES IDX 77 63 76 64 32 66 64 67 44 68 63 69 45 70 48 71 62 72 81 73
REMARK SMILES IDX 46 74 47 75 61 77 82 78 49 79 33 80 34 81 42 82 35 83 41 84
REMARK SMILES IDX 43 85 40 86 36 87 37 88 38 89 39 90 65 91 66 92 74 93 67 94
REMARK SMILES IDX 73 95 75 96 72 97 68 98 69 99 70 100 71 101 50 102 51 103
REMARK SMILES IDX 59 104 52 105 58 106 60 107 57 108 53 109 54 110 55 111
REMARK SMILES IDX 56 112
REMARK H PARENT 90 20 98 33 80 65 48 76
REMARK Flexibility Score: inf
ROOT
ATOM      1  C   UNL A   1      38.828  19.518  25.662  1.00  0.00     0.188 C 
ENDROOT
BRANCH   1   2
ATOM      2  C   UNL A   1      37.828  20.253  24.756  1.00  0.00     0.188 C 
BRANCH   2   3
ATOM      3  O   UNL A   1      36.468  19.983  25.085  1.00  0.00    -0.376 OA
BRANCH   3   4
ATOM      4  C   UNL A   1      35.981  18.687  24.768  1.00  0.00     0.202 C 
BRANCH   4   5
ATOM      5  C   UNL A   1      34.490  18.554  24.415  1.00  0.00     0.261 C 
BRANCH   5   6
ATOM      6  O   UNL A   1      33.851  19.755  23.956  1.00  0.00    -0.463 OA
BRANCH   6   7
ATOM      7  C   UNL A   1      32.617  20.010  24.446  1.00  0.00     0.310 C 
ATOM      8  O   UNL A   1      31.966  19.203  25.096  1.00  0.00    -0.252 OA
BRANCH   7   9
ATOM      9  C   UNL A   1      32.178  21.437  24.094  1.00  0.00     0.116 C 
ATOM     10  C   UNL A   1      34.682  23.357  27.154  1.00  0.00     0.039 C 
ATOM     11  C   UNL A   1      33.720  22.816  26.128  1.00  0.00    -0.074 C 
ATOM     12  C   UNL A   1      32.408  22.617  26.377  1.00  0.00    -0.073 C 
ATOM     13  C   UNL A   1      34.361  22.501  24.789  1.00  0.00     0.045 C 
ATOM     14  C   UNL A   1      31.710  23.010  27.651  1.00  0.00     0.039 C 
ATOM     15  C   UNL A   1      31.488  21.960  25.371  1.00  0.00     0.046 C 
ATOM     16  C   UNL A   1      33.411  22.293  23.534  1.00  0.00     0.097 C 
BRANCH  16  17
ATOM     17  C   UNL A   1      33.057  23.483  22.071  1.00  0.00     0.229 C 
ATOM     18  O   UNL A   1      33.453  22.853  21.053  1.00  0.00    -0.274 OA
ATOM     19  N   UNL A   1      32.324  25.310  22.211  1.00  0.00    -0.317 N 
ATOM     20  H   UNL A   1      32.204  25.707  21.318  1.00  0.00     0.170 HD
BRANCH  19  21
ATOM     21  C   UNL A   1      31.879  26.309  23.319  1.00  0.00     0.108 A 
ATOM     22  S   UNL A   1      31.101  25.576  24.691  1.00  0.00    -0.122 S 
ATOM     23  C   UNL A   1      32.206  27.627  23.620  1.00  0.00     0.078 A 
ATOM     24  C   UNL A   1      31.840  26.724  25.720  1.00  0.00     0.011 A 
ATOM     25  C   UNL A   1      32.367  27.787  25.021  1.00  0.00    -0.019 A 
ATOM     26  C   UNL A   1      31.970  26.663  27.207  1.00  0.00     0.047 C 
ATOM     27  C   UNL A   1      33.089  28.867  25.760  1.00  0.00     0.037 C 
ATOM     28  C   UNL A   1      31.697  28.069  27.791  1.00  0.00     0.006 C 
ATOM     29  C   UNL A   1      32.276  29.266  26.989  1.00  0.00     0.005 C 
BRANCH  23  30
ATOM     30  C   UNL A   1      32.544  28.595  22.629  1.00  0.00     0.254 C 
ATOM     31  O   UNL A   1      33.478  28.503  21.843  1.00  0.00    -0.269 OA
ATOM     32  N   UNL A   1      31.723  29.655  22.654  1.00  0.00    -0.349 N 
ATOM     33  H   UNL A   1      31.999  30.469  22.174  1.00  0.00     0.164 HD
BRANCH  32  34
ATOM     34  C   UNL A   1      30.460  29.669  23.344  1.00  0.00     0.082 C 
ATOM     35  C   UNL A   1      29.494  31.391  24.078  1.00  0.00     0.025 C 
ATOM     36  C   UNL A   1      29.056  28.560  22.434  1.00  0.00     0.025 C 
ATOM     37  C   UNL A   1      27.513  31.120  23.685  1.00  0.00     0.002 C 
ATOM     38  C   UNL A   1      27.275  29.412  22.673  1.00  0.00     0.002 C 
ENDBRANCH  32  34
ENDBRANCH  23  30
ENDBRANCH  19  21
ENDBRANCH  16  17
ENDBRANCH   7   9
ENDBRANCH   6   7
ENDBRANCH   5   6
ENDBRANCH   4   5
ENDBRANCH   3   4
ENDBRANCH   2   3
ENDBRANCH   1   2
BRANCH   1  39
ATOM     39  O   UNL A   1      40.107  20.106  25.748  1.00  0.00    -0.377 OA
BRANCH  39  40
ATOM     40  C   UNL A   1      40.312  21.072  26.769  1.00  0.00     0.188 C 
BRANCH  40  41
ATOM     41  C   UNL A   1      41.717  21.337  27.372  1.00  0.00     0.188 C 
BRANCH  41  42
ATOM     42  O   UNL A   1      42.778  21.517  26.442  1.00  0.00    -0.376 OA
BRANCH  42  43
ATOM     43  C   UNL A   1      42.699  22.579  25.507  1.00  0.00     0.202 C 
BRANCH  43  44
ATOM     44  C   UNL A   1      43.956  22.882  24.680  1.00  0.00     0.261 C 
BRANCH  44  45
ATOM     45  O   UNL A   1      45.158  23.104  25.429  1.00  0.00    -0.460 OA
BRANCH  45  46
ATOM     46  C   UNL A   1      45.972  24.104  25.017  1.00  0.00     0.338 C 
ATOM     47  O   UNL A   1      46.726  24.090  24.063  1.00  0.00    -0.246 OA
BRANCH  46  48
ATOM     48  C   UNL A   1      45.604  25.301  25.799  1.00  0.00     0.060 A 
ATOM     49  C   UNL A   1      44.991  26.379  25.144  1.00  0.00     0.016 A 
ATOM     50  C   UNL A   1      45.793  25.322  27.183  1.00  0.00     0.016 A 
ATOM     51  C   UNL A   1      44.579  27.493  25.873  1.00  0.00     0.010 A 
ATOM     52  C   UNL A   1      45.421  26.454  27.906  1.00  0.00     0.010 A 
ATOM     53  C   UNL A   1      44.845  27.555  27.247  1.00  0.00    -0.014 A 
BRANCH  53  54
ATOM     54  C   UNL A   1      44.796  28.868  27.927  1.00  0.00     0.031 A 
ATOM     55  C   UNL A   1      43.473  29.294  28.499  1.00  0.00     0.074 A 
ATOM     56  C   UNL A   1      45.885  29.643  28.056  1.00  0.00     0.049 A 
ATOM     57  N   UNL A   1      43.144  30.402  29.108  1.00  0.00    -0.248 NA
ATOM     58  C   UNL A   1      42.370  28.331  28.351  1.00  0.00     0.031 C 
ATOM     59  C   UNL A   1      47.228  29.300  27.598  1.00  0.00     0.029 A 
ATOM     60  N   UNL A   1      46.023  30.885  28.619  1.00  0.00    -0.354 N 
ATOM     61  C   UNL A   1      41.795  30.267  29.419  1.00  0.00     0.074 A 
ATOM     62  C   UNL A   1      41.361  28.996  28.883  1.00  0.00     0.031 C 
ATOM     63  C   UNL A   1      48.059  30.314  27.899  1.00  0.00     0.029 A 
ATOM     64  C   UNL A   1      47.298  31.390  28.533  1.00  0.00     0.049 A 
ATOM     65  H   UNL A   1      45.279  31.369  29.046  1.00  0.00     0.167 HD
ATOM     66  C   UNL A   1      40.993  31.123  30.099  1.00  0.00     0.034 A 
ATOM     67  C   UNL A   1      47.780  32.592  28.908  1.00  0.00     0.034 A 
ATOM     68  C   UNL A   1      41.437  32.404  30.587  1.00  0.00     0.049 A 
ATOM     69  C   UNL A   1      46.840  33.589  29.544  1.00  0.00     0.074 A 
ATOM     70  C   UNL A   1      40.720  33.360  31.281  1.00  0.00     0.029 A 
ATOM     71  N   UNL A   1      42.717  32.920  30.407  1.00  0.00    -0.354 N 
ATOM     72  N   UNL A   1      45.566  33.459  29.839  1.00  0.00    -0.248 NA
ATOM     73  C   UNL A   1      47.408  34.897  29.899  1.00  0.00     0.031 C 
ATOM     74  C   UNL A   1      41.537  34.484  31.446  1.00  0.00     0.029 A 
ATOM     75  C   UNL A   1      42.795  34.198  30.938  1.00  0.00     0.049 A 
ATOM     76  H   UNL A   1      43.458  32.446  29.966  1.00  0.00     0.167 HD
ATOM     77  C   UNL A   1      45.190  34.656  30.447  1.00  0.00     0.074 A 
ATOM     78  C   UNL A   1      46.375  35.491  30.479  1.00  0.00     0.031 C 
ATOM     79  C   UNL A   1      43.981  35.027  30.944  1.00  0.00     0.034 A 
BRANCH  66  80
ATOM     80  C   UNL A   1      39.549  30.710  30.270  1.00  0.00     0.023 A 
ATOM     81  C   UNL A   1      38.608  30.868  29.237  1.00  0.00     0.031 A 
ATOM     82  C   UNL A   1      39.087  30.248  31.514  1.00  0.00     0.131 A 
ATOM     83  C   UNL A   1      37.243  30.674  29.498  1.00  0.00     0.055 A 
ATOM     84  C   UNL A   1      37.739  29.961  31.737  1.00  0.00     0.041 A 
ATOM     85  F   UNL A   1      39.930  30.105  32.548  1.00  0.00    -0.206 F 
ATOM     86  C   UNL A   1      36.804  30.196  30.734  1.00  0.00     0.022 A 
BRANCH  83  87
ATOM     87  S   UNL A   1      36.038  31.258  28.271  1.00  0.00     0.124 S 
ATOM     88  O   UNL A   1      36.288  30.347  27.156  1.00  0.00    -0.237 OA
ATOM     89  O   UNL A   1      34.769  31.082  28.967  1.00  0.00    -0.237 OA
ATOM     90  O   UNL A   1      36.435  32.644  28.033  1.00  0.00    -0.744 OA
ENDBRANCH  83  87
ENDBRANCH  66  80
BRANCH  67  91
ATOM     91  C   UNL A   1      49.211  32.934  28.675  1.00  0.00     0.023 A 
ATOM     92  C   UNL A   1      49.611  33.615  27.513  1.00  0.00     0.031 A 
ATOM     93  C   UNL A   1      50.205  32.558  29.595  1.00  0.00     0.131 A 
ATOM     94  C   UNL A   1      50.972  33.872  27.288  1.00  0.00     0.055 A 
ATOM     95  C   UNL A   1      51.553  32.856  29.387  1.00  0.00     0.041 A 
ATOM     96  F   UNL A   1      49.877  31.901  30.719  1.00  0.00    -0.206 F 
ATOM     97  C   UNL A   1      51.944  33.510  28.224  1.00  0.00     0.022 A 
BRANCH  94  98
ATOM     98  S   UNL A   1      51.464  34.641  25.721  1.00  0.00     0.124 S 
ATOM     99  O   UNL A   1      50.693  33.868  24.755  1.00  0.00    -0.237 OA
ATOM    100  O   UNL A   1      51.045  36.026  25.917  1.00  0.00    -0.237 OA
ATOM    101  O   UNL A   1      52.910  34.432  25.679  1.00  0.00    -0.744 OA
ENDBRANCH  94  98
ENDBRANCH  67  91
BRANCH  79 102
ATOM    102  C   UNL A   1      43.895  36.381  31.610  1.00  0.00     0.023 A 
ATOM    103  C   UNL A   1      43.787  37.570  30.869  1.00  0.00     0.031 A 
ATOM    104  C   UNL A   1      43.921  36.478  33.013  1.00  0.00     0.131 A 
ATOM    105  C   UNL A   1      43.767  38.807  31.531  1.00  0.00     0.055 A 
ATOM    106  C   UNL A   1      43.834  37.707  33.668  1.00  0.00     0.041 A 
ATOM    107  F   UNL A   1      44.025  35.377  33.774  1.00  0.00    -0.206 F 
ATOM    108  C   UNL A   1      43.769  38.883  32.927  1.00  0.00     0.022 A 
BRANCH 105 109
ATOM    109  S   UNL A   1      43.836  40.327  30.543  1.00  0.00     0.124 S 
ATOM    110  O   UNL A   1      45.102  40.170  29.834  1.00  0.00    -0.237 OA
ATOM    111  O   UNL A   1      42.630  40.226  29.727  1.00  0.00    -0.237 OA
ATOM    112  O   UNL A   1      43.816  41.391  31.547  1.00  0.00    -0.744 OA
ENDBRANCH 105 109
ENDBRANCH  79 102
ENDBRANCH  53  54
ENDBRANCH  46  48
ENDBRANCH  45  46
ENDBRANCH  44  45
ENDBRANCH  43  44
ENDBRANCH  42  43
ENDBRANCH  41  42
ENDBRANCH  40  41
ENDBRANCH  39  40
ENDBRANCH   1  39
TORSDOF 27
ENDMDL
MODEL 2
REMARK VINA RESULT:      -9.0      4.130      6.676
REMARK SMILES CC1=C(C)C[C@H](C(=O)OCCOCCOCCOCCOC(=O)c2ccc(-c3c4nc(c(-c5cc(S(=O)(=O)[O-])ccc5F)c5ccc([nH]5)c(-c5cc(S(=O)(=O)[O-])ccc5F)c5nc(c(-c6cc(S(=O)(=O)[O-])ccc6F)c6ccc3[nH]6)C=C5)C=C4)cc2)[C@@H](C(=O)Nc2sc3c(c2C(=O)NC2CCCC2)CCCC3)C1
REMARK SMILES IDX 14 1 13 2 12 3 11 4 10 5 9 6 7 7 8 8 6 9 1 10 2 11 3 12
REMARK SMILES IDX 108 13 4 14 5 15 87 16 88 17 89 18 90 19 91 21 92 22 95 23
REMARK SMILES IDX 93 24 94 25 107 26 104 27 106 28 105 29 96 30 97 31 98 32
REMARK SMILES IDX 99 34 100 35 103 36 101 37 102 38 15 39 16 40 17 41 18 42
REMARK SMILES IDX 19 43 20 44 21 45 22 46 23 47 24 48 25 49 86 50 26 51 85 52
REMARK SMILES IDX 27 53 28 54 29 55 79 56 30 57 84 58 78 59 80 60 31 61 83 62
REMARK SMILES IDX 77 63 76 64 32 66 64 67 44 68 63 69 45 70 48 71 62 72 81 73
REMARK SMILES IDX 46 74 47 75 61 77 82 78 49 79 33 80 34 81 42 82 35 83 41 84
REMARK SMILES IDX 43 85 40 86 36 87 37 88 38 89 39 90 65 91 66 92 74 93 67 94
REMARK SMILES IDX 73 95 75 96 72 97 68 98 69 99 70 100 71 101 50 102 51 103
REMARK SMILES IDX 59 104 52 105 58 106 60 107 57 108 53 109 54 110 55 111
REMARK SMILES IDX 56 112
REMARK H PARENT 90 20 98 33 80 65 48 76
REMARK Flexibility Score: inf
ROOT
ATOM      1  C   UNL A   1      38.847  19.489  25.654  1.00  0.00     0.188 C 
ENDROOT
BRANCH   1   2
ATOM      2  C   UNL A   1      37.831  20.172  24.725  1.00  0.00     0.188 C 
BRANCH   2   3
ATOM      3  O   UNL A   1      36.478  19.873  25.056  1.00  0.00    -0.376 OA
BRANCH   3   4
ATOM      4  C   UNL A   1      36.010  18.576  24.713  1.00  0.00     0.202 C 
BRANCH   4   5
ATOM      5  C   UNL A   1      34.519  18.426  24.367  1.00  0.00     0.261 C 
BRANCH   5   6
ATOM      6  O   UNL A   1      33.865  19.620  23.908  1.00  0.00    -0.463 OA
BRANCH   6   7
ATOM      7  C   UNL A   1      32.679  19.919  24.484  1.00  0.00     0.310 C 
ATOM      8  O   UNL A   1      32.079  19.162  25.234  1.00  0.00    -0.252 OA
BRANCH   7   9
ATOM      9  C   UNL A   1      32.223  21.328  24.082  1.00  0.00     0.116 C 
ATOM     10  C   UNL A   1      34.862  23.393  26.927  1.00  0.00     0.039 C 
ATOM     11  C   UNL A   1      33.855  22.804  25.974  1.00  0.00    -0.074 C 
ATOM     12  C   UNL A   1      32.555  22.618  26.292  1.00  0.00    -0.073 C 
ATOM     13  C   UNL A   1      34.435  22.423  24.624  1.00  0.00     0.045 C 
ATOM     14  C   UNL A   1      31.916  23.073  27.576  1.00  0.00     0.039 C 
ATOM     15  C   UNL A   1      31.591  21.914  25.363  1.00  0.00     0.046 C 
ATOM     16  C   UNL A   1      33.429  22.155  23.426  1.00  0.00     0.097 C 
BRANCH  16  17
ATOM     17  C   UNL A   1      33.007  23.272  21.923  1.00  0.00     0.229 C 
ATOM     18  O   UNL A   1      33.329  22.580  20.920  1.00  0.00    -0.274 OA
ATOM     19  N   UNL A   1      32.316  25.119  22.008  1.00  0.00    -0.317 N 
ATOM     20  H   UNL A   1      32.149  25.470  21.103  1.00  0.00     0.170 HD
BRANCH  19  21
ATOM     21  C   UNL A   1      31.957  26.185  23.084  1.00  0.00     0.108 A 
ATOM     22  S   UNL A   1      30.972  25.597  24.391  1.00  0.00    -0.122 S 
ATOM     23  C   UNL A   1      32.469  27.435  23.415  1.00  0.00     0.078 A 
ATOM     24  C   UNL A   1      31.808  26.618  25.478  1.00  0.00     0.011 A 
ATOM     25  C   UNL A   1      32.550  27.577  24.825  1.00  0.00    -0.019 A 
ATOM     26  C   UNL A   1      31.817  26.548  26.970  1.00  0.00     0.047 C 
ATOM     27  C   UNL A   1      33.380  28.533  25.620  1.00  0.00     0.037 C 
ATOM     28  C   UNL A   1      31.732  27.984  27.539  1.00  0.00     0.006 C 
ATOM     29  C   UNL A   1      32.553  29.066  26.787  1.00  0.00     0.005 C 
BRANCH  23  30
ATOM     30  C   UNL A   1      33.031  28.329  22.457  1.00  0.00     0.254 C 
ATOM     31  O   UNL A   1      34.106  28.173  21.892  1.00  0.00    -0.269 OA
ATOM     32  N   UNL A   1      32.250  29.397  22.239  1.00  0.00    -0.349 N 
ATOM     33  H   UNL A   1      32.640  30.172  21.776  1.00  0.00     0.164 HD
BRANCH  32  34
ATOM     34  C   UNL A   1      30.871  29.472  22.645  1.00  0.00     0.082 C 
ATOM     35  C   UNL A   1      30.171  30.391  24.405  1.00  0.00     0.025 C 
ATOM     36  C   UNL A   1      29.647  30.048  21.163  1.00  0.00     0.025 C 
ATOM     37  C   UNL A   1      28.452  31.352  23.878  1.00  0.00     0.002 C 
ATOM     38  C   UNL A   1      28.167  31.147  21.910  1.00  0.00     0.002 C 
ENDBRANCH  32  34
ENDBRANCH  23  30
ENDBRANCH  19  21
ENDBRANCH  16  17
ENDBRANCH   7   9
ENDBRANCH   6   7
ENDBRANCH   5   6
ENDBRANCH   4   5
ENDBRANCH   3   4
ENDBRANCH   2   3
ENDBRANCH   1   2
BRANCH   1  39
ATOM     39  O   UNL A   1      40.115  20.103  25.714  1.00  0.00    -0.377 OA
BRANCH  39  40
ATOM     40  C   UNL A   1      40.333  21.044  26.755  1.00  0.00     0.188 C 
BRANCH  40  41
ATOM     41  C   UNL A   1      41.754  21.339  27.305  1.00  0.00     0.188 C 
BRANCH  41  42
ATOM     42  O   UNL A   1      42.795  21.434  26.341  1.00  0.00    -0.376 OA
BRANCH  42  43
ATOM     43  C   UNL A   1      42.715  22.433  25.339  1.00  0.00     0.202 C 
BRANCH  43  44
ATOM     44  C   UNL A   1      43.985  22.717  24.526  1.00  0.00     0.261 C 
BRANCH  44  45
ATOM     45  O   UNL A   1      45.184  22.911  25.287  1.00  0.00    -0.460 OA
BRANCH  45  46
ATOM     46  C   UNL A   1      46.002  23.922  24.913  1.00  0.00     0.338 C 
ATOM     47  O   UNL A   1      46.655  23.997  23.891  1.00  0.00    -0.246 OA
BRANCH  46  48
ATOM     48  C   UNL A   1      45.775  25.027  25.866  1.00  0.00     0.060 A 
ATOM     49  C   UNL A   1      46.878  25.605  26.513  1.00  0.00     0.016 A 
ATOM     50  C   UNL A   1      44.489  25.539  26.056  1.00  0.00     0.016 A 
ATOM     51  C   UNL A   1      46.693  26.689  27.368  1.00  0.00     0.010 A 
ATOM     52  C   UNL A   1      44.298  26.596  26.945  1.00  0.00     0.010 A 
ATOM     53  C   UNL A   1      45.396  27.150  27.628  1.00  0.00    -0.014 A 
BRANCH  53  54
ATOM     54  C   UNL A   1      45.162  27.994  28.820  1.00  0.00     0.031 A 
ATOM     55  C   UNL A   1      45.262  29.482  28.636  1.00  0.00     0.074 A 
ATOM     56  C   UNL A   1      44.847  27.467  30.014  1.00  0.00     0.049 A 
ATOM     57  N   UNL A   1      45.140  30.443  29.512  1.00  0.00    -0.248 NA
ATOM     58  C   UNL A   1      45.547  29.941  27.267  1.00  0.00     0.031 C 
ATOM     59  C   UNL A   1      44.661  26.045  30.290  1.00  0.00     0.029 A 
ATOM     60  N   UNL A   1      44.628  28.080  31.220  1.00  0.00    -0.354 N 
ATOM     61  C   UNL A   1      45.332  31.622  28.800  1.00  0.00     0.074 A 
ATOM     62  C   UNL A   1      45.629  31.248  27.434  1.00  0.00     0.031 C 
ATOM     63  C   UNL A   1      44.355  25.894  31.592  1.00  0.00     0.029 A 
ATOM     64  C   UNL A   1      44.363  27.203  32.244  1.00  0.00     0.049 A 
ATOM     65  H   UNL A   1      44.657  29.057  31.341  1.00  0.00     0.167 HD
ATOM     66  C   UNL A   1      45.256  32.901  29.242  1.00  0.00     0.034 A 
ATOM     67  C   UNL A   1      44.172  27.438  33.558  1.00  0.00     0.034 A 
ATOM     68  C   UNL A   1      44.999  33.248  30.617  1.00  0.00     0.049 A 
ATOM     69  C   UNL A   1      44.225  28.862  34.059  1.00  0.00     0.074 A 
ATOM     70  C   UNL A   1      44.906  34.503  31.188  1.00  0.00     0.029 A 
ATOM     71  N   UNL A   1      44.819  32.329  31.646  1.00  0.00    -0.354 N 
ATOM     72  N   UNL A   1      44.404  29.975  33.384  1.00  0.00    -0.248 NA
ATOM     73  C   UNL A   1      44.047  29.059  35.504  1.00  0.00     0.031 C 
ATOM     74  C   UNL A   1      44.755  34.343  32.571  1.00  0.00     0.029 A 
ATOM     75  C   UNL A   1      44.661  32.990  32.854  1.00  0.00     0.049 A 
ATOM     76  H   UNL A   1      44.807  31.351  31.532  1.00  0.00     0.167 HD
ATOM     77  C   UNL A   1      44.325  31.007  34.318  1.00  0.00     0.074 A 
ATOM     78  C   UNL A   1      44.077  30.381  35.602  1.00  0.00     0.031 C 
ATOM     79  C   UNL A   1      44.434  32.349  34.131  1.00  0.00     0.034 A 
BRANCH  66  80
ATOM     80  C   UNL A   1      45.533  33.987  28.229  1.00  0.00     0.023 A 
ATOM     81  C   UNL A   1      46.826  34.505  28.035  1.00  0.00     0.031 A 
ATOM     82  C   UNL A   1      44.475  34.584  27.522  1.00  0.00     0.131 A 
ATOM     83  C   UNL A   1      47.011  35.651  27.246  1.00  0.00     0.055 A 
ATOM     84  C   UNL A   1      44.681  35.662  26.660  1.00  0.00     0.041 A 
ATOM     85  F   UNL A   1      43.213  34.156  27.686  1.00  0.00    -0.206 F 
ATOM     86  C   UNL A   1      45.951  36.217  26.535  1.00  0.00     0.022 A 
BRANCH  83  87
ATOM     87  S   UNL A   1      48.607  36.510  27.332  1.00  0.00     0.124 S 
ATOM     88  O   UNL A   1      49.194  36.173  26.037  1.00  0.00    -0.237 OA
ATOM     89  O   UNL A   1      48.208  37.901  27.510  1.00  0.00    -0.237 OA
ATOM     90  O   UNL A   1      49.265  35.896  28.484  1.00  0.00    -0.744 OA
ENDBRANCH  83  87
ENDBRANCH  66  80
BRANCH  67  91
ATOM     91  C   UNL A   1      43.937  26.307  34.498  1.00  0.00     0.023 A 
ATOM     92  C   UNL A   1      45.007  25.545  34.994  1.00  0.00     0.031 A 
ATOM     93  C   UNL A   1      42.635  25.950  34.890  1.00  0.00     0.131 A 
ATOM     94  C   UNL A   1      44.754  24.446  35.830  1.00  0.00     0.055 A 
ATOM     95  C   UNL A   1      42.392  24.884  35.758  1.00  0.00     0.041 A 
ATOM     96  F   UNL A   1      41.576  26.642  34.441  1.00  0.00    -0.206 F 
ATOM     97  C   UNL A   1      43.455  24.119  36.227  1.00  0.00     0.022 A 
BRANCH  94  98
ATOM     98  S   UNL A   1      46.149  23.411  36.351  1.00  0.00     0.124 S 
ATOM     99  O   UNL A   1      47.159  24.412  36.674  1.00  0.00    -0.237 OA
ATOM    100  O   UNL A   1      45.581  22.682  37.482  1.00  0.00    -0.237 OA
ATOM    101  O   UNL A   1      46.429  22.599  35.169  1.00  0.00    -0.744 OA
ENDBRANCH  94  98
ENDBRANCH  67  91
BRANCH  79 102
ATOM    102  C   UNL A   1      44.237  33.232  35.341  1.00  0.00     0.023 A 
ATOM    103  C   UNL A   1      42.962  33.656  35.755  1.00  0.00     0.031 A 
ATOM    104  C   UNL A   1      45.349  33.654  36.093  1.00  0.00     0.131 A 
ATOM    105  C   UNL A   1      42.835  34.521  36.852  1.00  0.00     0.055 A 
ATOM    106  C   UNL A   1      45.210  34.461  37.223  1.00  0.00     0.041 A 
ATOM    107  F   UNL A   1      46.591  33.283  35.745  1.00  0.00    -0.206 F 
ATOM    108  C   UNL A   1      43.949  34.910  37.602  1.00  0.00     0.022 A 
BRANCH 105 109
ATOM    109  S   UNL A   1      41.202  35.214  37.233  1.00  0.00     0.124 S 
ATOM    110  O   UNL A   1      41.009  36.157  36.136  1.00  0.00    -0.237 OA
ATOM    111  O   UNL A   1      40.348  34.030  37.215  1.00  0.00    -0.237 OA
ATOM    112  O   UNL A   1      41.386  35.824  38.549  1.00  0.00    -0.744 OA
ENDBRANCH 105 109
ENDBRANCH  79 102
ENDBRANCH  53  54
ENDBRANCH  46  48
ENDBRANCH  45  46
ENDBRANCH  44  45
ENDBRANCH  43  44
ENDBRANCH  42  43
ENDBRANCH  41  42
ENDBRANCH  40  41
ENDBRANCH  39  40
ENDBRANCH   1  39
TORSDOF 27
ENDMDL
MODEL 3
REMARK VINA RESULT:      -9.0      5.788     13.353
REMARK SMILES CC1=C(C)C[C@H](C(=O)OCCOCCOCCOCCOC(=O)c2ccc(-c3c4nc(c(-c5cc(S(=O)(=O)[O-])ccc5F)c5ccc([nH]5)c(-c5cc(S(=O)(=O)[O-])ccc5F)c5nc(c(-c6cc(S(=O)(=O)[O-])ccc6F)c6ccc3[nH]6)C=C5)C=C4)cc2)[C@@H](C(=O)Nc2sc3c(c2C(=O)NC2CCCC2)CCCC3)C1
REMARK SMILES IDX 14 1 13 2 12 3 11 4 10 5 9 6 7 7 8 8 6 9 1 10 2 11 3 12
REMARK SMILES IDX 108 13 4 14 5 15 87 16 88 17 89 18 90 19 91 21 92 22 95 23
REMARK SMILES IDX 93 24 94 25 107 26 104 27 106 28 105 29 96 30 97 31 98 32
REMARK SMILES IDX 99 34 100 35 103 36 101 37 102 38 15 39 16 40 17 41 18 42
REMARK SMILES IDX 19 43 20 44 21 45 22 46 23 47 24 48 25 49 86 50 26 51 85 52
REMARK SMILES IDX 27 53 28 54 29 55 79 56 30 57 84 58 78 59 80 60 31 61 83 62
REMARK SMILES IDX 77 63 76 64 32 66 64 67 44 68 63 69 45 70 48 71 62 72 81 73
REMARK SMILES IDX 46 74 47 75 61 77 82 78 49 79 33 80 34 81 42 82 35 83 41 84
REMARK SMILES IDX 43 85 40 86 36 87 37 88 38 89 39 90 65 91 66 92 74 93 67 94
REMARK SMILES IDX 73 95 75 96 72 97 68 98 69 99 70 100 71 101 50 102 51 103
REMARK SMILES IDX 59 104 52 105 58 106 60 107 57 108 53 109 54 110 55 111
REMARK SMILES IDX 56 112
REMARK H PARENT 90 20 98 33 80 65 48 76
REMARK Flexibility Score: inf
ROOT
ATOM      1  C   UNL A   1      44.309  24.829  30.288  1.00  0.00     0.188 C 
ENDROOT
BRANCH   1   2
ATOM      2  C   UNL A   1      44.696  25.384  31.668  1.00  0.00     0.188 C 
BRANCH   2   3
ATOM      3  O   UNL A   1      45.526  26.540  31.594  1.00  0.00    -0.376 OA
BRANCH   3   4
ATOM      4  C   UNL A   1      44.920  27.730  31.109  1.00  0.00     0.202 C 
BRANCH   4   5
ATOM      5  C   UNL A   1      45.323  29.056  31.776  1.00  0.00     0.261 C 
BRANCH   5   6
ATOM      6  O   UNL A   1      45.387  29.036  33.211  1.00  0.00    -0.463 OA
BRANCH   6   7
ATOM      7  C   UNL A   1      45.056  30.181  33.848  1.00  0.00     0.310 C 
ATOM      8  O   UNL A   1      44.942  31.261  33.285  1.00  0.00    -0.252 OA
BRANCH   7   9
ATOM      9  C   UNL A   1      44.826  29.923  35.343  1.00  0.00     0.116 C 
ATOM     10  C   UNL A   1      41.553  27.055  34.720  1.00  0.00     0.039 C 
ATOM     11  C   UNL A   1      42.601  28.081  35.066  1.00  0.00    -0.074 C 
ATOM     12  C   UNL A   1      42.308  29.362  35.379  1.00  0.00    -0.073 C 
ATOM     13  C   UNL A   1      44.022  27.549  35.019  1.00  0.00     0.045 C 
ATOM     14  C   UNL A   1      40.913  29.905  35.538  1.00  0.00     0.039 C 
ATOM     15  C   UNL A   1      43.383  30.402  35.605  1.00  0.00     0.046 C 
ATOM     16  C   UNL A   1      45.164  28.402  35.719  1.00  0.00     0.097 C 
BRANCH  16  17
ATOM     17  C   UNL A   1      46.059  28.093  37.388  1.00  0.00     0.229 C 
ATOM     18  O   UNL A   1      46.198  29.243  37.885  1.00  0.00    -0.274 OA
ATOM     19  N   UNL A   1      46.681  26.347  38.066  1.00  0.00    -0.317 N 
ATOM     20  H   UNL A   1      47.083  26.443  38.959  1.00  0.00     0.170 HD
BRANCH  19  21
ATOM     21  C   UNL A   1      46.722  24.861  37.603  1.00  0.00     0.108 A 
ATOM     22  S   UNL A   1      45.201  24.023  37.708  1.00  0.00    -0.122 S 
ATOM     23  C   UNL A   1      47.616  24.107  36.850  1.00  0.00     0.078 A 
ATOM     24  C   UNL A   1      45.582  23.159  36.282  1.00  0.00     0.011 A 
ATOM     25  C   UNL A   1      46.915  23.264  35.950  1.00  0.00    -0.019 A 
ATOM     26  C   UNL A   1      44.651  22.373  35.417  1.00  0.00     0.047 C 
ATOM     27  C   UNL A   1      47.417  22.603  34.707  1.00  0.00     0.037 C 
ATOM     28  C   UNL A   1      45.354  21.065  34.986  1.00  0.00     0.006 C 
ATOM     29  C   UNL A   1      46.861  21.184  34.632  1.00  0.00     0.005 C 
BRANCH  23  30
ATOM     30  C   UNL A   1      49.024  24.336  36.849  1.00  0.00     0.254 C 
ATOM     31  O   UNL A   1      49.575  25.335  36.406  1.00  0.00    -0.269 OA
ATOM     32  N   UNL A   1      49.706  23.311  37.382  1.00  0.00    -0.349 N 
ATOM     33  H   UNL A   1      50.676  23.267  37.226  1.00  0.00     0.164 HD
BRANCH  32  34
ATOM     34  C   UNL A   1      49.097  22.272  38.169  1.00  0.00     0.082 C 
ATOM     35  C   UNL A   1      48.861  20.269  37.565  1.00  0.00     0.025 C 
ATOM     36  C   UNL A   1      49.759  22.232  40.063  1.00  0.00     0.025 C 
ATOM     37  C   UNL A   1      49.259  19.144  39.217  1.00  0.00     0.002 C 
ATOM     38  C   UNL A   1      49.818  20.352  40.709  1.00  0.00     0.002 C 
ENDBRANCH  32  34
ENDBRANCH  23  30
ENDBRANCH  19  21
ENDBRANCH  16  17
ENDBRANCH   7   9
ENDBRANCH   6   7
ENDBRANCH   5   6
ENDBRANCH   4   5
ENDBRANCH   3   4
ENDBRANCH   2   3
ENDBRANCH   1   2
BRANCH   1  39
ATOM     39  O   UNL A   1      44.159  23.428  30.224  1.00  0.00    -0.377 OA
BRANCH  39  40
ATOM     40  C   UNL A   1      44.319  22.813  28.954  1.00  0.00     0.188 C 
BRANCH  40  41
ATOM     41  C   UNL A   1      44.768  23.619  27.706  1.00  0.00     0.188 C 
BRANCH  41  42
ATOM     42  O   UNL A   1      44.054  23.365  26.502  1.00  0.00    -0.376 OA
BRANCH  42  43
ATOM     43  C   UNL A   1      44.025  22.047  25.985  1.00  0.00     0.202 C 
BRANCH  43  44
ATOM     44  C   UNL A   1      42.723  21.252  26.157  1.00  0.00     0.261 C 
BRANCH  44  45
ATOM     45  O   UNL A   1      41.541  21.869  25.634  1.00  0.00    -0.460 OA
BRANCH  45  46
ATOM     46  C   UNL A   1      40.492  22.020  26.476  1.00  0.00     0.338 C 
ATOM     47  O   UNL A   1      39.763  21.146  26.903  1.00  0.00    -0.246 OA
BRANCH  46  48
ATOM     48  C   UNL A   1      40.540  23.411  26.969  1.00  0.00     0.060 A 
ATOM     49  C   UNL A   1      40.038  24.438  26.155  1.00  0.00     0.016 A 
ATOM     50  C   UNL A   1      41.002  23.686  28.258  1.00  0.00     0.016 A 
ATOM     51  C   UNL A   1      40.015  25.749  26.626  1.00  0.00     0.010 A 
ATOM     52  C   UNL A   1      41.020  25.003  28.712  1.00  0.00     0.010 A 
ATOM     53  C   UNL A   1      40.558  26.041  27.883  1.00  0.00    -0.014 A 
BRANCH  53  54
ATOM     54  C   UNL A   1      40.914  27.441  28.202  1.00  0.00     0.031 A 
ATOM     55  C   UNL A   1      42.331  27.865  27.937  1.00  0.00     0.074 A 
ATOM     56  C   UNL A   1      40.013  28.312  28.683  1.00  0.00     0.049 A 
ATOM     57  N   UNL A   1      42.916  29.012  28.157  1.00  0.00    -0.248 NA
ATOM     58  C   UNL A   1      43.208  26.840  27.348  1.00  0.00     0.031 C 
ATOM     59  C   UNL A   1      38.600  28.027  28.916  1.00  0.00     0.029 A 
ATOM     60  N   UNL A   1      40.163  29.621  29.061  1.00  0.00    -0.354 N 
ATOM     61  C   UNL A   1      44.229  28.848  27.730  1.00  0.00     0.074 A 
ATOM     62  C   UNL A   1      44.364  27.477  27.290  1.00  0.00     0.031 C 
ATOM     63  C   UNL A   1      38.009  29.135  29.401  1.00  0.00     0.029 A 
ATOM     64  C   UNL A   1      39.011  30.190  29.548  1.00  0.00     0.049 A 
ATOM     65  H   UNL A   1      41.016  30.108  28.989  1.00  0.00     0.167 HD
ATOM     66  C   UNL A   1      45.229  29.762  27.698  1.00  0.00     0.034 A 
ATOM     67  C   UNL A   1      38.805  31.416  30.069  1.00  0.00     0.034 A 
ATOM     68  C   UNL A   1      45.084  31.112  28.181  1.00  0.00     0.049 A 
ATOM     69  C   UNL A   1      39.966  32.379  30.151  1.00  0.00     0.074 A 
ATOM     70  C   UNL A   1      46.023  32.126  28.209  1.00  0.00     0.029 A 
ATOM     71  N   UNL A   1      43.923  31.630  28.747  1.00  0.00    -0.354 N 
ATOM     72  N   UNL A   1      41.205  32.223  29.745  1.00  0.00    -0.248 NA
ATOM     73  C   UNL A   1      39.695  33.688  30.762  1.00  0.00     0.031 C 
ATOM     74  C   UNL A   1      45.459  33.225  28.867  1.00  0.00     0.029 A 
ATOM     75  C   UNL A   1      44.137  32.933  29.168  1.00  0.00     0.049 A 
ATOM     76  H   UNL A   1      43.073  31.140  28.836  1.00  0.00     0.167 HD
ATOM     77  C   UNL A   1      41.853  33.426  30.019  1.00  0.00     0.074 A 
ATOM     78  C   UNL A   1      40.863  34.298  30.621  1.00  0.00     0.031 C 
ATOM     79  C   UNL A   1      43.143  33.784  29.785  1.00  0.00     0.034 A 
BRANCH  66  80
ATOM     80  C   UNL A   1      46.571  29.283  27.192  1.00  0.00     0.023 A 
ATOM     81  C   UNL A   1      46.769  28.928  25.845  1.00  0.00     0.031 A 
ATOM     82  C   UNL A   1      47.635  29.082  28.087  1.00  0.00     0.131 A 
ATOM     83  C   UNL A   1      47.957  28.290  25.457  1.00  0.00     0.055 A 
ATOM     84  C   UNL A   1      48.853  28.539  27.672  1.00  0.00     0.041 A 
ATOM     85  F   UNL A   1      47.500  29.373  29.390  1.00  0.00    -0.206 F 
ATOM     86  C   UNL A   1      49.011  28.117  26.355  1.00  0.00     0.022 A 
BRANCH  83  87
ATOM     87  S   UNL A   1      48.019  27.504  23.822  1.00  0.00     0.124 S 
ATOM     88  O   UNL A   1      47.655  26.126  24.143  1.00  0.00    -0.237 OA
ATOM     89  O   UNL A   1      47.032  28.267  23.067  1.00  0.00    -0.237 OA
ATOM     90  O   UNL A   1      49.407  27.692  23.405  1.00  0.00    -0.744 OA
ENDBRANCH  83  87
ENDBRANCH  66  80
BRANCH  67  91
ATOM     91  C   UNL A   1      37.458  31.800  30.577  1.00  0.00     0.023 A 
ATOM     92  C   UNL A   1      36.549  32.494  29.760  1.00  0.00     0.031 A 
ATOM     93  C   UNL A   1      37.070  31.507  31.896  1.00  0.00     0.131 A 
ATOM     94  C   UNL A   1      35.310  32.897  30.281  1.00  0.00     0.055 A 
ATOM     95  C   UNL A   1      35.818  31.871  32.394  1.00  0.00     0.041 A 
ATOM     96  F   UNL A   1      37.902  30.850  32.719  1.00  0.00    -0.206 F 
ATOM     97  C   UNL A   1      34.932  32.579  31.588  1.00  0.00     0.022 A 
BRANCH  94  98
ATOM     98  S   UNL A   1      34.214  33.899  29.238  1.00  0.00     0.124 S 
ATOM     99  O   UNL A   1      35.143  34.872  28.678  1.00  0.00    -0.237 OA
ATOM    100  O   UNL A   1      33.686  32.904  28.309  1.00  0.00    -0.237 OA
ATOM    101  O   UNL A   1      33.241  34.437  30.188  1.00  0.00    -0.744 OA
ENDBRANCH  94  98
ENDBRANCH  67  91
BRANCH  79 102
ATOM    102  C   UNL A   1      43.542  35.198  30.138  1.00  0.00     0.023 A 
ATOM    103  C   UNL A   1      43.936  35.558  31.439  1.00  0.00     0.031 A 
ATOM    104  C   UNL A   1      43.527  36.201  29.152  1.00  0.00     0.131 A 
ATOM    105  C   UNL A   1      44.244  36.896  31.731  1.00  0.00     0.055 A 
ATOM    106  C   UNL A   1      43.898  37.516  29.434  1.00  0.00     0.041 A 
ATOM    107  F   UNL A   1      43.157  35.917  27.893  1.00  0.00    -0.206 F 
ATOM    108  C   UNL A   1      44.246  37.874  30.732  1.00  0.00     0.022 A 
BRANCH 105 109
ATOM    109  S   UNL A   1      44.546  37.365  33.457  1.00  0.00     0.124 S 
ATOM    110  O   UNL A   1      43.192  37.405  34.002  1.00  0.00    -0.237 OA
ATOM    111  O   UNL A   1      45.394  36.277  33.933  1.00  0.00    -0.237 OA
ATOM    112  O   UNL A   1      45.209  38.664  33.349  1.00  0.00    -0.744 OA
ENDBRANCH 105 109
ENDBRANCH  79 102
ENDBRANCH  53  54
ENDBRANCH  46  48
ENDBRANCH  45  46
ENDBRANCH  44  45
ENDBRANCH  43  44
ENDBRANCH  42  43
ENDBRANCH  41  42
ENDBRANCH  40  41
ENDBRANCH  39  40
ENDBRANCH   1  39
TORSDOF 27
ENDMDL
