MODEL 1
REMARK VINA RESULT:      -6.6      0.000      0.000
REMARK SMILES CCCSc1nc2n(n1)[C@@H](c1ccccc1C(=O)OCCOCCOCCOCCOC(=O)c1ccc(-c3c4nc(c(-c5cc(S(=O)(=O)[O-])ccc5F)c5ccc([nH]5)c(-c5cc(S(=O)(=O)[O-])ccc5F)c5nc(c(-c6cc(S(=O)(=O)[O-])ccc6F)c6ccc3[nH]6)C=C5)C=C4)cc1)C(C(=O)Nc1cccc(C)c1C)=C(C)N2
REMARK SMILES IDX 24 1 23 2 22 3 21 4 20 5 19 6 17 7 18 8 16 9 11 10 12 11
REMARK SMILES IDX 13 12 15 13 14 14 10 15 5 16 6 17 9 18 7 19 8 20 111 21
REMARK SMILES IDX 109 22 97 24 110 25 4 26 3 27 2 28 1 29 98 30 99 31 100 32
REMARK SMILES IDX 101 34 102 35 107 36 103 37 105 38 108 39 104 40 106 41
REMARK SMILES IDX 25 42 26 43 27 44 28 45 29 46 30 47 31 48 32 49 33 50 34 51
REMARK SMILES IDX 35 52 96 53 36 54 95 55 37 56 38 57 39 58 89 59 40 60 94 61
REMARK SMILES IDX 88 62 90 63 41 64 93 65 87 66 86 67 42 69 74 70 54 71 73 72
REMARK SMILES IDX 55 73 58 74 72 75 91 76 56 77 57 78 71 80 92 81 59 82 43 83
REMARK SMILES IDX 44 84 52 85 45 86 51 87 53 88 50 89 46 90 47 91 48 92 49 93
REMARK SMILES IDX 75 94 76 95 84 96 77 97 83 98 85 99 82 100 78 101 79 102
REMARK SMILES IDX 80 103 81 104 60 105 61 106 69 107 62 108 68 109 70 110
REMARK SMILES IDX 67 111 63 112 64 113 65 114 66 115
REMARK H PARENT 111 23 100 33 90 68 58 79
REMARK Flexibility Score: inf
ROOT
ATOM      1  C   UNL A   1      53.392  37.589  26.196  1.00  0.00     0.188 C 
ENDROOT
BRANCH   1   2
ATOM      2  C   UNL A   1      53.277  38.760  27.204  1.00  0.00     0.188 C 
BRANCH   2   3
ATOM      3  O   UNL A   1      52.038  39.428  27.231  1.00  0.00    -0.376 OA
BRANCH   3   4
ATOM      4  C   UNL A   1      51.340  39.675  28.416  1.00  0.00     0.202 C 
BRANCH   4   5
ATOM      5  C   UNL A   1      50.349  38.662  28.973  1.00  0.00     0.261 C 
BRANCH   5   6
ATOM      6  O   UNL A   1      49.076  39.122  29.440  1.00  0.00    -0.460 OA
BRANCH   6   7
ATOM      7  C   UNL A   1      48.127  39.307  28.498  1.00  0.00     0.338 C 
ATOM      8  O   UNL A   1      47.964  38.590  27.515  1.00  0.00    -0.246 OA
BRANCH   7   9
ATOM      9  C   UNL A   1      47.209  40.416  28.890  1.00  0.00     0.065 A 
ATOM     10  C   UNL A   1      46.154  40.956  28.103  1.00  0.00    -0.004 A 
ATOM     11  C   UNL A   1      45.433  42.035  28.681  1.00  0.00     0.007 A 
ATOM     12  C   UNL A   1      45.727  42.548  29.948  1.00  0.00     0.000 A 
ATOM     13  C   UNL A   1      47.481  40.936  30.175  1.00  0.00     0.016 A 
ATOM     14  C   UNL A   1      46.748  41.995  30.699  1.00  0.00     0.001 A 
BRANCH  10  15
ATOM     15  C   UNL A   1      45.732  40.389  26.717  1.00  0.00     0.180 C 
ATOM     16  C   UNL A   1      46.176  43.085  24.472  1.00  0.00     0.210 A 
ATOM     17  N   UNL A   1      44.817  43.140  24.600  1.00  0.00    -0.185 NA
ATOM     18  N   UNL A   1      46.776  42.077  25.130  1.00  0.00    -0.141 NA
ATOM     19  C   UNL A   1      44.543  42.068  25.278  1.00  0.00     0.227 A 
ATOM     20  N   UNL A   1      45.702  41.461  25.686  1.00  0.00    -0.218 N 
ATOM     21  N   UNL A   1      43.357  41.535  25.594  1.00  0.00    -0.328 N 
ATOM     22  C   UNL A   1      43.234  40.336  26.268  1.00  0.00     0.026 C 
ATOM     23  H   UNL A   1      42.539  42.017  25.335  1.00  0.00     0.169 HD
ATOM     24  C   UNL A   1      44.340  39.729  26.758  1.00  0.00     0.065 C 
ATOM     25  C   UNL A   1      41.826  39.822  26.404  1.00  0.00     0.065 C 
BRANCH  16  26
ATOM     26  S   UNL A   1      47.032  44.237  23.484  1.00  0.00    -0.084 SA
BRANCH  26  27
ATOM     27  C   UNL A   1      46.337  43.884  21.828  1.00  0.00     0.078 C 
BRANCH  27  28
ATOM     28  C   UNL A   1      46.240  42.398  21.455  1.00  0.00     0.008 C 
ATOM     29  C   UNL A   1      47.544  41.732  21.044  1.00  0.00     0.005 C 
ENDBRANCH  27  28
ENDBRANCH  26  27
ENDBRANCH  16  26
BRANCH  24  30
ATOM     30  C   UNL A   1      44.162  38.473  27.498  1.00  0.00     0.255 C 
ATOM     31  O   UNL A   1      44.806  37.478  27.172  1.00  0.00    -0.269 OA
ATOM     32  N   UNL A   1      43.291  38.407  28.558  1.00  0.00    -0.322 N 
ATOM     33  H   UNL A   1      42.473  37.863  28.492  1.00  0.00     0.170 HD
BRANCH  32  34
ATOM     34  C   UNL A   1      43.571  39.120  29.741  1.00  0.00     0.044 A 
ATOM     35  C   UNL A   1      42.769  40.252  29.945  1.00  0.00     0.026 A 
ATOM     36  C   UNL A   1      44.441  38.650  30.732  1.00  0.00    -0.025 A 
ATOM     37  C   UNL A   1      42.688  40.822  31.202  1.00  0.00     0.002 A 
ATOM     38  C   UNL A   1      44.287  39.177  32.029  1.00  0.00    -0.046 A 
ATOM     39  C   UNL A   1      45.521  37.650  30.415  1.00  0.00     0.047 C 
ATOM     40  C   UNL A   1      43.405  40.253  32.249  1.00  0.00     0.004 A 
ATOM     41  C   UNL A   1      44.961  38.579  33.234  1.00  0.00     0.044 C 
ENDBRANCH  32  34
ENDBRANCH  24  30
ENDBRANCH  10  15
ENDBRANCH   7   9
ENDBRANCH   6   7
ENDBRANCH   5   6
ENDBRANCH   4   5
ENDBRANCH   3   4
ENDBRANCH   2   3
ENDBRANCH   1   2
BRANCH   1  42
ATOM     42  O   UNL A   1      52.282  36.845  25.709  1.00  0.00    -0.377 OA
BRANCH  42  43
ATOM     43  C   UNL A   1      51.806  35.710  26.406  1.00  0.00     0.188 C 
BRANCH  43  44
ATOM     44  C   UNL A   1      50.277  35.523  26.561  1.00  0.00     0.188 C 
BRANCH  44  45
ATOM     45  O   UNL A   1      49.706  34.429  25.866  1.00  0.00    -0.376 OA
BRANCH  45  46
ATOM     46  C   UNL A   1      48.830  33.454  26.405  1.00  0.00     0.202 C 
BRANCH  46  47
ATOM     47  C   UNL A   1      48.033  33.615  27.702  1.00  0.00     0.261 C 
BRANCH  47  48
ATOM     48  O   UNL A   1      46.642  33.676  27.527  1.00  0.00    -0.460 OA
BRANCH  48  49
ATOM     49  C   UNL A   1      45.959  32.982  28.438  1.00  0.00     0.338 C 
ATOM     50  O   UNL A   1      45.681  31.776  28.391  1.00  0.00    -0.246 OA
BRANCH  49  51
ATOM     51  C   UNL A   1      45.614  33.877  29.546  1.00  0.00     0.060 A 
ATOM     52  C   UNL A   1      45.991  33.378  30.787  1.00  0.00     0.016 A 
ATOM     53  C   UNL A   1      44.487  34.691  29.351  1.00  0.00     0.016 A 
ATOM     54  C   UNL A   1      44.977  33.218  31.682  1.00  0.00     0.010 A 
ATOM     55  C   UNL A   1      43.467  34.521  30.239  1.00  0.00     0.010 A 
ATOM     56  C   UNL A   1      43.704  33.656  31.300  1.00  0.00    -0.014 A 
BRANCH  56  57
ATOM     57  C   UNL A   1      42.592  33.105  32.019  1.00  0.00     0.031 A 
ATOM     58  C   UNL A   1      42.421  33.740  33.324  1.00  0.00     0.074 A 
ATOM     59  C   UNL A   1      41.830  32.126  31.509  1.00  0.00     0.049 A 
ATOM     60  N   UNL A   1      42.760  33.248  34.464  1.00  0.00    -0.248 NA
ATOM     61  C   UNL A   1      42.088  35.169  33.342  1.00  0.00     0.031 C 
ATOM     62  C   UNL A   1      41.772  31.602  30.143  1.00  0.00     0.029 A 
ATOM     63  N   UNL A   1      40.838  31.455  32.137  1.00  0.00    -0.354 N 
ATOM     64  C   UNL A   1      42.477  34.243  35.383  1.00  0.00     0.074 A 
ATOM     65  C   UNL A   1      42.313  35.452  34.624  1.00  0.00     0.031 C 
ATOM     66  C   UNL A   1      40.628  30.893  29.999  1.00  0.00     0.029 A 
ATOM     67  C   UNL A   1      39.948  30.825  31.285  1.00  0.00     0.049 A 
ATOM     68  H   UNL A   1      40.756  31.419  33.117  1.00  0.00     0.167 HD
ATOM     69  C   UNL A   1      42.165  33.934  36.667  1.00  0.00     0.034 A 
ATOM     70  C   UNL A   1      38.697  30.418  31.624  1.00  0.00     0.034 A 
ATOM     71  C   UNL A   1      42.502  32.558  36.965  1.00  0.00     0.049 A 
ATOM     72  C   UNL A   1      38.691  30.256  33.110  1.00  0.00     0.074 A 
ATOM     73  C   UNL A   1      43.685  31.844  36.980  1.00  0.00     0.029 A 
ATOM     74  N   UNL A   1      41.496  31.616  36.896  1.00  0.00    -0.354 N 
ATOM     75  N   UNL A   1      39.415  29.360  33.730  1.00  0.00    -0.248 NA
ATOM     76  C   UNL A   1      38.320  31.404  33.934  1.00  0.00     0.031 C 
ATOM     77  C   UNL A   1      43.354  30.566  36.442  1.00  0.00     0.029 A 
ATOM     78  C   UNL A   1      41.980  30.537  36.192  1.00  0.00     0.049 A 
ATOM     79  H   UNL A   1      40.594  31.699  37.282  1.00  0.00     0.167 HD
ATOM     80  C   UNL A   1      39.949  30.013  34.836  1.00  0.00     0.074 A 
ATOM     81  C   UNL A   1      39.155  31.235  34.967  1.00  0.00     0.031 C 
ATOM     82  C   UNL A   1      41.167  29.666  35.354  1.00  0.00     0.034 A 
BRANCH  69  83
ATOM     83  C   UNL A   1      41.264  34.761  37.541  1.00  0.00     0.023 A 
ATOM     84  C   UNL A   1      41.859  35.403  38.639  1.00  0.00     0.031 A 
ATOM     85  C   UNL A   1      39.849  34.753  37.520  1.00  0.00     0.131 A 
ATOM     86  C   UNL A   1      41.073  35.916  39.681  1.00  0.00     0.055 A 
ATOM     87  C   UNL A   1      39.072  35.333  38.522  1.00  0.00     0.041 A 
ATOM     88  F   UNL A   1      39.135  34.103  36.594  1.00  0.00    -0.206 F 
ATOM     89  C   UNL A   1      39.682  35.891  39.629  1.00  0.00     0.022 A 
BRANCH  86  90
ATOM     90  S   UNL A   1      41.909  36.454  41.191  1.00  0.00     0.124 S 
ATOM     91  O   UNL A   1      41.152  35.750  42.220  1.00  0.00    -0.237 OA
ATOM     92  O   UNL A   1      43.272  35.989  40.960  1.00  0.00    -0.237 OA
ATOM     93  O   UNL A   1      41.732  37.905  41.174  1.00  0.00    -0.744 OA
ENDBRANCH  86  90
ENDBRANCH  69  83
BRANCH  70  94
ATOM     94  C   UNL A   1      37.484  30.578  30.769  1.00  0.00     0.023 A 
ATOM     95  C   UNL A   1      36.760  31.784  30.679  1.00  0.00     0.031 A 
ATOM     96  C   UNL A   1      37.124  29.561  29.850  1.00  0.00     0.131 A 
ATOM     97  C   UNL A   1      35.721  31.922  29.725  1.00  0.00     0.055 A 
ATOM     98  C   UNL A   1      36.088  29.696  28.926  1.00  0.00     0.041 A 
ATOM     99  F   UNL A   1      37.823  28.419  29.760  1.00  0.00    -0.206 F 
ATOM    100  C   UNL A   1      35.383  30.882  28.854  1.00  0.00     0.022 A 
BRANCH  97 101
ATOM    101  S   UNL A   1      34.845  33.509  29.533  1.00  0.00     0.124 S 
ATOM    102  O   UNL A   1      35.687  34.213  28.574  1.00  0.00    -0.237 OA
ATOM    103  O   UNL A   1      33.531  33.087  29.059  1.00  0.00    -0.237 OA
ATOM    104  O   UNL A   1      34.853  34.070  30.885  1.00  0.00    -0.744 OA
ENDBRANCH  97 101
ENDBRANCH  70  94
BRANCH  82 105
ATOM    105  C   UNL A   1      41.837  28.399  34.845  1.00  0.00     0.023 A 
ATOM    106  C   UNL A   1      42.557  28.307  33.632  1.00  0.00     0.031 A 
ATOM    107  C   UNL A   1      41.872  27.285  35.703  1.00  0.00     0.131 A 
ATOM    108  C   UNL A   1      43.265  27.131  33.313  1.00  0.00     0.055 A 
ATOM    109  C   UNL A   1      42.595  26.132  35.397  1.00  0.00     0.041 A 
ATOM    110  F   UNL A   1      41.236  27.316  36.886  1.00  0.00    -0.206 F 
ATOM    111  C   UNL A   1      43.291  26.048  34.197  1.00  0.00     0.022 A 
BRANCH 108 112
ATOM    112  S   UNL A   1      44.160  26.985  31.732  1.00  0.00     0.124 S 
ATOM    113  O   UNL A   1      44.546  25.580  31.689  1.00  0.00    -0.237 OA
ATOM    114  O   UNL A   1      43.154  27.406  30.762  1.00  0.00    -0.237 OA
ATOM    115  O   UNL A   1      45.279  27.917  31.889  1.00  0.00    -0.744 OA
ENDBRANCH 108 112
ENDBRANCH  82 105
ENDBRANCH  56  57
ENDBRANCH  49  51
ENDBRANCH  48  49
ENDBRANCH  47  48
ENDBRANCH  46  47
ENDBRANCH  45  46
ENDBRANCH  44  45
ENDBRANCH  43  44
ENDBRANCH  42  43
ENDBRANCH   1  42
TORSDOF 29
ENDMDL
MODEL 2
REMARK VINA RESULT:      -6.5      5.464     10.381
REMARK SMILES CCCSc1nc2n(n1)[C@@H](c1ccccc1C(=O)OCCOCCOCCOCCOC(=O)c1ccc(-c3c4nc(c(-c5cc(S(=O)(=O)[O-])ccc5F)c5ccc([nH]5)c(-c5cc(S(=O)(=O)[O-])ccc5F)c5nc(c(-c6cc(S(=O)(=O)[O-])ccc6F)c6ccc3[nH]6)C=C5)C=C4)cc1)C(C(=O)Nc1cccc(C)c1C)=C(C)N2
REMARK SMILES IDX 24 1 23 2 22 3 21 4 20 5 19 6 17 7 18 8 16 9 11 10 12 11
REMARK SMILES IDX 13 12 15 13 14 14 10 15 5 16 6 17 9 18 7 19 8 20 111 21
REMARK SMILES IDX 109 22 97 24 110 25 4 26 3 27 2 28 1 29 98 30 99 31 100 32
REMARK SMILES IDX 101 34 102 35 107 36 103 37 105 38 108 39 104 40 106 41
REMARK SMILES IDX 25 42 26 43 27 44 28 45 29 46 30 47 31 48 32 49 33 50 34 51
REMARK SMILES IDX 35 52 96 53 36 54 95 55 37 56 38 57 39 58 89 59 40 60 94 61
REMARK SMILES IDX 88 62 90 63 41 64 93 65 87 66 86 67 42 69 74 70 54 71 73 72
REMARK SMILES IDX 55 73 58 74 72 75 91 76 56 77 57 78 71 80 92 81 59 82 43 83
REMARK SMILES IDX 44 84 52 85 45 86 51 87 53 88 50 89 46 90 47 91 48 92 49 93
REMARK SMILES IDX 75 94 76 95 84 96 77 97 83 98 85 99 82 100 78 101 79 102
REMARK SMILES IDX 80 103 81 104 60 105 61 106 69 107 62 108 68 109 70 110
REMARK SMILES IDX 67 111 63 112 64 113 65 114 66 115
REMARK H PARENT 111 23 100 33 90 68 58 79
REMARK Flexibility Score: inf
ROOT
ATOM      1  C   UNL A   1      43.603  42.402  25.004  1.00  0.00     0.188 C 
ENDROOT
BRANCH   1   2
ATOM      2  C   UNL A   1      44.611  43.390  25.643  1.00  0.00     0.188 C 
BRANCH   2   3
ATOM      3  O   UNL A   1      44.897  43.179  27.006  1.00  0.00    -0.376 OA
BRANCH   3   4
ATOM      4  C   UNL A   1      45.482  44.158  27.814  1.00  0.00     0.202 C 
BRANCH   4   5
ATOM      5  C   UNL A   1      46.859  43.953  28.430  1.00  0.00     0.261 C 
BRANCH   5   6
ATOM      6  O   UNL A   1      47.548  42.721  28.190  1.00  0.00    -0.460 OA
BRANCH   6   7
ATOM      7  C   UNL A   1      48.848  42.686  28.553  1.00  0.00     0.338 C 
ATOM      8  O   UNL A   1      49.786  43.017  27.835  1.00  0.00    -0.246 OA
BRANCH   7   9
ATOM      9  C   UNL A   1      48.980  42.328  29.996  1.00  0.00     0.065 A 
ATOM     10  C   UNL A   1      48.287  41.288  30.674  1.00  0.00    -0.004 A 
ATOM     11  C   UNL A   1      48.558  41.161  32.063  1.00  0.00     0.007 A 
ATOM     12  C   UNL A   1      49.451  41.997  32.740  1.00  0.00     0.000 A 
ATOM     13  C   UNL A   1      49.892  43.153  30.692  1.00  0.00     0.016 A 
ATOM     14  C   UNL A   1      50.124  42.990  32.053  1.00  0.00     0.001 A 
BRANCH  10  15
ATOM     15  C   UNL A   1      47.332  40.283  29.970  1.00  0.00     0.180 C 
ATOM     16  C   UNL A   1      44.126  41.031  31.262  1.00  0.00     0.210 A 
ATOM     17  N   UNL A   1      44.390  39.907  31.992  1.00  0.00    -0.185 NA
ATOM     18  N   UNL A   1      45.065  41.363  30.358  1.00  0.00    -0.141 NA
ATOM     19  C   UNL A   1      45.484  39.458  31.456  1.00  0.00     0.227 A 
ATOM     20  N   UNL A   1      45.959  40.358  30.538  1.00  0.00    -0.218 N 
ATOM     21  N   UNL A   1      46.142  38.316  31.681  1.00  0.00    -0.328 N 
ATOM     22  C   UNL A   1      47.266  37.949  30.969  1.00  0.00     0.026 C 
ATOM     23  H   UNL A   1      45.810  37.710  32.383  1.00  0.00     0.169 HD
ATOM     24  C   UNL A   1      47.822  38.827  30.100  1.00  0.00     0.065 C 
ATOM     25  C   UNL A   1      47.782  36.565  31.257  1.00  0.00     0.065 C 
BRANCH  16  26
ATOM     26  S   UNL A   1      42.647  41.922  31.489  1.00  0.00    -0.084 SA
BRANCH  26  27
ATOM     27  C   UNL A   1      43.131  43.588  30.904  1.00  0.00     0.078 C 
BRANCH  27  28
ATOM     28  C   UNL A   1      43.780  44.495  31.959  1.00  0.00     0.008 C 
ATOM     29  C   UNL A   1      43.745  43.978  33.389  1.00  0.00     0.005 C 
ENDBRANCH  27  28
ENDBRANCH  26  27
ENDBRANCH  16  26
BRANCH  24  30
ATOM     30  C   UNL A   1      49.036  38.411  29.388  1.00  0.00     0.255 C 
ATOM     31  O   UNL A   1      50.087  38.265  30.010  1.00  0.00    -0.269 OA
ATOM     32  N   UNL A   1      49.003  38.170  28.036  1.00  0.00    -0.322 N 
ATOM     33  H   UNL A   1      49.486  38.764  27.417  1.00  0.00     0.170 HD
BRANCH  32  34
ATOM     34  C   UNL A   1      48.276  37.071  27.536  1.00  0.00     0.044 A 
ATOM     35  C   UNL A   1      47.083  37.408  26.881  1.00  0.00     0.026 A 
ATOM     36  C   UNL A   1      48.776  35.764  27.521  1.00  0.00    -0.025 A 
ATOM     37  C   UNL A   1      46.471  36.490  26.048  1.00  0.00     0.002 A 
ATOM     38  C   UNL A   1      48.200  34.863  26.605  1.00  0.00    -0.046 A 
ATOM     39  C   UNL A   1      49.860  35.330  28.471  1.00  0.00     0.047 C 
ATOM     40  C   UNL A   1      47.057  35.242  25.873  1.00  0.00     0.004 A 
ATOM     41  C   UNL A   1      48.807  33.522  26.293  1.00  0.00     0.044 C 
ENDBRANCH  32  34
ENDBRANCH  24  30
ENDBRANCH  10  15
ENDBRANCH   7   9
ENDBRANCH   6   7
ENDBRANCH   5   6
ENDBRANCH   4   5
ENDBRANCH   3   4
ENDBRANCH   2   3
ENDBRANCH   1   2
BRANCH   1  42
ATOM     42  O   UNL A   1      43.542  41.015  25.312  1.00  0.00    -0.377 OA
BRANCH  42  43
ATOM     43  C   UNL A   1      42.559  40.509  26.194  1.00  0.00     0.188 C 
BRANCH  43  44
ATOM     44  C   UNL A   1      42.989  40.083  27.618  1.00  0.00     0.188 C 
BRANCH  44  45
ATOM     45  O   UNL A   1      43.368  38.728  27.780  1.00  0.00    -0.376 OA
BRANCH  45  46
ATOM     46  C   UNL A   1      42.721  37.599  27.217  1.00  0.00     0.202 C 
BRANCH  46  47
ATOM     47  C   UNL A   1      42.418  36.300  27.967  1.00  0.00     0.261 C 
BRANCH  47  48
ATOM     48  O   UNL A   1      43.409  35.911  28.881  1.00  0.00    -0.460 OA
BRANCH  48  49
ATOM     49  C   UNL A   1      43.513  34.590  29.023  1.00  0.00     0.338 C 
ATOM     50  O   UNL A   1      42.688  33.838  29.559  1.00  0.00    -0.246 OA
BRANCH  49  51
ATOM     51  C   UNL A   1      44.765  34.150  28.401  1.00  0.00     0.060 A 
ATOM     52  C   UNL A   1      44.565  33.355  27.278  1.00  0.00     0.016 A 
ATOM     53  C   UNL A   1      45.864  34.004  29.263  1.00  0.00     0.016 A 
ATOM     54  C   UNL A   1      45.116  32.110  27.341  1.00  0.00     0.010 A 
ATOM     55  C   UNL A   1      46.406  32.756  29.335  1.00  0.00     0.010 A 
ATOM     56  C   UNL A   1      45.892  31.804  28.464  1.00  0.00    -0.014 A 
BRANCH  56  57
ATOM     57  C   UNL A   1      46.092  30.413  28.746  1.00  0.00     0.031 A 
ATOM     58  C   UNL A   1      47.191  29.852  27.963  1.00  0.00     0.074 A 
ATOM     59  C   UNL A   1      45.335  29.751  29.634  1.00  0.00     0.049 A 
ATOM     60  N   UNL A   1      47.084  29.111  26.916  1.00  0.00    -0.248 NA
ATOM     61  C   UNL A   1      48.536  30.385  28.207  1.00  0.00     0.031 C 
ATOM     62  C   UNL A   1      44.389  30.268  30.624  1.00  0.00     0.029 A 
ATOM     63  N   UNL A   1      45.355  28.424  29.893  1.00  0.00    -0.354 N 
ATOM     64  C   UNL A   1      48.383  28.903  26.488  1.00  0.00     0.074 A 
ATOM     65  C   UNL A   1      49.185  29.894  27.154  1.00  0.00     0.031 C 
ATOM     66  C   UNL A   1      44.137  29.296  31.533  1.00  0.00     0.029 A 
ATOM     67  C   UNL A   1      44.811  28.074  31.116  1.00  0.00     0.049 A 
ATOM     68  H   UNL A   1      45.727  27.763  29.265  1.00  0.00     0.167 HD
ATOM     69  C   UNL A   1      48.719  27.779  25.807  1.00  0.00     0.034 A 
ATOM     70  C   UNL A   1      45.039  26.902  31.767  1.00  0.00     0.034 A 
ATOM     71  C   UNL A   1      47.538  27.084  25.340  1.00  0.00     0.049 A 
ATOM     72  C   UNL A   1      45.468  25.916  30.728  1.00  0.00     0.074 A 
ATOM     73  C   UNL A   1      46.512  27.416  24.474  1.00  0.00     0.029 A 
ATOM     74  N   UNL A   1      47.067  26.029  26.093  1.00  0.00    -0.354 N 
ATOM     75  N   UNL A   1      44.681  25.512  29.765  1.00  0.00    -0.248 NA
ATOM     76  C   UNL A   1      46.893  25.794  30.431  1.00  0.00     0.031 C 
ATOM     77  C   UNL A   1      45.335  26.876  25.070  1.00  0.00     0.029 A 
ATOM     78  C   UNL A   1      45.706  26.184  26.226  1.00  0.00     0.049 A 
ATOM     79  H   UNL A   1      47.607  25.296  26.468  1.00  0.00     0.167 HD
ATOM     80  C   UNL A   1      45.467  25.506  28.619  1.00  0.00     0.074 A 
ATOM     81  C   UNL A   1      46.844  25.585  29.109  1.00  0.00     0.031 C 
ATOM     82  C   UNL A   1      44.934  25.746  27.381  1.00  0.00     0.034 A 
BRANCH  69  83
ATOM     83  C   UNL A   1      50.078  27.139  25.850  1.00  0.00     0.023 A 
ATOM     84  C   UNL A   1      50.993  27.526  24.858  1.00  0.00     0.031 A 
ATOM     85  C   UNL A   1      50.443  26.011  26.622  1.00  0.00     0.131 A 
ATOM     86  C   UNL A   1      52.147  26.768  24.611  1.00  0.00     0.055 A 
ATOM     87  C   UNL A   1      51.629  25.304  26.422  1.00  0.00     0.041 A 
ATOM     88  F   UNL A   1      49.639  25.462  27.540  1.00  0.00    -0.206 F 
ATOM     89  C   UNL A   1      52.475  25.661  25.391  1.00  0.00     0.022 A 
BRANCH  86  90
ATOM     90  S   UNL A   1      53.117  27.149  23.134  1.00  0.00     0.124 S 
ATOM     91  O   UNL A   1      52.576  28.447  22.748  1.00  0.00    -0.237 OA
ATOM     92  O   UNL A   1      54.477  27.148  23.662  1.00  0.00    -0.237 OA
ATOM     93  O   UNL A   1      52.797  26.048  22.228  1.00  0.00    -0.744 OA
ENDBRANCH  86  90
ENDBRANCH  69  83
BRANCH  70  94
ATOM     94  C   UNL A   1      45.283  26.772  33.233  1.00  0.00     0.023 A 
ATOM     95  C   UNL A   1      44.518  25.935  34.069  1.00  0.00     0.031 A 
ATOM     96  C   UNL A   1      46.441  27.347  33.814  1.00  0.00     0.131 A 
ATOM     97  C   UNL A   1      44.904  25.727  35.417  1.00  0.00     0.055 A 
ATOM     98  C   UNL A   1      46.807  27.154  35.146  1.00  0.00     0.041 A 
ATOM     99  F   UNL A   1      47.312  28.060  33.082  1.00  0.00    -0.206 F 
ATOM    100  C   UNL A   1      46.041  26.335  35.955  1.00  0.00     0.022 A 
BRANCH  97 101
ATOM    101  S   UNL A   1      43.976  24.570  36.478  1.00  0.00     0.124 S 
ATOM    102  O   UNL A   1      42.671  24.533  35.829  1.00  0.00    -0.237 OA
ATOM    103  O   UNL A   1      44.779  23.355  36.393  1.00  0.00    -0.237 OA
ATOM    104  O   UNL A   1      43.992  25.221  37.789  1.00  0.00    -0.744 OA
ENDBRANCH  97 101
ENDBRANCH  70  94
BRANCH  82 105
ATOM    105  C   UNL A   1      43.420  25.796  27.242  1.00  0.00     0.023 A 
ATOM    106  C   UNL A   1      42.624  26.915  27.579  1.00  0.00     0.031 A 
ATOM    107  C   UNL A   1      42.784  24.720  26.599  1.00  0.00     0.131 A 
ATOM    108  C   UNL A   1      41.246  26.922  27.281  1.00  0.00     0.055 A 
ATOM    109  C   UNL A   1      41.426  24.741  26.282  1.00  0.00     0.041 A 
ATOM    110  F   UNL A   1      43.487  23.639  26.222  1.00  0.00    -0.206 F 
ATOM    111  C   UNL A   1      40.649  25.840  26.626  1.00  0.00     0.022 A 
BRANCH 108 112
ATOM    112  S   UNL A   1      40.200  28.339  27.750  1.00  0.00     0.124 S 
ATOM    113  O   UNL A   1      40.082  29.098  26.512  1.00  0.00    -0.237 OA
ATOM    114  O   UNL A   1      38.984  27.687  28.224  1.00  0.00    -0.237 OA
ATOM    115  O   UNL A   1      40.980  29.003  28.797  1.00  0.00    -0.744 OA
ENDBRANCH 108 112
ENDBRANCH  82 105
ENDBRANCH  56  57
ENDBRANCH  49  51
ENDBRANCH  48  49
ENDBRANCH  47  48
ENDBRANCH  46  47
ENDBRANCH  45  46
ENDBRANCH  44  45
ENDBRANCH  43  44
ENDBRANCH  42  43
ENDBRANCH   1  42
TORSDOF 29
ENDMDL
MODEL 3
REMARK VINA RESULT:      -6.4      4.675     12.036
REMARK SMILES CCCSc1nc2n(n1)[C@@H](c1ccccc1C(=O)OCCOCCOCCOCCOC(=O)c1ccc(-c3c4nc(c(-c5cc(S(=O)(=O)[O-])ccc5F)c5ccc([nH]5)c(-c5cc(S(=O)(=O)[O-])ccc5F)c5nc(c(-c6cc(S(=O)(=O)[O-])ccc6F)c6ccc3[nH]6)C=C5)C=C4)cc1)C(C(=O)Nc1cccc(C)c1C)=C(C)N2
REMARK SMILES IDX 24 1 23 2 22 3 21 4 20 5 19 6 17 7 18 8 16 9 11 10 12 11
REMARK SMILES IDX 13 12 15 13 14 14 10 15 5 16 6 17 9 18 7 19 8 20 111 21
REMARK SMILES IDX 109 22 97 24 110 25 4 26 3 27 2 28 1 29 98 30 99 31 100 32
REMARK SMILES IDX 101 34 102 35 107 36 103 37 105 38 108 39 104 40 106 41
REMARK SMILES IDX 25 42 26 43 27 44 28 45 29 46 30 47 31 48 32 49 33 50 34 51
REMARK SMILES IDX 35 52 96 53 36 54 95 55 37 56 38 57 39 58 89 59 40 60 94 61
REMARK SMILES IDX 88 62 90 63 41 64 93 65 87 66 86 67 42 69 74 70 54 71 73 72
REMARK SMILES IDX 55 73 58 74 72 75 91 76 56 77 57 78 71 80 92 81 59 82 43 83
REMARK SMILES IDX 44 84 52 85 45 86 51 87 53 88 50 89 46 90 47 91 48 92 49 93
REMARK SMILES IDX 75 94 76 95 84 96 77 97 83 98 85 99 82 100 78 101 79 102
REMARK SMILES IDX 80 103 81 104 60 105 61 106 69 107 62 108 68 109 70 110
REMARK SMILES IDX 67 111 63 112 64 113 65 114 66 115
REMARK H PARENT 111 23 100 33 90 68 58 79
REMARK Flexibility Score: inf
ROOT
ATOM      1  C   UNL A   1      40.491  25.312  27.455  1.00  0.00     0.188 C 
ENDROOT
BRANCH   1   2
ATOM      2  C   UNL A   1      41.344  25.404  26.165  1.00  0.00     0.188 C 
BRANCH   2   3
ATOM      3  O   UNL A   1      41.172  26.571  25.397  1.00  0.00    -0.376 OA
BRANCH   3   4
ATOM      4  C   UNL A   1      42.112  27.606  25.376  1.00  0.00     0.202 C 
BRANCH   4   5
ATOM      5  C   UNL A   1      41.817  28.952  26.022  1.00  0.00     0.261 C 
BRANCH   5   6
ATOM      6  O   UNL A   1      42.901  29.707  26.575  1.00  0.00    -0.460 OA
BRANCH   6   7
ATOM      7  C   UNL A   1      42.845  29.945  27.903  1.00  0.00     0.338 C 
ATOM      8  O   UNL A   1      41.833  29.848  28.592  1.00  0.00    -0.246 OA
BRANCH   7   9
ATOM      9  C   UNL A   1      44.210  30.200  28.448  1.00  0.00     0.065 A 
ATOM     10  C   UNL A   1      45.068  29.243  29.058  1.00  0.00    -0.004 A 
ATOM     11  C   UNL A   1      46.315  29.734  29.530  1.00  0.00     0.007 A 
ATOM     12  C   UNL A   1      46.695  31.073  29.409  1.00  0.00     0.000 A 
ATOM     13  C   UNL A   1      44.619  31.546  28.319  1.00  0.00     0.016 A 
ATOM     14  C   UNL A   1      45.849  31.980  28.797  1.00  0.00     0.001 A 
BRANCH  10  15
ATOM     15  C   UNL A   1      44.734  27.728  29.165  1.00  0.00     0.180 C 
ATOM     16  C   UNL A   1      43.801  27.248  32.542  1.00  0.00     0.210 A 
ATOM     17  N   UNL A   1      45.065  26.734  32.598  1.00  0.00    -0.185 NA
ATOM     18  N   UNL A   1      43.395  27.644  31.322  1.00  0.00    -0.141 NA
ATOM     19  C   UNL A   1      45.428  26.709  31.352  1.00  0.00     0.227 A 
ATOM     20  N   UNL A   1      44.485  27.331  30.577  1.00  0.00    -0.218 N 
ATOM     21  N   UNL A   1      46.524  26.188  30.789  1.00  0.00    -0.328 N 
ATOM     22  C   UNL A   1      46.731  26.181  29.424  1.00  0.00     0.026 C 
ATOM     23  H   UNL A   1      47.212  25.794  31.372  1.00  0.00     0.169 HD
ATOM     24  C   UNL A   1      45.870  26.842  28.615  1.00  0.00     0.065 C 
ATOM     25  C   UNL A   1      47.947  25.421  28.967  1.00  0.00     0.065 C 
BRANCH  16  26
ATOM     26  S   UNL A   1      42.803  27.333  33.967  1.00  0.00    -0.084 SA
BRANCH  26  27
ATOM     27  C   UNL A   1      43.793  28.437  35.041  1.00  0.00     0.078 C 
BRANCH  27  28
ATOM     28  C   UNL A   1      43.043  29.038  36.239  1.00  0.00     0.008 C 
ATOM     29  C   UNL A   1      41.982  30.076  35.903  1.00  0.00     0.005 C 
ENDBRANCH  27  28
ENDBRANCH  26  27
ENDBRANCH  16  26
BRANCH  24  30
ATOM     30  C   UNL A   1      46.144  26.838  27.173  1.00  0.00     0.255 C 
ATOM     31  O   UNL A   1      47.110  27.459  26.735  1.00  0.00    -0.269 OA
ATOM     32  N   UNL A   1      45.337  26.134  26.312  1.00  0.00    -0.322 N 
ATOM     33  H   UNL A   1      44.773  26.612  25.662  1.00  0.00     0.170 HD
BRANCH  32  34
ATOM     34  C   UNL A   1      45.319  24.726  26.361  1.00  0.00     0.044 A 
ATOM     35  C   UNL A   1      44.343  24.183  27.210  1.00  0.00     0.026 A 
ATOM     36  C   UNL A   1      46.074  23.918  25.503  1.00  0.00    -0.025 A 
ATOM     37  C   UNL A   1      43.980  22.856  27.082  1.00  0.00     0.002 A 
ATOM     38  C   UNL A   1      45.640  22.592  25.315  1.00  0.00    -0.046 A 
ATOM     39  C   UNL A   1      47.321  24.437  24.837  1.00  0.00     0.047 C 
ATOM     40  C   UNL A   1      44.591  22.079  26.104  1.00  0.00     0.004 A 
ATOM     41  C   UNL A   1      46.187  21.703  24.231  1.00  0.00     0.044 C 
ENDBRANCH  32  34
ENDBRANCH  24  30
ENDBRANCH  10  15
ENDBRANCH   7   9
ENDBRANCH   6   7
ENDBRANCH   5   6
ENDBRANCH   4   5
ENDBRANCH   3   4
ENDBRANCH   2   3
ENDBRANCH   1   2
BRANCH   1  42
ATOM     42  O   UNL A   1      40.369  26.362  28.406  1.00  0.00    -0.377 OA
BRANCH  42  43
ATOM     43  C   UNL A   1      39.373  27.356  28.267  1.00  0.00     0.188 C 
BRANCH  43  44
ATOM     44  C   UNL A   1      38.731  27.946  29.546  1.00  0.00     0.188 C 
BRANCH  44  45
ATOM     45  O   UNL A   1      39.587  28.099  30.664  1.00  0.00    -0.376 OA
BRANCH  45  46
ATOM     46  C   UNL A   1      39.447  29.045  31.710  1.00  0.00     0.202 C 
BRANCH  46  47
ATOM     47  C   UNL A   1      38.112  29.509  32.296  1.00  0.00     0.261 C 
BRANCH  47  48
ATOM     48  O   UNL A   1      38.195  30.661  33.094  1.00  0.00    -0.460 OA
BRANCH  48  49
ATOM     49  C   UNL A   1      37.956  31.790  32.426  1.00  0.00     0.338 C 
ATOM     50  O   UNL A   1      37.499  31.886  31.279  1.00  0.00    -0.246 OA
BRANCH  49  51
ATOM     51  C   UNL A   1      38.291  32.925  33.292  1.00  0.00     0.060 A 
ATOM     52  C   UNL A   1      38.625  34.071  32.580  1.00  0.00     0.016 A 
ATOM     53  C   UNL A   1      38.844  32.604  34.542  1.00  0.00     0.016 A 
ATOM     54  C   UNL A   1      39.868  34.570  32.830  1.00  0.00     0.010 A 
ATOM     55  C   UNL A   1      40.093  33.092  34.785  1.00  0.00     0.010 A 
ATOM     56  C   UNL A   1      40.625  33.946  33.827  1.00  0.00    -0.014 A 
BRANCH  56  57
ATOM     57  C   UNL A   1      42.041  34.162  33.789  1.00  0.00     0.031 A 
ATOM     58  C   UNL A   1      42.427  35.369  34.518  1.00  0.00     0.074 A 
ATOM     59  C   UNL A   1      42.872  33.326  33.147  1.00  0.00     0.049 A 
ATOM     60  N   UNL A   1      42.742  36.506  34.004  1.00  0.00    -0.248 NA
ATOM     61  C   UNL A   1      42.178  35.393  35.964  1.00  0.00     0.031 C 
ATOM     62  C   UNL A   1      42.617  31.991  32.604  1.00  0.00     0.029 A 
ATOM     63  N   UNL A   1      44.199  33.491  32.946  1.00  0.00    -0.354 N 
ATOM     64  C   UNL A   1      42.946  37.345  35.085  1.00  0.00     0.074 A 
ATOM     65  C   UNL A   1      42.351  36.689  36.217  1.00  0.00     0.031 C 
ATOM     66  C   UNL A   1      43.804  31.381  32.379  1.00  0.00     0.029 A 
ATOM     67  C   UNL A   1      44.880  32.323  32.654  1.00  0.00     0.049 A 
ATOM     68  H   UNL A   1      44.642  34.368  33.004  1.00  0.00     0.167 HD
ATOM     69  C   UNL A   1      43.798  38.396  34.996  1.00  0.00     0.034 A 
ATOM     70  C   UNL A   1      46.223  32.150  32.779  1.00  0.00     0.034 A 
ATOM     71  C   UNL A   1      44.140  38.672  33.618  1.00  0.00     0.049 A 
ATOM     72  C   UNL A   1      46.834  33.512  32.722  1.00  0.00     0.074 A 
ATOM     73  C   UNL A   1      43.409  39.050  32.507  1.00  0.00     0.029 A 
ATOM     74  N   UNL A   1      45.326  38.161  33.130  1.00  0.00    -0.354 N 
ATOM     75  N   UNL A   1      46.784  34.269  31.655  1.00  0.00    -0.248 NA
ATOM     76  C   UNL A   1      47.019  34.246  33.971  1.00  0.00     0.031 C 
ATOM     77  C   UNL A   1      43.975  38.317  31.423  1.00  0.00     0.029 A 
ATOM     78  C   UNL A   1      45.062  37.586  31.907  1.00  0.00     0.049 A 
ATOM     79  H   UNL A   1      46.203  38.200  33.576  1.00  0.00     0.167 HD
ATOM     80  C   UNL A   1      46.490  35.547  32.120  1.00  0.00     0.074 A 
ATOM     81  C   UNL A   1      46.752  35.491  33.558  1.00  0.00     0.031 C 
ATOM     82  C   UNL A   1      45.775  36.437  31.365  1.00  0.00     0.034 A 
BRANCH  69  83
ATOM     83  C   UNL A   1      44.574  38.956  36.157  1.00  0.00     0.023 A 
ATOM     84  C   UNL A   1      44.537  40.349  36.332  1.00  0.00     0.031 A 
ATOM     85  C   UNL A   1      45.532  38.259  36.930  1.00  0.00     0.131 A 
ATOM     86  C   UNL A   1      45.467  40.991  37.162  1.00  0.00     0.055 A 
ATOM     87  C   UNL A   1      46.405  38.896  37.811  1.00  0.00     0.041 A 
ATOM     88  F   UNL A   1      45.756  36.946  36.808  1.00  0.00    -0.206 F 
ATOM     89  C   UNL A   1      46.399  40.274  37.909  1.00  0.00     0.022 A 
BRANCH  86  90
ATOM     90  S   UNL A   1      45.554  42.796  37.106  1.00  0.00     0.124 S 
ATOM     91  O   UNL A   1      46.993  43.029  37.157  1.00  0.00    -0.237 OA
ATOM     92  O   UNL A   1      44.897  43.087  35.837  1.00  0.00    -0.237 OA
ATOM     93  O   UNL A   1      44.816  43.205  38.300  1.00  0.00    -0.744 OA
ENDBRANCH  86  90
ENDBRANCH  69  83
BRANCH  70  94
ATOM     94  C   UNL A   1      46.879  30.932  33.339  1.00  0.00     0.023 A 
ATOM     95  C   UNL A   1      47.851  30.191  32.638  1.00  0.00     0.031 A 
ATOM     96  C   UNL A   1      46.687  30.584  34.699  1.00  0.00     0.131 A 
ATOM     97  C   UNL A   1      48.557  29.147  33.287  1.00  0.00     0.055 A 
ATOM     98  C   UNL A   1      47.371  29.543  35.328  1.00  0.00     0.041 A 
ATOM     99  F   UNL A   1      45.879  31.299  35.498  1.00  0.00    -0.206 F 
ATOM    100  C   UNL A   1      48.317  28.821  34.625  1.00  0.00     0.022 A 
BRANCH  97 101
ATOM    101  S   UNL A   1      49.884  28.248  32.420  1.00  0.00     0.124 S 
ATOM    102  O   UNL A   1      50.784  27.894  33.511  1.00  0.00    -0.237 OA
ATOM    103  O   UNL A   1      49.160  27.148  31.792  1.00  0.00    -0.237 OA
ATOM    104  O   UNL A   1      50.415  29.241  31.484  1.00  0.00    -0.744 OA
ENDBRANCH  97 101
ENDBRANCH  70  94
BRANCH  82 105
ATOM    105  C   UNL A   1      45.496  36.094  29.910  1.00  0.00     0.023 A 
ATOM    106  C   UNL A   1      46.448  36.193  28.869  1.00  0.00     0.031 A 
ATOM    107  C   UNL A   1      44.261  35.497  29.601  1.00  0.00     0.131 A 
ATOM    108  C   UNL A   1      46.143  35.716  27.579  1.00  0.00     0.055 A 
ATOM    109  C   UNL A   1      43.971  35.002  28.330  1.00  0.00     0.041 A 
ATOM    110  F   UNL A   1      43.323  35.342  30.550  1.00  0.00    -0.206 F 
ATOM    111  C   UNL A   1      44.909  35.113  27.311  1.00  0.00     0.022 A 
BRANCH 108 112
ATOM    112  S   UNL A   1      47.344  35.879  26.218  1.00  0.00     0.124 S 
ATOM    113  O   UNL A   1      47.226  34.612  25.507  1.00  0.00    -0.237 OA
ATOM    114  O   UNL A   1      46.860  37.060  25.512  1.00  0.00    -0.237 OA
ATOM    115  O   UNL A   1      48.619  36.068  26.913  1.00  0.00    -0.744 OA
ENDBRANCH 108 112
ENDBRANCH  82 105
ENDBRANCH  56  57
ENDBRANCH  49  51
ENDBRANCH  48  49
ENDBRANCH  47  48
ENDBRANCH  46  47
ENDBRANCH  45  46
ENDBRANCH  44  45
ENDBRANCH  43  44
ENDBRANCH  42  43
ENDBRANCH   1  42
TORSDOF 29
ENDMDL
