MODEL 1
REMARK VINA RESULT:      -7.8      0.000      0.000
REMARK SMILES C[NH+]1CCC2(CC1)OC[C@@H](C(=O)OCCOCCOCCOCCOC(=O)c1ccc(-c3c4nc(c(-c5cc(S(=O)(=O)[O-])ccc5F)c5ccc([nH]5)c(-c5cc(S(=O)(=O)[O-])ccc5F)c5nc(c(-c6cc(S(=O)(=O)[O-])ccc6F)c6ccc3[nH]6)C=C5)C=C4)cc1)N2C(=O)c1ccc2ccccc2c1
REMARK SMILES IDX 20 1 19 2 18 3 17 4 16 5 15 6 14 7 13 8 11 9 12 10 10 11
REMARK SMILES IDX 1 12 2 13 3 14 7 15 4 17 6 18 5 19 8 20 91 21 9 22 92 23
REMARK SMILES IDX 93 24 94 25 95 26 103 27 96 28 102 29 97 30 101 31 98 32
REMARK SMILES IDX 100 33 99 34 21 35 22 36 23 37 24 38 25 39 26 40 27 41 28 42
REMARK SMILES IDX 29 43 90 44 30 45 89 46 31 47 32 48 33 49 83 50 34 51 88 52
REMARK SMILES IDX 82 53 84 54 35 55 87 56 81 57 80 58 36 60 68 61 48 62 67 63
REMARK SMILES IDX 49 64 52 65 66 66 85 67 50 68 51 69 65 71 86 72 53 73 37 74
REMARK SMILES IDX 38 75 46 76 39 77 45 78 47 79 44 80 40 81 41 82 42 83 43 84
REMARK SMILES IDX 69 85 70 86 78 87 71 88 77 89 79 90 76 91 72 92 73 93 74 94
REMARK SMILES IDX 75 95 54 96 55 97 63 98 56 99 62 100 64 101 61 102 57 103
REMARK SMILES IDX 58 104 59 105 60 106
REMARK H PARENT 2 16 84 59 52 70
REMARK Flexibility Score: inf
ROOT
ATOM      1  C   UNL A   1      33.614  35.769  32.141  1.00  0.00     0.188 C 
ENDROOT
BRANCH   1   2
ATOM      2  O   UNL A   1      34.400  34.619  32.442  1.00  0.00    -0.377 OA
BRANCH   2   3
ATOM      3  C   UNL A   1      35.771  34.569  32.090  1.00  0.00     0.188 C 
BRANCH   3   4
ATOM      4  C   UNL A   1      36.700  34.834  33.276  1.00  0.00     0.188 C 
BRANCH   4   5
ATOM      5  O   UNL A   1      37.341  33.724  33.887  1.00  0.00    -0.376 OA
BRANCH   5   6
ATOM      6  C   UNL A   1      38.736  33.786  34.181  1.00  0.00     0.202 C 
BRANCH   6   7
ATOM      7  C   UNL A   1      39.710  34.460  33.189  1.00  0.00     0.261 C 
BRANCH   7   8
ATOM      8  O   UNL A   1      40.222  33.609  32.124  1.00  0.00    -0.462 OA
BRANCH   8   9
ATOM      9  C   UNL A   1      40.379  34.223  30.932  1.00  0.00     0.331 C 
ATOM     10  O   UNL A   1      39.428  34.696  30.300  1.00  0.00    -0.250 OA
BRANCH   9  11
ATOM     11  C   UNL A   1      41.791  34.301  30.311  1.00  0.00     0.224 C 
ATOM     12  C   UNL A   1      47.125  34.276  26.944  1.00  0.00     0.332 C 
ATOM     13  N   UNL A   1      46.262  33.466  27.785  1.00  0.00    -0.337 N 
ATOM     14  C   UNL A   1      46.035  34.038  29.105  1.00  0.00     0.267 C 
ATOM     15  C   UNL A   1      45.087  32.961  27.082  1.00  0.00     0.267 C 
ATOM     16  H   UNL A   1      46.779  32.614  28.002  1.00  0.00     0.347 HD
ATOM     17  C   UNL A   1      44.786  34.885  29.246  1.00  0.00     0.120 C 
ATOM     18  C   UNL A   1      43.776  33.708  27.261  1.00  0.00     0.120 C 
ATOM     19  C   UNL A   1      43.511  34.243  28.665  1.00  0.00     0.155 C 
ATOM     20  O   UNL A   1      42.674  35.406  28.413  1.00  0.00    -0.352 OA
ATOM     21  N   UNL A   1      42.730  33.394  29.611  1.00  0.00    -0.293 N 
ATOM     22  C   UNL A   1      41.527  35.342  29.236  1.00  0.00     0.200 C 
BRANCH  21  23
ATOM     23  C   UNL A   1      43.426  32.420  30.358  1.00  0.00     0.256 C 
ATOM     24  O   UNL A   1      43.949  32.683  31.439  1.00  0.00    -0.269 OA
BRANCH  23  25
ATOM     25  C   UNL A   1      43.691  31.068  29.754  1.00  0.00     0.040 A 
ATOM     26  C   UNL A   1      42.827  30.496  28.822  1.00  0.00     0.014 A 
ATOM     27  C   UNL A   1      44.887  30.392  30.076  1.00  0.00     0.022 A 
ATOM     28  C   UNL A   1      43.228  29.350  28.112  1.00  0.00     0.009 A 
ATOM     29  C   UNL A   1      45.343  29.296  29.309  1.00  0.00    -0.018 A 
ATOM     30  C   UNL A   1      44.509  28.786  28.290  1.00  0.00    -0.018 A 
ATOM     31  C   UNL A   1      46.633  28.749  29.472  1.00  0.00     0.009 A 
ATOM     32  C   UNL A   1      45.001  27.768  27.448  1.00  0.00     0.009 A 
ATOM     33  C   UNL A   1      47.107  27.745  28.623  1.00  0.00     0.001 A 
ATOM     34  C   UNL A   1      46.294  27.261  27.605  1.00  0.00     0.001 A 
ENDBRANCH  23  25
ENDBRANCH  21  23
ENDBRANCH   9  11
ENDBRANCH   8   9
ENDBRANCH   7   8
ENDBRANCH   6   7
ENDBRANCH   5   6
ENDBRANCH   4   5
ENDBRANCH   3   4
ENDBRANCH   2   3
ENDBRANCH   1   2
BRANCH   1  35
ATOM     35  C   UNL A   1      32.915  35.817  30.782  1.00  0.00     0.188 C 
BRANCH  35  36
ATOM     36  O   UNL A   1      33.202  34.756  29.865  1.00  0.00    -0.376 OA
BRANCH  36  37
ATOM     37  C   UNL A   1      34.136  35.009  28.817  1.00  0.00     0.202 C 
BRANCH  37  38
ATOM     38  C   UNL A   1      34.418  33.826  27.889  1.00  0.00     0.261 C 
BRANCH  38  39
ATOM     39  O   UNL A   1      35.022  32.713  28.565  1.00  0.00    -0.460 OA
BRANCH  39  40
ATOM     40  C   UNL A   1      34.731  31.499  28.037  1.00  0.00     0.338 C 
ATOM     41  O   UNL A   1      33.779  31.209  27.337  1.00  0.00    -0.246 OA
BRANCH  40  42
ATOM     42  C   UNL A   1      35.839  30.566  28.314  1.00  0.00     0.060 A 
ATOM     43  C   UNL A   1      35.804  29.821  29.501  1.00  0.00     0.016 A 
ATOM     44  C   UNL A   1      36.947  30.502  27.465  1.00  0.00     0.016 A 
ATOM     45  C   UNL A   1      36.902  29.049  29.871  1.00  0.00     0.010 A 
ATOM     46  C   UNL A   1      38.052  29.740  27.846  1.00  0.00     0.010 A 
ATOM     47  C   UNL A   1      38.049  29.045  29.070  1.00  0.00    -0.014 A 
BRANCH  47  48
ATOM     48  C   UNL A   1      39.311  28.475  29.596  1.00  0.00     0.031 A 
ATOM     49  C   UNL A   1      39.948  29.130  30.791  1.00  0.00     0.074 A 
ATOM     50  C   UNL A   1      39.864  27.388  29.030  1.00  0.00     0.049 A 
ATOM     51  N   UNL A   1      41.089  28.867  31.373  1.00  0.00    -0.248 NA
ATOM     52  C   UNL A   1      39.198  30.235  31.409  1.00  0.00     0.031 C 
ATOM     53  C   UNL A   1      39.294  26.636  27.912  1.00  0.00     0.029 A 
ATOM     54  N   UNL A   1      41.035  26.733  29.314  1.00  0.00    -0.354 N 
ATOM     55  C   UNL A   1      41.205  29.787  32.410  1.00  0.00     0.074 A 
ATOM     56  C   UNL A   1      40.028  30.629  32.363  1.00  0.00     0.031 C 
ATOM     57  C   UNL A   1      40.122  25.626  27.600  1.00  0.00     0.029 A 
ATOM     58  C   UNL A   1      41.303  25.689  28.459  1.00  0.00     0.049 A 
ATOM     59  H   UNL A   1      41.627  26.986  30.058  1.00  0.00     0.167 HD
ATOM     60  C   UNL A   1      42.204  29.914  33.317  1.00  0.00     0.034 A 
ATOM     61  C   UNL A   1      42.393  24.901  28.365  1.00  0.00     0.034 A 
ATOM     62  C   UNL A   1      43.366  29.060  33.344  1.00  0.00     0.049 A 
ATOM     63  C   UNL A   1      43.536  25.126  29.331  1.00  0.00     0.074 A 
ATOM     64  C   UNL A   1      44.424  29.077  34.234  1.00  0.00     0.029 A 
ATOM     65  N   UNL A   1      43.630  28.046  32.432  1.00  0.00    -0.354 N 
ATOM     66  N   UNL A   1      43.632  25.993  30.313  1.00  0.00    -0.248 NA
ATOM     67  C   UNL A   1      44.714  24.262  29.175  1.00  0.00     0.031 C 
ATOM     68  C   UNL A   1      45.369  28.138  33.808  1.00  0.00     0.029 A 
ATOM     69  C   UNL A   1      44.856  27.463  32.712  1.00  0.00     0.049 A 
ATOM     70  H   UNL A   1      43.034  27.781  31.695  1.00  0.00     0.167 HD
ATOM     71  C   UNL A   1      44.863  25.745  30.919  1.00  0.00     0.074 A 
ATOM     72  C   UNL A   1      45.464  24.644  30.197  1.00  0.00     0.031 C 
ATOM     73  C   UNL A   1      45.442  26.365  31.980  1.00  0.00     0.034 A 
BRANCH  60  74
ATOM     74  C   UNL A   1      42.120  31.053  34.303  1.00  0.00     0.023 A 
ATOM     75  C   UNL A   1      42.738  32.295  34.070  1.00  0.00     0.031 A 
ATOM     76  C   UNL A   1      41.407  30.889  35.504  1.00  0.00     0.131 A 
ATOM     77  C   UNL A   1      42.674  33.301  35.047  1.00  0.00     0.055 A 
ATOM     78  C   UNL A   1      41.282  31.920  36.436  1.00  0.00     0.041 A 
ATOM     79  F   UNL A   1      40.821  29.716  35.795  1.00  0.00    -0.206 F 
ATOM     80  C   UNL A   1      41.928  33.132  36.215  1.00  0.00     0.022 A 
BRANCH  77  81
ATOM     81  S   UNL A   1      43.685  34.792  34.829  1.00  0.00     0.124 S 
ATOM     82  O   UNL A   1      43.384  35.533  36.050  1.00  0.00    -0.237 OA
ATOM     83  O   UNL A   1      45.034  34.247  34.728  1.00  0.00    -0.237 OA
ATOM     84  O   UNL A   1      43.159  35.386  33.602  1.00  0.00    -0.744 OA
ENDBRANCH  77  81
ENDBRANCH  60  74
BRANCH  61  85
ATOM     85  C   UNL A   1      42.492  23.853  27.308  1.00  0.00     0.023 A 
ATOM     86  C   UNL A   1      41.942  22.577  27.505  1.00  0.00     0.031 A 
ATOM     87  C   UNL A   1      43.208  24.083  26.119  1.00  0.00     0.131 A 
ATOM     88  C   UNL A   1      42.171  21.562  26.563  1.00  0.00     0.055 A 
ATOM     89  C   UNL A   1      43.375  23.088  25.153  1.00  0.00     0.041 A 
ATOM     90  F   UNL A   1      43.760  25.282  25.878  1.00  0.00    -0.206 F 
ATOM     91  C   UNL A   1      42.871  21.813  25.381  1.00  0.00     0.022 A 
BRANCH  88  92
ATOM     92  S   UNL A   1      41.645  19.873  26.967  1.00  0.00     0.124 S 
ATOM     93  O   UNL A   1      41.115  19.417  25.687  1.00  0.00    -0.237 OA
ATOM     94  O   UNL A   1      42.897  19.263  27.399  1.00  0.00    -0.237 OA
ATOM     95  O   UNL A   1      40.652  20.070  28.020  1.00  0.00    -0.744 OA
ENDBRANCH  88  92
ENDBRANCH  61  85
BRANCH  73  96
ATOM     96  C   UNL A   1      46.766  25.821  32.461  1.00  0.00     0.023 A 
ATOM     97  C   UNL A   1      47.988  26.222  31.894  1.00  0.00     0.031 A 
ATOM     98  C   UNL A   1      46.801  24.878  33.505  1.00  0.00     0.131 A 
ATOM     99  C   UNL A   1      49.187  25.641  32.333  1.00  0.00     0.055 A 
ATOM    100  C   UNL A   1      48.002  24.356  33.987  1.00  0.00     0.041 A 
ATOM    101  F   UNL A   1      45.666  24.454  34.082  1.00  0.00    -0.206 F 
ATOM    102  C   UNL A   1      49.204  24.726  33.390  1.00  0.00     0.022 A 
BRANCH  99 103
ATOM    103  S   UNL A   1      50.718  26.018  31.436  1.00  0.00     0.124 S 
ATOM    104  O   UNL A   1      50.233  26.189  30.070  1.00  0.00    -0.237 OA
ATOM    105  O   UNL A   1      51.180  27.230  32.104  1.00  0.00    -0.237 OA
ATOM    106  O   UNL A   1      51.546  24.834  31.658  1.00  0.00    -0.744 OA
ENDBRANCH  99 103
ENDBRANCH  73  96
ENDBRANCH  47  48
ENDBRANCH  40  42
ENDBRANCH  39  40
ENDBRANCH  38  39
ENDBRANCH  37  38
ENDBRANCH  36  37
ENDBRANCH  35  36
ENDBRANCH   1  35
TORSDOF 25
ENDMDL
MODEL 2
REMARK VINA RESULT:      -7.0      3.874      7.650
REMARK SMILES C[NH+]1CCC2(CC1)OC[C@@H](C(=O)OCCOCCOCCOCCOC(=O)c1ccc(-c3c4nc(c(-c5cc(S(=O)(=O)[O-])ccc5F)c5ccc([nH]5)c(-c5cc(S(=O)(=O)[O-])ccc5F)c5nc(c(-c6cc(S(=O)(=O)[O-])ccc6F)c6ccc3[nH]6)C=C5)C=C4)cc1)N2C(=O)c1ccc2ccccc2c1
REMARK SMILES IDX 20 1 19 2 18 3 17 4 16 5 15 6 14 7 13 8 11 9 12 10 10 11
REMARK SMILES IDX 1 12 2 13 3 14 7 15 4 17 6 18 5 19 8 20 91 21 9 22 92 23
REMARK SMILES IDX 93 24 94 25 95 26 103 27 96 28 102 29 97 30 101 31 98 32
REMARK SMILES IDX 100 33 99 34 21 35 22 36 23 37 24 38 25 39 26 40 27 41 28 42
REMARK SMILES IDX 29 43 90 44 30 45 89 46 31 47 32 48 33 49 83 50 34 51 88 52
REMARK SMILES IDX 82 53 84 54 35 55 87 56 81 57 80 58 36 60 68 61 48 62 67 63
REMARK SMILES IDX 49 64 52 65 66 66 85 67 50 68 51 69 65 71 86 72 53 73 37 74
REMARK SMILES IDX 38 75 46 76 39 77 45 78 47 79 44 80 40 81 41 82 42 83 43 84
REMARK SMILES IDX 69 85 70 86 78 87 71 88 77 89 79 90 76 91 72 92 73 93 74 94
REMARK SMILES IDX 75 95 54 96 55 97 63 98 56 99 62 100 64 101 61 102 57 103
REMARK SMILES IDX 58 104 59 105 60 106
REMARK H PARENT 2 16 84 59 52 70
REMARK Flexibility Score: inf
ROOT
ATOM      1  C   UNL A   1      33.127  36.083  32.092  1.00  0.00     0.188 C 
ENDROOT
BRANCH   1   2
ATOM      2  O   UNL A   1      33.783  34.921  32.591  1.00  0.00    -0.377 OA
BRANCH   2   3
ATOM      3  C   UNL A   1      35.086  35.006  33.139  1.00  0.00     0.188 C 
BRANCH   3   4
ATOM      4  C   UNL A   1      35.168  34.465  34.568  1.00  0.00     0.188 C 
BRANCH   4   5
ATOM      5  O   UNL A   1      35.855  33.240  34.782  1.00  0.00    -0.376 OA
BRANCH   5   6
ATOM      6  C   UNL A   1      37.281  33.228  34.826  1.00  0.00     0.202 C 
BRANCH   6   7
ATOM      7  C   UNL A   1      38.019  32.403  35.904  1.00  0.00     0.261 C 
BRANCH   7   8
ATOM      8  O   UNL A   1      37.545  32.576  37.270  1.00  0.00    -0.462 OA
BRANCH   8   9
ATOM      9  C   UNL A   1      37.406  31.432  37.973  1.00  0.00     0.331 C 
ATOM     10  O   UNL A   1      37.404  30.319  37.433  1.00  0.00    -0.250 OA
BRANCH   9  11
ATOM     11  C   UNL A   1      37.198  31.512  39.501  1.00  0.00     0.224 C 
ATOM     12  C   UNL A   1      35.774  32.630  45.543  1.00  0.00     0.332 C 
ATOM     13  N   UNL A   1      36.691  32.969  44.470  1.00  0.00    -0.337 N 
ATOM     14  C   UNL A   1      37.377  31.814  43.906  1.00  0.00     0.267 C 
ATOM     15  C   UNL A   1      36.131  33.924  43.518  1.00  0.00     0.267 C 
ATOM     16  H   UNL A   1      37.457  33.494  44.892  1.00  0.00     0.347 HD
ATOM     17  C   UNL A   1      36.729  31.199  42.683  1.00  0.00     0.120 C 
ATOM     18  C   UNL A   1      35.554  33.379  42.222  1.00  0.00     0.120 C 
ATOM     19  C   UNL A   1      36.319  32.215  41.599  1.00  0.00     0.155 C 
ATOM     20  O   UNL A   1      35.278  31.493  40.884  1.00  0.00    -0.352 OA
ATOM     21  N   UNL A   1      37.361  32.519  40.575  1.00  0.00    -0.293 N 
ATOM     22  C   UNL A   1      35.701  31.256  39.557  1.00  0.00     0.200 C 
BRANCH  21  23
ATOM     23  C   UNL A   1      38.660  32.837  41.025  1.00  0.00     0.256 C 
ATOM     24  O   UNL A   1      39.511  31.971  41.212  1.00  0.00    -0.269 OA
BRANCH  23  25
ATOM     25  C   UNL A   1      38.975  34.244  41.452  1.00  0.00     0.040 A 
ATOM     26  C   UNL A   1      39.765  34.516  42.568  1.00  0.00     0.014 A 
ATOM     27  C   UNL A   1      38.529  35.322  40.657  1.00  0.00     0.022 A 
ATOM     28  C   UNL A   1      40.228  35.825  42.792  1.00  0.00     0.009 A 
ATOM     29  C   UNL A   1      39.057  36.623  40.816  1.00  0.00    -0.018 A 
ATOM     30  C   UNL A   1      39.945  36.869  41.886  1.00  0.00    -0.018 A 
ATOM     31  C   UNL A   1      38.792  37.659  39.896  1.00  0.00     0.009 A 
ATOM     32  C   UNL A   1      40.563  38.132  41.985  1.00  0.00     0.009 A 
ATOM     33  C   UNL A   1      39.421  38.903  40.006  1.00  0.00     0.001 A 
ATOM     34  C   UNL A   1      40.314  39.136  41.045  1.00  0.00     0.001 A 
ENDBRANCH  23  25
ENDBRANCH  21  23
ENDBRANCH   9  11
ENDBRANCH   8   9
ENDBRANCH   7   8
ENDBRANCH   6   7
ENDBRANCH   5   6
ENDBRANCH   4   5
ENDBRANCH   3   4
ENDBRANCH   2   3
ENDBRANCH   1   2
BRANCH   1  35
ATOM     35  C   UNL A   1      32.724  36.094  30.617  1.00  0.00     0.188 C 
BRANCH  35  36
ATOM     36  O   UNL A   1      33.128  34.973  29.824  1.00  0.00    -0.376 OA
BRANCH  36  37
ATOM     37  C   UNL A   1      34.178  35.164  28.876  1.00  0.00     0.202 C 
BRANCH  37  38
ATOM     38  C   UNL A   1      34.501  33.951  28.000  1.00  0.00     0.261 C 
BRANCH  38  39
ATOM     39  O   UNL A   1      34.999  32.834  28.751  1.00  0.00    -0.460 OA
BRANCH  39  40
ATOM     40  C   UNL A   1      34.684  31.619  28.240  1.00  0.00     0.338 C 
ATOM     41  O   UNL A   1      33.704  31.328  27.581  1.00  0.00    -0.246 OA
BRANCH  40  42
ATOM     42  C   UNL A   1      35.801  30.685  28.474  1.00  0.00     0.060 A 
ATOM     43  C   UNL A   1      35.773  29.886  29.626  1.00  0.00     0.016 A 
ATOM     44  C   UNL A   1      36.909  30.670  27.624  1.00  0.00     0.016 A 
ATOM     45  C   UNL A   1      36.878  29.109  29.962  1.00  0.00     0.010 A 
ATOM     46  C   UNL A   1      38.022  29.901  27.970  1.00  0.00     0.010 A 
ATOM     47  C   UNL A   1      38.025  29.152  29.161  1.00  0.00    -0.014 A 
BRANCH  47  48
ATOM     48  C   UNL A   1      39.292  28.569  29.661  1.00  0.00     0.031 A 
ATOM     49  C   UNL A   1      39.901  29.148  30.910  1.00  0.00     0.074 A 
ATOM     50  C   UNL A   1      39.874  27.538  29.025  1.00  0.00     0.049 A 
ATOM     51  N   UNL A   1      41.040  28.867  31.485  1.00  0.00    -0.248 NA
ATOM     52  C   UNL A   1      39.121  30.191  31.596  1.00  0.00     0.031 C 
ATOM     53  C   UNL A   1      39.333  26.859  27.848  1.00  0.00     0.029 A 
ATOM     54  N   UNL A   1      41.055  26.888  29.276  1.00  0.00    -0.354 N 
ATOM     55  C   UNL A   1      41.125  29.711  32.589  1.00  0.00     0.074 A 
ATOM     56  C   UNL A   1      39.931  30.530  32.587  1.00  0.00     0.031 C 
ATOM     57  C   UNL A   1      40.186  25.890  27.475  1.00  0.00     0.029 A 
ATOM     58  C   UNL A   1      41.355  25.915  28.352  1.00  0.00     0.049 A 
ATOM     59  H   UNL A   1      41.633  27.098  30.044  1.00  0.00     0.167 HD
ATOM     60  C   UNL A   1      42.110  29.791  33.515  1.00  0.00     0.034 A 
ATOM     61  C   UNL A   1      42.462  25.157  28.216  1.00  0.00     0.034 A 
ATOM     62  C   UNL A   1      43.289  28.961  33.496  1.00  0.00     0.049 A 
ATOM     63  C   UNL A   1      43.590  25.334  29.210  1.00  0.00     0.074 A 
ATOM     64  C   UNL A   1      44.336  28.934  34.399  1.00  0.00     0.029 A 
ATOM     65  N   UNL A   1      43.586  28.021  32.516  1.00  0.00    -0.354 N 
ATOM     66  N   UNL A   1      43.655  26.129  30.254  1.00  0.00    -0.248 NA
ATOM     67  C   UNL A   1      44.786  24.508  29.008  1.00  0.00     0.031 C 
ATOM     68  C   UNL A   1      45.305  28.047  33.919  1.00  0.00     0.029 A 
ATOM     69  C   UNL A   1      44.819  27.444  32.770  1.00  0.00     0.049 A 
ATOM     70  H   UNL A   1      43.003  27.799  31.754  1.00  0.00     0.167 HD
ATOM     71  C   UNL A   1      44.883  25.862  30.856  1.00  0.00     0.074 A 
ATOM     72  C   UNL A   1      45.517  24.828  30.065  1.00  0.00     0.031 C 
ATOM     73  C   UNL A   1      45.437  26.414  31.967  1.00  0.00     0.034 A 
BRANCH  60  74
ATOM     74  C   UNL A   1      41.991  30.853  34.581  1.00  0.00     0.023 A 
ATOM     75  C   UNL A   1      42.345  32.193  34.347  1.00  0.00     0.031 A 
ATOM     76  C   UNL A   1      41.513  30.513  35.859  1.00  0.00     0.131 A 
ATOM     77  C   UNL A   1      42.266  33.129  35.391  1.00  0.00     0.055 A 
ATOM     78  C   UNL A   1      41.364  31.463  36.869  1.00  0.00     0.041 A 
ATOM     79  F   UNL A   1      41.187  29.243  36.150  1.00  0.00    -0.206 F 
ATOM     80  C   UNL A   1      41.752  32.779  36.641  1.00  0.00     0.022 A 
BRANCH  77  81
ATOM     81  S   UNL A   1      42.964  34.784  35.131  1.00  0.00     0.124 S 
ATOM     82  O   UNL A   1      44.262  34.467  34.543  1.00  0.00    -0.237 OA
ATOM     83  O   UNL A   1      41.990  35.400  34.237  1.00  0.00    -0.237 OA
ATOM     84  O   UNL A   1      43.019  35.348  36.478  1.00  0.00    -0.744 OA
ENDBRANCH  77  81
ENDBRANCH  60  74
BRANCH  61  85
ATOM     85  C   UNL A   1      42.596  24.191  27.086  1.00  0.00     0.023 A 
ATOM     86  C   UNL A   1      41.999  22.923  27.149  1.00  0.00     0.031 A 
ATOM     87  C   UNL A   1      43.389  24.489  25.963  1.00  0.00     0.131 A 
ATOM     88  C   UNL A   1      42.256  21.976  26.145  1.00  0.00     0.055 A 
ATOM     89  C   UNL A   1      43.587  23.567  24.933  1.00  0.00     0.041 A 
ATOM     90  F   UNL A   1      43.989  25.684  25.850  1.00  0.00    -0.206 F 
ATOM     91  C   UNL A   1      43.033  22.295  25.029  1.00  0.00     0.022 A 
BRANCH  88  92
ATOM     92  S   UNL A   1      41.659  20.280  26.383  1.00  0.00     0.124 S 
ATOM     93  O   UNL A   1      42.042  20.025  27.767  1.00  0.00    -0.237 OA
ATOM     94  O   UNL A   1      40.231  20.424  26.126  1.00  0.00    -0.237 OA
ATOM     95  O   UNL A   1      42.399  19.517  25.379  1.00  0.00    -0.744 OA
ENDBRANCH  88  92
ENDBRANCH  61  85
BRANCH  73  96
ATOM     96  C   UNL A   1      46.766  25.862  32.425  1.00  0.00     0.023 A 
ATOM     97  C   UNL A   1      47.980  26.253  31.832  1.00  0.00     0.031 A 
ATOM     98  C   UNL A   1      46.815  24.925  33.473  1.00  0.00     0.131 A 
ATOM     99  C   UNL A   1      49.183  25.665  32.251  1.00  0.00     0.055 A 
ATOM    100  C   UNL A   1      48.022  24.397  33.934  1.00  0.00     0.041 A 
ATOM    101  F   UNL A   1      45.688  24.512  34.075  1.00  0.00    -0.206 F 
ATOM    102  C   UNL A   1      49.214  24.756  33.312  1.00  0.00     0.022 A 
BRANCH  99 103
ATOM    103  S   UNL A   1      50.698  26.026  31.322  1.00  0.00     0.124 S 
ATOM    104  O   UNL A   1      51.156  27.258  31.957  1.00  0.00    -0.237 OA
ATOM    105  O   UNL A   1      51.510  24.840  31.575  1.00  0.00    -0.237 OA
ATOM    106  O   UNL A   1      50.230  26.174  29.946  1.00  0.00    -0.744 OA
ENDBRANCH  99 103
ENDBRANCH  73  96
ENDBRANCH  47  48
ENDBRANCH  40  42
ENDBRANCH  39  40
ENDBRANCH  38  39
ENDBRANCH  37  38
ENDBRANCH  36  37
ENDBRANCH  35  36
ENDBRANCH   1  35
TORSDOF 25
ENDMDL
MODEL 3
REMARK VINA RESULT:      -7.0      3.833     11.530
REMARK SMILES C[NH+]1CCC2(CC1)OC[C@@H](C(=O)OCCOCCOCCOCCOC(=O)c1ccc(-c3c4nc(c(-c5cc(S(=O)(=O)[O-])ccc5F)c5ccc([nH]5)c(-c5cc(S(=O)(=O)[O-])ccc5F)c5nc(c(-c6cc(S(=O)(=O)[O-])ccc6F)c6ccc3[nH]6)C=C5)C=C4)cc1)N2C(=O)c1ccc2ccccc2c1
REMARK SMILES IDX 20 1 19 2 18 3 17 4 16 5 15 6 14 7 13 8 11 9 12 10 10 11
REMARK SMILES IDX 1 12 2 13 3 14 7 15 4 17 6 18 5 19 8 20 91 21 9 22 92 23
REMARK SMILES IDX 93 24 94 25 95 26 103 27 96 28 102 29 97 30 101 31 98 32
REMARK SMILES IDX 100 33 99 34 21 35 22 36 23 37 24 38 25 39 26 40 27 41 28 42
REMARK SMILES IDX 29 43 90 44 30 45 89 46 31 47 32 48 33 49 83 50 34 51 88 52
REMARK SMILES IDX 82 53 84 54 35 55 87 56 81 57 80 58 36 60 68 61 48 62 67 63
REMARK SMILES IDX 49 64 52 65 66 66 85 67 50 68 51 69 65 71 86 72 53 73 37 74
REMARK SMILES IDX 38 75 46 76 39 77 45 78 47 79 44 80 40 81 41 82 42 83 43 84
REMARK SMILES IDX 69 85 70 86 78 87 71 88 77 89 79 90 76 91 72 92 73 93 74 94
REMARK SMILES IDX 75 95 54 96 55 97 63 98 56 99 62 100 64 101 61 102 57 103
REMARK SMILES IDX 58 104 59 105 60 106
REMARK H PARENT 2 16 84 59 52 70
REMARK Flexibility Score: inf
ROOT
ATOM      1  C   UNL A   1      49.963  25.616  32.001  1.00  0.00     0.188 C 
ENDROOT
BRANCH   1   2
ATOM      2  O   UNL A   1      51.266  26.194  32.002  1.00  0.00    -0.377 OA
BRANCH   2   3
ATOM      3  C   UNL A   1      52.094  26.109  30.855  1.00  0.00     0.188 C 
BRANCH   3   4
ATOM      4  C   UNL A   1      51.334  26.366  29.553  1.00  0.00     0.188 C 
BRANCH   4   5
ATOM      5  O   UNL A   1      51.989  26.075  28.326  1.00  0.00    -0.376 OA
BRANCH   5   6
ATOM      6  C   UNL A   1      51.245  26.083  27.108  1.00  0.00     0.202 C 
BRANCH   6   7
ATOM      7  C   UNL A   1      50.308  27.265  26.777  1.00  0.00     0.261 C 
BRANCH   7   8
ATOM      8  O   UNL A   1      49.736  27.266  25.438  1.00  0.00    -0.462 OA
BRANCH   8   9
ATOM      9  C   UNL A   1      48.401  27.464  25.390  1.00  0.00     0.331 C 
ATOM     10  O   UNL A   1      47.903  28.560  25.111  1.00  0.00    -0.250 OA
BRANCH   9  11
ATOM     11  C   UNL A   1      47.459  26.291  25.738  1.00  0.00     0.224 C 
ATOM     12  C   UNL A   1      43.004  21.884  26.465  1.00  0.00     0.332 C 
ATOM     13  N   UNL A   1      43.431  23.205  26.891  1.00  0.00    -0.337 N 
ATOM     14  C   UNL A   1      44.775  23.227  27.454  1.00  0.00     0.267 C 
ATOM     15  C   UNL A   1      43.112  24.250  25.923  1.00  0.00     0.267 C 
ATOM     16  H   UNL A   1      42.854  23.456  27.694  1.00  0.00     0.347 HD
ATOM     17  C   UNL A   1      45.887  23.567  26.483  1.00  0.00     0.120 C 
ATOM     18  C   UNL A   1      44.216  24.708  24.984  1.00  0.00     0.120 C 
ATOM     19  C   UNL A   1      45.608  24.798  25.599  1.00  0.00     0.155 C 
ATOM     20  O   UNL A   1      46.479  24.557  24.459  1.00  0.00    -0.352 OA
ATOM     21  N   UNL A   1      46.051  26.107  26.162  1.00  0.00    -0.293 N 
ATOM     22  C   UNL A   1      47.463  25.569  24.400  1.00  0.00     0.200 C 
BRANCH  21  23
ATOM     23  C   UNL A   1      45.690  26.414  27.491  1.00  0.00     0.256 C 
ATOM     24  O   UNL A   1      46.303  25.953  28.452  1.00  0.00    -0.269 OA
BRANCH  23  25
ATOM     25  C   UNL A   1      44.427  27.183  27.760  1.00  0.00     0.040 A 
ATOM     26  C   UNL A   1      44.270  28.508  27.357  1.00  0.00     0.014 A 
ATOM     27  C   UNL A   1      43.334  26.524  28.365  1.00  0.00     0.022 A 
ATOM     28  C   UNL A   1      43.001  29.110  27.416  1.00  0.00     0.009 A 
ATOM     29  C   UNL A   1      42.036  27.082  28.347  1.00  0.00    -0.018 A 
ATOM     30  C   UNL A   1      41.864  28.387  27.836  1.00  0.00    -0.018 A 
ATOM     31  C   UNL A   1      40.898  26.349  28.745  1.00  0.00     0.009 A 
ATOM     32  C   UNL A   1      40.560  28.907  27.711  1.00  0.00     0.009 A 
ATOM     33  C   UNL A   1      39.611  26.878  28.606  1.00  0.00     0.001 A 
ATOM     34  C   UNL A   1      39.442  28.153  28.080  1.00  0.00     0.001 A 
ENDBRANCH  23  25
ENDBRANCH  21  23
ENDBRANCH   9  11
ENDBRANCH   8   9
ENDBRANCH   7   8
ENDBRANCH   6   7
ENDBRANCH   5   6
ENDBRANCH   4   5
ENDBRANCH   3   4
ENDBRANCH   2   3
ENDBRANCH   1   2
BRANCH   1  35
ATOM     35  C   UNL A   1      49.594  24.692  33.162  1.00  0.00     0.188 C 
BRANCH  35  36
ATOM     36  O   UNL A   1      49.205  25.314  34.390  1.00  0.00    -0.376 OA
BRANCH  36  37
ATOM     37  C   UNL A   1      47.824  25.285  34.750  1.00  0.00     0.202 C 
BRANCH  37  38
ATOM     38  C   UNL A   1      47.091  23.979  34.438  1.00  0.00     0.261 C 
BRANCH  38  39
ATOM     39  O   UNL A   1      45.757  23.943  34.969  1.00  0.00    -0.460 OA
BRANCH  39  40
ATOM     40  C   UNL A   1      44.803  23.561  34.085  1.00  0.00     0.338 C 
ATOM     41  O   UNL A   1      44.369  22.439  33.909  1.00  0.00    -0.246 OA
BRANCH  40  42
ATOM     42  C   UNL A   1      44.231  24.756  33.436  1.00  0.00     0.060 A 
ATOM     43  C   UNL A   1      44.321  24.865  32.042  1.00  0.00     0.016 A 
ATOM     44  C   UNL A   1      43.704  25.800  34.200  1.00  0.00     0.016 A 
ATOM     45  C   UNL A   1      43.934  26.044  31.409  1.00  0.00     0.010 A 
ATOM     46  C   UNL A   1      43.331  26.986  33.566  1.00  0.00     0.010 A 
ATOM     47  C   UNL A   1      43.485  27.126  32.174  1.00  0.00    -0.014 A 
BRANCH  47  48
ATOM     48  C   UNL A   1      43.355  28.463  31.550  1.00  0.00     0.031 A 
ATOM     49  C   UNL A   1      44.591  29.112  30.987  1.00  0.00     0.074 A 
ATOM     50  C   UNL A   1      42.161  29.074  31.472  1.00  0.00     0.049 A 
ATOM     51  N   UNL A   1      44.743  30.305  30.476  1.00  0.00    -0.248 NA
ATOM     52  C   UNL A   1      45.822  28.307  31.013  1.00  0.00     0.031 C 
ATOM     53  C   UNL A   1      40.891  28.505  31.924  1.00  0.00     0.029 A 
ATOM     54  N   UNL A   1      41.822  30.314  30.992  1.00  0.00    -0.354 N 
ATOM     55  C   UNL A   1      46.089  30.403  30.138  1.00  0.00     0.074 A 
ATOM     56  C   UNL A   1      46.714  29.156  30.525  1.00  0.00     0.031 C 
ATOM     57  C   UNL A   1      39.912  29.399  31.705  1.00  0.00     0.029 A 
ATOM     58  C   UNL A   1      40.491  30.620  31.149  1.00  0.00     0.049 A 
ATOM     59  H   UNL A   1      42.471  30.925  30.577  1.00  0.00     0.167 HD
ATOM     60  C   UNL A   1      46.740  31.441  29.558  1.00  0.00     0.034 A 
ATOM     61  C   UNL A   1      39.828  31.767  30.900  1.00  0.00     0.034 A 
ATOM     62  C   UNL A   1      46.094  32.673  29.180  1.00  0.00     0.049 A 
ATOM     63  C   UNL A   1      40.598  32.944  30.340  1.00  0.00     0.074 A 
ATOM     64  C   UNL A   1      46.646  33.778  28.559  1.00  0.00     0.029 A 
ATOM     65  N   UNL A   1      44.754  32.970  29.400  1.00  0.00    -0.354 N 
ATOM     66  N   UNL A   1      41.870  33.023  30.017  1.00  0.00    -0.248 NA
ATOM     67  C   UNL A   1      39.842  34.181  30.109  1.00  0.00     0.031 C 
ATOM     68  C   UNL A   1      45.667  34.774  28.487  1.00  0.00     0.029 A 
ATOM     69  C   UNL A   1      44.475  34.257  28.969  1.00  0.00     0.049 A 
ATOM     70  H   UNL A   1      44.099  32.355  29.803  1.00  0.00     0.167 HD
ATOM     71  C   UNL A   1      42.050  34.305  29.502  1.00  0.00     0.074 A 
ATOM     72  C   UNL A   1      40.759  34.956  29.551  1.00  0.00     0.031 C 
ATOM     73  C   UNL A   1      43.180  34.891  29.026  1.00  0.00     0.034 A 
BRANCH  60  74
ATOM     74  C   UNL A   1      48.232  31.317  29.364  1.00  0.00     0.023 A 
ATOM     75  C   UNL A   1      49.144  31.522  30.414  1.00  0.00     0.031 A 
ATOM     76  C   UNL A   1      48.749  30.989  28.098  1.00  0.00     0.131 A 
ATOM     77  C   UNL A   1      50.524  31.449  30.164  1.00  0.00     0.055 A 
ATOM     78  C   UNL A   1      50.118  30.842  27.875  1.00  0.00     0.041 A 
ATOM     79  F   UNL A   1      47.927  30.811  27.051  1.00  0.00    -0.206 F 
ATOM     80  C   UNL A   1      51.015  31.083  28.909  1.00  0.00     0.022 A 
BRANCH  77  81
ATOM     81  S   UNL A   1      51.674  31.962  31.471  1.00  0.00     0.124 S 
ATOM     82  O   UNL A   1      51.748  33.403  31.248  1.00  0.00    -0.237 OA
ATOM     83  O   UNL A   1      50.984  31.536  32.683  1.00  0.00    -0.237 OA
ATOM     84  O   UNL A   1      52.898  31.228  31.158  1.00  0.00    -0.744 OA
ENDBRANCH  77  81
ENDBRANCH  60  74
BRANCH  61  85
ATOM     85  C   UNL A   1      38.373  31.894  31.205  1.00  0.00     0.023 A 
ATOM     86  C   UNL A   1      37.931  32.648  32.303  1.00  0.00     0.031 A 
ATOM     87  C   UNL A   1      37.407  31.196  30.456  1.00  0.00     0.131 A 
ATOM     88  C   UNL A   1      36.573  32.637  32.660  1.00  0.00     0.055 A 
ATOM     89  C   UNL A   1      36.049  31.243  30.776  1.00  0.00     0.041 A 
ATOM     90  F   UNL A   1      37.772  30.454  29.399  1.00  0.00    -0.206 F 
ATOM     91  C   UNL A   1      35.627  31.951  31.895  1.00  0.00     0.022 A 
BRANCH  88  92
ATOM     92  S   UNL A   1      36.082  33.431  34.215  1.00  0.00     0.124 S 
ATOM     93  O   UNL A   1      34.628  33.351  34.139  1.00  0.00    -0.237 OA
ATOM     94  O   UNL A   1      36.722  32.574  35.207  1.00  0.00    -0.237 OA
ATOM     95  O   UNL A   1      36.641  34.776  34.100  1.00  0.00    -0.744 OA
ENDBRANCH  88  92
ENDBRANCH  61  85
BRANCH  73  96
ATOM     96  C   UNL A   1      43.049  36.285  28.460  1.00  0.00     0.023 A 
ATOM     97  C   UNL A   1      43.353  37.430  29.218  1.00  0.00     0.031 A 
ATOM     98  C   UNL A   1      42.608  36.468  27.136  1.00  0.00     0.131 A 
ATOM     99  C   UNL A   1      43.156  38.705  28.667  1.00  0.00     0.055 A 
ATOM    100  C   UNL A   1      42.482  37.738  26.570  1.00  0.00     0.041 A 
ATOM    101  F   UNL A   1      42.299  35.413  26.366  1.00  0.00    -0.206 F 
ATOM    102  C   UNL A   1      42.743  38.866  27.342  1.00  0.00     0.022 A 
BRANCH  99 103
ATOM    103  S   UNL A   1      43.348  40.156  29.739  1.00  0.00     0.124 S 
ATOM    104  O   UNL A   1      42.100  40.874  29.502  1.00  0.00    -0.237 OA
ATOM    105  O   UNL A   1      43.493  39.551  31.059  1.00  0.00    -0.237 OA
ATOM    106  O   UNL A   1      44.549  40.808  29.221  1.00  0.00    -0.744 OA
ENDBRANCH  99 103
ENDBRANCH  73  96
ENDBRANCH  47  48
ENDBRANCH  40  42
ENDBRANCH  39  40
ENDBRANCH  38  39
ENDBRANCH  37  38
ENDBRANCH  36  37
ENDBRANCH  35  36
ENDBRANCH   1  35
TORSDOF 25
ENDMDL
