MODEL 1
REMARK VINA RESULT:      -8.5      0.000      0.000
REMARK SMILES CC(C)=CC[C@@]1(C(=O)OCCOCCOCCOCCOC(=O)c2ccc(-c3c4nc(c(-c5cc(S(=O)(=O)[O-])ccc5F)c5ccc([nH]5)c(-c5cc(S(=O)(=O)[O-])ccc5F)c5nc(c(-c6cc(S(=O)(=O)[O-])ccc6F)c6ccc3[nH]6)C=C5)C=C4)cc2)CCC[C@H](C)C1
REMARK SMILES IDX 16 1 15 2 14 3 13 4 12 5 11 6 10 7 9 8 7 9 8 10 6 11 87 12
REMARK SMILES IDX 92 13 88 14 90 15 89 16 91 17 5 18 4 19 1 20 2 21 3 22 17 23
REMARK SMILES IDX 18 24 19 25 20 26 21 27 22 28 23 29 24 30 25 31 86 32 26 33
REMARK SMILES IDX 85 34 27 35 28 36 29 37 79 38 30 39 84 40 78 41 80 42 31 43
REMARK SMILES IDX 83 44 77 45 76 46 32 48 64 49 44 50 63 51 45 52 48 53 62 54
REMARK SMILES IDX 81 55 46 56 47 57 61 59 82 60 49 61 33 62 34 63 42 64 35 65
REMARK SMILES IDX 41 66 43 67 40 68 36 69 37 70 38 71 39 72 65 73 66 74 74 75
REMARK SMILES IDX 67 76 73 77 75 78 72 79 68 80 69 81 70 82 71 83 50 84 51 85
REMARK SMILES IDX 59 86 52 87 58 88 60 89 57 90 53 91 54 92 55 93 56 94
REMARK H PARENT 80 47 48 58
REMARK Flexibility Score: inf
ROOT
ATOM      1  C   UNL A   1      32.607  28.771  26.872  1.00  0.00     0.188 C 
ENDROOT
BRANCH   1   2
ATOM      2  O   UNL A   1      32.532  28.531  25.481  1.00  0.00    -0.377 OA
BRANCH   2   3
ATOM      3  C   UNL A   1      31.309  28.877  24.872  1.00  0.00     0.188 C 
BRANCH   3   4
ATOM      4  C   UNL A   1      30.921  28.188  23.564  1.00  0.00     0.188 C 
BRANCH   4   5
ATOM      5  O   UNL A   1      31.933  27.799  22.642  1.00  0.00    -0.376 OA
BRANCH   5   6
ATOM      6  C   UNL A   1      31.954  26.501  22.065  1.00  0.00     0.202 C 
BRANCH   6   7
ATOM      7  C   UNL A   1      31.408  25.293  22.844  1.00  0.00     0.261 C 
BRANCH   7   8
ATOM      8  O   UNL A   1      32.133  24.944  24.040  1.00  0.00    -0.463 OA
BRANCH   8   9
ATOM      9  C   UNL A   1      31.817  23.748  24.596  1.00  0.00     0.312 C 
ATOM     10  O   UNL A   1      30.657  23.383  24.765  1.00  0.00    -0.252 OA
BRANCH   9  11
ATOM     11  C   UNL A   1      33.046  22.906  25.048  1.00  0.00     0.072 C 
ATOM     12  C   UNL A   1      33.572  23.636  26.325  1.00  0.00     0.019 C 
ATOM     13  C   UNL A   1      34.077  23.017  23.900  1.00  0.00     0.022 C 
ATOM     14  C   UNL A   1      35.014  23.322  26.693  1.00  0.00     0.001 C 
ATOM     15  C   UNL A   1      35.518  22.683  24.322  1.00  0.00    -0.013 C 
ATOM     16  C   UNL A   1      35.945  23.550  25.505  1.00  0.00     0.003 C 
ATOM     17  C   UNL A   1      36.466  22.792  23.135  1.00  0.00     0.007 C 
BRANCH  11  18
ATOM     18  C   UNL A   1      32.690  21.418  25.400  1.00  0.00     0.046 C 
BRANCH  18  19
ATOM     19  C   UNL A   1      32.293  20.451  24.315  1.00  0.00    -0.027 C 
ATOM     20  C   UNL A   1      34.268  18.900  24.571  1.00  0.00     0.039 C 
ATOM     21  C   UNL A   1      32.976  19.350  23.943  1.00  0.00    -0.080 C 
ATOM     22  C   UNL A   1      32.454  18.447  22.857  1.00  0.00     0.039 C 
ENDBRANCH  18  19
ENDBRANCH  11  18
ENDBRANCH   9  11
ENDBRANCH   8   9
ENDBRANCH   7   8
ENDBRANCH   6   7
ENDBRANCH   5   6
ENDBRANCH   4   5
ENDBRANCH   3   4
ENDBRANCH   2   3
ENDBRANCH   1   2
BRANCH   1  23
ATOM     23  C   UNL A   1      33.238  30.131  27.161  1.00  0.00     0.188 C 
BRANCH  23  24
ATOM     24  O   UNL A   1      34.664  30.249  27.192  1.00  0.00    -0.376 OA
BRANCH  24  25
ATOM     25  C   UNL A   1      35.251  31.427  27.729  1.00  0.00     0.202 C 
BRANCH  25  26
ATOM     26  C   UNL A   1      34.510  31.987  28.960  1.00  0.00     0.261 C 
BRANCH  26  27
ATOM     27  O   UNL A   1      35.328  32.237  30.115  1.00  0.00    -0.460 OA
BRANCH  27  28
ATOM     28  C   UNL A   1      36.403  33.043  29.916  1.00  0.00     0.338 C 
ATOM     29  O   UNL A   1      36.397  34.208  29.554  1.00  0.00    -0.246 OA
BRANCH  28  30
ATOM     30  C   UNL A   1      37.626  32.318  30.334  1.00  0.00     0.060 A 
ATOM     31  C   UNL A   1      38.875  32.777  29.894  1.00  0.00     0.016 A 
ATOM     32  C   UNL A   1      37.543  31.194  31.160  1.00  0.00     0.016 A 
ATOM     33  C   UNL A   1      40.043  32.107  30.271  1.00  0.00     0.010 A 
ATOM     34  C   UNL A   1      38.710  30.506  31.511  1.00  0.00     0.010 A 
ATOM     35  C   UNL A   1      39.965  30.947  31.054  1.00  0.00    -0.014 A 
BRANCH  35  36
ATOM     36  C   UNL A   1      41.162  30.089  31.249  1.00  0.00     0.031 A 
ATOM     37  C   UNL A   1      42.092  30.416  32.385  1.00  0.00     0.074 A 
ATOM     38  C   UNL A   1      41.431  29.062  30.422  1.00  0.00     0.049 A 
ATOM     39  N   UNL A   1      43.246  29.884  32.693  1.00  0.00    -0.248 NA
ATOM     40  C   UNL A   1      41.660  31.491  33.292  1.00  0.00     0.031 C 
ATOM     41  C   UNL A   1      40.583  28.623  29.316  1.00  0.00     0.029 A 
ATOM     42  N   UNL A   1      42.512  28.214  30.372  1.00  0.00    -0.354 N 
ATOM     43  C   UNL A   1      43.685  30.566  33.823  1.00  0.00     0.074 A 
ATOM     44  C   UNL A   1      42.680  31.560  34.134  1.00  0.00     0.031 C 
ATOM     45  C   UNL A   1      41.191  27.607  28.677  1.00  0.00     0.029 A 
ATOM     46  C   UNL A   1      42.491  27.354  29.298  1.00  0.00     0.049 A 
ATOM     47  H   UNL A   1      43.235  28.222  31.042  1.00  0.00     0.167 HD
ATOM     48  C   UNL A   1      44.825  30.381  34.533  1.00  0.00     0.034 A 
ATOM     49  C   UNL A   1      43.431  26.496  28.845  1.00  0.00     0.034 A 
ATOM     50  C   UNL A   1      45.823  29.397  34.201  1.00  0.00     0.049 A 
ATOM     51  C   UNL A   1      44.741  26.383  29.593  1.00  0.00     0.074 A 
ATOM     52  C   UNL A   1      46.989  29.092  34.881  1.00  0.00     0.029 A 
ATOM     53  N   UNL A   1      45.790  28.579  33.080  1.00  0.00    -0.354 N 
ATOM     54  N   UNL A   1      45.125  27.003  30.686  1.00  0.00    -0.248 NA
ATOM     55  C   UNL A   1      45.745  25.459  29.046  1.00  0.00     0.031 C 
ATOM     56  C   UNL A   1      47.699  28.151  34.128  1.00  0.00     0.029 A 
ATOM     57  C   UNL A   1      46.940  27.810  33.019  1.00  0.00     0.049 A 
ATOM     58  H   UNL A   1      45.056  28.551  32.424  1.00  0.00     0.167 HD
ATOM     59  C   UNL A   1      46.406  26.528  30.963  1.00  0.00     0.074 A 
ATOM     60  C   UNL A   1      46.721  25.557  29.936  1.00  0.00     0.031 C 
ATOM     61  C   UNL A   1      47.246  26.860  31.976  1.00  0.00     0.034 A 
BRANCH  48  62
ATOM     62  C   UNL A   1      45.079  31.306  35.695  1.00  0.00     0.023 A 
ATOM     63  C   UNL A   1      44.592  31.033  36.985  1.00  0.00     0.031 A 
ATOM     64  C   UNL A   1      45.814  32.489  35.502  1.00  0.00     0.131 A 
ATOM     65  C   UNL A   1      44.801  31.958  38.019  1.00  0.00     0.055 A 
ATOM     66  C   UNL A   1      46.077  33.371  36.551  1.00  0.00     0.041 A 
ATOM     67  F   UNL A   1      46.282  32.812  34.286  1.00  0.00    -0.206 F 
ATOM     68  C   UNL A   1      45.560  33.114  37.817  1.00  0.00     0.022 A 
BRANCH  65  69
ATOM     69  S   UNL A   1      43.969  31.687  39.608  1.00  0.00     0.124 S 
ATOM     70  O   UNL A   1      44.576  30.434  40.051  1.00  0.00    -0.237 OA
ATOM     71  O   UNL A   1      44.339  32.878  40.364  1.00  0.00    -0.237 OA
ATOM     72  O   UNL A   1      42.556  31.594  39.245  1.00  0.00    -0.744 OA
ENDBRANCH  65  69
ENDBRANCH  48  62
BRANCH  49  73
ATOM     73  C   UNL A   1      43.222  25.737  27.576  1.00  0.00     0.023 A 
ATOM     74  C   UNL A   1      42.702  24.433  27.580  1.00  0.00     0.031 A 
ATOM     75  C   UNL A   1      43.617  26.282  26.339  1.00  0.00     0.131 A 
ATOM     76  C   UNL A   1      42.639  23.699  26.382  1.00  0.00     0.055 A 
ATOM     77  C   UNL A   1      43.501  25.569  25.145  1.00  0.00     0.041 A 
ATOM     78  F   UNL A   1      44.129  27.521  26.275  1.00  0.00    -0.206 F 
ATOM     79  C   UNL A   1      43.022  24.264  25.163  1.00  0.00     0.022 A 
BRANCH  76  80
ATOM     80  S   UNL A   1      42.142  21.955  26.454  1.00  0.00     0.124 S 
ATOM     81  O   UNL A   1      42.395  21.632  27.853  1.00  0.00    -0.237 OA
ATOM     82  O   UNL A   1      40.740  22.026  26.055  1.00  0.00    -0.237 OA
ATOM     83  O   UNL A   1      43.030  21.309  25.492  1.00  0.00    -0.744 OA
ENDBRANCH  76  80
ENDBRANCH  49  73
BRANCH  61  84
ATOM     84  C   UNL A   1      48.577  26.150  32.035  1.00  0.00     0.023 A 
ATOM     85  C   UNL A   1      48.753  24.980  32.794  1.00  0.00     0.031 A 
ATOM     86  C   UNL A   1      49.674  26.638  31.305  1.00  0.00     0.131 A 
ATOM     87  C   UNL A   1      50.011  24.358  32.835  1.00  0.00     0.055 A 
ATOM     88  C   UNL A   1      50.907  25.984  31.305  1.00  0.00     0.041 A 
ATOM     89  F   UNL A   1      49.560  27.751  30.563  1.00  0.00    -0.206 F 
ATOM     90  C   UNL A   1      51.083  24.842  32.081  1.00  0.00     0.022 A 
BRANCH  87  91
ATOM     91  S   UNL A   1      50.246  22.936  33.937  1.00  0.00     0.124 S 
ATOM     92  O   UNL A   1      48.893  22.713  34.436  1.00  0.00    -0.237 OA
ATOM     93  O   UNL A   1      50.767  21.918  33.030  1.00  0.00    -0.237 OA
ATOM     94  O   UNL A   1      51.201  23.426  34.930  1.00  0.00    -0.744 OA
ENDBRANCH  87  91
ENDBRANCH  61  84
ENDBRANCH  35  36
ENDBRANCH  28  30
ENDBRANCH  27  28
ENDBRANCH  26  27
ENDBRANCH  25  26
ENDBRANCH  24  25
ENDBRANCH  23  24
ENDBRANCH   1  23
TORSDOF 25
ENDMDL
MODEL 2
REMARK VINA RESULT:      -8.3      4.889      7.723
REMARK SMILES CC(C)=CC[C@@]1(C(=O)OCCOCCOCCOCCOC(=O)c2ccc(-c3c4nc(c(-c5cc(S(=O)(=O)[O-])ccc5F)c5ccc([nH]5)c(-c5cc(S(=O)(=O)[O-])ccc5F)c5nc(c(-c6cc(S(=O)(=O)[O-])ccc6F)c6ccc3[nH]6)C=C5)C=C4)cc2)CCC[C@H](C)C1
REMARK SMILES IDX 16 1 15 2 14 3 13 4 12 5 11 6 10 7 9 8 7 9 8 10 6 11 87 12
REMARK SMILES IDX 92 13 88 14 90 15 89 16 91 17 5 18 4 19 1 20 2 21 3 22 17 23
REMARK SMILES IDX 18 24 19 25 20 26 21 27 22 28 23 29 24 30 25 31 86 32 26 33
REMARK SMILES IDX 85 34 27 35 28 36 29 37 79 38 30 39 84 40 78 41 80 42 31 43
REMARK SMILES IDX 83 44 77 45 76 46 32 48 64 49 44 50 63 51 45 52 48 53 62 54
REMARK SMILES IDX 81 55 46 56 47 57 61 59 82 60 49 61 33 62 34 63 42 64 35 65
REMARK SMILES IDX 41 66 43 67 40 68 36 69 37 70 38 71 39 72 65 73 66 74 74 75
REMARK SMILES IDX 67 76 73 77 75 78 72 79 68 80 69 81 70 82 71 83 50 84 51 85
REMARK SMILES IDX 59 86 52 87 58 88 60 89 57 90 53 91 54 92 55 93 56 94
REMARK H PARENT 80 47 48 58
REMARK Flexibility Score: inf
ROOT
ATOM      1  C   UNL A   1      36.837  29.826  28.782  1.00  0.00     0.188 C 
ENDROOT
BRANCH   1   2
ATOM      2  O   UNL A   1      38.084  29.311  28.357  1.00  0.00    -0.377 OA
BRANCH   2   3
ATOM      3  C   UNL A   1      38.529  28.161  29.037  1.00  0.00     0.188 C 
BRANCH   3   4
ATOM      4  C   UNL A   1      39.756  27.423  28.503  1.00  0.00     0.188 C 
BRANCH   4   5
ATOM      5  O   UNL A   1      41.035  27.666  29.078  1.00  0.00    -0.376 OA
BRANCH   5   6
ATOM      6  C   UNL A   1      42.004  28.473  28.423  1.00  0.00     0.202 C 
BRANCH   6   7
ATOM      7  C   UNL A   1      42.236  28.337  26.910  1.00  0.00     0.261 C 
BRANCH   7   8
ATOM      8  O   UNL A   1      43.307  27.452  26.522  1.00  0.00    -0.463 OA
BRANCH   8   9
ATOM      9  C   UNL A   1      42.929  26.241  26.043  1.00  0.00     0.312 C 
ATOM     10  O   UNL A   1      42.275  26.111  25.012  1.00  0.00    -0.252 OA
BRANCH   9  11
ATOM     11  C   UNL A   1      43.349  25.038  26.938  1.00  0.00     0.072 C 
ATOM     12  C   UNL A   1      44.416  25.629  27.914  1.00  0.00     0.019 C 
ATOM     13  C   UNL A   1      44.001  24.011  25.983  1.00  0.00     0.022 C 
ATOM     14  C   UNL A   1      45.328  24.600  28.564  1.00  0.00     0.001 C 
ATOM     15  C   UNL A   1      44.907  22.989  26.691  1.00  0.00    -0.013 C 
ATOM     16  C   UNL A   1      45.977  23.702  27.516  1.00  0.00     0.003 C 
ATOM     17  C   UNL A   1      45.492  22.002  25.689  1.00  0.00     0.007 C 
BRANCH  11  18
ATOM     18  C   UNL A   1      42.161  24.426  27.762  1.00  0.00     0.046 C 
BRANCH  18  19
ATOM     19  C   UNL A   1      41.476  23.169  27.297  1.00  0.00    -0.027 C 
ATOM     20  C   UNL A   1      39.269  24.242  26.706  1.00  0.00     0.039 C 
ATOM     21  C   UNL A   1      40.213  23.076  26.835  1.00  0.00    -0.080 C 
ATOM     22  C   UNL A   1      39.653  21.757  26.373  1.00  0.00     0.039 C 
ENDBRANCH  18  19
ENDBRANCH  11  18
ENDBRANCH   9  11
ENDBRANCH   8   9
ENDBRANCH   7   8
ENDBRANCH   6   7
ENDBRANCH   5   6
ENDBRANCH   4   5
ENDBRANCH   3   4
ENDBRANCH   2   3
ENDBRANCH   1   2
BRANCH   1  23
ATOM     23  C   UNL A   1      36.685  31.292  28.386  1.00  0.00     0.188 C 
BRANCH  23  24
ATOM     24  O   UNL A   1      36.414  32.267  29.398  1.00  0.00    -0.376 OA
BRANCH  24  25
ATOM     25  C   UNL A   1      35.153  32.256  30.052  1.00  0.00     0.202 C 
BRANCH  25  26
ATOM     26  C   UNL A   1      35.198  32.776  31.503  1.00  0.00     0.261 C 
BRANCH  26  27
ATOM     27  O   UNL A   1      35.501  31.792  32.505  1.00  0.00    -0.460 OA
BRANCH  27  28
ATOM     28  C   UNL A   1      36.340  32.193  33.495  1.00  0.00     0.338 C 
ATOM     29  O   UNL A   1      36.059  32.859  34.478  1.00  0.00    -0.246 OA
BRANCH  28  30
ATOM     30  C   UNL A   1      37.672  31.583  33.269  1.00  0.00     0.060 A 
ATOM     31  C   UNL A   1      38.777  32.077  33.974  1.00  0.00     0.016 A 
ATOM     32  C   UNL A   1      37.828  30.524  32.371  1.00  0.00     0.016 A 
ATOM     33  C   UNL A   1      40.045  31.521  33.774  1.00  0.00     0.010 A 
ATOM     34  C   UNL A   1      39.101  29.988  32.148  1.00  0.00     0.010 A 
ATOM     35  C   UNL A   1      40.220  30.495  32.834  1.00  0.00    -0.014 A 
BRANCH  35  36
ATOM     36  C   UNL A   1      41.585  30.071  32.429  1.00  0.00     0.031 A 
ATOM     37  C   UNL A   1      42.288  30.866  31.362  1.00  0.00     0.074 A 
ATOM     38  C   UNL A   1      42.175  28.992  32.974  1.00  0.00     0.049 A 
ATOM     39  N   UNL A   1      43.430  30.633  30.771  1.00  0.00    -0.248 NA
ATOM     40  C   UNL A   1      41.605  32.084  30.901  1.00  0.00     0.031 C 
ATOM     41  C   UNL A   1      41.612  28.172  34.044  1.00  0.00     0.029 A 
ATOM     42  N   UNL A   1      43.374  28.385  32.684  1.00  0.00    -0.354 N 
ATOM     43  C   UNL A   1      43.600  31.670  29.859  1.00  0.00     0.074 A 
ATOM     44  C   UNL A   1      42.435  32.522  29.966  1.00  0.00     0.031 C 
ATOM     45  C   UNL A   1      42.450  27.150  34.299  1.00  0.00     0.029 A 
ATOM     46  C   UNL A   1      43.586  27.217  33.380  1.00  0.00     0.049 A 
ATOM     47  H   UNL A   1      44.021  28.753  32.037  1.00  0.00     0.167 HD
ATOM     48  C   UNL A   1      44.632  31.887  29.008  1.00  0.00     0.034 A 
ATOM     49  C   UNL A   1      44.559  26.289  33.256  1.00  0.00     0.034 A 
ATOM     50  C   UNL A   1      45.779  31.021  28.903  1.00  0.00     0.049 A 
ATOM     51  C   UNL A   1      45.647  26.500  32.224  1.00  0.00     0.074 A 
ATOM     52  C   UNL A   1      46.903  31.176  28.112  1.00  0.00     0.029 A 
ATOM     53  N   UNL A   1      45.934  29.824  29.588  1.00  0.00    -0.354 N 
ATOM     54  N   UNL A   1      45.818  27.507  31.398  1.00  0.00    -0.248 NA
ATOM     55  C   UNL A   1      46.667  25.449  32.105  1.00  0.00     0.031 C 
ATOM     56  C   UNL A   1      47.697  30.033  28.256  1.00  0.00     0.029 A 
ATOM     57  C   UNL A   1      47.108  29.202  29.196  1.00  0.00     0.049 A 
ATOM     58  H   UNL A   1      45.302  29.469  30.254  1.00  0.00     0.167 HD
ATOM     59  C   UNL A   1      46.974  27.217  30.678  1.00  0.00     0.074 A 
ATOM     60  C   UNL A   1      47.470  25.952  31.179  1.00  0.00     0.031 C 
ATOM     61  C   UNL A   1      47.577  27.930  29.693  1.00  0.00     0.034 A 
BRANCH  48  62
ATOM     62  C   UNL A   1      44.533  33.072  28.082  1.00  0.00     0.023 A 
ATOM     63  C   UNL A   1      44.820  34.379  28.510  1.00  0.00     0.031 A 
ATOM     64  C   UNL A   1      44.133  32.886  26.746  1.00  0.00     0.131 A 
ATOM     65  C   UNL A   1      44.650  35.456  27.626  1.00  0.00     0.055 A 
ATOM     66  C   UNL A   1      44.033  33.953  25.853  1.00  0.00     0.041 A 
ATOM     67  F   UNL A   1      43.824  31.662  26.290  1.00  0.00    -0.206 F 
ATOM     68  C   UNL A   1      44.281  35.249  26.294  1.00  0.00     0.022 A 
BRANCH  65  69
ATOM     69  S   UNL A   1      44.807  37.144  28.272  1.00  0.00     0.124 S 
ATOM     70  O   UNL A   1      45.901  36.995  29.228  1.00  0.00    -0.237 OA
ATOM     71  O   UNL A   1      45.109  37.913  27.070  1.00  0.00    -0.237 OA
ATOM     72  O   UNL A   1      43.498  37.406  28.867  1.00  0.00    -0.744 OA
ENDBRANCH  65  69
ENDBRANCH  48  62
BRANCH  49  73
ATOM     73  C   UNL A   1      44.518  25.029  34.058  1.00  0.00     0.023 A 
ATOM     74  C   UNL A   1      45.013  24.981  35.371  1.00  0.00     0.031 A 
ATOM     75  C   UNL A   1      44.053  23.829  33.487  1.00  0.00     0.131 A 
ATOM     76  C   UNL A   1      45.079  23.753  36.050  1.00  0.00     0.055 A 
ATOM     77  C   UNL A   1      44.068  22.622  34.187  1.00  0.00     0.041 A 
ATOM     78  F   UNL A   1      43.576  23.814  32.233  1.00  0.00    -0.206 F 
ATOM     79  C   UNL A   1      44.597  22.576  35.472  1.00  0.00     0.022 A 
BRANCH  76  80
ATOM     80  S   UNL A   1      45.897  23.695  37.669  1.00  0.00     0.124 S 
ATOM     81  O   UNL A   1      44.983  24.477  38.492  1.00  0.00    -0.237 OA
ATOM     82  O   UNL A   1      45.936  22.261  37.936  1.00  0.00    -0.237 OA
ATOM     83  O   UNL A   1      47.195  24.315  37.415  1.00  0.00    -0.744 OA
ENDBRANCH  76  80
ENDBRANCH  49  73
BRANCH  61  84
ATOM     84  C   UNL A   1      48.852  27.370  29.110  1.00  0.00     0.023 A 
ATOM     85  C   UNL A   1      50.089  27.527  29.759  1.00  0.00     0.031 A 
ATOM     86  C   UNL A   1      48.823  26.651  27.903  1.00  0.00     0.131 A 
ATOM     87  C   UNL A   1      51.254  27.004  29.177  1.00  0.00     0.055 A 
ATOM     88  C   UNL A   1      49.976  26.086  27.356  1.00  0.00     0.041 A 
ATOM     89  F   UNL A   1      47.669  26.472  27.242  1.00  0.00    -0.206 F 
ATOM     90  C   UNL A   1      51.202  26.269  27.989  1.00  0.00     0.022 A 
BRANCH  87  91
ATOM     91  S   UNL A   1      52.853  27.348  29.961  1.00  0.00     0.124 S 
ATOM     92  O   UNL A   1      52.720  28.758  30.313  1.00  0.00    -0.237 OA
ATOM     93  O   UNL A   1      52.863  26.410  31.079  1.00  0.00    -0.237 OA
ATOM     94  O   UNL A   1      53.822  27.061  28.905  1.00  0.00    -0.744 OA
ENDBRANCH  87  91
ENDBRANCH  61  84
ENDBRANCH  35  36
ENDBRANCH  28  30
ENDBRANCH  27  28
ENDBRANCH  26  27
ENDBRANCH  25  26
ENDBRANCH  24  25
ENDBRANCH  23  24
ENDBRANCH   1  23
TORSDOF 25
ENDMDL
MODEL 3
REMARK VINA RESULT:      -8.0      6.480     13.221
REMARK SMILES CC(C)=CC[C@@]1(C(=O)OCCOCCOCCOCCOC(=O)c2ccc(-c3c4nc(c(-c5cc(S(=O)(=O)[O-])ccc5F)c5ccc([nH]5)c(-c5cc(S(=O)(=O)[O-])ccc5F)c5nc(c(-c6cc(S(=O)(=O)[O-])ccc6F)c6ccc3[nH]6)C=C5)C=C4)cc2)CCC[C@H](C)C1
REMARK SMILES IDX 16 1 15 2 14 3 13 4 12 5 11 6 10 7 9 8 7 9 8 10 6 11 87 12
REMARK SMILES IDX 92 13 88 14 90 15 89 16 91 17 5 18 4 19 1 20 2 21 3 22 17 23
REMARK SMILES IDX 18 24 19 25 20 26 21 27 22 28 23 29 24 30 25 31 86 32 26 33
REMARK SMILES IDX 85 34 27 35 28 36 29 37 79 38 30 39 84 40 78 41 80 42 31 43
REMARK SMILES IDX 83 44 77 45 76 46 32 48 64 49 44 50 63 51 45 52 48 53 62 54
REMARK SMILES IDX 81 55 46 56 47 57 61 59 82 60 49 61 33 62 34 63 42 64 35 65
REMARK SMILES IDX 41 66 43 67 40 68 36 69 37 70 38 71 39 72 65 73 66 74 74 75
REMARK SMILES IDX 67 76 73 77 75 78 72 79 68 80 69 81 70 82 71 83 50 84 51 85
REMARK SMILES IDX 59 86 52 87 58 88 60 89 57 90 53 91 54 92 55 93 56 94
REMARK H PARENT 80 47 48 58
REMARK Flexibility Score: inf
ROOT
ATOM      1  C   UNL A   1      46.523  42.306  35.118  1.00  0.00     0.188 C 
ENDROOT
BRANCH   1   2
ATOM      2  O   UNL A   1      45.149  42.622  35.020  1.00  0.00    -0.377 OA
BRANCH   2   3
ATOM      3  C   UNL A   1      44.833  43.693  34.160  1.00  0.00     0.188 C 
BRANCH   3   4
ATOM      4  C   UNL A   1      43.612  43.566  33.250  1.00  0.00     0.188 C 
BRANCH   4   5
ATOM      5  O   UNL A   1      43.650  44.108  31.934  1.00  0.00    -0.376 OA
BRANCH   5   6
ATOM      6  C   UNL A   1      44.756  43.886  31.070  1.00  0.00     0.202 C 
BRANCH   6   7
ATOM      7  C   UNL A   1      44.567  43.142  29.738  1.00  0.00     0.261 C 
BRANCH   7   8
ATOM      8  O   UNL A   1      44.815  41.722  29.777  1.00  0.00    -0.463 OA
BRANCH   8   9
ATOM      9  C   UNL A   1      43.733  40.927  29.592  1.00  0.00     0.312 C 
ATOM     10  O   UNL A   1      42.856  40.794  30.441  1.00  0.00    -0.252 OA
BRANCH   9  11
ATOM     11  C   UNL A   1      43.725  40.158  28.238  1.00  0.00     0.072 C 
ATOM     12  C   UNL A   1      42.777  40.992  27.319  1.00  0.00     0.019 C 
ATOM     13  C   UNL A   1      43.102  38.775  28.544  1.00  0.00     0.022 C 
ATOM     14  C   UNL A   1      42.215  40.236  26.125  1.00  0.00     0.001 C 
ATOM     15  C   UNL A   1      42.556  38.049  27.302  1.00  0.00    -0.013 C 
ATOM     16  C   UNL A   1      41.553  38.933  26.562  1.00  0.00     0.003 C 
ATOM     17  C   UNL A   1      41.982  36.691  27.682  1.00  0.00     0.007 C 
BRANCH  11  18
ATOM     18  C   UNL A   1      45.143  40.047  27.572  1.00  0.00     0.046 C 
BRANCH  18  19
ATOM     19  C   UNL A   1      46.030  38.864  27.857  1.00  0.00    -0.027 C 
ATOM     20  C   UNL A   1      47.101  38.748  25.574  1.00  0.00     0.039 C 
ATOM     21  C   UNL A   1      46.888  38.287  26.992  1.00  0.00    -0.080 C 
ATOM     22  C   UNL A   1      47.742  37.122  27.411  1.00  0.00     0.039 C 
ENDBRANCH  18  19
ENDBRANCH  11  18
ENDBRANCH   9  11
ENDBRANCH   8   9
ENDBRANCH   7   8
ENDBRANCH   6   7
ENDBRANCH   5   6
ENDBRANCH   4   5
ENDBRANCH   3   4
ENDBRANCH   2   3
ENDBRANCH   1   2
BRANCH   1  23
ATOM     23  C   UNL A   1      46.855  41.047  34.319  1.00  0.00     0.188 C 
BRANCH  23  24
ATOM     24  O   UNL A   1      46.189  40.813  33.074  1.00  0.00    -0.376 OA
BRANCH  24  25
ATOM     25  C   UNL A   1      45.522  39.576  32.866  1.00  0.00     0.202 C 
BRANCH  25  26
ATOM     26  C   UNL A   1      45.779  38.955  31.477  1.00  0.00     0.261 C 
BRANCH  26  27
ATOM     27  O   UNL A   1      45.474  37.556  31.357  1.00  0.00    -0.460 OA
BRANCH  27  28
ATOM     28  C   UNL A   1      46.536  36.734  31.155  1.00  0.00     0.338 C 
ATOM     29  O   UNL A   1      47.690  36.916  31.507  1.00  0.00    -0.246 OA
BRANCH  28  30
ATOM     30  C   UNL A   1      46.055  35.479  30.530  1.00  0.00     0.060 A 
ATOM     31  C   UNL A   1      45.136  35.551  29.475  1.00  0.00     0.016 A 
ATOM     32  C   UNL A   1      46.513  34.237  30.979  1.00  0.00     0.016 A 
ATOM     33  C   UNL A   1      44.664  34.380  28.873  1.00  0.00     0.010 A 
ATOM     34  C   UNL A   1      46.017  33.065  30.397  1.00  0.00     0.010 A 
ATOM     35  C   UNL A   1      45.076  33.129  29.353  1.00  0.00    -0.014 A 
BRANCH  35  36
ATOM     36  C   UNL A   1      44.398  31.888  28.898  1.00  0.00     0.031 A 
ATOM     37  C   UNL A   1      43.042  31.570  29.467  1.00  0.00     0.074 A 
ATOM     38  C   UNL A   1      44.982  31.049  28.023  1.00  0.00     0.049 A 
ATOM     39  N   UNL A   1      42.303  30.503  29.308  1.00  0.00    -0.248 NA
ATOM     40  C   UNL A   1      42.444  32.595  30.337  1.00  0.00     0.031 C 
ATOM     41  C   UNL A   1      46.271  31.272  27.372  1.00  0.00     0.029 A 
ATOM     42  N   UNL A   1      44.575  29.825  27.549  1.00  0.00    -0.354 N 
ATOM     43  C   UNL A   1      41.157  30.722  30.064  1.00  0.00     0.074 A 
ATOM     44  C   UNL A   1      41.307  32.017  30.695  1.00  0.00     0.031 C 
ATOM     45  C   UNL A   1      46.564  30.205  26.607  1.00  0.00     0.029 A 
ATOM     46  C   UNL A   1      45.507  29.204  26.749  1.00  0.00     0.049 A 
ATOM     47  H   UNL A   1      43.698  29.429  27.762  1.00  0.00     0.167 HD
ATOM     48  C   UNL A   1      40.080  29.915  30.220  1.00  0.00     0.034 A 
ATOM     49  C   UNL A   1      45.524  27.956  26.231  1.00  0.00     0.034 A 
ATOM     50  C   UNL A   1      39.951  28.622  29.597  1.00  0.00     0.049 A 
ATOM     51  C   UNL A   1      44.357  27.033  26.506  1.00  0.00     0.074 A 
ATOM     52  C   UNL A   1      38.882  27.746  29.647  1.00  0.00     0.029 A 
ATOM     53  N   UNL A   1      40.935  28.007  28.836  1.00  0.00    -0.354 N 
ATOM     54  N   UNL A   1      43.259  27.269  27.188  1.00  0.00    -0.248 NA
ATOM     55  C   UNL A   1      44.433  25.676  25.948  1.00  0.00     0.031 C 
ATOM     56  C   UNL A   1      39.251  26.569  28.987  1.00  0.00     0.029 A 
ATOM     57  C   UNL A   1      40.520  26.742  28.457  1.00  0.00     0.049 A 
ATOM     58  H   UNL A   1      41.801  28.412  28.599  1.00  0.00     0.167 HD
ATOM     59  C   UNL A   1      42.509  26.096  27.122  1.00  0.00     0.074 A 
ATOM     60  C   UNL A   1      43.270  25.161  26.319  1.00  0.00     0.031 C 
ATOM     61  C   UNL A   1      41.301  25.815  27.671  1.00  0.00     0.034 A 
BRANCH  48  62
ATOM     62  C   UNL A   1      38.989  30.381  31.151  1.00  0.00     0.023 A 
ATOM     63  C   UNL A   1      37.960  31.237  30.723  1.00  0.00     0.031 A 
ATOM     64  C   UNL A   1      38.989  29.966  32.494  1.00  0.00     0.131 A 
ATOM     65  C   UNL A   1      37.005  31.694  31.644  1.00  0.00     0.055 A 
ATOM     66  C   UNL A   1      37.997  30.369  33.389  1.00  0.00     0.041 A 
ATOM     67  F   UNL A   1      39.962  29.168  32.963  1.00  0.00    -0.206 F 
ATOM     68  C   UNL A   1      37.003  31.248  32.968  1.00  0.00     0.022 A 
BRANCH  65  69
ATOM     69  S   UNL A   1      35.831  32.972  31.117  1.00  0.00     0.124 S 
ATOM     70  O   UNL A   1      36.203  33.157  29.716  1.00  0.00    -0.237 OA
ATOM     71  O   UNL A   1      34.542  32.332  31.355  1.00  0.00    -0.237 OA
ATOM     72  O   UNL A   1      36.137  34.102  31.992  1.00  0.00    -0.744 OA
ENDBRANCH  65  69
ENDBRANCH  48  62
BRANCH  49  73
ATOM     73  C   UNL A   1      46.712  27.461  25.475  1.00  0.00     0.023 A 
ATOM     74  C   UNL A   1      46.979  27.893  24.166  1.00  0.00     0.031 A 
ATOM     75  C   UNL A   1      47.558  26.480  26.027  1.00  0.00     0.131 A 
ATOM     76  C   UNL A   1      48.030  27.311  23.436  1.00  0.00     0.055 A 
ATOM     77  C   UNL A   1      48.634  25.945  25.318  1.00  0.00     0.041 A 
ATOM     78  F   UNL A   1      47.346  26.023  27.272  1.00  0.00    -0.206 F 
ATOM     79  C   UNL A   1      48.868  26.350  24.008  1.00  0.00     0.022 A 
BRANCH  76  80
ATOM     80  S   UNL A   1      48.227  27.755  21.687  1.00  0.00     0.124 S 
ATOM     81  O   UNL A   1      46.935  28.360  21.387  1.00  0.00    -0.237 OA
ATOM     82  O   UNL A   1      49.367  28.664  21.735  1.00  0.00    -0.237 OA
ATOM     83  O   UNL A   1      48.483  26.472  21.038  1.00  0.00    -0.744 OA
ENDBRANCH  76  80
ENDBRANCH  49  73
BRANCH  61  84
ATOM     84  C   UNL A   1      40.716  24.450  27.401  1.00  0.00     0.023 A 
ATOM     85  C   UNL A   1      39.581  24.283  26.589  1.00  0.00     0.031 A 
ATOM     86  C   UNL A   1      41.317  23.301  27.945  1.00  0.00     0.131 A 
ATOM     87  C   UNL A   1      39.059  22.998  26.375  1.00  0.00     0.055 A 
ATOM     88  C   UNL A   1      40.826  22.021  27.684  1.00  0.00     0.041 A 
ATOM     89  F   UNL A   1      42.403  23.404  28.728  1.00  0.00    -0.206 F 
ATOM     90  C   UNL A   1      39.686  21.865  26.902  1.00  0.00     0.022 A 
BRANCH  87  91
ATOM     91  S   UNL A   1      37.511  22.827  25.444  1.00  0.00     0.124 S 
ATOM     92  O   UNL A   1      37.600  21.454  24.958  1.00  0.00    -0.237 OA
ATOM     93  O   UNL A   1      36.500  23.077  26.467  1.00  0.00    -0.237 OA
ATOM     94  O   UNL A   1      37.616  23.858  24.413  1.00  0.00    -0.744 OA
ENDBRANCH  87  91
ENDBRANCH  61  84
ENDBRANCH  35  36
ENDBRANCH  28  30
ENDBRANCH  27  28
ENDBRANCH  26  27
ENDBRANCH  25  26
ENDBRANCH  24  25
ENDBRANCH  23  24
ENDBRANCH   1  23
TORSDOF 25
ENDMDL
