MODEL 1
REMARK VINA RESULT:      -7.8      0.000      0.000
REMARK SMILES C[C@](NC(=O)[C@](C)([NH3+])C(F)(F)F)(C(=O)OCCOCCOCCOCCOC(=O)c1ccc(-c2c3nc(c(-c4cc(S(=O)(=O)[O-])ccc4F)c4ccc([nH]4)c(-c4cc(S(=O)(=O)[O-])ccc4F)c4nc(c(-c5cc(S(=O)(=O)[O-])ccc5F)c5ccc2[nH]5)C=C4)C=C3)cc1)c1ccccc1
REMARK SMILES IDX 21 1 20 2 19 3 18 4 17 5 16 6 15 7 13 8 14 9 2 10 1 11 93 12
REMARK SMILES IDX 94 13 98 14 95 15 97 16 96 17 3 18 4 19 5 21 6 22 7 23 8 24
REMARK SMILES IDX 9 28 10 29 11 30 12 31 22 32 23 33 24 34 25 35 26 36 27 37
REMARK SMILES IDX 28 38 29 39 30 40 31 41 92 42 32 43 91 44 33 45 34 46 35 47
REMARK SMILES IDX 85 48 36 49 90 50 84 51 86 52 37 53 89 54 83 55 82 56 38 58
REMARK SMILES IDX 70 59 50 60 69 61 51 62 54 63 68 64 87 65 52 66 53 67 67 69
REMARK SMILES IDX 88 70 55 71 39 72 40 73 48 74 41 75 47 76 49 77 46 78 42 79
REMARK SMILES IDX 43 80 44 81 45 82 71 83 72 84 80 85 73 86 79 87 81 88 78 89
REMARK SMILES IDX 74 90 75 91 76 92 77 93 56 94 57 95 65 96 58 97 64 98 66 99
REMARK SMILES IDX 63 100 59 101 60 102 61 103 62 104
REMARK H PARENT 3 20 8 25 8 26 8 27 86 57 54 68
REMARK Flexibility Score: inf
ROOT
ATOM      1  O   UNL A   1      37.722  31.698  38.455  1.00  0.00    -0.377 OA
ENDROOT
BRANCH   1   2
ATOM      2  C   UNL A   1      37.710  31.129  37.163  1.00  0.00     0.188 C 
BRANCH   2   3
ATOM      3  C   UNL A   1      39.103  31.044  36.488  1.00  0.00     0.188 C 
BRANCH   3   4
ATOM      4  O   UNL A   1      39.249  31.241  35.091  1.00  0.00    -0.376 OA
BRANCH   4   5
ATOM      5  C   UNL A   1      39.103  30.141  34.208  1.00  0.00     0.202 C 
BRANCH   5   6
ATOM      6  C   UNL A   1      40.314  29.557  33.452  1.00  0.00     0.261 C 
BRANCH   6   7
ATOM      7  O   UNL A   1      40.175  28.249  32.860  1.00  0.00    -0.461 OA
BRANCH   7   8
ATOM      8  C   UNL A   1      39.037  28.022  32.153  1.00  0.00     0.336 C 
ATOM      9  O   UNL A   1      37.979  27.675  32.672  1.00  0.00    -0.249 OA
BRANCH   8  10
ATOM     10  C   UNL A   1      39.224  28.131  30.583  1.00  0.00     0.161 C 
ATOM     11  C   UNL A   1      38.761  26.734  30.152  1.00  0.00     0.053 C 
BRANCH  10  12
ATOM     12  C   UNL A   1      38.250  29.247  30.055  1.00  0.00    -0.012 A 
ATOM     13  C   UNL A   1      38.312  30.579  30.492  1.00  0.00     0.007 A 
ATOM     14  C   UNL A   1      37.246  28.951  29.107  1.00  0.00     0.007 A 
ATOM     15  C   UNL A   1      37.489  31.570  29.938  1.00  0.00     0.000 A 
ATOM     16  C   UNL A   1      36.448  29.941  28.524  1.00  0.00     0.000 A 
ATOM     17  C   UNL A   1      36.580  31.258  28.933  1.00  0.00     0.000 A 
ENDBRANCH  10  12
BRANCH  10  18
ATOM     18  N   UNL A   1      40.571  28.491  30.012  1.00  0.00    -0.331 N 
ATOM     19  C   UNL A   1      41.332  28.506  28.894  1.00  0.00     0.291 C 
ATOM     20  H   UNL A   1      41.114  28.861  30.746  1.00  0.00     0.165 HD
ATOM     21  O   UNL A   1      42.486  28.905  29.122  1.00  0.00    -0.267 OA
BRANCH  19  22
ATOM     22  C   UNL A   1      40.926  28.169  27.444  1.00  0.00     0.267 C 
ATOM     23  C   UNL A   1      41.982  28.735  26.466  1.00  0.00     0.100 C 
BRANCH  22  24
ATOM     24  N   UNL A   1      39.692  28.910  27.030  1.00  0.00    -0.337 N 
ATOM     25  H   UNL A   1      39.141  29.141  27.857  1.00  0.00     0.345 HD
ATOM     26  H   UNL A   1      39.138  28.327  26.403  1.00  0.00     0.345 HD
ATOM     27  H   UNL A   1      39.957  29.770  26.548  1.00  0.00     0.345 HD
ENDBRANCH  22  24
BRANCH  22  28
ATOM     28  C   UNL A   1      40.929  26.635  27.302  1.00  0.00     0.453 C 
ATOM     29  F   UNL A   1      39.678  26.174  27.048  1.00  0.00    -0.164 F 
ATOM     30  F   UNL A   1      41.725  26.203  26.304  1.00  0.00    -0.164 F 
ATOM     31  F   UNL A   1      41.323  26.038  28.449  1.00  0.00    -0.164 F 
ENDBRANCH  22  28
ENDBRANCH  19  22
ENDBRANCH  10  18
ENDBRANCH   8  10
ENDBRANCH   7   8
ENDBRANCH   6   7
ENDBRANCH   5   6
ENDBRANCH   4   5
ENDBRANCH   3   4
ENDBRANCH   2   3
ENDBRANCH   1   2
BRANCH   1  32
ATOM     32  C   UNL A   1      36.951  31.011  39.430  1.00  0.00     0.188 C 
BRANCH  32  33
ATOM     33  C   UNL A   1      35.549  31.580  39.733  1.00  0.00     0.188 C 
BRANCH  33  34
ATOM     34  O   UNL A   1      35.201  31.533  41.114  1.00  0.00    -0.376 OA
BRANCH  34  35
ATOM     35  C   UNL A   1      36.205  31.688  42.103  1.00  0.00     0.202 C 
BRANCH  35  36
ATOM     36  C   UNL A   1      36.541  33.110  42.584  1.00  0.00     0.261 C 
BRANCH  36  37
ATOM     37  O   UNL A   1      36.904  34.062  41.578  1.00  0.00    -0.460 OA
BRANCH  37  38
ATOM     38  C   UNL A   1      37.922  34.903  41.861  1.00  0.00     0.338 C 
ATOM     39  O   UNL A   1      38.153  35.422  42.941  1.00  0.00    -0.246 OA
BRANCH  38  40
ATOM     40  C   UNL A   1      38.848  34.903  40.711  1.00  0.00     0.060 A 
ATOM     41  C   UNL A   1      39.035  36.100  40.007  1.00  0.00     0.016 A 
ATOM     42  C   UNL A   1      39.524  33.740  40.327  1.00  0.00     0.016 A 
ATOM     43  C   UNL A   1      39.839  36.122  38.872  1.00  0.00     0.010 A 
ATOM     44  C   UNL A   1      40.305  33.755  39.170  1.00  0.00     0.010 A 
ATOM     45  C   UNL A   1      40.412  34.932  38.407  1.00  0.00    -0.014 A 
BRANCH  45  46
ATOM     46  C   UNL A   1      40.829  34.872  36.985  1.00  0.00     0.031 A 
ATOM     47  C   UNL A   1      39.741  34.726  35.951  1.00  0.00     0.074 A 
ATOM     48  C   UNL A   1      42.110  35.036  36.615  1.00  0.00     0.049 A 
ATOM     49  N   UNL A   1      39.828  34.680  34.649  1.00  0.00    -0.248 NA
ATOM     50  C   UNL A   1      38.366  34.618  36.466  1.00  0.00     0.031 C 
ATOM     51  C   UNL A   1      43.232  35.254  37.526  1.00  0.00     0.029 A 
ATOM     52  N   UNL A   1      42.677  35.058  35.367  1.00  0.00    -0.354 N 
ATOM     53  C   UNL A   1      38.523  34.527  34.190  1.00  0.00     0.074 A 
ATOM     54  C   UNL A   1      37.671  34.444  35.355  1.00  0.00     0.031 C 
ATOM     55  C   UNL A   1      44.357  35.395  36.801  1.00  0.00     0.029 A 
ATOM     56  C   UNL A   1      44.040  35.240  35.382  1.00  0.00     0.049 A 
ATOM     57  H   UNL A   1      42.158  34.953  34.537  1.00  0.00     0.167 HD
ATOM     58  C   UNL A   1      38.074  34.472  32.913  1.00  0.00     0.034 A 
ATOM     59  C   UNL A   1      44.924  35.264  34.364  1.00  0.00     0.034 A 
ATOM     60  C   UNL A   1      38.942  34.547  31.764  1.00  0.00     0.049 A 
ATOM     61  C   UNL A   1      44.411  35.108  32.950  1.00  0.00     0.074 A 
ATOM     62  C   UNL A   1      38.602  34.507  30.424  1.00  0.00     0.029 A 
ATOM     63  N   UNL A   1      40.325  34.665  31.820  1.00  0.00    -0.354 N 
ATOM     64  N   UNL A   1      43.176  34.964  32.525  1.00  0.00    -0.248 NA
ATOM     65  C   UNL A   1      45.414  35.135  31.878  1.00  0.00     0.031 C 
ATOM     66  C   UNL A   1      39.782  34.509  29.674  1.00  0.00     0.029 A 
ATOM     67  C   UNL A   1      40.855  34.662  30.540  1.00  0.00     0.049 A 
ATOM     68  H   UNL A   1      40.852  34.740  32.648  1.00  0.00     0.167 HD
ATOM     69  C   UNL A   1      43.252  34.936  31.132  1.00  0.00     0.074 A 
ATOM     70  C   UNL A   1      44.653  35.086  30.796  1.00  0.00     0.031 C 
ATOM     71  C   UNL A   1      42.256  34.811  30.216  1.00  0.00     0.034 A 
BRANCH  58  72
ATOM     72  C   UNL A   1      36.594  34.246  32.707  1.00  0.00     0.023 A 
ATOM     73  C   UNL A   1      35.702  35.306  32.458  1.00  0.00     0.031 A 
ATOM     74  C   UNL A   1      36.060  32.950  32.813  1.00  0.00     0.131 A 
ATOM     75  C   UNL A   1      34.321  35.060  32.405  1.00  0.00     0.055 A 
ATOM     76  C   UNL A   1      34.694  32.700  32.666  1.00  0.00     0.041 A 
ATOM     77  F   UNL A   1      36.855  31.902  33.081  1.00  0.00    -0.206 F 
ATOM     78  C   UNL A   1      33.813  33.761  32.479  1.00  0.00     0.022 A 
BRANCH  75  79
ATOM     79  S   UNL A   1      33.186  36.476  32.409  1.00  0.00     0.124 S 
ATOM     80  O   UNL A   1      31.953  35.863  32.901  1.00  0.00    -0.237 OA
ATOM     81  O   UNL A   1      33.844  37.406  33.318  1.00  0.00    -0.237 OA
ATOM     82  O   UNL A   1      33.149  36.891  31.008  1.00  0.00    -0.744 OA
ENDBRANCH  75  79
ENDBRANCH  58  72
BRANCH  59  83
ATOM     83  C   UNL A   1      46.385  35.421  34.627  1.00  0.00     0.023 A 
ATOM     84  C   UNL A   1      47.233  34.306  34.712  1.00  0.00     0.031 A 
ATOM     85  C   UNL A   1      46.942  36.690  34.868  1.00  0.00     0.131 A 
ATOM     86  C   UNL A   1      48.578  34.475  35.082  1.00  0.00     0.055 A 
ATOM     87  C   UNL A   1      48.293  36.858  35.176  1.00  0.00     0.041 A 
ATOM     88  F   UNL A   1      46.176  37.792  34.808  1.00  0.00    -0.206 F 
ATOM     89  C   UNL A   1      49.116  35.744  35.299  1.00  0.00     0.022 A 
BRANCH  86  90
ATOM     90  S   UNL A   1      49.589  32.997  35.377  1.00  0.00     0.124 S 
ATOM     91  O   UNL A   1      50.111  33.258  36.713  1.00  0.00    -0.237 OA
ATOM     92  O   UNL A   1      48.602  31.928  35.270  1.00  0.00    -0.237 OA
ATOM     93  O   UNL A   1      50.576  33.041  34.299  1.00  0.00    -0.744 OA
ENDBRANCH  86  90
ENDBRANCH  59  83
BRANCH  71  94
ATOM     94  C   UNL A   1      42.642  34.912  28.757  1.00  0.00     0.023 A 
ATOM     95  C   UNL A   1      43.271  33.859  28.071  1.00  0.00     0.031 A 
ATOM     96  C   UNL A   1      42.395  36.102  28.048  1.00  0.00     0.131 A 
ATOM     97  C   UNL A   1      43.702  34.043  26.749  1.00  0.00     0.055 A 
ATOM     98  C   UNL A   1      42.753  36.251  26.707  1.00  0.00     0.041 A 
ATOM     99  F   UNL A   1      41.801  37.147  28.648  1.00  0.00    -0.206 F 
ATOM    100  C   UNL A   1      43.428  35.226  26.056  1.00  0.00     0.022 A 
BRANCH  97 101
ATOM    101  S   UNL A   1      44.748  32.771  25.988  1.00  0.00     0.124 S 
ATOM    102  O   UNL A   1      45.988  32.906  26.745  1.00  0.00    -0.237 OA
ATOM    103  O   UNL A   1      43.983  31.553  26.231  1.00  0.00    -0.237 OA
ATOM    104  O   UNL A   1      44.828  33.184  24.588  1.00  0.00    -0.744 OA
ENDBRANCH  97 101
ENDBRANCH  71  94
ENDBRANCH  45  46
ENDBRANCH  38  40
ENDBRANCH  37  38
ENDBRANCH  36  37
ENDBRANCH  35  36
ENDBRANCH  34  35
ENDBRANCH  33  34
ENDBRANCH  32  33
ENDBRANCH   1  32
TORSDOF 28
ENDMDL
MODEL 2
REMARK VINA RESULT:      -7.7      6.155     10.658
REMARK SMILES C[C@](NC(=O)[C@](C)([NH3+])C(F)(F)F)(C(=O)OCCOCCOCCOCCOC(=O)c1ccc(-c2c3nc(c(-c4cc(S(=O)(=O)[O-])ccc4F)c4ccc([nH]4)c(-c4cc(S(=O)(=O)[O-])ccc4F)c4nc(c(-c5cc(S(=O)(=O)[O-])ccc5F)c5ccc2[nH]5)C=C4)C=C3)cc1)c1ccccc1
REMARK SMILES IDX 21 1 20 2 19 3 18 4 17 5 16 6 15 7 13 8 14 9 2 10 1 11 93 12
REMARK SMILES IDX 94 13 98 14 95 15 97 16 96 17 3 18 4 19 5 21 6 22 7 23 8 24
REMARK SMILES IDX 9 28 10 29 11 30 12 31 22 32 23 33 24 34 25 35 26 36 27 37
REMARK SMILES IDX 28 38 29 39 30 40 31 41 92 42 32 43 91 44 33 45 34 46 35 47
REMARK SMILES IDX 85 48 36 49 90 50 84 51 86 52 37 53 89 54 83 55 82 56 38 58
REMARK SMILES IDX 70 59 50 60 69 61 51 62 54 63 68 64 87 65 52 66 53 67 67 69
REMARK SMILES IDX 88 70 55 71 39 72 40 73 48 74 41 75 47 76 49 77 46 78 42 79
REMARK SMILES IDX 43 80 44 81 45 82 71 83 72 84 80 85 73 86 79 87 81 88 78 89
REMARK SMILES IDX 74 90 75 91 76 92 77 93 56 94 57 95 65 96 58 97 64 98 66 99
REMARK SMILES IDX 63 100 59 101 60 102 61 103 62 104
REMARK H PARENT 3 20 8 25 8 26 8 27 86 57 54 68
REMARK Flexibility Score: inf
ROOT
ATOM      1  O   UNL A   1      39.771  25.022  26.299  1.00  0.00    -0.377 OA
ENDROOT
BRANCH   1   2
ATOM      2  C   UNL A   1      38.694  24.288  26.840  1.00  0.00     0.188 C 
BRANCH   2   3
ATOM      3  C   UNL A   1      37.662  23.799  25.791  1.00  0.00     0.188 C 
BRANCH   3   4
ATOM      4  O   UNL A   1      36.593  22.945  26.163  1.00  0.00    -0.376 OA
BRANCH   4   5
ATOM      5  C   UNL A   1      35.287  23.480  26.309  1.00  0.00     0.202 C 
BRANCH   5   6
ATOM      6  C   UNL A   1      34.102  22.589  26.734  1.00  0.00     0.261 C 
BRANCH   6   7
ATOM      7  O   UNL A   1      32.831  22.797  26.081  1.00  0.00    -0.461 OA
BRANCH   7   8
ATOM      8  C   UNL A   1      32.171  23.942  26.393  1.00  0.00     0.336 C 
ATOM      9  O   UNL A   1      31.618  24.129  27.474  1.00  0.00    -0.249 OA
BRANCH   8  10
ATOM     10  C   UNL A   1      32.075  24.974  25.194  1.00  0.00     0.161 C 
ATOM     11  C   UNL A   1      30.594  24.832  24.824  1.00  0.00     0.053 C 
BRANCH  10  12
ATOM     12  C   UNL A   1      32.389  26.408  25.761  1.00  0.00    -0.012 A 
ATOM     13  C   UNL A   1      33.671  26.795  26.180  1.00  0.00     0.007 A 
ATOM     14  C   UNL A   1      31.375  27.382  25.885  1.00  0.00     0.007 A 
ATOM     15  C   UNL A   1      33.939  28.106  26.598  1.00  0.00     0.000 A 
ATOM     16  C   UNL A   1      31.643  28.701  26.267  1.00  0.00     0.000 A 
ATOM     17  C   UNL A   1      32.934  29.067  26.611  1.00  0.00     0.000 A 
ENDBRANCH  10  12
BRANCH  10  18
ATOM     18  N   UNL A   1      32.983  24.823  24.001  1.00  0.00    -0.331 N 
ATOM     19  C   UNL A   1      33.266  25.280  22.760  1.00  0.00     0.291 C 
ATOM     20  H   UNL A   1      33.624  24.105  24.207  1.00  0.00     0.165 HD
ATOM     21  O   UNL A   1      34.182  24.633  22.224  1.00  0.00    -0.267 OA
BRANCH  19  22
ATOM     22  C   UNL A   1      32.661  26.487  22.013  1.00  0.00     0.267 C 
ATOM     23  C   UNL A   1      31.169  26.636  22.392  1.00  0.00     0.100 C 
BRANCH  22  24
ATOM     24  N   UNL A   1      32.583  26.239  20.538  1.00  0.00    -0.337 N 
ATOM     25  H   UNL A   1      31.616  26.334  20.228  1.00  0.00     0.345 HD
ATOM     26  H   UNL A   1      32.916  25.297  20.333  1.00  0.00     0.345 HD
ATOM     27  H   UNL A   1      33.165  26.919  20.048  1.00  0.00     0.345 HD
ENDBRANCH  22  24
BRANCH  22  28
ATOM     28  C   UNL A   1      33.396  27.752  22.495  1.00  0.00     0.453 C 
ATOM     29  F   UNL A   1      34.058  28.344  21.468  1.00  0.00    -0.164 F 
ATOM     30  F   UNL A   1      32.564  28.674  23.019  1.00  0.00    -0.164 F 
ATOM     31  F   UNL A   1      34.334  27.451  23.421  1.00  0.00    -0.164 F 
ENDBRANCH  22  28
ENDBRANCH  19  22
ENDBRANCH  10  18
ENDBRANCH   8  10
ENDBRANCH   7   8
ENDBRANCH   6   7
ENDBRANCH   5   6
ENDBRANCH   4   5
ENDBRANCH   3   4
ENDBRANCH   2   3
ENDBRANCH   1   2
BRANCH   1  32
ATOM     32  C   UNL A   1      40.756  25.437  27.235  1.00  0.00     0.188 C 
BRANCH  32  33
ATOM     33  C   UNL A   1      42.230  25.246  26.822  1.00  0.00     0.188 C 
BRANCH  33  34
ATOM     34  O   UNL A   1      42.390  24.705  25.514  1.00  0.00    -0.376 OA
BRANCH  34  35
ATOM     35  C   UNL A   1      42.803  23.359  25.349  1.00  0.00     0.202 C 
BRANCH  35  36
ATOM     36  C   UNL A   1      44.016  23.075  24.447  1.00  0.00     0.261 C 
BRANCH  36  37
ATOM     37  O   UNL A   1      45.089  24.022  24.491  1.00  0.00    -0.460 OA
BRANCH  37  38
ATOM     38  C   UNL A   1      45.837  24.057  25.614  1.00  0.00     0.338 C 
ATOM     39  O   UNL A   1      46.400  23.110  26.138  1.00  0.00    -0.246 OA
BRANCH  38  40
ATOM     40  C   UNL A   1      46.058  25.472  25.972  1.00  0.00     0.060 A 
ATOM     41  C   UNL A   1      46.544  25.767  27.252  1.00  0.00     0.016 A 
ATOM     42  C   UNL A   1      45.790  26.498  25.060  1.00  0.00     0.016 A 
ATOM     43  C   UNL A   1      46.692  27.091  27.653  1.00  0.00     0.010 A 
ATOM     44  C   UNL A   1      45.908  27.827  25.473  1.00  0.00     0.010 A 
ATOM     45  C   UNL A   1      46.300  28.123  26.791  1.00  0.00    -0.014 A 
BRANCH  45  46
ATOM     46  C   UNL A   1      45.999  29.447  27.387  1.00  0.00     0.031 A 
ATOM     47  C   UNL A   1      44.651  29.623  28.039  1.00  0.00     0.074 A 
ATOM     48  C   UNL A   1      46.917  30.427  27.434  1.00  0.00     0.049 A 
ATOM     49  N   UNL A   1      44.150  30.659  28.656  1.00  0.00    -0.248 NA
ATOM     50  C   UNL A   1      43.747  28.461  27.983  1.00  0.00     0.031 C 
ATOM     51  C   UNL A   1      48.274  30.342  26.899  1.00  0.00     0.029 A 
ATOM     52  N   UNL A   1      46.844  31.686  27.975  1.00  0.00    -0.354 N 
ATOM     53  C   UNL A   1      42.871  30.280  29.052  1.00  0.00     0.074 A 
ATOM     54  C   UNL A   1      42.659  28.935  28.567  1.00  0.00     0.031 C 
ATOM     55  C   UNL A   1      48.911  31.501  27.144  1.00  0.00     0.029 A 
ATOM     56  C   UNL A   1      47.996  32.421  27.820  1.00  0.00     0.049 A 
ATOM     57  H   UNL A   1      46.043  32.031  28.431  1.00  0.00     0.167 HD
ATOM     58  C   UNL A   1      41.960  30.984  29.766  1.00  0.00     0.034 A 
ATOM     59  C   UNL A   1      48.268  33.693  28.174  1.00  0.00     0.034 A 
ATOM     60  C   UNL A   1      42.188  32.329  30.233  1.00  0.00     0.049 A 
ATOM     61  C   UNL A   1      47.202  34.493  28.889  1.00  0.00     0.074 A 
ATOM     62  C   UNL A   1      41.343  33.140  30.968  1.00  0.00     0.029 A 
ATOM     63  N   UNL A   1      43.343  33.066  30.000  1.00  0.00    -0.354 N 
ATOM     64  N   UNL A   1      45.996  34.127  29.259  1.00  0.00    -0.248 NA
ATOM     65  C   UNL A   1      47.546  35.875  29.247  1.00  0.00     0.031 C 
ATOM     66  C   UNL A   1      41.947  34.395  31.100  1.00  0.00     0.029 A 
ATOM     67  C   UNL A   1      43.216  34.334  30.544  1.00  0.00     0.049 A 
ATOM     68  H   UNL A   1      44.136  32.736  29.518  1.00  0.00     0.167 HD
ATOM     69  C   UNL A   1      45.458  35.219  29.940  1.00  0.00     0.074 A 
ATOM     70  C   UNL A   1      46.476  36.249  29.933  1.00  0.00     0.031 C 
ATOM     71  C   UNL A   1      44.240  35.354  30.529  1.00  0.00     0.034 A 
BRANCH  58  72
ATOM     72  C   UNL A   1      40.618  30.336  30.009  1.00  0.00     0.023 A 
ATOM     73  C   UNL A   1      39.524  30.530  29.145  1.00  0.00     0.031 A 
ATOM     74  C   UNL A   1      40.414  29.549  31.157  1.00  0.00     0.131 A 
ATOM     75  C   UNL A   1      38.263  30.014  29.484  1.00  0.00     0.055 A 
ATOM     76  C   UNL A   1      39.180  28.962  31.441  1.00  0.00     0.041 A 
ATOM     77  F   UNL A   1      41.409  29.354  32.037  1.00  0.00    -0.206 F 
ATOM     78  C   UNL A   1      38.090  29.208  30.611  1.00  0.00     0.022 A 
BRANCH  75  79
ATOM     79  S   UNL A   1      36.818  30.551  28.527  1.00  0.00     0.124 S 
ATOM     80  O   UNL A   1      36.997  32.002  28.511  1.00  0.00    -0.237 OA
ATOM     81  O   UNL A   1      37.013  29.869  27.253  1.00  0.00    -0.237 OA
ATOM     82  O   UNL A   1      35.686  30.080  29.322  1.00  0.00    -0.744 OA
ENDBRANCH  75  79
ENDBRANCH  58  72
BRANCH  59  83
ATOM     83  C   UNL A   1      49.588  34.309  27.849  1.00  0.00     0.023 A 
ATOM     84  C   UNL A   1      49.808  34.952  26.620  1.00  0.00     0.031 A 
ATOM     85  C   UNL A   1      50.673  34.201  28.738  1.00  0.00     0.131 A 
ATOM     86  C   UNL A   1      51.094  35.413  26.291  1.00  0.00     0.055 A 
ATOM     87  C   UNL A   1      51.933  34.716  28.431  1.00  0.00     0.041 A 
ATOM     88  F   UNL A   1      50.522  33.590  29.924  1.00  0.00    -0.206 F 
ATOM     89  C   UNL A   1      52.153  35.313  27.194  1.00  0.00     0.022 A 
BRANCH  86  90
ATOM     90  S   UNL A   1      51.384  36.055  24.619  1.00  0.00     0.124 S 
ATOM     91  O   UNL A   1      51.892  34.872  23.933  1.00  0.00    -0.237 OA
ATOM     92  O   UNL A   1      50.050  36.501  24.229  1.00  0.00    -0.237 OA
ATOM     93  O   UNL A   1      52.359  37.123  24.830  1.00  0.00    -0.744 OA
ENDBRANCH  86  90
ENDBRANCH  59  83
BRANCH  71  94
ATOM     94  C   UNL A   1      43.975  36.639  31.284  1.00  0.00     0.023 A 
ATOM     95  C   UNL A   1      43.727  37.857  30.629  1.00  0.00     0.031 A 
ATOM     96  C   UNL A   1      43.998  36.641  32.691  1.00  0.00     0.131 A 
ATOM     97  C   UNL A   1      43.592  39.038  31.376  1.00  0.00     0.055 A 
ATOM     98  C   UNL A   1      43.782  37.805  33.430  1.00  0.00     0.041 A 
ATOM     99  F   UNL A   1      44.234  35.509  33.374  1.00  0.00    -0.206 F 
ATOM    100  C   UNL A   1      43.597  39.015  32.773  1.00  0.00     0.022 A 
BRANCH  97 101
ATOM    101  S   UNL A   1      43.549  40.624  30.497  1.00  0.00     0.124 S 
ATOM    102  O   UNL A   1      44.391  40.351  29.337  1.00  0.00    -0.237 OA
ATOM    103  O   UNL A   1      42.125  40.791  30.225  1.00  0.00    -0.237 OA
ATOM    104  O   UNL A   1      44.110  41.567  31.463  1.00  0.00    -0.744 OA
ENDBRANCH  97 101
ENDBRANCH  71  94
ENDBRANCH  45  46
ENDBRANCH  38  40
ENDBRANCH  37  38
ENDBRANCH  36  37
ENDBRANCH  35  36
ENDBRANCH  34  35
ENDBRANCH  33  34
ENDBRANCH  32  33
ENDBRANCH   1  32
TORSDOF 28
ENDMDL
MODEL 3
REMARK VINA RESULT:      -7.3      2.381      3.512
REMARK SMILES C[C@](NC(=O)[C@](C)([NH3+])C(F)(F)F)(C(=O)OCCOCCOCCOCCOC(=O)c1ccc(-c2c3nc(c(-c4cc(S(=O)(=O)[O-])ccc4F)c4ccc([nH]4)c(-c4cc(S(=O)(=O)[O-])ccc4F)c4nc(c(-c5cc(S(=O)(=O)[O-])ccc5F)c5ccc2[nH]5)C=C4)C=C3)cc1)c1ccccc1
REMARK SMILES IDX 21 1 20 2 19 3 18 4 17 5 16 6 15 7 13 8 14 9 2 10 1 11 93 12
REMARK SMILES IDX 94 13 98 14 95 15 97 16 96 17 3 18 4 19 5 21 6 22 7 23 8 24
REMARK SMILES IDX 9 28 10 29 11 30 12 31 22 32 23 33 24 34 25 35 26 36 27 37
REMARK SMILES IDX 28 38 29 39 30 40 31 41 92 42 32 43 91 44 33 45 34 46 35 47
REMARK SMILES IDX 85 48 36 49 90 50 84 51 86 52 37 53 89 54 83 55 82 56 38 58
REMARK SMILES IDX 70 59 50 60 69 61 51 62 54 63 68 64 87 65 52 66 53 67 67 69
REMARK SMILES IDX 88 70 55 71 39 72 40 73 48 74 41 75 47 76 49 77 46 78 42 79
REMARK SMILES IDX 43 80 44 81 45 82 71 83 72 84 80 85 73 86 79 87 81 88 78 89
REMARK SMILES IDX 74 90 75 91 76 92 77 93 56 94 57 95 65 96 58 97 64 98 66 99
REMARK SMILES IDX 63 100 59 101 60 102 61 103 62 104
REMARK H PARENT 3 20 8 25 8 26 8 27 86 57 54 68
REMARK Flexibility Score: inf
ROOT
ATOM      1  O   UNL A   1      37.784  31.391  39.140  1.00  0.00    -0.377 OA
ENDROOT
BRANCH   1   2
ATOM      2  C   UNL A   1      37.298  31.374  37.814  1.00  0.00     0.188 C 
BRANCH   2   3
ATOM      3  C   UNL A   1      38.388  31.153  36.735  1.00  0.00     0.188 C 
BRANCH   3   4
ATOM      4  O   UNL A   1      38.051  31.089  35.359  1.00  0.00    -0.376 OA
BRANCH   4   5
ATOM      5  C   UNL A   1      38.880  30.362  34.467  1.00  0.00     0.202 C 
BRANCH   5   6
ATOM      6  C   UNL A   1      40.369  30.116  34.782  1.00  0.00     0.261 C 
BRANCH   6   7
ATOM      7  O   UNL A   1      40.797  28.755  35.004  1.00  0.00    -0.461 OA
BRANCH   7   8
ATOM      8  C   UNL A   1      41.663  28.236  34.096  1.00  0.00     0.336 C 
ATOM      9  O   UNL A   1      41.374  28.057  32.915  1.00  0.00    -0.249 OA
BRANCH   8  10
ATOM     10  C   UNL A   1      43.044  27.771  34.719  1.00  0.00     0.161 C 
ATOM     11  C   UNL A   1      42.917  28.348  36.133  1.00  0.00     0.053 C 
BRANCH  10  12
ATOM     12  C   UNL A   1      43.062  26.198  34.741  1.00  0.00    -0.012 A 
ATOM     13  C   UNL A   1      42.100  25.437  35.422  1.00  0.00     0.007 A 
ATOM     14  C   UNL A   1      44.069  25.470  34.071  1.00  0.00     0.007 A 
ATOM     15  C   UNL A   1      42.089  24.037  35.350  1.00  0.00     0.000 A 
ATOM     16  C   UNL A   1      44.043  24.075  33.965  1.00  0.00     0.000 A 
ATOM     17  C   UNL A   1      43.041  23.358  34.597  1.00  0.00     0.000 A 
ENDBRANCH  10  12
BRANCH  10  18
ATOM     18  N   UNL A   1      44.336  28.164  34.052  1.00  0.00    -0.331 N 
ATOM     19  C   UNL A   1      44.998  29.160  33.420  1.00  0.00     0.291 C 
ATOM     20  H   UNL A   1      44.938  27.385  34.089  1.00  0.00     0.165 HD
ATOM     21  O   UNL A   1      46.116  28.794  33.017  1.00  0.00    -0.267 OA
BRANCH  19  22
ATOM     22  C   UNL A   1      44.571  30.629  33.219  1.00  0.00     0.267 C 
ATOM     23  C   UNL A   1      45.820  31.497  32.935  1.00  0.00     0.100 C 
BRANCH  22  24
ATOM     24  N   UNL A   1      44.057  31.232  34.489  1.00  0.00    -0.337 N 
ATOM     25  H   UNL A   1      43.037  31.260  34.464  1.00  0.00     0.345 HD
ATOM     26  H   UNL A   1      44.421  32.180  34.588  1.00  0.00     0.345 HD
ATOM     27  H   UNL A   1      44.362  30.667  35.282  1.00  0.00     0.345 HD
ENDBRANCH  22  24
BRANCH  22  28
ATOM     28  C   UNL A   1      43.667  30.686  31.973  1.00  0.00     0.453 C 
ATOM     29  F   UNL A   1      43.704  29.509  31.299  1.00  0.00    -0.164 F 
ATOM     30  F   UNL A   1      42.376  30.934  32.274  1.00  0.00    -0.164 F 
ATOM     31  F   UNL A   1      44.089  31.630  31.103  1.00  0.00    -0.164 F 
ENDBRANCH  22  28
ENDBRANCH  19  22
ENDBRANCH  10  18
ENDBRANCH   8  10
ENDBRANCH   7   8
ENDBRANCH   6   7
ENDBRANCH   5   6
ENDBRANCH   4   5
ENDBRANCH   3   4
ENDBRANCH   2   3
ENDBRANCH   1   2
BRANCH   1  32
ATOM     32  C   UNL A   1      36.874  30.926  40.127  1.00  0.00     0.188 C 
BRANCH  32  33
ATOM     33  C   UNL A   1      35.465  31.554  40.121  1.00  0.00     0.188 C 
BRANCH  33  34
ATOM     34  O   UNL A   1      34.906  31.714  41.422  1.00  0.00    -0.376 OA
BRANCH  34  35
ATOM     35  C   UNL A   1      35.727  32.138  42.498  1.00  0.00     0.202 C 
BRANCH  35  36
ATOM     36  C   UNL A   1      35.995  33.645  42.658  1.00  0.00     0.261 C 
BRANCH  36  37
ATOM     37  O   UNL A   1      36.681  34.296  41.583  1.00  0.00    -0.460 OA
BRANCH  37  38
ATOM     38  C   UNL A   1      37.725  35.088  41.906  1.00  0.00     0.338 C 
ATOM     39  O   UNL A   1      37.947  35.586  42.997  1.00  0.00    -0.246 OA
BRANCH  38  40
ATOM     40  C   UNL A   1      38.684  35.059  40.783  1.00  0.00     0.060 A 
ATOM     41  C   UNL A   1      38.880  36.234  40.044  1.00  0.00     0.016 A 
ATOM     42  C   UNL A   1      39.381  33.891  40.458  1.00  0.00     0.016 A 
ATOM     43  C   UNL A   1      39.716  36.226  38.932  1.00  0.00     0.010 A 
ATOM     44  C   UNL A   1      40.196  33.876  39.323  1.00  0.00     0.010 A 
ATOM     45  C   UNL A   1      40.313  35.027  38.525  1.00  0.00    -0.014 A 
BRANCH  45  46
ATOM     46  C   UNL A   1      40.771  34.924  37.118  1.00  0.00     0.031 A 
ATOM     47  C   UNL A   1      39.713  34.773  36.055  1.00  0.00     0.074 A 
ATOM     48  C   UNL A   1      42.067  35.055  36.783  1.00  0.00     0.049 A 
ATOM     49  N   UNL A   1      39.838  34.693  34.758  1.00  0.00    -0.248 NA
ATOM     50  C   UNL A   1      38.321  34.703  36.530  1.00  0.00     0.031 C 
ATOM     51  C   UNL A   1      43.165  35.275  37.722  1.00  0.00     0.029 A 
ATOM     52  N   UNL A   1      42.671  35.035  35.552  1.00  0.00    -0.354 N 
ATOM     53  C   UNL A   1      38.545  34.553  34.263  1.00  0.00     0.074 A 
ATOM     54  C   UNL A   1      37.657  34.515  35.403  1.00  0.00     0.031 C 
ATOM     55  C   UNL A   1      44.313  35.376  37.029  1.00  0.00     0.029 A 
ATOM     56  C   UNL A   1      44.036  35.192  35.605  1.00  0.00     0.049 A 
ATOM     57  H   UNL A   1      42.175  34.919  34.710  1.00  0.00     0.167 HD
ATOM     58  C   UNL A   1      38.133  34.474  32.974  1.00  0.00     0.034 A 
ATOM     59  C   UNL A   1      44.950  35.175  34.614  1.00  0.00     0.034 A 
ATOM     60  C   UNL A   1      39.036  34.505  31.851  1.00  0.00     0.049 A 
ATOM     61  C   UNL A   1      44.477  34.993  33.189  1.00  0.00     0.074 A 
ATOM     62  C   UNL A   1      38.736  34.437  30.503  1.00  0.00     0.029 A 
ATOM     63  N   UNL A   1      40.419  34.598  31.946  1.00  0.00    -0.354 N 
ATOM     64  N   UNL A   1      43.253  34.861  32.730  1.00  0.00    -0.248 NA
ATOM     65  C   UNL A   1      45.513  34.975  32.148  1.00  0.00     0.031 C 
ATOM     66  C   UNL A   1      39.938  34.399  29.789  1.00  0.00     0.029 A 
ATOM     67  C   UNL A   1      40.988  34.553  30.683  1.00  0.00     0.049 A 
ATOM     68  H   UNL A   1      40.923  34.684  32.788  1.00  0.00     0.167 HD
ATOM     69  C   UNL A   1      43.370  34.797  31.342  1.00  0.00     0.074 A 
ATOM     70  C   UNL A   1      44.783  34.913  31.045  1.00  0.00     0.031 C 
ATOM     71  C   UNL A   1      42.400  34.668  30.399  1.00  0.00     0.034 A 
BRANCH  58  72
ATOM     72  C   UNL A   1      36.656  34.271  32.729  1.00  0.00     0.023 A 
ATOM     73  C   UNL A   1      35.759  35.350  32.619  1.00  0.00     0.031 A 
ATOM     74  C   UNL A   1      36.129  32.970  32.654  1.00  0.00     0.131 A 
ATOM     75  C   UNL A   1      34.380  35.107  32.523  1.00  0.00     0.055 A 
ATOM     76  C   UNL A   1      34.765  32.735  32.465  1.00  0.00     0.041 A 
ATOM     77  F   UNL A   1      36.928  31.899  32.784  1.00  0.00    -0.206 F 
ATOM     78  C   UNL A   1      33.880  33.807  32.417  1.00  0.00     0.022 A 
BRANCH  75  79
ATOM     79  S   UNL A   1      33.236  36.503  32.710  1.00  0.00     0.124 S 
ATOM     80  O   UNL A   1      33.684  37.084  33.974  1.00  0.00    -0.237 OA
ATOM     81  O   UNL A   1      33.504  37.293  31.514  1.00  0.00    -0.237 OA
ATOM     82  O   UNL A   1      31.922  35.866  32.757  1.00  0.00    -0.744 OA
ENDBRANCH  75  79
ENDBRANCH  58  72
BRANCH  59  83
ATOM     83  C   UNL A   1      46.406  35.311  34.918  1.00  0.00     0.023 A 
ATOM     84  C   UNL A   1      47.197  34.188  35.207  1.00  0.00     0.031 A 
ATOM     85  C   UNL A   1      47.011  36.579  34.991  1.00  0.00     0.131 A 
ATOM     86  C   UNL A   1      48.532  34.357  35.610  1.00  0.00     0.055 A 
ATOM     87  C   UNL A   1      48.355  36.736  35.333  1.00  0.00     0.041 A 
ATOM     88  F   UNL A   1      46.300  37.688  34.732  1.00  0.00    -0.206 F 
ATOM     89  C   UNL A   1      49.120  35.622  35.659  1.00  0.00     0.022 A 
BRANCH  86  90
ATOM     90  S   UNL A   1      49.461  32.902  36.169  1.00  0.00     0.124 S 
ATOM     91  O   UNL A   1      50.801  33.453  36.337  1.00  0.00    -0.237 OA
ATOM     92  O   UNL A   1      48.755  32.544  37.395  1.00  0.00    -0.237 OA
ATOM     93  O   UNL A   1      49.307  31.956  35.066  1.00  0.00    -0.744 OA
ENDBRANCH  86  90
ENDBRANCH  59  83
BRANCH  71  94
ATOM     94  C   UNL A   1      42.832  34.726  28.950  1.00  0.00     0.023 A 
ATOM     95  C   UNL A   1      43.603  33.713  28.355  1.00  0.00     0.031 A 
ATOM     96  C   UNL A   1      42.481  35.835  28.159  1.00  0.00     0.131 A 
ATOM     97  C   UNL A   1      44.065  33.866  27.039  1.00  0.00     0.055 A 
ATOM     98  C   UNL A   1      42.874  35.943  26.824  1.00  0.00     0.041 A 
ATOM     99  F   UNL A   1      41.748  36.837  28.670  1.00  0.00    -0.206 F 
ATOM    100  C   UNL A   1      43.687  34.965  26.263  1.00  0.00     0.022 A 
BRANCH  97 101
ATOM    101  S   UNL A   1      45.279  32.680  26.397  1.00  0.00     0.124 S 
ATOM    102  O   UNL A   1      45.998  32.299  27.608  1.00  0.00    -0.237 OA
ATOM    103  O   UNL A   1      44.427  31.650  25.811  1.00  0.00    -0.237 OA
ATOM    104  O   UNL A   1      46.052  33.466  25.437  1.00  0.00    -0.744 OA
ENDBRANCH  97 101
ENDBRANCH  71  94
ENDBRANCH  45  46
ENDBRANCH  38  40
ENDBRANCH  37  38
ENDBRANCH  36  37
ENDBRANCH  35  36
ENDBRANCH  34  35
ENDBRANCH  33  34
ENDBRANCH  32  33
ENDBRANCH   1  32
TORSDOF 28
ENDMDL
