MODEL 1
REMARK VINA RESULT:      -8.8      0.000      0.000
REMARK SMILES Cc1cc(OC(F)(F)F)cc2c1O[C@@H](C(F)(F)F)C(C(=O)OCCOCCOCCOCCOC(=O)c1ccc(-c3c4nc(c(-c5cc(S(=O)(=O)[O-])ccc5F)c5ccc([nH]5)c(-c5cc(S(=O)(=O)[O-])ccc5F)c5nc(c(-c6cc(S(=O)(=O)[O-])ccc6F)c6ccc3[nH]6)C=C5)C=C4)cc1)=C2
REMARK SMILES IDX 29 1 28 2 27 3 26 4 25 5 24 6 23 7 22 8 20 9 21 10 19 11
REMARK SMILES IDX 1 12 2 13 3 14 12 15 4 16 11 17 13 18 10 19 100 20 14 21
REMARK SMILES IDX 5 22 6 23 7 24 8 25 9 26 15 27 16 28 17 29 18 30 30 31 31 32
REMARK SMILES IDX 32 33 33 34 34 35 35 36 36 37 37 38 38 39 99 40 39 41 98 42
REMARK SMILES IDX 40 43 41 44 42 45 92 46 43 47 97 48 91 49 93 50 44 51 96 52
REMARK SMILES IDX 90 53 89 54 45 56 77 57 57 58 76 59 58 60 61 61 75 62 94 63
REMARK SMILES IDX 59 64 60 65 74 67 95 68 62 69 46 70 47 71 55 72 48 73 54 74
REMARK SMILES IDX 56 75 53 76 49 77 50 78 51 79 52 80 78 81 79 82 87 83 80 84
REMARK SMILES IDX 86 85 88 86 85 87 81 88 82 89 83 90 84 91 63 92 64 93 72 94
REMARK SMILES IDX 65 95 71 96 73 97 70 98 66 99 67 100 68 101 69 102
REMARK H PARENT 93 55 61 66
REMARK Flexibility Score: inf
ROOT
ATOM      1  C   UNL A   1      32.564  36.684  29.227  1.00  0.00     0.188 C 
ENDROOT
BRANCH   1   2
ATOM      2  O   UNL A   1      32.899  37.569  30.288  1.00  0.00    -0.377 OA
BRANCH   2   3
ATOM      3  C   UNL A   1      32.971  37.018  31.593  1.00  0.00     0.188 C 
BRANCH   3   4
ATOM      4  C   UNL A   1      34.021  37.495  32.616  1.00  0.00     0.188 C 
BRANCH   4   5
ATOM      5  O   UNL A   1      34.408  36.496  33.547  1.00  0.00    -0.376 OA
BRANCH   5   6
ATOM      6  C   UNL A   1      34.598  35.158  33.134  1.00  0.00     0.202 C 
BRANCH   6   7
ATOM      7  C   UNL A   1      35.220  34.165  34.129  1.00  0.00     0.261 C 
BRANCH   7   8
ATOM      8  O   UNL A   1      36.354  33.428  33.657  1.00  0.00    -0.460 OA
BRANCH   8   9
ATOM      9  C   UNL A   1      37.536  34.066  33.634  1.00  0.00     0.338 C 
ATOM     10  O   UNL A   1      37.996  34.687  32.689  1.00  0.00    -0.246 OA
BRANCH   9  11
ATOM     11  C   UNL A   1      38.133  34.052  34.986  1.00  0.00     0.087 C 
ATOM     12  C   UNL A   1      40.208  35.394  39.475  1.00  0.00     0.048 C 
ATOM     13  C   UNL A   1      39.242  34.342  39.003  1.00  0.00    -0.005 A 
ATOM     14  C   UNL A   1      38.750  33.393  39.918  1.00  0.00     0.054 A 
ATOM     15  C   UNL A   1      38.864  34.257  37.656  1.00  0.00     0.131 A 
ATOM     16  C   UNL A   1      37.877  32.386  39.502  1.00  0.00     0.130 A 
ATOM     17  C   UNL A   1      38.015  33.232  37.231  1.00  0.00     0.021 A 
ATOM     18  O   UNL A   1      39.279  35.256  36.812  1.00  0.00    -0.475 OA
ATOM     19  C   UNL A   1      37.537  32.293  38.151  1.00  0.00     0.058 A 
ATOM     20  C   UNL A   1      37.552  33.212  35.854  1.00  0.00     0.027 C 
ATOM     21  C   UNL A   1      39.261  34.983  35.376  1.00  0.00     0.316 C 
BRANCH  16  22
ATOM     22  O   UNL A   1      37.292  31.441  40.298  1.00  0.00    -0.406 OA
BRANCH  22  23
ATOM     23  C   UNL A   1      35.931  31.635  40.645  1.00  0.00     0.573 C 
ATOM     24  F   UNL A   1      35.686  31.209  41.901  1.00  0.00    -0.132 F 
ATOM     25  F   UNL A   1      35.566  32.930  40.526  1.00  0.00    -0.132 F 
ATOM     26  F   UNL A   1      35.164  30.910  39.799  1.00  0.00    -0.132 F 
ENDBRANCH  22  23
ENDBRANCH  16  22
BRANCH  21  27
ATOM     27  C   UNL A   1      40.692  34.579  34.956  1.00  0.00     0.430 C 
ATOM     28  F   UNL A   1      40.988  34.949  33.692  1.00  0.00    -0.167 F 
ATOM     29  F   UNL A   1      41.612  35.170  35.757  1.00  0.00    -0.167 F 
ATOM     30  F   UNL A   1      40.885  33.242  35.055  1.00  0.00    -0.167 F 
ENDBRANCH  21  27
ENDBRANCH   9  11
ENDBRANCH   8   9
ENDBRANCH   7   8
ENDBRANCH   6   7
ENDBRANCH   5   6
ENDBRANCH   4   5
ENDBRANCH   3   4
ENDBRANCH   2   3
ENDBRANCH   1   2
BRANCH   1  31
ATOM     31  C   UNL A   1      33.436  35.415  29.280  1.00  0.00     0.188 C 
BRANCH  31  32
ATOM     32  O   UNL A   1      34.422  35.397  28.249  1.00  0.00    -0.376 OA
BRANCH  32  33
ATOM     33  C   UNL A   1      34.857  34.112  27.813  1.00  0.00     0.202 C 
BRANCH  33  34
ATOM     34  C   UNL A   1      33.945  32.883  28.010  1.00  0.00     0.261 C 
BRANCH  34  35
ATOM     35  O   UNL A   1      34.523  31.723  28.635  1.00  0.00    -0.460 OA
BRANCH  35  36
ATOM     36  C   UNL A   1      35.051  31.838  29.871  1.00  0.00     0.338 C 
ATOM     37  O   UNL A   1      34.553  32.381  30.840  1.00  0.00    -0.246 OA
BRANCH  36  38
ATOM     38  C   UNL A   1      36.272  31.005  29.895  1.00  0.00     0.060 A 
ATOM     39  C   UNL A   1      36.358  29.933  30.795  1.00  0.00     0.016 A 
ATOM     40  C   UNL A   1      37.319  31.268  29.007  1.00  0.00     0.016 A 
ATOM     41  C   UNL A   1      37.500  29.132  30.821  1.00  0.00     0.010 A 
ATOM     42  C   UNL A   1      38.477  30.489  29.060  1.00  0.00     0.010 A 
ATOM     43  C   UNL A   1      38.583  29.439  29.989  1.00  0.00    -0.014 A 
BRANCH  43  44
ATOM     44  C   UNL A   1      39.903  28.830  30.268  1.00  0.00     0.031 A 
ATOM     45  C   UNL A   1      40.698  29.383  31.417  1.00  0.00     0.074 A 
ATOM     46  C   UNL A   1      40.390  27.817  29.533  1.00  0.00     0.049 A 
ATOM     47  N   UNL A   1      41.866  29.013  31.868  1.00  0.00    -0.248 NA
ATOM     48  C   UNL A   1      40.090  30.501  32.157  1.00  0.00     0.031 C 
ATOM     49  C   UNL A   1      39.703  27.184  28.412  1.00  0.00     0.029 A 
ATOM     50  N   UNL A   1      41.587  27.150  29.620  1.00  0.00    -0.354 N 
ATOM     51  C   UNL A   1      42.136  29.856  32.938  1.00  0.00     0.074 A 
ATOM     52  C   UNL A   1      41.023  30.770  33.057  1.00  0.00     0.031 C 
ATOM     53  C   UNL A   1      40.499  26.229  27.901  1.00  0.00     0.029 A 
ATOM     54  C   UNL A   1      41.762  26.199  28.644  1.00  0.00     0.049 A 
ATOM     55  H   UNL A   1      42.258  27.336  30.316  1.00  0.00     0.167 HD
ATOM     56  C   UNL A   1      43.216  29.866  33.751  1.00  0.00     0.034 A 
ATOM     57  C   UNL A   1      42.821  25.407  28.371  1.00  0.00     0.034 A 
ATOM     58  C   UNL A   1      44.328  28.964  33.617  1.00  0.00     0.049 A 
ATOM     59  C   UNL A   1      44.039  25.462  29.261  1.00  0.00     0.074 A 
ATOM     60  C   UNL A   1      45.447  28.870  34.424  1.00  0.00     0.029 A 
ATOM     61  N   UNL A   1      44.475  28.024  32.610  1.00  0.00    -0.354 N 
ATOM     62  N   UNL A   1      44.248  26.203  30.324  1.00  0.00    -0.248 NA
ATOM     63  C   UNL A   1      45.159  24.571  28.927  1.00  0.00     0.031 C 
ATOM     64  C   UNL A   1      46.304  27.923  33.863  1.00  0.00     0.029 A 
ATOM     65  C   UNL A   1      45.686  27.370  32.751  1.00  0.00     0.049 A 
ATOM     66  H   UNL A   1      43.816  27.848  31.900  1.00  0.00     0.167 HD
ATOM     67  C   UNL A   1      45.508  25.849  30.801  1.00  0.00     0.074 A 
ATOM     68  C   UNL A   1      46.012  24.820  29.916  1.00  0.00     0.031 C 
ATOM     69  C   UNL A   1      46.181  26.333  31.877  1.00  0.00     0.034 A 
BRANCH  56  70
ATOM     70  C   UNL A   1      43.271  30.894  34.847  1.00  0.00     0.023 A 
ATOM     71  C   UNL A   1      44.047  32.052  34.672  1.00  0.00     0.031 A 
ATOM     72  C   UNL A   1      42.643  30.687  36.087  1.00  0.00     0.131 A 
ATOM     73  C   UNL A   1      44.203  32.948  35.734  1.00  0.00     0.055 A 
ATOM     74  C   UNL A   1      42.769  31.604  37.131  1.00  0.00     0.041 A 
ATOM     75  F   UNL A   1      41.884  29.598  36.295  1.00  0.00    -0.206 F 
ATOM     76  C   UNL A   1      43.562  32.736  36.959  1.00  0.00     0.022 A 
BRANCH  73  77
ATOM     77  S   UNL A   1      45.276  34.400  35.578  1.00  0.00     0.124 S 
ATOM     78  O   UNL A   1      44.713  35.300  36.582  1.00  0.00    -0.237 OA
ATOM     79  O   UNL A   1      46.586  33.843  35.905  1.00  0.00    -0.237 OA
ATOM     80  O   UNL A   1      45.096  34.824  34.195  1.00  0.00    -0.744 OA
ENDBRANCH  73  77
ENDBRANCH  56  70
BRANCH  57  81
ATOM     81  C   UNL A   1      42.730  24.467  27.219  1.00  0.00     0.023 A 
ATOM     82  C   UNL A   1      42.121  23.208  27.365  1.00  0.00     0.031 A 
ATOM     83  C   UNL A   1      43.359  24.763  25.999  1.00  0.00     0.131 A 
ATOM     84  C   UNL A   1      42.220  22.264  26.335  1.00  0.00     0.055 A 
ATOM     85  C   UNL A   1      43.401  23.841  24.951  1.00  0.00     0.041 A 
ATOM     86  F   UNL A   1      43.959  25.950  25.818  1.00  0.00    -0.206 F 
ATOM     87  C   UNL A   1      42.844  22.577  25.123  1.00  0.00     0.022 A 
BRANCH  84  88
ATOM     88  S   UNL A   1      41.635  20.565  26.576  1.00  0.00     0.124 S 
ATOM     89  O   UNL A   1      42.291  20.184  27.823  1.00  0.00    -0.237 OA
ATOM     90  O   UNL A   1      40.189  20.764  26.660  1.00  0.00    -0.237 OA
ATOM     91  O   UNL A   1      42.102  19.867  25.383  1.00  0.00    -0.744 OA
ENDBRANCH  84  88
ENDBRANCH  57  81
BRANCH  69  92
ATOM     92  C   UNL A   1      47.541  25.769  32.209  1.00  0.00     0.023 A 
ATOM     93  C   UNL A   1      47.664  24.791  33.216  1.00  0.00     0.031 A 
ATOM     94  C   UNL A   1      48.715  26.323  31.674  1.00  0.00     0.131 A 
ATOM     95  C   UNL A   1      48.930  24.435  33.694  1.00  0.00     0.055 A 
ATOM     96  C   UNL A   1      49.979  25.929  32.121  1.00  0.00     0.041 A 
ATOM     97  F   UNL A   1      48.651  27.266  30.721  1.00  0.00    -0.206 F 
ATOM     98  C   UNL A   1      50.089  24.994  33.146  1.00  0.00     0.022 A 
BRANCH  95  99
ATOM     99  S   UNL A   1      49.116  23.298  35.096  1.00  0.00     0.124 S 
ATOM    100  O   UNL A   1      48.871  24.178  36.236  1.00  0.00    -0.237 OA
ATOM    101  O   UNL A   1      48.072  22.313  34.832  1.00  0.00    -0.237 OA
ATOM    102  O   UNL A   1      50.486  22.811  34.975  1.00  0.00    -0.744 OA
ENDBRANCH  95  99
ENDBRANCH  69  92
ENDBRANCH  43  44
ENDBRANCH  36  38
ENDBRANCH  35  36
ENDBRANCH  34  35
ENDBRANCH  33  34
ENDBRANCH  32  33
ENDBRANCH  31  32
ENDBRANCH   1  31
TORSDOF 26
ENDMDL
MODEL 2
REMARK VINA RESULT:      -8.7      1.595      2.712
REMARK SMILES Cc1cc(OC(F)(F)F)cc2c1O[C@@H](C(F)(F)F)C(C(=O)OCCOCCOCCOCCOC(=O)c1ccc(-c3c4nc(c(-c5cc(S(=O)(=O)[O-])ccc5F)c5ccc([nH]5)c(-c5cc(S(=O)(=O)[O-])ccc5F)c5nc(c(-c6cc(S(=O)(=O)[O-])ccc6F)c6ccc3[nH]6)C=C5)C=C4)cc1)=C2
REMARK SMILES IDX 29 1 28 2 27 3 26 4 25 5 24 6 23 7 22 8 20 9 21 10 19 11
REMARK SMILES IDX 1 12 2 13 3 14 12 15 4 16 11 17 13 18 10 19 100 20 14 21
REMARK SMILES IDX 5 22 6 23 7 24 8 25 9 26 15 27 16 28 17 29 18 30 30 31 31 32
REMARK SMILES IDX 32 33 33 34 34 35 35 36 36 37 37 38 38 39 99 40 39 41 98 42
REMARK SMILES IDX 40 43 41 44 42 45 92 46 43 47 97 48 91 49 93 50 44 51 96 52
REMARK SMILES IDX 90 53 89 54 45 56 77 57 57 58 76 59 58 60 61 61 75 62 94 63
REMARK SMILES IDX 59 64 60 65 74 67 95 68 62 69 46 70 47 71 55 72 48 73 54 74
REMARK SMILES IDX 56 75 53 76 49 77 50 78 51 79 52 80 78 81 79 82 87 83 80 84
REMARK SMILES IDX 86 85 88 86 85 87 81 88 82 89 83 90 84 91 63 92 64 93 72 94
REMARK SMILES IDX 65 95 71 96 73 97 70 98 66 99 67 100 68 101 69 102
REMARK H PARENT 93 55 61 66
REMARK Flexibility Score: inf
ROOT
ATOM      1  C   UNL A   1      33.200  37.303  29.713  1.00  0.00     0.188 C 
ENDROOT
BRANCH   1   2
ATOM      2  O   UNL A   1      32.901  37.498  31.090  1.00  0.00    -0.377 OA
BRANCH   2   3
ATOM      3  C   UNL A   1      33.120  36.400  31.961  1.00  0.00     0.188 C 
BRANCH   3   4
ATOM      4  C   UNL A   1      33.999  36.530  33.221  1.00  0.00     0.188 C 
BRANCH   4   5
ATOM      5  O   UNL A   1      34.489  35.289  33.707  1.00  0.00    -0.376 OA
BRANCH   5   6
ATOM      6  C   UNL A   1      35.788  34.845  33.375  1.00  0.00     0.202 C 
BRANCH   6   7
ATOM      7  C   UNL A   1      36.306  33.548  34.017  1.00  0.00     0.261 C 
BRANCH   7   8
ATOM      8  O   UNL A   1      37.382  33.693  34.950  1.00  0.00    -0.460 OA
BRANCH   8   9
ATOM      9  C   UNL A   1      37.663  32.638  35.733  1.00  0.00     0.338 C 
ATOM     10  O   UNL A   1      37.628  31.466  35.395  1.00  0.00    -0.246 OA
BRANCH   9  11
ATOM     11  C   UNL A   1      38.191  33.111  37.031  1.00  0.00     0.087 C 
ATOM     12  C   UNL A   1      40.631  33.483  41.521  1.00  0.00     0.048 C 
ATOM     13  C   UNL A   1      40.305  34.417  40.388  1.00  0.00    -0.005 A 
ATOM     14  C   UNL A   1      40.659  35.776  40.487  1.00  0.00     0.054 A 
ATOM     15  C   UNL A   1      39.606  33.970  39.259  1.00  0.00     0.131 A 
ATOM     16  C   UNL A   1      40.342  36.673  39.465  1.00  0.00     0.130 A 
ATOM     17  C   UNL A   1      39.259  34.872  38.248  1.00  0.00     0.021 A 
ATOM     18  O   UNL A   1      39.367  32.624  39.147  1.00  0.00    -0.475 OA
ATOM     19  C   UNL A   1      39.614  36.219  38.362  1.00  0.00     0.058 A 
ATOM     20  C   UNL A   1      38.623  34.380  37.038  1.00  0.00     0.027 C 
ATOM     21  C   UNL A   1      38.311  32.196  38.230  1.00  0.00     0.316 C 
BRANCH  16  22
ATOM     22  O   UNL A   1      40.673  37.997  39.417  1.00  0.00    -0.406 OA
BRANCH  22  23
ATOM     23  C   UNL A   1      39.971  38.874  40.282  1.00  0.00     0.573 C 
ATOM     24  F   UNL A   1      39.859  38.347  41.520  1.00  0.00    -0.132 F 
ATOM     25  F   UNL A   1      40.568  40.083  40.358  1.00  0.00    -0.132 F 
ATOM     26  F   UNL A   1      38.725  39.058  39.791  1.00  0.00    -0.132 F 
ENDBRANCH  22  23
ENDBRANCH  16  22
BRANCH  21  27
ATOM     27  C   UNL A   1      37.034  31.950  39.065  1.00  0.00     0.430 C 
ATOM     28  F   UNL A   1      36.573  30.687  38.950  1.00  0.00    -0.167 F 
ATOM     29  F   UNL A   1      37.277  32.154  40.383  1.00  0.00    -0.167 F 
ATOM     30  F   UNL A   1      36.035  32.793  38.713  1.00  0.00    -0.167 F 
ENDBRANCH  21  27
ENDBRANCH   9  11
ENDBRANCH   8   9
ENDBRANCH   7   8
ENDBRANCH   6   7
ENDBRANCH   5   6
ENDBRANCH   4   5
ENDBRANCH   3   4
ENDBRANCH   2   3
ENDBRANCH   1   2
BRANCH   1  31
ATOM     31  C   UNL A   1      33.496  35.819  29.424  1.00  0.00     0.188 C 
BRANCH  31  32
ATOM     32  O   UNL A   1      34.604  35.655  28.540  1.00  0.00    -0.376 OA
BRANCH  32  33
ATOM     33  C   UNL A   1      34.598  34.480  27.732  1.00  0.00     0.202 C 
BRANCH  33  34
ATOM     34  C   UNL A   1      33.638  33.319  28.068  1.00  0.00     0.261 C 
BRANCH  34  35
ATOM     35  O   UNL A   1      34.193  32.176  28.743  1.00  0.00    -0.460 OA
BRANCH  35  36
ATOM     36  C   UNL A   1      34.743  32.338  29.963  1.00  0.00     0.338 C 
ATOM     37  O   UNL A   1      34.262  32.917  30.921  1.00  0.00    -0.246 OA
BRANCH  36  38
ATOM     38  C   UNL A   1      35.965  31.506  29.997  1.00  0.00     0.060 A 
ATOM     39  C   UNL A   1      35.963  30.305  30.722  1.00  0.00     0.016 A 
ATOM     40  C   UNL A   1      37.102  31.900  29.287  1.00  0.00     0.016 A 
ATOM     41  C   UNL A   1      37.105  29.506  30.753  1.00  0.00     0.010 A 
ATOM     42  C   UNL A   1      38.257  31.118  29.350  1.00  0.00     0.010 A 
ATOM     43  C   UNL A   1      38.272  29.935  30.110  1.00  0.00    -0.014 A 
BRANCH  43  44
ATOM     44  C   UNL A   1      39.560  29.284  30.439  1.00  0.00     0.031 A 
ATOM     45  C   UNL A   1      40.320  29.804  31.626  1.00  0.00     0.074 A 
ATOM     46  C   UNL A   1      40.047  28.262  29.717  1.00  0.00     0.049 A 
ATOM     47  N   UNL A   1      41.457  29.396  32.123  1.00  0.00    -0.248 NA
ATOM     48  C   UNL A   1      39.715  30.935  32.349  1.00  0.00     0.031 C 
ATOM     49  C   UNL A   1      39.390  27.659  28.562  1.00  0.00     0.029 A 
ATOM     50  N   UNL A   1      41.219  27.559  29.849  1.00  0.00    -0.354 N 
ATOM     51  C   UNL A   1      41.706  30.222  33.211  1.00  0.00     0.074 A 
ATOM     52  C   UNL A   1      40.616  31.168  33.291  1.00  0.00     0.031 C 
ATOM     53  C   UNL A   1      40.178  26.685  28.077  1.00  0.00     0.029 A 
ATOM     54  C   UNL A   1      41.407  26.611  28.872  1.00  0.00     0.049 A 
ATOM     55  H   UNL A   1      41.865  27.719  30.574  1.00  0.00     0.167 HD
ATOM     56  C   UNL A   1      42.749  30.193  34.070  1.00  0.00     0.034 A 
ATOM     57  C   UNL A   1      42.453  25.790  28.638  1.00  0.00     0.034 A 
ATOM     58  C   UNL A   1      43.838  29.259  33.975  1.00  0.00     0.049 A 
ATOM     59  C   UNL A   1      43.632  25.801  29.580  1.00  0.00     0.074 A 
ATOM     60  C   UNL A   1      44.918  29.125  34.828  1.00  0.00     0.029 A 
ATOM     61  N   UNL A   1      44.000  28.322  32.967  1.00  0.00    -0.354 N 
ATOM     62  N   UNL A   1      43.818  26.527  30.657  1.00  0.00    -0.248 NA
ATOM     63  C   UNL A   1      44.739  24.879  29.286  1.00  0.00     0.031 C 
ATOM     64  C   UNL A   1      45.770  28.157  34.296  1.00  0.00     0.029 A 
ATOM     65  C   UNL A   1      45.184  27.631  33.154  1.00  0.00     0.049 A 
ATOM     66  H   UNL A   1      43.368  28.172  32.228  1.00  0.00     0.167 HD
ATOM     67  C   UNL A   1      45.045  26.131  31.184  1.00  0.00     0.074 A 
ATOM     68  C   UNL A   1      45.555  25.095  30.312  1.00  0.00     0.031 C 
ATOM     69  C   UNL A   1      45.685  26.586  32.292  1.00  0.00     0.034 A 
BRANCH  56  70
ATOM     70  C   UNL A   1      42.788  31.210  35.176  1.00  0.00     0.023 A 
ATOM     71  C   UNL A   1      43.600  32.349  35.042  1.00  0.00     0.031 A 
ATOM     72  C   UNL A   1      42.107  31.010  36.389  1.00  0.00     0.131 A 
ATOM     73  C   UNL A   1      43.737  33.233  36.117  1.00  0.00     0.055 A 
ATOM     74  C   UNL A   1      42.215  31.915  37.445  1.00  0.00     0.041 A 
ATOM     75  F   UNL A   1      41.312  29.940  36.557  1.00  0.00    -0.206 F 
ATOM     76  C   UNL A   1      43.043  33.027  37.314  1.00  0.00     0.022 A 
BRANCH  73  77
ATOM     77  S   UNL A   1      44.853  34.657  36.016  1.00  0.00     0.124 S 
ATOM     78  O   UNL A   1      43.919  35.755  35.772  1.00  0.00    -0.237 OA
ATOM     79  O   UNL A   1      45.474  34.648  37.337  1.00  0.00    -0.237 OA
ATOM     80  O   UNL A   1      45.734  34.335  34.899  1.00  0.00    -0.744 OA
ENDBRANCH  73  77
ENDBRANCH  56  70
BRANCH  57  81
ATOM     81  C   UNL A   1      42.384  24.861  27.475  1.00  0.00     0.023 A 
ATOM     82  C   UNL A   1      41.654  23.661  27.555  1.00  0.00     0.031 A 
ATOM     83  C   UNL A   1      43.144  25.100  26.319  1.00  0.00     0.131 A 
ATOM     84  C   UNL A   1      41.763  22.712  26.531  1.00  0.00     0.055 A 
ATOM     85  C   UNL A   1      43.199  24.178  25.272  1.00  0.00     0.041 A 
ATOM     86  F   UNL A   1      43.860  26.229  26.202  1.00  0.00    -0.206 F 
ATOM     87  C   UNL A   1      42.519  22.969  25.382  1.00  0.00     0.022 A 
BRANCH  84  88
ATOM     88  S   UNL A   1      41.010  21.071  26.704  1.00  0.00     0.124 S 
ATOM     89  O   UNL A   1      42.047  20.195  26.169  1.00  0.00    -0.237 OA
ATOM     90  O   UNL A   1      40.806  20.996  28.150  1.00  0.00    -0.237 OA
ATOM     91  O   UNL A   1      39.793  21.165  25.905  1.00  0.00    -0.744 OA
ENDBRANCH  84  88
ENDBRANCH  57  81
BRANCH  69  92
ATOM     92  C   UNL A   1      47.013  25.979  32.678  1.00  0.00     0.023 A 
ATOM     93  C   UNL A   1      47.047  24.882  33.561  1.00  0.00     0.031 A 
ATOM     94  C   UNL A   1      48.227  26.591  32.329  1.00  0.00     0.131 A 
ATOM     95  C   UNL A   1      48.266  24.464  34.107  1.00  0.00     0.055 A 
ATOM     96  C   UNL A   1      49.446  26.139  32.838  1.00  0.00     0.041 A 
ATOM     97  F   UNL A   1      48.246  27.646  31.499  1.00  0.00    -0.206 F 
ATOM     98  C   UNL A   1      49.467  25.081  33.745  1.00  0.00     0.022 A 
BRANCH  95  99
ATOM     99  S   UNL A   1      48.329  23.159  35.367  1.00  0.00     0.124 S 
ATOM    100  O   UNL A   1      47.102  23.406  36.122  1.00  0.00    -0.237 OA
ATOM    101  O   UNL A   1      48.326  21.947  34.553  1.00  0.00    -0.237 OA
ATOM    102  O   UNL A   1      49.566  23.428  36.092  1.00  0.00    -0.744 OA
ENDBRANCH  95  99
ENDBRANCH  69  92
ENDBRANCH  43  44
ENDBRANCH  36  38
ENDBRANCH  35  36
ENDBRANCH  34  35
ENDBRANCH  33  34
ENDBRANCH  32  33
ENDBRANCH  31  32
ENDBRANCH   1  31
TORSDOF 26
ENDMDL
MODEL 3
REMARK VINA RESULT:      -7.7      1.637      7.334
REMARK SMILES Cc1cc(OC(F)(F)F)cc2c1O[C@@H](C(F)(F)F)C(C(=O)OCCOCCOCCOCCOC(=O)c1ccc(-c3c4nc(c(-c5cc(S(=O)(=O)[O-])ccc5F)c5ccc([nH]5)c(-c5cc(S(=O)(=O)[O-])ccc5F)c5nc(c(-c6cc(S(=O)(=O)[O-])ccc6F)c6ccc3[nH]6)C=C5)C=C4)cc1)=C2
REMARK SMILES IDX 29 1 28 2 27 3 26 4 25 5 24 6 23 7 22 8 20 9 21 10 19 11
REMARK SMILES IDX 1 12 2 13 3 14 12 15 4 16 11 17 13 18 10 19 100 20 14 21
REMARK SMILES IDX 5 22 6 23 7 24 8 25 9 26 15 27 16 28 17 29 18 30 30 31 31 32
REMARK SMILES IDX 32 33 33 34 34 35 35 36 36 37 37 38 38 39 99 40 39 41 98 42
REMARK SMILES IDX 40 43 41 44 42 45 92 46 43 47 97 48 91 49 93 50 44 51 96 52
REMARK SMILES IDX 90 53 89 54 45 56 77 57 57 58 76 59 58 60 61 61 75 62 94 63
REMARK SMILES IDX 59 64 60 65 74 67 95 68 62 69 46 70 47 71 55 72 48 73 54 74
REMARK SMILES IDX 56 75 53 76 49 77 50 78 51 79 52 80 78 81 79 82 87 83 80 84
REMARK SMILES IDX 86 85 88 86 85 87 81 88 82 89 83 90 84 91 63 92 64 93 72 94
REMARK SMILES IDX 65 95 71 96 73 97 70 98 66 99 67 100 68 101 69 102
REMARK H PARENT 93 55 61 66
REMARK Flexibility Score: inf
ROOT
ATOM      1  C   UNL A   1      33.007  36.665  29.342  1.00  0.00     0.188 C 
ENDROOT
BRANCH   1   2
ATOM      2  O   UNL A   1      32.339  36.800  30.589  1.00  0.00    -0.377 OA
BRANCH   2   3
ATOM      3  C   UNL A   1      32.691  35.884  31.614  1.00  0.00     0.188 C 
BRANCH   3   4
ATOM      4  C   UNL A   1      33.714  36.248  32.709  1.00  0.00     0.188 C 
BRANCH   4   5
ATOM      5  O   UNL A   1      34.241  35.124  33.396  1.00  0.00    -0.376 OA
BRANCH   5   6
ATOM      6  C   UNL A   1      35.598  34.759  33.253  1.00  0.00     0.202 C 
BRANCH   6   7
ATOM      7  C   UNL A   1      36.107  33.515  33.998  1.00  0.00     0.261 C 
BRANCH   7   8
ATOM      8  O   UNL A   1      37.439  33.592  34.516  1.00  0.00    -0.460 OA
BRANCH   8   9
ATOM      9  C   UNL A   1      37.733  32.819  35.576  1.00  0.00     0.338 C 
ATOM     10  O   UNL A   1      37.573  31.612  35.647  1.00  0.00    -0.246 OA
BRANCH   9  11
ATOM     11  C   UNL A   1      38.441  33.624  36.594  1.00  0.00     0.087 C 
ATOM     12  C   UNL A   1      40.437  37.475  39.322  1.00  0.00     0.048 C 
ATOM     13  C   UNL A   1      39.811  36.142  39.631  1.00  0.00    -0.005 A 
ATOM     14  C   UNL A   1      39.744  35.703  40.967  1.00  0.00     0.054 A 
ATOM     15  C   UNL A   1      39.342  35.307  38.609  1.00  0.00     0.131 A 
ATOM     16  C   UNL A   1      39.196  34.457  41.281  1.00  0.00     0.130 A 
ATOM     17  C   UNL A   1      38.822  34.047  38.918  1.00  0.00     0.021 A 
ATOM     18  O   UNL A   1      39.328  35.807  37.331  1.00  0.00    -0.475 OA
ATOM     19  C   UNL A   1      38.765  33.621  40.248  1.00  0.00     0.058 A 
ATOM     20  C   UNL A   1      38.249  33.231  37.861  1.00  0.00     0.027 C 
ATOM     21  C   UNL A   1      39.249  34.850  36.228  1.00  0.00     0.316 C 
BRANCH  16  22
ATOM     22  O   UNL A   1      39.027  33.940  42.534  1.00  0.00    -0.406 OA
BRANCH  22  23
ATOM     23  C   UNL A   1      39.632  32.687  42.807  1.00  0.00     0.573 C 
ATOM     24  F   UNL A   1      40.255  32.201  41.714  1.00  0.00    -0.132 F 
ATOM     25  F   UNL A   1      40.510  32.769  43.830  1.00  0.00    -0.132 F 
ATOM     26  F   UNL A   1      38.664  31.810  43.161  1.00  0.00    -0.132 F 
ENDBRANCH  22  23
ENDBRANCH  16  22
BRANCH  21  27
ATOM     27  C   UNL A   1      40.682  34.623  35.698  1.00  0.00     0.430 C 
ATOM     28  F   UNL A   1      40.963  33.318  35.499  1.00  0.00    -0.167 F 
ATOM     29  F   UNL A   1      40.855  35.242  34.504  1.00  0.00    -0.167 F 
ATOM     30  F   UNL A   1      41.615  35.127  36.541  1.00  0.00    -0.167 F 
ENDBRANCH  21  27
ENDBRANCH   9  11
ENDBRANCH   8   9
ENDBRANCH   7   8
ENDBRANCH   6   7
ENDBRANCH   5   6
ENDBRANCH   4   5
ENDBRANCH   3   4
ENDBRANCH   2   3
ENDBRANCH   1   2
BRANCH   1  31
ATOM     31  C   UNL A   1      33.352  35.190  29.064  1.00  0.00     0.188 C 
BRANCH  31  32
ATOM     32  O   UNL A   1      34.585  35.050  28.359  1.00  0.00    -0.376 OA
BRANCH  32  33
ATOM     33  C   UNL A   1      34.776  33.822  27.660  1.00  0.00     0.202 C 
BRANCH  33  34
ATOM     34  C   UNL A   1      33.997  32.561  28.090  1.00  0.00     0.261 C 
BRANCH  34  35
ATOM     35  O   UNL A   1      34.735  31.523  28.760  1.00  0.00    -0.460 OA
BRANCH  35  36
ATOM     36  C   UNL A   1      35.281  31.779  29.966  1.00  0.00     0.338 C 
ATOM     37  O   UNL A   1      34.742  32.297  30.927  1.00  0.00    -0.246 OA
BRANCH  36  38
ATOM     38  C   UNL A   1      36.611  31.132  29.981  1.00  0.00     0.060 A 
ATOM     39  C   UNL A   1      36.787  29.936  30.692  1.00  0.00     0.016 A 
ATOM     40  C   UNL A   1      37.673  31.694  29.268  1.00  0.00     0.016 A 
ATOM     41  C   UNL A   1      38.033  29.309  30.706  1.00  0.00     0.010 A 
ATOM     42  C   UNL A   1      38.930  31.085  29.314  1.00  0.00     0.010 A 
ATOM     43  C   UNL A   1      39.120  29.909  30.060  1.00  0.00    -0.014 A 
BRANCH  43  44
ATOM     44  C   UNL A   1      40.491  29.447  30.373  1.00  0.00     0.031 A 
ATOM     45  C   UNL A   1      41.032  28.286  29.588  1.00  0.00     0.074 A 
ATOM     46  C   UNL A   1      41.242  30.033  31.319  1.00  0.00     0.049 A 
ATOM     47  N   UNL A   1      42.202  27.709  29.664  1.00  0.00    -0.248 NA
ATOM     48  C   UNL A   1      40.133  27.699  28.580  1.00  0.00     0.031 C 
ATOM     49  C   UNL A   1      40.835  31.178  32.127  1.00  0.00     0.029 A 
ATOM     50  N   UNL A   1      42.506  29.733  31.765  1.00  0.00    -0.354 N 
ATOM     51  C   UNL A   1      42.176  26.689  28.722  1.00  0.00     0.074 A 
ATOM     52  C   UNL A   1      40.871  26.710  28.101  1.00  0.00     0.031 C 
ATOM     53  C   UNL A   1      41.826  31.475  32.986  1.00  0.00     0.029 A 
ATOM     54  C   UNL A   1      42.928  30.526  32.805  1.00  0.00     0.049 A 
ATOM     55  H   UNL A   1      43.059  29.017  31.376  1.00  0.00     0.167 HD
ATOM     56  C   UNL A   1      43.155  25.814  28.401  1.00  0.00     0.034 A 
ATOM     57  C   UNL A   1      44.062  30.483  33.535  1.00  0.00     0.034 A 
ATOM     58  C   UNL A   1      44.446  25.789  29.033  1.00  0.00     0.049 A 
ATOM     59  C   UNL A   1      45.128  29.470  33.194  1.00  0.00     0.074 A 
ATOM     60  C   UNL A   1      45.518  24.967  28.742  1.00  0.00     0.029 A 
ATOM     61  N   UNL A   1      44.832  26.598  30.090  1.00  0.00    -0.354 N 
ATOM     62  N   UNL A   1      45.129  28.566  32.243  1.00  0.00    -0.248 NA
ATOM     63  C   UNL A   1      46.349  29.473  34.013  1.00  0.00     0.031 C 
ATOM     64  C   UNL A   1      46.527  25.229  29.670  1.00  0.00     0.029 A 
ATOM     65  C   UNL A   1      46.115  26.268  30.490  1.00  0.00     0.049 A 
ATOM     66  H   UNL A   1      44.276  27.302  30.496  1.00  0.00     0.167 HD
ATOM     67  C   UNL A   1      46.357  27.913  32.330  1.00  0.00     0.074 A 
ATOM     68  C   UNL A   1      47.078  28.532  33.422  1.00  0.00     0.031 C 
ATOM     69  C   UNL A   1      46.839  26.897  31.570  1.00  0.00     0.034 A 
BRANCH  56  70
ATOM     70  C   UNL A   1      42.873  24.792  27.335  1.00  0.00     0.023 A 
ATOM     71  C   UNL A   1      42.228  23.592  27.680  1.00  0.00     0.031 A 
ATOM     72  C   UNL A   1      43.323  24.957  26.014  1.00  0.00     0.131 A 
ATOM     73  C   UNL A   1      42.076  22.587  26.720  1.00  0.00     0.055 A 
ATOM     74  C   UNL A   1      43.134  23.967  25.050  1.00  0.00     0.041 A 
ATOM     75  F   UNL A   1      43.936  26.092  25.639  1.00  0.00    -0.206 F 
ATOM     76  C   UNL A   1      42.518  22.770  25.405  1.00  0.00     0.022 A 
BRANCH  73  77
ATOM     77  S   UNL A   1      41.339  20.989  27.153  1.00  0.00     0.124 S 
ATOM     78  O   UNL A   1      40.502  21.343  28.297  1.00  0.00    -0.237 OA
ATOM     79  O   UNL A   1      40.615  20.649  25.931  1.00  0.00    -0.237 OA
ATOM     80  O   UNL A   1      42.487  20.145  27.464  1.00  0.00    -0.744 OA
ENDBRANCH  73  77
ENDBRANCH  56  70
BRANCH  57  81
ATOM     81  C   UNL A   1      44.243  31.476  34.630  1.00  0.00     0.023 A 
ATOM     82  C   UNL A   1      43.756  31.216  35.924  1.00  0.00     0.031 A 
ATOM     83  C   UNL A   1      44.791  32.742  34.369  1.00  0.00     0.131 A 
ATOM     84  C   UNL A   1      43.758  32.235  36.885  1.00  0.00     0.055 A 
ATOM     85  C   UNL A   1      44.848  33.735  35.349  1.00  0.00     0.041 A 
ATOM     86  F   UNL A   1      45.262  33.036  33.147  1.00  0.00    -0.206 F 
ATOM     87  C   UNL A   1      44.314  33.489  36.611  1.00  0.00     0.022 A 
BRANCH  84  88
ATOM     88  S   UNL A   1      42.943  31.998  38.488  1.00  0.00     0.124 S 
ATOM     89  O   UNL A   1      43.032  33.329  39.082  1.00  0.00    -0.237 OA
ATOM     90  O   UNL A   1      41.605  31.580  38.075  1.00  0.00    -0.237 OA
ATOM     91  O   UNL A   1      43.749  30.968  39.135  1.00  0.00    -0.744 OA
ENDBRANCH  84  88
ENDBRANCH  57  81
BRANCH  69  92
ATOM     92  C   UNL A   1      48.225  26.364  31.846  1.00  0.00     0.023 A 
ATOM     93  C   UNL A   1      48.416  25.414  32.868  1.00  0.00     0.031 A 
ATOM     94  C   UNL A   1      49.360  26.924  31.238  1.00  0.00     0.131 A 
ATOM     95  C   UNL A   1      49.711  25.092  33.289  1.00  0.00     0.055 A 
ATOM     96  C   UNL A   1      50.651  26.563  31.628  1.00  0.00     0.041 A 
ATOM     97  F   UNL A   1      49.230  27.841  30.266  1.00  0.00    -0.206 F 
ATOM     98  C   UNL A   1      50.830  25.656  32.669  1.00  0.00     0.022 A 
BRANCH  95  99
ATOM     99  S   UNL A   1      49.989  23.994  34.707  1.00  0.00     0.124 S 
ATOM    100  O   UNL A   1      49.008  22.937  34.470  1.00  0.00    -0.237 OA
ATOM    101  O   UNL A   1      51.383  23.602  34.523  1.00  0.00    -0.237 OA
ATOM    102  O   UNL A   1      49.720  24.839  35.866  1.00  0.00    -0.744 OA
ENDBRANCH  95  99
ENDBRANCH  69  92
ENDBRANCH  43  44
ENDBRANCH  36  38
ENDBRANCH  35  36
ENDBRANCH  34  35
ENDBRANCH  33  34
ENDBRANCH  32  33
ENDBRANCH  31  32
ENDBRANCH   1  31
TORSDOF 26
ENDMDL
