MODEL 1
REMARK VINA RESULT:      -9.9      0.000      0.000
REMARK SMILES O=C(OCCOCCOCCOCCOC(=O)[C@H]1CC2(CC[NH+](C(=O)c3cccc(O)c3)CC2)CN1C(=O)C1CC1)c1ccc(-c2c3nc(c(-c4cc(S(=O)(=O)[O-])ccc4F)c4ccc([nH]4)c(-c4cc(S(=O)(=O)[O-])ccc4F)c4nc(c(-c5cc(S(=O)(=O)[O-])ccc5F)c5ccc2[nH]5)C=C4)C=C3)cc1
REMARK SMILES IDX 9 1 8 2 7 3 6 4 5 5 4 6 3 7 2 8 1 9 42 10 43 11 104 12 44 13
REMARK SMILES IDX 103 14 45 15 46 16 47 17 97 18 48 19 102 20 96 21 98 22
REMARK SMILES IDX 49 23 101 24 95 25 94 26 50 28 82 29 62 30 81 31 63 32 66 33
REMARK SMILES IDX 80 34 99 35 64 36 65 37 79 39 100 40 67 41 51 42 52 43 60 44
REMARK SMILES IDX 53 45 59 46 61 47 58 48 54 49 55 50 56 51 57 52 83 53 84 54
REMARK SMILES IDX 92 55 85 56 91 57 93 58 90 59 86 60 87 61 88 62 89 63 68 64
REMARK SMILES IDX 69 65 77 66 70 67 76 68 78 69 75 70 71 71 72 72 73 73 74 74
REMARK SMILES IDX 10 75 11 76 12 77 13 78 14 79 15 80 16 81 17 82 18 83 19 84
REMARK SMILES IDX 36 85 20 86 35 87 21 88 34 89 22 90 33 91 23 92 37 94 38 95
REMARK SMILES IDX 39 96 40 97 41 98 24 99 25 100 26 101 27 102 32 103 28 104
REMARK SMILES IDX 30 105 29 106 31 107
REMARK H PARENT 98 27 66 38 23 93 31 108
REMARK Flexibility Score: inf
ROOT
ATOM      1  O   UNL A   1      38.901  28.448  28.015  1.00  0.00    -0.377 OA
ENDROOT
BRANCH   1   2
ATOM      2  C   UNL A   1      39.335  27.198  28.561  1.00  0.00     0.188 C 
BRANCH   2   3
ATOM      3  C   UNL A   1      39.550  26.115  27.532  1.00  0.00     0.188 C 
BRANCH   3   4
ATOM      4  O   UNL A   1      39.358  24.843  28.125  1.00  0.00    -0.376 OA
BRANCH   4   5
ATOM      5  C   UNL A   1      40.187  23.807  27.629  1.00  0.00     0.202 C 
BRANCH   5   6
ATOM      6  C   UNL A   1      41.665  24.191  27.727  1.00  0.00     0.261 C 
BRANCH   6   7
ATOM      7  O   UNL A   1      42.230  24.422  26.420  1.00  0.00    -0.460 OA
BRANCH   7   8
ATOM      8  C   UNL A   1      43.042  25.414  25.985  1.00  0.00     0.338 C 
ATOM      9  O   UNL A   1      43.762  25.169  25.013  1.00  0.00    -0.246 OA
BRANCH   8  10
ATOM     10  C   UNL A   1      43.205  26.762  26.630  1.00  0.00     0.060 A 
ATOM     11  C   UNL A   1      44.048  27.058  27.704  1.00  0.00     0.016 A 
ATOM     12  C   UNL A   1      42.540  27.842  26.018  1.00  0.00     0.016 A 
ATOM     13  C   UNL A   1      44.311  28.360  28.101  1.00  0.00     0.010 A 
ATOM     14  C   UNL A   1      42.724  29.154  26.466  1.00  0.00     0.010 A 
ATOM     15  C   UNL A   1      43.616  29.406  27.511  1.00  0.00    -0.014 A 
BRANCH  15  16
ATOM     16  C   UNL A   1      43.618  30.685  28.234  1.00  0.00     0.031 A 
ATOM     17  C   UNL A   1      44.697  31.652  27.860  1.00  0.00     0.074 A 
ATOM     18  C   UNL A   1      42.618  31.007  29.067  1.00  0.00     0.049 A 
ATOM     19  N   UNL A   1      45.017  32.796  28.392  1.00  0.00    -0.248 NA
ATOM     20  C   UNL A   1      45.526  31.270  26.702  1.00  0.00     0.031 C 
ATOM     21  C   UNL A   1      41.435  30.185  29.320  1.00  0.00     0.029 A 
ATOM     22  N   UNL A   1      42.437  32.113  29.850  1.00  0.00    -0.354 N 
ATOM     23  C   UNL A   1      46.104  33.254  27.657  1.00  0.00     0.074 A 
ATOM     24  C   UNL A   1      46.382  32.271  26.638  1.00  0.00     0.031 C 
ATOM     25  C   UNL A   1      40.664  30.803  30.231  1.00  0.00     0.029 A 
ATOM     26  C   UNL A   1      41.339  32.020  30.672  1.00  0.00     0.049 A 
ATOM     27  H   UNL A   1      43.031  32.898  29.825  1.00  0.00     0.167 HD
ATOM     28  C   UNL A   1      46.817  34.389  27.851  1.00  0.00     0.034 A 
ATOM     29  C   UNL A   1      40.982  32.802  31.711  1.00  0.00     0.034 A 
ATOM     30  C   UNL A   1      46.517  35.295  28.928  1.00  0.00     0.049 A 
ATOM     31  C   UNL A   1      41.871  33.984  32.019  1.00  0.00     0.074 A 
ATOM     32  C   UNL A   1      47.196  36.426  29.332  1.00  0.00     0.029 A 
ATOM     33  N   UNL A   1      45.439  35.139  29.798  1.00  0.00    -0.354 N 
ATOM     34  N   UNL A   1      42.961  34.379  31.394  1.00  0.00    -0.248 NA
ATOM     35  C   UNL A   1      41.501  34.817  33.167  1.00  0.00     0.031 C 
ATOM     36  C   UNL A   1      46.576  36.905  30.492  1.00  0.00     0.029 A 
ATOM     37  C   UNL A   1      45.452  36.133  30.758  1.00  0.00     0.049 A 
ATOM     38  H   UNL A   1      44.764  34.425  29.738  1.00  0.00     0.167 HD
ATOM     39  C   UNL A   1      43.395  35.521  32.057  1.00  0.00     0.074 A 
ATOM     40  C   UNL A   1      42.444  35.751  33.131  1.00  0.00     0.031 C 
ATOM     41  C   UNL A   1      44.470  36.313  31.807  1.00  0.00     0.034 A 
BRANCH  28  42
ATOM     42  C   UNL A   1      48.040  34.571  26.982  1.00  0.00     0.023 A 
ATOM     43  C   UNL A   1      49.325  34.192  27.416  1.00  0.00     0.031 A 
ATOM     44  C   UNL A   1      47.943  35.297  25.783  1.00  0.00     0.131 A 
ATOM     45  C   UNL A   1      50.459  34.652  26.727  1.00  0.00     0.055 A 
ATOM     46  C   UNL A   1      49.072  35.661  25.046  1.00  0.00     0.041 A 
ATOM     47  F   UNL A   1      46.750  35.720  25.334  1.00  0.00    -0.206 F 
ATOM     48  C   UNL A   1      50.341  35.363  25.531  1.00  0.00     0.022 A 
BRANCH  45  49
ATOM     49  S   UNL A   1      52.080  34.516  27.539  1.00  0.00     0.124 S 
ATOM     50  O   UNL A   1      52.233  33.066  27.649  1.00  0.00    -0.237 OA
ATOM     51  O   UNL A   1      52.966  35.180  26.590  1.00  0.00    -0.237 OA
ATOM     52  O   UNL A   1      51.889  35.213  28.809  1.00  0.00    -0.744 OA
ENDBRANCH  45  49
ENDBRANCH  28  42
BRANCH  29  53
ATOM     53  C   UNL A   1      39.823  32.424  32.574  1.00  0.00     0.023 A 
ATOM     54  C   UNL A   1      38.587  33.082  32.493  1.00  0.00     0.031 A 
ATOM     55  C   UNL A   1      39.945  31.374  33.507  1.00  0.00     0.131 A 
ATOM     56  C   UNL A   1      37.530  32.694  33.338  1.00  0.00     0.055 A 
ATOM     57  C   UNL A   1      38.880  30.962  34.308  1.00  0.00     0.041 A 
ATOM     58  F   UNL A   1      41.107  30.712  33.637  1.00  0.00    -0.206 F 
ATOM     59  C   UNL A   1      37.663  31.628  34.231  1.00  0.00     0.022 A 
BRANCH  56  60
ATOM     60  S   UNL A   1      35.980  33.637  33.294  1.00  0.00     0.124 S 
ATOM     61  O   UNL A   1      34.987  32.574  33.206  1.00  0.00    -0.237 OA
ATOM     62  O   UNL A   1      36.033  34.366  34.557  1.00  0.00    -0.237 OA
ATOM     63  O   UNL A   1      36.117  34.464  32.096  1.00  0.00    -0.744 OA
ENDBRANCH  56  60
ENDBRANCH  29  53
BRANCH  41  64
ATOM     64  C   UNL A   1      44.634  37.535  32.670  1.00  0.00     0.023 A 
ATOM     65  C   UNL A   1      43.888  38.703  32.452  1.00  0.00     0.031 A 
ATOM     66  C   UNL A   1      45.505  37.491  33.773  1.00  0.00     0.131 A 
ATOM     67  C   UNL A   1      44.049  39.796  33.314  1.00  0.00     0.055 A 
ATOM     68  C   UNL A   1      45.616  38.559  34.661  1.00  0.00     0.041 A 
ATOM     69  F   UNL A   1      46.239  36.393  34.020  1.00  0.00    -0.206 F 
ATOM     70  C   UNL A   1      44.889  39.723  34.429  1.00  0.00     0.022 A 
BRANCH  67  71
ATOM     71  S   UNL A   1      43.186  41.342  32.929  1.00  0.00     0.124 S 
ATOM     72  O   UNL A   1      42.210  40.903  31.936  1.00  0.00    -0.237 OA
ATOM     73  O   UNL A   1      42.645  41.732  34.226  1.00  0.00    -0.237 OA
ATOM     74  O   UNL A   1      44.246  42.207  32.416  1.00  0.00    -0.744 OA
ENDBRANCH  67  71
ENDBRANCH  41  64
ENDBRANCH  15  16
ENDBRANCH   8  10
ENDBRANCH   7   8
ENDBRANCH   6   7
ENDBRANCH   5   6
ENDBRANCH   4   5
ENDBRANCH   3   4
ENDBRANCH   2   3
ENDBRANCH   1   2
BRANCH   1  75
ATOM     75  C   UNL A   1      37.748  29.056  28.606  1.00  0.00     0.188 C 
BRANCH  75  76
ATOM     76  C   UNL A   1      36.877  29.898  27.662  1.00  0.00     0.188 C 
BRANCH  76  77
ATOM     77  O   UNL A   1      35.542  29.430  27.680  1.00  0.00    -0.376 OA
BRANCH  77  78
ATOM     78  C   UNL A   1      34.515  30.396  27.499  1.00  0.00     0.202 C 
BRANCH  78  79
ATOM     79  C   UNL A   1      33.049  29.976  27.203  1.00  0.00     0.261 C 
BRANCH  79  80
ATOM     80  O   UNL A   1      32.745  29.522  25.861  1.00  0.00    -0.462 OA
BRANCH  80  81
ATOM     81  C   UNL A   1      31.620  30.002  25.301  1.00  0.00     0.328 C 
ATOM     82  O   UNL A   1      31.134  31.087  25.634  1.00  0.00    -0.250 OA
BRANCH  81  83
ATOM     83  C   UNL A   1      30.944  29.197  24.140  1.00  0.00     0.195 C 
ATOM     84  C   UNL A   1      31.332  27.741  24.530  1.00  0.00     0.046 C 
ATOM     85  N   UNL A   1      29.615  28.930  23.519  1.00  0.00    -0.328 N 
ATOM     86  C   UNL A   1      30.838  26.860  23.381  1.00  0.00     0.001 C 
ATOM     87  C   UNL A   1      29.527  27.555  23.024  1.00  0.00     0.128 C 
ATOM     88  C   UNL A   1      30.587  25.405  23.818  1.00  0.00     0.071 C 
ATOM     89  C   UNL A   1      31.837  26.859  22.199  1.00  0.00     0.071 C 
ATOM     90  C   UNL A   1      31.894  24.701  24.165  1.00  0.00     0.271 C 
ATOM     91  C   UNL A   1      33.117  26.079  22.519  1.00  0.00     0.271 C 
ATOM     92  N   UNL A   1      32.805  24.745  23.020  1.00  0.00    -0.267 N 
ATOM     93  H   UNL A   1      33.219  24.034  23.561  1.00  0.00     0.357 HD
BRANCH  85  94
ATOM     94  C   UNL A   1      28.667  29.785  22.975  1.00  0.00     0.226 C 
ATOM     95  O   UNL A   1      27.465  29.518  22.963  1.00  0.00    -0.275 OA
BRANCH  94  96
ATOM     96  C   UNL A   1      29.062  31.122  22.514  1.00  0.00     0.079 C 
ATOM     97  C   UNL A   1      28.095  32.128  21.965  1.00  0.00     0.014 C 
ATOM     98  C   UNL A   1      28.728  32.364  23.303  1.00  0.00     0.014 C 
ENDBRANCH  94  96
ENDBRANCH  85  94
BRANCH  92  99
ATOM     99  C   UNL A   1      33.487  23.653  22.494  1.00  0.00     0.344 C 
ATOM    100  O   UNL A   1      33.351  23.248  21.338  1.00  0.00    -0.226 OA
BRANCH  99 101
ATOM    101  C   UNL A   1      34.433  22.927  23.361  1.00  0.00     0.083 A 
ATOM    102  C   UNL A   1      35.789  23.281  23.382  1.00  0.00     0.018 A 
ATOM    103  C   UNL A   1      33.953  21.891  24.162  1.00  0.00     0.064 A 
ATOM    104  C   UNL A   1      36.678  22.550  24.168  1.00  0.00     0.005 A 
ATOM    105  C   UNL A   1      34.851  21.176  24.944  1.00  0.00     0.116 A 
ATOM    106  C   UNL A   1      36.210  21.490  24.948  1.00  0.00     0.046 A 
BRANCH 105 107
ATOM    107  O   UNL A   1      34.358  20.155  25.701  1.00  0.00    -0.508 OA
ATOM    108  H   UNL A   1      33.483  20.196  26.033  1.00  0.00     0.293 HD
ENDBRANCH 105 107
ENDBRANCH  99 101
ENDBRANCH  92  99
ENDBRANCH  81  83
ENDBRANCH  80  81
ENDBRANCH  79  80
ENDBRANCH  78  79
ENDBRANCH  77  78
ENDBRANCH  76  77
ENDBRANCH  75  76
ENDBRANCH   1  75
TORSDOF 28
ENDMDL
MODEL 2
REMARK VINA RESULT:      -9.5      0.948      7.322
REMARK SMILES O=C(OCCOCCOCCOCCOC(=O)[C@H]1CC2(CC[NH+](C(=O)c3cccc(O)c3)CC2)CN1C(=O)C1CC1)c1ccc(-c2c3nc(c(-c4cc(S(=O)(=O)[O-])ccc4F)c4ccc([nH]4)c(-c4cc(S(=O)(=O)[O-])ccc4F)c4nc(c(-c5cc(S(=O)(=O)[O-])ccc5F)c5ccc2[nH]5)C=C4)C=C3)cc1
REMARK SMILES IDX 9 1 8 2 7 3 6 4 5 5 4 6 3 7 2 8 1 9 42 10 43 11 104 12 44 13
REMARK SMILES IDX 103 14 45 15 46 16 47 17 97 18 48 19 102 20 96 21 98 22
REMARK SMILES IDX 49 23 101 24 95 25 94 26 50 28 82 29 62 30 81 31 63 32 66 33
REMARK SMILES IDX 80 34 99 35 64 36 65 37 79 39 100 40 67 41 51 42 52 43 60 44
REMARK SMILES IDX 53 45 59 46 61 47 58 48 54 49 55 50 56 51 57 52 83 53 84 54
REMARK SMILES IDX 92 55 85 56 91 57 93 58 90 59 86 60 87 61 88 62 89 63 68 64
REMARK SMILES IDX 69 65 77 66 70 67 76 68 78 69 75 70 71 71 72 72 73 73 74 74
REMARK SMILES IDX 10 75 11 76 12 77 13 78 14 79 15 80 16 81 17 82 18 83 19 84
REMARK SMILES IDX 36 85 20 86 35 87 21 88 34 89 22 90 33 91 23 92 37 94 38 95
REMARK SMILES IDX 39 96 40 97 41 98 24 99 25 100 26 101 27 102 32 103 28 104
REMARK SMILES IDX 30 105 29 106 31 107
REMARK H PARENT 98 27 66 38 23 93 31 108
REMARK Flexibility Score: inf
ROOT
ATOM      1  O   UNL A   1      39.153  28.294  27.896  1.00  0.00    -0.377 OA
ENDROOT
BRANCH   1   2
ATOM      2  C   UNL A   1      39.421  26.992  28.425  1.00  0.00     0.188 C 
BRANCH   2   3
ATOM      3  C   UNL A   1      39.550  25.912  27.378  1.00  0.00     0.188 C 
BRANCH   3   4
ATOM      4  O   UNL A   1      39.370  24.640  27.974  1.00  0.00    -0.376 OA
BRANCH   4   5
ATOM      5  C   UNL A   1      40.036  23.567  27.334  1.00  0.00     0.202 C 
BRANCH   5   6
ATOM      6  C   UNL A   1      41.547  23.802  27.295  1.00  0.00     0.261 C 
BRANCH   6   7
ATOM      7  O   UNL A   1      41.980  24.187  25.975  1.00  0.00    -0.460 OA
BRANCH   7   8
ATOM      8  C   UNL A   1      42.970  25.029  25.593  1.00  0.00     0.338 C 
ATOM      9  O   UNL A   1      43.709  24.655  24.679  1.00  0.00    -0.246 OA
BRANCH   8  10
ATOM     10  C   UNL A   1      43.299  26.346  26.240  1.00  0.00     0.060 A 
ATOM     11  C   UNL A   1      44.334  26.574  27.151  1.00  0.00     0.016 A 
ATOM     12  C   UNL A   1      42.578  27.469  25.791  1.00  0.00     0.016 A 
ATOM     13  C   UNL A   1      44.715  27.850  27.534  1.00  0.00     0.010 A 
ATOM     14  C   UNL A   1      42.892  28.757  26.239  1.00  0.00     0.010 A 
ATOM     15  C   UNL A   1      43.967  28.940  27.112  1.00  0.00    -0.014 A 
BRANCH  15  16
ATOM     16  C   UNL A   1      44.150  30.190  27.861  1.00  0.00     0.031 A 
ATOM     17  C   UNL A   1      43.146  30.470  28.934  1.00  0.00     0.074 A 
ATOM     18  C   UNL A   1      45.243  30.947  27.680  1.00  0.00     0.049 A 
ATOM     19  N   UNL A   1      42.987  31.528  29.675  1.00  0.00    -0.248 NA
ATOM     20  C   UNL A   1      42.191  29.383  29.218  1.00  0.00     0.031 C 
ATOM     21  C   UNL A   1      46.355  30.620  26.788  1.00  0.00     0.029 A 
ATOM     22  N   UNL A   1      45.597  32.142  28.241  1.00  0.00    -0.354 N 
ATOM     23  C   UNL A   1      41.894  31.249  30.488  1.00  0.00     0.074 A 
ATOM     24  C   UNL A   1      41.437  29.921  30.156  1.00  0.00     0.031 C 
ATOM     25  C   UNL A   1      47.255  31.617  26.836  1.00  0.00     0.029 A 
ATOM     26  C   UNL A   1      46.743  32.675  27.701  1.00  0.00     0.049 A 
ATOM     27  H   UNL A   1      45.084  32.577  28.960  1.00  0.00     0.167 HD
ATOM     28  C   UNL A   1      41.316  32.057  31.408  1.00  0.00     0.034 A 
ATOM     29  C   UNL A   1      47.260  33.912  27.846  1.00  0.00     0.034 A 
ATOM     30  C   UNL A   1      41.792  33.395  31.643  1.00  0.00     0.049 A 
ATOM     31  C   UNL A   1      46.522  34.864  28.757  1.00  0.00     0.074 A 
ATOM     32  C   UNL A   1      41.264  34.379  32.453  1.00  0.00     0.029 A 
ATOM     33  N   UNL A   1      42.917  33.941  31.026  1.00  0.00    -0.354 N 
ATOM     34  N   UNL A   1      45.429  34.648  29.460  1.00  0.00    -0.248 NA
ATOM     35  C   UNL A   1      47.065  36.218  28.891  1.00  0.00     0.031 C 
ATOM     36  C   UNL A   1      42.021  35.541  32.263  1.00  0.00     0.029 A 
ATOM     37  C   UNL A   1      43.081  35.258  31.410  1.00  0.00     0.049 A 
ATOM     38  H   UNL A   1      43.510  33.458  30.406  1.00  0.00     0.167 HD
ATOM     39  C   UNL A   1      45.166  35.832  30.140  1.00  0.00     0.074 A 
ATOM     40  C   UNL A   1      46.220  36.758  29.761  1.00  0.00     0.031 C 
ATOM     41  C   UNL A   1      44.158  36.133  30.999  1.00  0.00     0.034 A 
BRANCH  28  42
ATOM     42  C   UNL A   1      40.050  31.543  32.053  1.00  0.00     0.023 A 
ATOM     43  C   UNL A   1      38.774  31.879  31.561  1.00  0.00     0.031 A 
ATOM     44  C   UNL A   1      40.119  30.861  33.280  1.00  0.00     0.131 A 
ATOM     45  C   UNL A   1      37.637  31.647  32.353  1.00  0.00     0.055 A 
ATOM     46  C   UNL A   1      38.974  30.540  34.013  1.00  0.00     0.041 A 
ATOM     47  F   UNL A   1      41.306  30.546  33.821  1.00  0.00    -0.206 F 
ATOM     48  C   UNL A   1      37.725  30.958  33.564  1.00  0.00     0.022 A 
BRANCH  45  49
ATOM     49  S   UNL A   1      36.081  32.467  31.894  1.00  0.00     0.124 S 
ATOM     50  O   UNL A   1      35.679  31.699  30.716  1.00  0.00    -0.237 OA
ATOM     51  O   UNL A   1      35.261  32.280  33.086  1.00  0.00    -0.237 OA
ATOM     52  O   UNL A   1      36.484  33.844  31.622  1.00  0.00    -0.744 OA
ENDBRANCH  45  49
ENDBRANCH  28  42
BRANCH  29  53
ATOM     53  C   UNL A   1      48.442  34.333  27.036  1.00  0.00     0.023 A 
ATOM     54  C   UNL A   1      49.759  34.132  27.478  1.00  0.00     0.031 A 
ATOM     55  C   UNL A   1      48.261  34.951  25.782  1.00  0.00     0.131 A 
ATOM     56  C   UNL A   1      50.838  34.558  26.681  1.00  0.00     0.055 A 
ATOM     57  C   UNL A   1      49.335  35.327  24.974  1.00  0.00     0.041 A 
ATOM     58  F   UNL A   1      47.024  35.178  25.309  1.00  0.00    -0.206 F 
ATOM     59  C   UNL A   1      50.635  35.137  25.426  1.00  0.00     0.022 A 
BRANCH  56  60
ATOM     60  S   UNL A   1      52.525  34.392  27.328  1.00  0.00     0.124 S 
ATOM     61  O   UNL A   1      52.409  33.201  28.161  1.00  0.00    -0.237 OA
ATOM     62  O   UNL A   1      53.307  34.246  26.103  1.00  0.00    -0.237 OA
ATOM     63  O   UNL A   1      52.738  35.643  28.053  1.00  0.00    -0.744 OA
ENDBRANCH  56  60
ENDBRANCH  29  53
BRANCH  41  64
ATOM     64  C   UNL A   1      44.188  37.496  31.636  1.00  0.00     0.023 A 
ATOM     65  C   UNL A   1      43.509  38.591  31.079  1.00  0.00     0.031 A 
ATOM     66  C   UNL A   1      44.856  37.673  32.861  1.00  0.00     0.131 A 
ATOM     67  C   UNL A   1      43.534  39.827  31.739  1.00  0.00     0.055 A 
ATOM     68  C   UNL A   1      44.826  38.889  33.542  1.00  0.00     0.041 A 
ATOM     69  F   UNL A   1      45.520  36.653  33.431  1.00  0.00    -0.206 F 
ATOM     70  C   UNL A   1      44.167  39.977  32.976  1.00  0.00     0.022 A 
BRANCH  67  71
ATOM     71  S   UNL A   1      42.772  41.259  30.931  1.00  0.00     0.124 S 
ATOM     72  O   UNL A   1      43.750  42.310  31.195  1.00  0.00    -0.237 OA
ATOM     73  O   UNL A   1      42.667  40.819  29.544  1.00  0.00    -0.237 OA
ATOM     74  O   UNL A   1      41.497  41.407  31.630  1.00  0.00    -0.744 OA
ENDBRANCH  67  71
ENDBRANCH  41  64
ENDBRANCH  15  16
ENDBRANCH   8  10
ENDBRANCH   7   8
ENDBRANCH   6   7
ENDBRANCH   5   6
ENDBRANCH   4   5
ENDBRANCH   3   4
ENDBRANCH   2   3
ENDBRANCH   1   2
BRANCH   1  75
ATOM     75  C   UNL A   1      38.168  29.085  28.569  1.00  0.00     0.188 C 
BRANCH  75  76
ATOM     76  C   UNL A   1      37.219  29.886  27.665  1.00  0.00     0.188 C 
BRANCH  76  77
ATOM     77  O   UNL A   1      35.874  29.641  28.027  1.00  0.00    -0.376 OA
BRANCH  77  78
ATOM     78  C   UNL A   1      34.894  30.540  27.526  1.00  0.00     0.202 C 
BRANCH  78  79
ATOM     79  C   UNL A   1      33.429  30.088  27.280  1.00  0.00     0.261 C 
BRANCH  79  80
ATOM     80  O   UNL A   1      33.092  29.617  25.953  1.00  0.00    -0.462 OA
BRANCH  80  81
ATOM     81  C   UNL A   1      31.878  29.956  25.480  1.00  0.00     0.328 C 
ATOM     82  O   UNL A   1      31.229  30.893  25.955  1.00  0.00    -0.250 OA
BRANCH  81  83
ATOM     83  C   UNL A   1      31.300  29.187  24.245  1.00  0.00     0.195 C 
ATOM     84  C   UNL A   1      31.585  27.713  24.658  1.00  0.00     0.046 C 
ATOM     85  N   UNL A   1      30.036  28.978  23.482  1.00  0.00    -0.328 N 
ATOM     86  C   UNL A   1      31.183  26.861  23.453  1.00  0.00     0.001 C 
ATOM     87  C   UNL A   1      29.947  27.612  22.964  1.00  0.00     0.128 C 
ATOM     88  C   UNL A   1      30.828  25.415  23.845  1.00  0.00     0.071 C 
ATOM     89  C   UNL A   1      32.303  26.827  22.385  1.00  0.00     0.071 C 
ATOM     90  C   UNL A   1      32.061  24.655  24.323  1.00  0.00     0.271 C 
ATOM     91  C   UNL A   1      33.509  25.993  22.833  1.00  0.00     0.271 C 
ATOM     92  N   UNL A   1      33.092  24.670  23.283  1.00  0.00    -0.267 N 
ATOM     93  H   UNL A   1      33.416  23.939  23.857  1.00  0.00     0.357 HD
BRANCH  85  94
ATOM     94  C   UNL A   1      29.187  29.875  22.848  1.00  0.00     0.226 C 
ATOM     95  O   UNL A   1      28.547  29.579  21.839  1.00  0.00    -0.275 OA
BRANCH  94  96
ATOM     96  C   UNL A   1      28.917  31.185  23.454  1.00  0.00     0.079 C 
ATOM     97  C   UNL A   1      28.977  32.477  22.695  1.00  0.00     0.014 C 
ATOM     98  C   UNL A   1      27.651  31.950  23.156  1.00  0.00     0.014 C 
ENDBRANCH  94  96
ENDBRANCH  85  94
BRANCH  92  99
ATOM     99  C   UNL A   1      33.782  23.554  22.821  1.00  0.00     0.344 C 
ATOM    100  O   UNL A   1      34.003  23.325  21.630  1.00  0.00    -0.226 OA
BRANCH  99 101
ATOM    101  C   UNL A   1      34.286  22.579  23.805  1.00  0.00     0.083 A 
ATOM    102  C   UNL A   1      33.587  21.388  24.043  1.00  0.00     0.018 A 
ATOM    103  C   UNL A   1      35.472  22.859  24.486  1.00  0.00     0.064 A 
ATOM    104  C   UNL A   1      34.049  20.501  25.014  1.00  0.00     0.005 A 
ATOM    105  C   UNL A   1      35.922  21.963  25.446  1.00  0.00     0.116 A 
ATOM    106  C   UNL A   1      35.218  20.792  25.723  1.00  0.00     0.046 A 
BRANCH 105 107
ATOM    107  O   UNL A   1      37.071  22.272  26.111  1.00  0.00    -0.508 OA
ATOM    108  H   UNL A   1      37.841  21.753  25.985  1.00  0.00     0.293 HD
ENDBRANCH 105 107
ENDBRANCH  99 101
ENDBRANCH  92  99
ENDBRANCH  81  83
ENDBRANCH  80  81
ENDBRANCH  79  80
ENDBRANCH  78  79
ENDBRANCH  77  78
ENDBRANCH  76  77
ENDBRANCH  75  76
ENDBRANCH   1  75
TORSDOF 28
ENDMDL
MODEL 3
REMARK VINA RESULT:      -9.0      4.067      8.914
REMARK SMILES O=C(OCCOCCOCCOCCOC(=O)[C@H]1CC2(CC[NH+](C(=O)c3cccc(O)c3)CC2)CN1C(=O)C1CC1)c1ccc(-c2c3nc(c(-c4cc(S(=O)(=O)[O-])ccc4F)c4ccc([nH]4)c(-c4cc(S(=O)(=O)[O-])ccc4F)c4nc(c(-c5cc(S(=O)(=O)[O-])ccc5F)c5ccc2[nH]5)C=C4)C=C3)cc1
REMARK SMILES IDX 9 1 8 2 7 3 6 4 5 5 4 6 3 7 2 8 1 9 42 10 43 11 104 12 44 13
REMARK SMILES IDX 103 14 45 15 46 16 47 17 97 18 48 19 102 20 96 21 98 22
REMARK SMILES IDX 49 23 101 24 95 25 94 26 50 28 82 29 62 30 81 31 63 32 66 33
REMARK SMILES IDX 80 34 99 35 64 36 65 37 79 39 100 40 67 41 51 42 52 43 60 44
REMARK SMILES IDX 53 45 59 46 61 47 58 48 54 49 55 50 56 51 57 52 83 53 84 54
REMARK SMILES IDX 92 55 85 56 91 57 93 58 90 59 86 60 87 61 88 62 89 63 68 64
REMARK SMILES IDX 69 65 77 66 70 67 76 68 78 69 75 70 71 71 72 72 73 73 74 74
REMARK SMILES IDX 10 75 11 76 12 77 13 78 14 79 15 80 16 81 17 82 18 83 19 84
REMARK SMILES IDX 36 85 20 86 35 87 21 88 34 89 22 90 33 91 23 92 37 94 38 95
REMARK SMILES IDX 39 96 40 97 41 98 24 99 25 100 26 101 27 102 32 103 28 104
REMARK SMILES IDX 30 105 29 106 31 107
REMARK H PARENT 98 27 66 38 23 93 31 108
REMARK Flexibility Score: inf
ROOT
ATOM      1  O   UNL A   1      40.140  26.417  27.682  1.00  0.00    -0.377 OA
ENDROOT
BRANCH   1   2
ATOM      2  C   UNL A   1      39.360  25.225  27.816  1.00  0.00     0.188 C 
BRANCH   2   3
ATOM      3  C   UNL A   1      39.086  24.515  26.512  1.00  0.00     0.188 C 
BRANCH   3   4
ATOM      4  O   UNL A   1      38.400  23.301  26.761  1.00  0.00    -0.376 OA
BRANCH   4   5
ATOM      5  C   UNL A   1      38.878  22.174  26.049  1.00  0.00     0.202 C 
BRANCH   5   6
ATOM      6  C   UNL A   1      40.220  21.699  26.608  1.00  0.00     0.261 C 
BRANCH   6   7
ATOM      7  O   UNL A   1      41.214  21.603  25.567  1.00  0.00    -0.460 OA
BRANCH   7   8
ATOM      8  C   UNL A   1      42.563  21.696  25.638  1.00  0.00     0.338 C 
ATOM      9  O   UNL A   1      43.212  20.671  25.416  1.00  0.00    -0.246 OA
BRANCH   8  10
ATOM     10  C   UNL A   1      43.337  22.919  26.045  1.00  0.00     0.060 A 
ATOM     11  C   UNL A   1      43.213  24.191  25.480  1.00  0.00     0.016 A 
ATOM     12  C   UNL A   1      44.169  22.795  27.174  1.00  0.00     0.016 A 
ATOM     13  C   UNL A   1      43.794  25.314  26.050  1.00  0.00     0.010 A 
ATOM     14  C   UNL A   1      44.836  23.903  27.707  1.00  0.00     0.010 A 
ATOM     15  C   UNL A   1      44.641  25.164  27.138  1.00  0.00    -0.014 A 
BRANCH  15  16
ATOM     16  C   UNL A   1      45.536  26.291  27.432  1.00  0.00     0.031 A 
ATOM     17  C   UNL A   1      45.016  27.313  28.393  1.00  0.00     0.074 A 
ATOM     18  C   UNL A   1      46.796  26.308  26.973  1.00  0.00     0.049 A 
ATOM     19  N   UNL A   1      45.524  28.456  28.755  1.00  0.00    -0.248 NA
ATOM     20  C   UNL A   1      43.739  26.982  29.050  1.00  0.00     0.031 C 
ATOM     21  C   UNL A   1      47.423  25.241  26.194  1.00  0.00     0.029 A 
ATOM     22  N   UNL A   1      47.774  27.255  27.100  1.00  0.00    -0.354 N 
ATOM     23  C   UNL A   1      44.612  28.996  29.655  1.00  0.00     0.074 A 
ATOM     24  C   UNL A   1      43.528  28.053  29.791  1.00  0.00     0.031 C 
ATOM     25  C   UNL A   1      48.676  25.612  25.880  1.00  0.00     0.029 A 
ATOM     26  C   UNL A   1      48.905  26.966  26.373  1.00  0.00     0.049 A 
ATOM     27  H   UNL A   1      47.680  28.060  27.658  1.00  0.00     0.167 HD
ATOM     28  C   UNL A   1      44.677  30.194  30.283  1.00  0.00     0.034 A 
ATOM     29  C   UNL A   1      49.961  27.755  26.088  1.00  0.00     0.034 A 
ATOM     30  C   UNL A   1      45.763  31.110  30.053  1.00  0.00     0.049 A 
ATOM     31  C   UNL A   1      49.954  29.150  26.668  1.00  0.00     0.074 A 
ATOM     32  C   UNL A   1      45.932  32.398  30.518  1.00  0.00     0.029 A 
ATOM     33  N   UNL A   1      46.866  30.823  29.249  1.00  0.00    -0.354 N 
ATOM     34  N   UNL A   1      49.051  29.714  27.444  1.00  0.00    -0.248 NA
ATOM     35  C   UNL A   1      51.085  30.019  26.333  1.00  0.00     0.031 C 
ATOM     36  C   UNL A   1      47.093  32.914  29.932  1.00  0.00     0.029 A 
ATOM     37  C   UNL A   1      47.703  31.919  29.177  1.00  0.00     0.049 A 
ATOM     38  H   UNL A   1      47.026  29.962  28.798  1.00  0.00     0.167 HD
ATOM     39  C   UNL A   1      49.516  30.996  27.711  1.00  0.00     0.074 A 
ATOM     40  C   UNL A   1      50.784  31.119  27.012  1.00  0.00     0.031 C 
ATOM     41  C   UNL A   1      48.961  31.981  28.464  1.00  0.00     0.034 A 
BRANCH  28  42
ATOM     42  C   UNL A   1      43.474  30.586  31.109  1.00  0.00     0.023 A 
ATOM     43  C   UNL A   1      43.313  30.160  32.441  1.00  0.00     0.031 A 
ATOM     44  C   UNL A   1      42.391  31.241  30.497  1.00  0.00     0.131 A 
ATOM     45  C   UNL A   1      42.061  30.277  33.067  1.00  0.00     0.055 A 
ATOM     46  C   UNL A   1      41.181  31.449  31.163  1.00  0.00     0.041 A 
ATOM     47  F   UNL A   1      42.467  31.639  29.217  1.00  0.00    -0.206 F 
ATOM     48  C   UNL A   1      41.001  30.942  32.446  1.00  0.00     0.022 A 
BRANCH  45  49
ATOM     49  S   UNL A   1      41.766  29.345  34.598  1.00  0.00     0.124 S 
ATOM     50  O   UNL A   1      42.486  30.155  35.580  1.00  0.00    -0.237 OA
ATOM     51  O   UNL A   1      40.312  29.359  34.704  1.00  0.00    -0.237 OA
ATOM     52  O   UNL A   1      42.360  28.038  34.326  1.00  0.00    -0.744 OA
ENDBRANCH  45  49
ENDBRANCH  28  42
BRANCH  29  53
ATOM     53  C   UNL A   1      51.016  27.286  25.141  1.00  0.00     0.023 A 
ATOM     54  C   UNL A   1      50.936  27.521  23.760  1.00  0.00     0.031 A 
ATOM     55  C   UNL A   1      52.140  26.584  25.621  1.00  0.00     0.131 A 
ATOM     56  C   UNL A   1      51.952  27.047  22.909  1.00  0.00     0.055 A 
ATOM     57  C   UNL A   1      53.168  26.158  24.778  1.00  0.00     0.041 A 
ATOM     58  F   UNL A   1      52.268  26.321  26.932  1.00  0.00    -0.206 F 
ATOM     59  C   UNL A   1      53.074  26.383  23.411  1.00  0.00     0.022 A 
BRANCH  56  60
ATOM     60  S   UNL A   1      51.766  27.263  21.117  1.00  0.00     0.124 S 
ATOM     61  O   UNL A   1      52.624  28.415  20.865  1.00  0.00    -0.237 OA
ATOM     62  O   UNL A   1      52.244  25.982  20.606  1.00  0.00    -0.237 OA
ATOM     63  O   UNL A   1      50.334  27.502  20.948  1.00  0.00    -0.744 OA
ENDBRANCH  56  60
ENDBRANCH  29  53
BRANCH  41  64
ATOM     64  C   UNL A   1      49.755  33.250  28.621  1.00  0.00     0.023 A 
ATOM     65  C   UNL A   1      50.738  33.393  29.612  1.00  0.00     0.031 A 
ATOM     66  C   UNL A   1      49.561  34.304  27.710  1.00  0.00     0.131 A 
ATOM     67  C   UNL A   1      51.478  34.581  29.684  1.00  0.00     0.055 A 
ATOM     68  C   UNL A   1      50.342  35.458  27.750  1.00  0.00     0.041 A 
ATOM     69  F   UNL A   1      48.631  34.211  26.746  1.00  0.00    -0.206 F 
ATOM     70  C   UNL A   1      51.303  35.603  28.746  1.00  0.00     0.022 A 
BRANCH  67  71
ATOM     71  S   UNL A   1      52.640  34.799  31.057  1.00  0.00     0.124 S 
ATOM     72  O   UNL A   1      51.805  35.457  32.057  1.00  0.00    -0.237 OA
ATOM     73  O   UNL A   1      53.034  33.427  31.357  1.00  0.00    -0.237 OA
ATOM     74  O   UNL A   1      53.694  35.633  30.483  1.00  0.00    -0.744 OA
ENDBRANCH  67  71
ENDBRANCH  41  64
ENDBRANCH  15  16
ENDBRANCH   8  10
ENDBRANCH   7   8
ENDBRANCH   6   7
ENDBRANCH   5   6
ENDBRANCH   4   5
ENDBRANCH   3   4
ENDBRANCH   2   3
ENDBRANCH   1   2
BRANCH   1  75
ATOM     75  C   UNL A   1      40.020  27.399  28.716  1.00  0.00     0.188 C 
BRANCH  75  76
ATOM     76  C   UNL A   1      39.428  28.751  28.292  1.00  0.00     0.188 C 
BRANCH  76  77
ATOM     77  O   UNL A   1      38.073  28.596  27.915  1.00  0.00    -0.376 OA
BRANCH  77  78
ATOM     78  C   UNL A   1      37.166  29.606  28.334  1.00  0.00     0.202 C 
BRANCH  78  79
ATOM     79  C   UNL A   1      35.636  29.470  28.098  1.00  0.00     0.261 C 
BRANCH  79  80
ATOM     80  O   UNL A   1      35.200  29.073  26.775  1.00  0.00    -0.462 OA
BRANCH  80  81
ATOM     81  C   UNL A   1      33.876  29.118  26.535  1.00  0.00     0.328 C 
ATOM     82  O   UNL A   1      33.131  29.905  27.126  1.00  0.00    -0.250 OA
BRANCH  81  83
ATOM     83  C   UNL A   1      33.272  28.196  25.423  1.00  0.00     0.195 C 
ATOM     84  C   UNL A   1      33.170  26.843  26.188  1.00  0.00     0.046 C 
ATOM     85  N   UNL A   1      32.082  28.057  24.536  1.00  0.00    -0.328 N 
ATOM     86  C   UNL A   1      32.714  25.816  25.150  1.00  0.00     0.001 C 
ATOM     87  C   UNL A   1      31.740  26.649  24.323  1.00  0.00     0.128 C 
ATOM     88  C   UNL A   1      32.002  24.609  25.788  1.00  0.00     0.071 C 
ATOM     89  C   UNL A   1      33.905  25.301  24.304  1.00  0.00     0.071 C 
ATOM     90  C   UNL A   1      32.972  23.766  26.607  1.00  0.00     0.271 C 
ATOM     91  C   UNL A   1      34.836  24.384  25.105  1.00  0.00     0.271 C 
ATOM     92  N   UNL A   1      34.083  23.321  25.763  1.00  0.00    -0.267 N 
ATOM     93  H   UNL A   1      34.171  22.706  26.527  1.00  0.00     0.357 HD
BRANCH  85  94
ATOM     94  C   UNL A   1      31.531  28.917  23.597  1.00  0.00     0.226 C 
ATOM     95  O   UNL A   1      32.138  29.268  22.585  1.00  0.00    -0.275 OA
BRANCH  94  96
ATOM     96  C   UNL A   1      30.128  29.334  23.716  1.00  0.00     0.079 C 
ATOM     97  C   UNL A   1      29.445  30.235  22.732  1.00  0.00     0.014 C 
ATOM     98  C   UNL A   1      29.059  28.788  22.802  1.00  0.00     0.014 C 
ENDBRANCH  94  96
ENDBRANCH  85  94
BRANCH  92  99
ATOM     99  C   UNL A   1      34.548  22.013  25.670  1.00  0.00     0.344 C 
ATOM    100  O   UNL A   1      35.551  21.595  26.250  1.00  0.00    -0.226 OA
BRANCH  99 101
ATOM    101  C   UNL A   1      33.803  21.058  24.828  1.00  0.00     0.083 A 
ATOM    102  C   UNL A   1      33.006  21.518  23.771  1.00  0.00     0.018 A 
ATOM    103  C   UNL A   1      33.914  19.694  25.097  1.00  0.00     0.064 A 
ATOM    104  C   UNL A   1      32.268  20.606  23.019  1.00  0.00     0.005 A 
ATOM    105  C   UNL A   1      33.177  18.797  24.335  1.00  0.00     0.116 A 
ATOM    106  C   UNL A   1      32.348  19.240  23.304  1.00  0.00     0.046 A 
BRANCH 105 107
ATOM    107  O   UNL A   1      33.287  17.472  24.634  1.00  0.00    -0.508 OA
ATOM    108  H   UNL A   1      32.519  16.937  24.685  1.00  0.00     0.293 HD
ENDBRANCH 105 107
ENDBRANCH  99 101
ENDBRANCH  92  99
ENDBRANCH  81  83
ENDBRANCH  80  81
ENDBRANCH  79  80
ENDBRANCH  78  79
ENDBRANCH  77  78
ENDBRANCH  76  77
ENDBRANCH  75  76
ENDBRANCH   1  75
TORSDOF 28
ENDMDL
