MODEL 1
REMARK VINA RESULT:     -10.2      0.000      0.000
REMARK SMILES O=C(Cc1ccccc1)Nc1cccc(C(=O)Nc2ccccc2C(=O)OCCOCCOCCOCCOC(=O)c2ccc(-c3c4nc(c(-c5cc(S(=O)(=O)[O-])ccc5F)c5ccc([nH]5)c(-c5cc(S(=O)(=O)[O-])ccc5F)c5nc(c(-c6cc(S(=O)(=O)[O-])ccc6F)c6ccc3[nH]6)C=C5)C=C4)cc2)c1
REMARK SMILES IDX 32 1 31 2 30 3 29 4 28 5 27 6 25 7 26 8 24 9 19 10 20 11
REMARK SMILES IDX 21 12 23 13 22 14 18 15 16 16 17 17 15 19 11 20 12 21 105 22
REMARK SMILES IDX 13 23 14 24 10 25 1 26 2 27 3 29 4 30 5 31 9 32 6 33 8 34
REMARK SMILES IDX 7 35 33 36 34 37 35 38 36 39 37 40 38 41 39 42 40 43 41 44
REMARK SMILES IDX 42 45 43 46 104 47 44 48 103 49 45 50 46 51 47 52 97 53
REMARK SMILES IDX 48 54 102 55 96 56 98 57 49 58 101 59 95 60 94 61 50 63
REMARK SMILES IDX 82 64 62 65 81 66 63 67 66 68 80 69 99 70 64 71 65 72 79 74
REMARK SMILES IDX 100 75 67 76 51 77 52 78 60 79 53 80 59 81 61 82 58 83 54 84
REMARK SMILES IDX 55 85 56 86 57 87 83 88 84 89 92 90 85 91 91 92 93 93 90 94
REMARK SMILES IDX 86 95 87 96 88 97 89 98 68 99 69 100 77 101 70 102 76 103
REMARK SMILES IDX 78 104 75 105 71 106 72 107 73 108 74 109
REMARK H PARENT 18 18 10 28 98 62 66 73
REMARK Flexibility Score: inf
ROOT
ATOM      1  C   UNL A   1      37.714  22.982  25.713  1.00  0.00     0.188 C 
ENDROOT
BRANCH   1   2
ATOM      2  C   UNL A   1      36.592  22.629  24.713  1.00  0.00     0.188 C 
BRANCH   2   3
ATOM      3  O   UNL A   1      36.211  23.489  23.653  1.00  0.00    -0.376 OA
BRANCH   3   4
ATOM      4  C   UNL A   1      34.876  23.663  23.216  1.00  0.00     0.202 C 
BRANCH   4   5
ATOM      5  C   UNL A   1      33.973  24.830  23.607  1.00  0.00     0.261 C 
BRANCH   5   6
ATOM      6  O   UNL A   1      32.604  24.772  23.218  1.00  0.00    -0.460 OA
BRANCH   6   7
ATOM      7  C   UNL A   1      31.909  25.900  23.449  1.00  0.00     0.340 C 
ATOM      8  O   UNL A   1      30.930  26.275  22.810  1.00  0.00    -0.246 OA
BRANCH   7   9
ATOM      9  C   UNL A   1      32.350  26.595  24.686  1.00  0.00     0.083 A 
ATOM     10  C   UNL A   1      31.879  26.415  26.001  1.00  0.00     0.056 A 
ATOM     11  C   UNL A   1      32.399  27.267  26.998  1.00  0.00     0.027 A 
ATOM     12  C   UNL A   1      33.395  28.213  26.727  1.00  0.00     0.002 A 
ATOM     13  C   UNL A   1      33.332  27.584  24.423  1.00  0.00     0.018 A 
ATOM     14  C   UNL A   1      33.862  28.375  25.434  1.00  0.00     0.001 A 
BRANCH  10  15
ATOM     15  N   UNL A   1      30.954  25.464  26.507  1.00  0.00    -0.321 N 
ATOM     16  C   UNL A   1      30.980  24.100  26.716  1.00  0.00     0.255 C 
ATOM     17  O   UNL A   1      29.939  23.517  27.015  1.00  0.00    -0.269 OA
ATOM     18  H   UNL A   1      30.097  25.872  26.769  1.00  0.00     0.170 HD
BRANCH  16  19
ATOM     19  C   UNL A   1      32.235  23.321  26.654  1.00  0.00     0.042 A 
ATOM     20  C   UNL A   1      33.309  21.437  25.685  1.00  0.00     0.041 A 
ATOM     21  C   UNL A   1      34.012  21.231  26.881  1.00  0.00     0.026 A 
ATOM     22  C   UNL A   1      32.546  22.582  25.516  1.00  0.00     0.040 A 
ATOM     23  C   UNL A   1      33.912  22.147  27.927  1.00  0.00     0.003 A 
ATOM     24  C   UNL A   1      32.985  23.179  27.829  1.00  0.00     0.014 A 
BRANCH  20  25
ATOM     25  N   UNL A   1      33.125  20.324  24.850  1.00  0.00    -0.326 N 
ATOM     26  O   UNL A   1      32.349  21.236  22.854  1.00  0.00    -0.274 OA
ATOM     27  C   UNL A   1      32.598  20.272  23.573  1.00  0.00     0.228 C 
ATOM     28  H   UNL A   1      33.413  19.461  25.226  1.00  0.00     0.169 HD
BRANCH  27  29
ATOM     29  C   UNL A   1      32.306  18.847  23.121  1.00  0.00     0.135 C 
BRANCH  29  30
ATOM     30  C   UNL A   1      32.888  17.754  23.995  1.00  0.00    -0.039 A 
ATOM     31  C   UNL A   1      32.132  17.047  24.943  1.00  0.00     0.004 A 
ATOM     32  C   UNL A   1      34.224  17.372  23.806  1.00  0.00     0.004 A 
ATOM     33  C   UNL A   1      32.687  16.014  25.693  1.00  0.00     0.000 A 
ATOM     34  C   UNL A   1      34.786  16.344  24.566  1.00  0.00     0.000 A 
ATOM     35  C   UNL A   1      34.017  15.666  25.509  1.00  0.00     0.000 A 
ENDBRANCH  29  30
ENDBRANCH  27  29
ENDBRANCH  20  25
ENDBRANCH  16  19
ENDBRANCH  10  15
ENDBRANCH   7   9
ENDBRANCH   6   7
ENDBRANCH   5   6
ENDBRANCH   4   5
ENDBRANCH   3   4
ENDBRANCH   2   3
ENDBRANCH   1   2
BRANCH   1  36
ATOM     36  O   UNL A   1      38.591  21.940  26.073  1.00  0.00    -0.377 OA
BRANCH  36  37
ATOM     37  C   UNL A   1      39.928  22.249  26.445  1.00  0.00     0.188 C 
BRANCH  37  38
ATOM     38  C   UNL A   1      40.594  21.566  27.661  1.00  0.00     0.188 C 
BRANCH  38  39
ATOM     39  O   UNL A   1      41.229  20.332  27.379  1.00  0.00    -0.376 OA
BRANCH  39  40
ATOM     40  C   UNL A   1      41.726  20.090  26.077  1.00  0.00     0.202 C 
BRANCH  40  41
ATOM     41  C   UNL A   1      43.189  20.450  25.782  1.00  0.00     0.261 C 
BRANCH  41  42
ATOM     42  O   UNL A   1      43.607  21.773  26.139  1.00  0.00    -0.460 OA
BRANCH  42  43
ATOM     43  C   UNL A   1      43.511  22.732  25.193  1.00  0.00     0.338 C 
ATOM     44  O   UNL A   1      43.541  22.571  23.985  1.00  0.00    -0.246 OA
BRANCH  43  45
ATOM     45  C   UNL A   1      43.164  23.993  25.879  1.00  0.00     0.060 A 
ATOM     46  C   UNL A   1      42.750  25.098  25.120  1.00  0.00     0.016 A 
ATOM     47  C   UNL A   1      43.237  24.073  27.270  1.00  0.00     0.016 A 
ATOM     48  C   UNL A   1      42.449  26.303  25.752  1.00  0.00     0.010 A 
ATOM     49  C   UNL A   1      42.964  25.289  27.900  1.00  0.00     0.010 A 
ATOM     50  C   UNL A   1      42.612  26.418  27.139  1.00  0.00    -0.014 A 
BRANCH  50  51
ATOM     51  C   UNL A   1      42.688  27.762  27.761  1.00  0.00     0.031 A 
ATOM     52  C   UNL A   1      44.054  28.377  27.907  1.00  0.00     0.074 A 
ATOM     53  C   UNL A   1      41.591  28.417  28.177  1.00  0.00     0.049 A 
ATOM     54  N   UNL A   1      44.413  29.476  28.516  1.00  0.00    -0.248 NA
ATOM     55  C   UNL A   1      45.169  27.642  27.285  1.00  0.00     0.031 C 
ATOM     56  C   UNL A   1      40.215  27.947  28.025  1.00  0.00     0.029 A 
ATOM     57  N   UNL A   1      41.468  29.619  28.828  1.00  0.00    -0.354 N 
ATOM     58  C   UNL A   1      45.793  29.554  28.366  1.00  0.00     0.074 A 
ATOM     59  C   UNL A   1      46.210  28.381  27.632  1.00  0.00     0.031 C 
ATOM     60  C   UNL A   1      39.386  28.845  28.588  1.00  0.00     0.029 A 
ATOM     61  C   UNL A   1      40.173  29.925  29.183  1.00  0.00     0.049 A 
ATOM     62  H   UNL A   1      42.232  30.207  29.023  1.00  0.00     0.167 HD
ATOM     63  C   UNL A   1      46.635  30.522  28.799  1.00  0.00     0.034 A 
ATOM     64  C   UNL A   1      39.694  30.938  29.934  1.00  0.00     0.034 A 
ATOM     65  C   UNL A   1      46.200  31.680  29.539  1.00  0.00     0.049 A 
ATOM     66  C   UNL A   1      40.666  31.954  30.495  1.00  0.00     0.074 A 
ATOM     67  C   UNL A   1      46.963  32.727  30.023  1.00  0.00     0.029 A 
ATOM     68  N   UNL A   1      44.888  31.937  29.911  1.00  0.00    -0.354 N 
ATOM     69  N   UNL A   1      41.972  32.020  30.351  1.00  0.00    -0.248 NA
ATOM     70  C   UNL A   1      40.102  33.035  31.315  1.00  0.00     0.031 C 
ATOM     71  C   UNL A   1      46.127  33.573  30.758  1.00  0.00     0.029 A 
ATOM     72  C   UNL A   1      44.826  33.108  30.649  1.00  0.00     0.049 A 
ATOM     73  H   UNL A   1      44.115  31.370  29.684  1.00  0.00     0.167 HD
ATOM     74  C   UNL A   1      42.371  33.174  31.023  1.00  0.00     0.074 A 
ATOM     75  C   UNL A   1      41.172  33.774  31.566  1.00  0.00     0.031 C 
ATOM     76  C   UNL A   1      43.616  33.697  31.174  1.00  0.00     0.034 A 
BRANCH  63  77
ATOM     77  C   UNL A   1      48.109  30.334  28.542  1.00  0.00     0.023 A 
ATOM     78  C   UNL A   1      48.926  29.579  29.403  1.00  0.00     0.031 A 
ATOM     79  C   UNL A   1      48.710  30.931  27.419  1.00  0.00     0.131 A 
ATOM     80  C   UNL A   1      50.304  29.489  29.157  1.00  0.00     0.055 A 
ATOM     81  C   UNL A   1      50.067  30.771  27.137  1.00  0.00     0.041 A 
ATOM     82  F   UNL A   1      47.986  31.689  26.580  1.00  0.00    -0.206 F 
ATOM     83  C   UNL A   1      50.875  30.055  28.015  1.00  0.00     0.022 A 
BRANCH  80  84
ATOM     84  S   UNL A   1      51.363  28.729  30.417  1.00  0.00     0.124 S 
ATOM     85  O   UNL A   1      50.804  29.285  31.647  1.00  0.00    -0.237 OA
ATOM     86  O   UNL A   1      51.139  27.304  30.201  1.00  0.00    -0.237 OA
ATOM     87  O   UNL A   1      52.701  29.208  30.077  1.00  0.00    -0.744 OA
ENDBRANCH  80  84
ENDBRANCH  63  77
BRANCH  64  88
ATOM     88  C   UNL A   1      38.239  31.029  30.260  1.00  0.00     0.023 A 
ATOM     89  C   UNL A   1      37.315  31.530  29.328  1.00  0.00     0.031 A 
ATOM     90  C   UNL A   1      37.761  30.702  31.542  1.00  0.00     0.131 A 
ATOM     91  C   UNL A   1      35.983  31.751  29.709  1.00  0.00     0.055 A 
ATOM     92  C   UNL A   1      36.420  30.857  31.896  1.00  0.00     0.041 A 
ATOM     93  F   UNL A   1      38.601  30.232  32.480  1.00  0.00    -0.206 F 
ATOM     94  C   UNL A   1      35.524  31.403  30.981  1.00  0.00     0.022 A 
BRANCH  91  95
ATOM     95  S   UNL A   1      34.885  32.624  28.557  1.00  0.00     0.124 S 
ATOM     96  O   UNL A   1      34.013  31.545  28.105  1.00  0.00    -0.237 OA
ATOM     97  O   UNL A   1      34.271  33.625  29.422  1.00  0.00    -0.237 OA
ATOM     98  O   UNL A   1      35.801  33.150  27.547  1.00  0.00    -0.744 OA
ENDBRANCH  91  95
ENDBRANCH  64  88
BRANCH  76  99
ATOM     99  C   UNL A   1      43.735  35.023  31.889  1.00  0.00     0.023 A 
ATOM    100  C   UNL A   1      43.868  36.238  31.197  1.00  0.00     0.031 A 
ATOM    101  C   UNL A   1      43.698  35.064  33.296  1.00  0.00     0.131 A 
ATOM    102  C   UNL A   1      44.013  37.437  31.912  1.00  0.00     0.055 A 
ATOM    103  C   UNL A   1      43.773  36.265  33.999  1.00  0.00     0.041 A 
ATOM    104  F   UNL A   1      43.574  33.933  34.009  1.00  0.00    -0.206 F 
ATOM    105  C   UNL A   1      43.945  37.461  33.308  1.00  0.00     0.022 A 
BRANCH 102 106
ATOM    106  S   UNL A   1      44.380  38.960  30.999  1.00  0.00     0.124 S 
ATOM    107  O   UNL A   1      43.399  38.911  29.920  1.00  0.00    -0.237 OA
ATOM    108  O   UNL A   1      44.167  39.991  32.009  1.00  0.00    -0.237 OA
ATOM    109  O   UNL A   1      45.770  38.782  30.581  1.00  0.00    -0.744 OA
ENDBRANCH 102 106
ENDBRANCH  76  99
ENDBRANCH  50  51
ENDBRANCH  43  45
ENDBRANCH  42  43
ENDBRANCH  41  42
ENDBRANCH  40  41
ENDBRANCH  39  40
ENDBRANCH  38  39
ENDBRANCH  37  38
ENDBRANCH  36  37
ENDBRANCH   1  36
TORSDOF 28
ENDMDL
MODEL 2
REMARK VINA RESULT:     -10.2      4.240      7.866
REMARK SMILES O=C(Cc1ccccc1)Nc1cccc(C(=O)Nc2ccccc2C(=O)OCCOCCOCCOCCOC(=O)c2ccc(-c3c4nc(c(-c5cc(S(=O)(=O)[O-])ccc5F)c5ccc([nH]5)c(-c5cc(S(=O)(=O)[O-])ccc5F)c5nc(c(-c6cc(S(=O)(=O)[O-])ccc6F)c6ccc3[nH]6)C=C5)C=C4)cc2)c1
REMARK SMILES IDX 32 1 31 2 30 3 29 4 28 5 27 6 25 7 26 8 24 9 19 10 20 11
REMARK SMILES IDX 21 12 23 13 22 14 18 15 16 16 17 17 15 19 11 20 12 21 105 22
REMARK SMILES IDX 13 23 14 24 10 25 1 26 2 27 3 29 4 30 5 31 9 32 6 33 8 34
REMARK SMILES IDX 7 35 33 36 34 37 35 38 36 39 37 40 38 41 39 42 40 43 41 44
REMARK SMILES IDX 42 45 43 46 104 47 44 48 103 49 45 50 46 51 47 52 97 53
REMARK SMILES IDX 48 54 102 55 96 56 98 57 49 58 101 59 95 60 94 61 50 63
REMARK SMILES IDX 82 64 62 65 81 66 63 67 66 68 80 69 99 70 64 71 65 72 79 74
REMARK SMILES IDX 100 75 67 76 51 77 52 78 60 79 53 80 59 81 61 82 58 83 54 84
REMARK SMILES IDX 55 85 56 86 57 87 83 88 84 89 92 90 85 91 91 92 93 93 90 94
REMARK SMILES IDX 86 95 87 96 88 97 89 98 68 99 69 100 77 101 70 102 76 103
REMARK SMILES IDX 78 104 75 105 71 106 72 107 73 108 74 109
REMARK H PARENT 18 18 10 28 98 62 66 73
REMARK Flexibility Score: inf
ROOT
ATOM      1  C   UNL A   1      38.102  21.828  25.730  1.00  0.00     0.188 C 
ENDROOT
BRANCH   1   2
ATOM      2  C   UNL A   1      37.127  21.329  24.642  1.00  0.00     0.188 C 
BRANCH   2   3
ATOM      3  O   UNL A   1      35.875  21.944  24.393  1.00  0.00    -0.376 OA
BRANCH   3   4
ATOM      4  C   UNL A   1      35.416  23.104  25.062  1.00  0.00     0.202 C 
BRANCH   4   5
ATOM      5  C   UNL A   1      35.100  24.435  24.385  1.00  0.00     0.261 C 
BRANCH   5   6
ATOM      6  O   UNL A   1      34.557  25.478  25.190  1.00  0.00    -0.460 OA
BRANCH   6   7
ATOM      7  C   UNL A   1      33.809  26.371  24.517  1.00  0.00     0.340 C 
ATOM      8  O   UNL A   1      33.532  26.309  23.323  1.00  0.00    -0.246 OA
BRANCH   7   9
ATOM      9  C   UNL A   1      33.197  27.388  25.412  1.00  0.00     0.083 A 
ATOM     10  C   UNL A   1      31.866  27.851  25.421  1.00  0.00     0.056 A 
ATOM     11  C   UNL A   1      31.551  28.895  26.316  1.00  0.00     0.027 A 
ATOM     12  C   UNL A   1      32.487  29.416  27.216  1.00  0.00     0.002 A 
ATOM     13  C   UNL A   1      34.142  27.954  26.304  1.00  0.00     0.018 A 
ATOM     14  C   UNL A   1      33.789  28.947  27.209  1.00  0.00     0.001 A 
BRANCH  10  15
ATOM     15  N   UNL A   1      30.748  27.403  24.671  1.00  0.00    -0.321 N 
ATOM     16  C   UNL A   1      30.085  26.199  24.539  1.00  0.00     0.255 C 
ATOM     17  O   UNL A   1      29.234  26.073  23.659  1.00  0.00    -0.269 OA
ATOM     18  H   UNL A   1      30.356  28.115  24.115  1.00  0.00     0.170 HD
BRANCH  16  19
ATOM     19  C   UNL A   1      30.319  25.071  25.464  1.00  0.00     0.042 A 
ATOM     20  C   UNL A   1      31.032  22.812  25.635  1.00  0.00     0.041 A 
ATOM     21  C   UNL A   1      30.100  22.601  26.662  1.00  0.00     0.026 A 
ATOM     22  C   UNL A   1      31.258  24.090  25.152  1.00  0.00     0.040 A 
ATOM     23  C   UNL A   1      29.357  23.666  27.171  1.00  0.00     0.003 A 
ATOM     24  C   UNL A   1      29.438  24.903  26.540  1.00  0.00     0.014 A 
BRANCH  20  25
ATOM     25  N   UNL A   1      31.441  21.686  24.904  1.00  0.00    -0.326 N 
ATOM     26  O   UNL A   1      33.242  20.847  26.118  1.00  0.00    -0.274 OA
ATOM     27  C   UNL A   1      32.525  20.855  25.121  1.00  0.00     0.228 C 
ATOM     28  H   UNL A   1      30.879  21.456  24.129  1.00  0.00     0.169 HD
BRANCH  27  29
ATOM     29  C   UNL A   1      32.788  19.922  23.946  1.00  0.00     0.135 C 
BRANCH  29  30
ATOM     30  C   UNL A   1      33.030  18.470  24.307  1.00  0.00    -0.039 A 
ATOM     31  C   UNL A   1      32.467  17.859  25.439  1.00  0.00     0.004 A 
ATOM     32  C   UNL A   1      33.787  17.671  23.439  1.00  0.00     0.004 A 
ATOM     33  C   UNL A   1      32.670  16.509  25.713  1.00  0.00     0.000 A 
ATOM     34  C   UNL A   1      34.000  16.320  23.718  1.00  0.00     0.000 A 
ATOM     35  C   UNL A   1      33.442  15.740  24.855  1.00  0.00     0.000 A 
ENDBRANCH  29  30
ENDBRANCH  27  29
ENDBRANCH  20  25
ENDBRANCH  16  19
ENDBRANCH  10  15
ENDBRANCH   7   9
ENDBRANCH   6   7
ENDBRANCH   5   6
ENDBRANCH   4   5
ENDBRANCH   3   4
ENDBRANCH   2   3
ENDBRANCH   1   2
BRANCH   1  36
ATOM     36  O   UNL A   1      39.329  21.143  25.842  1.00  0.00    -0.377 OA
BRANCH  36  37
ATOM     37  C   UNL A   1      40.373  21.705  26.625  1.00  0.00     0.188 C 
BRANCH  37  38
ATOM     38  C   UNL A   1      41.191  20.832  27.605  1.00  0.00     0.188 C 
BRANCH  38  39
ATOM     39  O   UNL A   1      42.386  20.292  27.069  1.00  0.00    -0.376 OA
BRANCH  39  40
ATOM     40  C   UNL A   1      42.835  20.729  25.800  1.00  0.00     0.202 C 
BRANCH  40  41
ATOM     41  C   UNL A   1      44.034  21.686  25.747  1.00  0.00     0.261 C 
BRANCH  41  42
ATOM     42  O   UNL A   1      43.935  22.881  26.530  1.00  0.00    -0.460 OA
BRANCH  42  43
ATOM     43  C   UNL A   1      43.420  23.976  25.931  1.00  0.00     0.338 C 
ATOM     44  O   UNL A   1      43.098  24.084  24.759  1.00  0.00    -0.246 OA
BRANCH  43  45
ATOM     45  C   UNL A   1      43.129  24.963  26.991  1.00  0.00     0.060 A 
ATOM     46  C   UNL A   1      43.926  26.112  27.100  1.00  0.00     0.016 A 
ATOM     47  C   UNL A   1      42.061  24.753  27.864  1.00  0.00     0.016 A 
ATOM     48  C   UNL A   1      43.681  27.035  28.115  1.00  0.00     0.010 A 
ATOM     49  C   UNL A   1      41.835  25.663  28.899  1.00  0.00     0.010 A 
ATOM     50  C   UNL A   1      42.672  26.782  29.053  1.00  0.00    -0.014 A 
BRANCH  50  51
ATOM     51  C   UNL A   1      42.661  27.522  30.338  1.00  0.00     0.031 A 
ATOM     52  C   UNL A   1      41.759  28.724  30.434  1.00  0.00     0.074 A 
ATOM     53  C   UNL A   1      43.417  27.144  31.384  1.00  0.00     0.049 A 
ATOM     54  N   UNL A   1      41.648  29.608  31.389  1.00  0.00    -0.248 NA
ATOM     55  C   UNL A   1      40.867  28.961  29.287  1.00  0.00     0.031 C 
ATOM     56  C   UNL A   1      44.275  25.961  31.425  1.00  0.00     0.029 A 
ATOM     57  N   UNL A   1      43.592  27.731  32.612  1.00  0.00    -0.354 N 
ATOM     58  C   UNL A   1      40.689  30.514  30.951  1.00  0.00     0.074 A 
ATOM     59  C   UNL A   1      40.269  30.088  29.635  1.00  0.00     0.031 C 
ATOM     60  C   UNL A   1      44.902  25.922  32.614  1.00  0.00     0.029 A 
ATOM     61  C   UNL A   1      44.530  27.100  33.397  1.00  0.00     0.049 A 
ATOM     62  H   UNL A   1      43.094  28.528  32.903  1.00  0.00     0.167 HD
ATOM     63  C   UNL A   1      40.201  31.602  31.593  1.00  0.00     0.034 A 
ATOM     64  C   UNL A   1      45.051  27.461  34.588  1.00  0.00     0.034 A 
ATOM     65  C   UNL A   1      40.641  32.016  32.901  1.00  0.00     0.049 A 
ATOM     66  C   UNL A   1      44.564  28.737  35.242  1.00  0.00     0.074 A 
ATOM     67  C   UNL A   1      40.212  33.096  33.650  1.00  0.00     0.029 A 
ATOM     68  N   UNL A   1      41.618  31.374  33.650  1.00  0.00    -0.354 N 
ATOM     69  N   UNL A   1      43.657  29.591  34.819  1.00  0.00    -0.248 NA
ATOM     70  C   UNL A   1      45.165  29.096  36.533  1.00  0.00     0.031 C 
ATOM     71  C   UNL A   1      40.987  33.156  34.812  1.00  0.00     0.029 A 
ATOM     72  C   UNL A   1      41.830  32.057  34.836  1.00  0.00     0.049 A 
ATOM     73  H   UNL A   1      42.091  30.554  33.377  1.00  0.00     0.167 HD
ATOM     74  C   UNL A   1      43.550  30.558  35.818  1.00  0.00     0.074 A 
ATOM     75  C   UNL A   1      44.477  30.180  36.862  1.00  0.00     0.031 C 
ATOM     76  C   UNL A   1      42.754  31.658  35.872  1.00  0.00     0.034 A 
BRANCH  63  77
ATOM     77  C   UNL A   1      39.190  32.450  30.862  1.00  0.00     0.023 A 
ATOM     78  C   UNL A   1      37.806  32.248  31.004  1.00  0.00     0.031 A 
ATOM     79  C   UNL A   1      39.622  33.473  29.999  1.00  0.00     0.131 A 
ATOM     80  C   UNL A   1      36.907  33.018  30.252  1.00  0.00     0.055 A 
ATOM     81  C   UNL A   1      38.721  34.288  29.314  1.00  0.00     0.041 A 
ATOM     82  F   UNL A   1      40.932  33.690  29.800  1.00  0.00    -0.206 F 
ATOM     83  C   UNL A   1      37.353  34.056  29.430  1.00  0.00     0.022 A 
BRANCH  80  84
ATOM     84  S   UNL A   1      35.151  32.564  30.263  1.00  0.00     0.124 S 
ATOM     85  O   UNL A   1      34.515  33.838  29.940  1.00  0.00    -0.237 OA
ATOM     86  O   UNL A   1      35.083  31.536  29.230  1.00  0.00    -0.237 OA
ATOM     87  O   UNL A   1      34.927  32.092  31.628  1.00  0.00    -0.744 OA
ENDBRANCH  80  84
ENDBRANCH  63  77
BRANCH  64  88
ATOM     88  C   UNL A   1      46.132  26.652  35.229  1.00  0.00     0.023 A 
ATOM     89  C   UNL A   1      47.479  26.825  34.871  1.00  0.00     0.031 A 
ATOM     90  C   UNL A   1      45.824  25.628  36.143  1.00  0.00     0.131 A 
ATOM     91  C   UNL A   1      48.456  25.950  35.370  1.00  0.00     0.055 A 
ATOM     92  C   UNL A   1      46.809  24.805  36.691  1.00  0.00     0.041 A 
ATOM     93  F   UNL A   1      44.552  25.406  36.511  1.00  0.00    -0.206 F 
ATOM     94  C   UNL A   1      48.133  24.951  36.291  1.00  0.00     0.022 A 
BRANCH  91  95
ATOM     95  S   UNL A   1      50.138  26.054  34.697  1.00  0.00     0.124 S 
ATOM     96  O   UNL A   1      50.469  24.646  34.510  1.00  0.00    -0.237 OA
ATOM     97  O   UNL A   1      49.930  26.831  33.480  1.00  0.00    -0.237 OA
ATOM     98  O   UNL A   1      50.885  26.736  35.751  1.00  0.00    -0.744 OA
ENDBRANCH  91  95
ENDBRANCH  64  88
BRANCH  76  99
ATOM     99  C   UNL A   1      42.792  32.486  37.135  1.00  0.00     0.023 A 
ATOM    100  C   UNL A   1      42.013  32.172  38.261  1.00  0.00     0.031 A 
ATOM    101  C   UNL A   1      43.642  33.606  37.210  1.00  0.00     0.131 A 
ATOM    102  C   UNL A   1      42.060  32.998  39.395  1.00  0.00     0.055 A 
ATOM    103  C   UNL A   1      43.735  34.383  38.364  1.00  0.00     0.041 A 
ATOM    104  F   UNL A   1      44.407  33.954  36.164  1.00  0.00    -0.206 F 
ATOM    105  C   UNL A   1      42.931  34.089  39.461  1.00  0.00     0.022 A 
BRANCH 102 106
ATOM    106  S   UNL A   1      40.901  32.682  40.754  1.00  0.00     0.124 S 
ATOM    107  O   UNL A   1      41.045  33.888  41.562  1.00  0.00    -0.237 OA
ATOM    108  O   UNL A   1      39.630  32.533  40.053  1.00  0.00    -0.237 OA
ATOM    109  O   UNL A   1      41.416  31.459  41.366  1.00  0.00    -0.744 OA
ENDBRANCH 102 106
ENDBRANCH  76  99
ENDBRANCH  50  51
ENDBRANCH  43  45
ENDBRANCH  42  43
ENDBRANCH  41  42
ENDBRANCH  40  41
ENDBRANCH  39  40
ENDBRANCH  38  39
ENDBRANCH  37  38
ENDBRANCH  36  37
ENDBRANCH   1  36
TORSDOF 28
ENDMDL
MODEL 3
REMARK VINA RESULT:      -9.9      4.464      9.889
REMARK SMILES O=C(Cc1ccccc1)Nc1cccc(C(=O)Nc2ccccc2C(=O)OCCOCCOCCOCCOC(=O)c2ccc(-c3c4nc(c(-c5cc(S(=O)(=O)[O-])ccc5F)c5ccc([nH]5)c(-c5cc(S(=O)(=O)[O-])ccc5F)c5nc(c(-c6cc(S(=O)(=O)[O-])ccc6F)c6ccc3[nH]6)C=C5)C=C4)cc2)c1
REMARK SMILES IDX 32 1 31 2 30 3 29 4 28 5 27 6 25 7 26 8 24 9 19 10 20 11
REMARK SMILES IDX 21 12 23 13 22 14 18 15 16 16 17 17 15 19 11 20 12 21 105 22
REMARK SMILES IDX 13 23 14 24 10 25 1 26 2 27 3 29 4 30 5 31 9 32 6 33 8 34
REMARK SMILES IDX 7 35 33 36 34 37 35 38 36 39 37 40 38 41 39 42 40 43 41 44
REMARK SMILES IDX 42 45 43 46 104 47 44 48 103 49 45 50 46 51 47 52 97 53
REMARK SMILES IDX 48 54 102 55 96 56 98 57 49 58 101 59 95 60 94 61 50 63
REMARK SMILES IDX 82 64 62 65 81 66 63 67 66 68 80 69 99 70 64 71 65 72 79 74
REMARK SMILES IDX 100 75 67 76 51 77 52 78 60 79 53 80 59 81 61 82 58 83 54 84
REMARK SMILES IDX 55 85 56 86 57 87 83 88 84 89 92 90 85 91 91 92 93 93 90 94
REMARK SMILES IDX 86 95 87 96 88 97 89 98 68 99 69 100 77 101 70 102 76 103
REMARK SMILES IDX 78 104 75 105 71 106 72 107 73 108 74 109
REMARK H PARENT 18 18 10 28 98 62 66 73
REMARK Flexibility Score: inf
ROOT
ATOM      1  C   UNL A   1      34.793  24.350  25.508  1.00  0.00     0.188 C 
ENDROOT
BRANCH   1   2
ATOM      2  C   UNL A   1      35.633  23.123  25.092  1.00  0.00     0.188 C 
BRANCH   2   3
ATOM      3  O   UNL A   1      37.049  23.138  25.057  1.00  0.00    -0.376 OA
BRANCH   3   4
ATOM      4  C   UNL A   1      37.872  22.788  26.154  1.00  0.00     0.202 C 
BRANCH   4   5
ATOM      5  C   UNL A   1      39.398  22.738  26.121  1.00  0.00     0.261 C 
BRANCH   5   6
ATOM      6  O   UNL A   1      40.019  21.462  25.999  1.00  0.00    -0.460 OA
BRANCH   6   7
ATOM      7  C   UNL A   1      40.894  21.170  26.978  1.00  0.00     0.340 C 
ATOM      8  O   UNL A   1      40.713  21.373  28.176  1.00  0.00    -0.246 OA
BRANCH   7   9
ATOM      9  C   UNL A   1      42.070  20.411  26.481  1.00  0.00     0.083 A 
ATOM     10  C   UNL A   1      43.082  20.848  25.604  1.00  0.00     0.056 A 
ATOM     11  C   UNL A   1      44.051  19.902  25.209  1.00  0.00     0.027 A 
ATOM     12  C   UNL A   1      44.067  18.595  25.711  1.00  0.00     0.002 A 
ATOM     13  C   UNL A   1      42.081  19.073  26.951  1.00  0.00     0.018 A 
ATOM     14  C   UNL A   1      43.077  18.177  26.583  1.00  0.00     0.001 A 
BRANCH  10  15
ATOM     15  N   UNL A   1      43.307  22.138  25.056  1.00  0.00    -0.321 N 
ATOM     16  C   UNL A   1      43.253  23.426  25.549  1.00  0.00     0.255 C 
ATOM     17  O   UNL A   1      43.335  24.374  24.769  1.00  0.00    -0.269 OA
ATOM     18  H   UNL A   1      43.560  22.107  24.105  1.00  0.00     0.170 HD
BRANCH  16  19
ATOM     19  C   UNL A   1      43.161  23.708  26.997  1.00  0.00     0.042 A 
ATOM     20  C   UNL A   1      42.619  25.344  28.630  1.00  0.00     0.041 A 
ATOM     21  C   UNL A   1      43.633  24.844  29.460  1.00  0.00     0.026 A 
ATOM     22  C   UNL A   1      42.273  24.670  27.471  1.00  0.00     0.040 A 
ATOM     23  C   UNL A   1      44.334  23.693  29.104  1.00  0.00     0.003 A 
ATOM     24  C   UNL A   1      44.125  23.144  27.843  1.00  0.00     0.014 A 
BRANCH  20  25
ATOM     25  N   UNL A   1      42.237  26.681  28.822  1.00  0.00    -0.326 N 
ATOM     26  O   UNL A   1      44.171  27.893  28.366  1.00  0.00    -0.274 OA
ATOM     27  C   UNL A   1      43.014  27.824  28.770  1.00  0.00     0.228 C 
ATOM     28  H   UNL A   1      41.284  26.826  29.021  1.00  0.00     0.169 HD
BRANCH  27  29
ATOM     29  C   UNL A   1      42.288  29.047  29.314  1.00  0.00     0.135 C 
BRANCH  29  30
ATOM     30  C   UNL A   1      40.791  28.889  29.498  1.00  0.00    -0.039 A 
ATOM     31  C   UNL A   1      39.867  29.094  28.461  1.00  0.00     0.004 A 
ATOM     32  C   UNL A   1      40.302  28.445  30.735  1.00  0.00     0.004 A 
ATOM     33  C   UNL A   1      38.504  28.890  28.653  1.00  0.00     0.000 A 
ATOM     34  C   UNL A   1      38.933  28.251  30.931  1.00  0.00     0.000 A 
ATOM     35  C   UNL A   1      38.035  28.475  29.890  1.00  0.00     0.000 A 
ENDBRANCH  29  30
ENDBRANCH  27  29
ENDBRANCH  20  25
ENDBRANCH  16  19
ENDBRANCH  10  15
ENDBRANCH   7   9
ENDBRANCH   6   7
ENDBRANCH   5   6
ENDBRANCH   4   5
ENDBRANCH   3   4
ENDBRANCH   2   3
ENDBRANCH   1   2
BRANCH   1  36
ATOM     36  O   UNL A   1      33.746  24.722  24.642  1.00  0.00    -0.377 OA
BRANCH  36  37
ATOM     37  C   UNL A   1      33.670  26.062  24.174  1.00  0.00     0.188 C 
BRANCH  37  38
ATOM     38  C   UNL A   1      33.057  27.178  25.051  1.00  0.00     0.188 C 
BRANCH  38  39
ATOM     39  O   UNL A   1      33.833  28.360  25.144  1.00  0.00    -0.376 OA
BRANCH  39  40
ATOM     40  C   UNL A   1      34.040  28.954  26.411  1.00  0.00     0.202 C 
BRANCH  40  41
ATOM     41  C   UNL A   1      33.526  30.384  26.632  1.00  0.00     0.261 C 
BRANCH  41  42
ATOM     42  O   UNL A   1      33.649  30.911  27.958  1.00  0.00    -0.460 OA
BRANCH  42  43
ATOM     43  C   UNL A   1      33.643  32.255  28.096  1.00  0.00     0.338 C 
ATOM     44  O   UNL A   1      32.870  33.039  27.572  1.00  0.00    -0.246 OA
BRANCH  43  45
ATOM     45  C   UNL A   1      34.616  32.593  29.154  1.00  0.00     0.060 A 
ATOM     46  C   UNL A   1      34.594  33.872  29.727  1.00  0.00     0.016 A 
ATOM     47  C   UNL A   1      35.539  31.638  29.583  1.00  0.00     0.016 A 
ATOM     48  C   UNL A   1      35.527  34.214  30.704  1.00  0.00     0.010 A 
ATOM     49  C   UNL A   1      36.492  31.990  30.540  1.00  0.00     0.010 A 
ATOM     50  C   UNL A   1      36.516  33.292  31.071  1.00  0.00    -0.014 A 
BRANCH  50  51
ATOM     51  C   UNL A   1      37.727  33.760  31.787  1.00  0.00     0.031 A 
ATOM     52  C   UNL A   1      38.907  34.173  30.948  1.00  0.00     0.074 A 
ATOM     53  C   UNL A   1      37.782  33.822  33.129  1.00  0.00     0.049 A 
ATOM     54  N   UNL A   1      40.116  34.503  31.316  1.00  0.00    -0.248 NA
ATOM     55  C   UNL A   1      38.689  34.207  29.492  1.00  0.00     0.031 C 
ATOM     56  C   UNL A   1      36.679  33.511  34.037  1.00  0.00     0.029 A 
ATOM     57  N   UNL A   1      38.821  34.157  33.960  1.00  0.00    -0.354 N 
ATOM     58  C   UNL A   1      40.807  34.768  30.138  1.00  0.00     0.074 A 
ATOM     59  C   UNL A   1      39.891  34.534  29.044  1.00  0.00     0.031 C 
ATOM     60  C   UNL A   1      37.109  33.650  35.304  1.00  0.00     0.029 A 
ATOM     61  C   UNL A   1      38.527  34.011  35.298  1.00  0.00     0.049 A 
ATOM     62  H   UNL A   1      39.693  34.471  33.633  1.00  0.00     0.167 HD
ATOM     63  C   UNL A   1      42.090  35.173  29.986  1.00  0.00     0.034 A 
ATOM     64  C   UNL A   1      39.325  34.117  36.380  1.00  0.00     0.034 A 
ATOM     65  C   UNL A   1      42.990  35.390  31.089  1.00  0.00     0.049 A 
ATOM     66  C   UNL A   1      40.784  34.473  36.179  1.00  0.00     0.074 A 
ATOM     67  C   UNL A   1      44.308  35.807  31.054  1.00  0.00     0.029 A 
ATOM     68  N   UNL A   1      42.669  35.197  32.426  1.00  0.00    -0.354 N 
ATOM     69  N   UNL A   1      41.430  34.719  35.061  1.00  0.00    -0.248 NA
ATOM     70  C   UNL A   1      41.618  34.569  37.384  1.00  0.00     0.031 C 
ATOM     71  C   UNL A   1      44.808  35.785  32.359  1.00  0.00     0.029 A 
ATOM     72  C   UNL A   1      43.774  35.452  33.221  1.00  0.00     0.049 A 
ATOM     73  H   UNL A   1      41.784  34.919  32.760  1.00  0.00     0.167 HD
ATOM     74  C   UNL A   1      42.733  35.044  35.438  1.00  0.00     0.074 A 
ATOM     75  C   UNL A   1      42.777  34.969  36.882  1.00  0.00     0.031 C 
ATOM     76  C   UNL A   1      43.796  35.381  34.663  1.00  0.00     0.034 A 
BRANCH  63  77
ATOM     77  C   UNL A   1      42.608  35.341  28.579  1.00  0.00     0.023 A 
ATOM     78  C   UNL A   1      43.305  34.317  27.914  1.00  0.00     0.031 A 
ATOM     79  C   UNL A   1      42.408  36.554  27.896  1.00  0.00     0.131 A 
ATOM     80  C   UNL A   1      43.826  34.545  26.632  1.00  0.00     0.055 A 
ATOM     81  C   UNL A   1      42.859  36.746  26.589  1.00  0.00     0.041 A 
ATOM     82  F   UNL A   1      41.777  37.578  28.492  1.00  0.00    -0.206 F 
ATOM     83  C   UNL A   1      43.583  35.742  25.953  1.00  0.00     0.022 A 
BRANCH  80  84
ATOM     84  S   UNL A   1      44.933  33.304  25.910  1.00  0.00     0.124 S 
ATOM     85  O   UNL A   1      45.960  33.189  26.942  1.00  0.00    -0.237 OA
ATOM     86  O   UNL A   1      44.056  32.150  25.752  1.00  0.00    -0.237 OA
ATOM     87  O   UNL A   1      45.379  33.924  24.664  1.00  0.00    -0.744 OA
ENDBRANCH  80  84
ENDBRANCH  63  77
BRANCH  64  88
ATOM     88  C   UNL A   1      38.801  33.835  37.750  1.00  0.00     0.023 A 
ATOM     89  C   UNL A   1      38.253  32.583  38.075  1.00  0.00     0.031 A 
ATOM     90  C   UNL A   1      38.755  34.843  38.730  1.00  0.00     0.131 A 
ATOM     91  C   UNL A   1      37.628  32.391  39.317  1.00  0.00     0.055 A 
ATOM     92  C   UNL A   1      38.194  34.627  39.990  1.00  0.00     0.041 A 
ATOM     93  F   UNL A   1      39.250  36.065  38.471  1.00  0.00    -0.206 F 
ATOM     94  C   UNL A   1      37.609  33.399  40.283  1.00  0.00     0.022 A 
BRANCH  91  95
ATOM     95  S   UNL A   1      36.723  30.844  39.601  1.00  0.00     0.124 S 
ATOM     96  O   UNL A   1      37.059  30.081  38.406  1.00  0.00    -0.237 OA
ATOM     97  O   UNL A   1      37.311  30.374  40.850  1.00  0.00    -0.237 OA
ATOM     98  O   UNL A   1      35.330  31.277  39.694  1.00  0.00    -0.744 OA
ENDBRANCH  91  95
ENDBRANCH  64  88
BRANCH  76  99
ATOM     99  C   UNL A   1      45.076  35.772  35.365  1.00  0.00     0.023 A 
ATOM    100  C   UNL A   1      46.092  34.842  35.644  1.00  0.00     0.031 A 
ATOM    101  C   UNL A   1      45.282  37.111  35.748  1.00  0.00     0.131 A 
ATOM    102  C   UNL A   1      47.244  35.252  36.333  1.00  0.00     0.055 A 
ATOM    103  C   UNL A   1      46.459  37.526  36.370  1.00  0.00     0.041 A 
ATOM    104  F   UNL A   1      44.345  38.042  35.509  1.00  0.00    -0.206 F 
ATOM    105  C   UNL A   1      47.443  36.592  36.678  1.00  0.00     0.022 A 
BRANCH 102 106
ATOM    106  S   UNL A   1      48.445  33.996  36.851  1.00  0.00     0.124 S 
ATOM    107  O   UNL A   1      49.564  34.258  35.954  1.00  0.00    -0.237 OA
ATOM    108  O   UNL A   1      48.661  34.330  38.255  1.00  0.00    -0.237 OA
ATOM    109  O   UNL A   1      47.744  32.735  36.617  1.00  0.00    -0.744 OA
ENDBRANCH 102 106
ENDBRANCH  76  99
ENDBRANCH  50  51
ENDBRANCH  43  45
ENDBRANCH  42  43
ENDBRANCH  41  42
ENDBRANCH  40  41
ENDBRANCH  39  40
ENDBRANCH  38  39
ENDBRANCH  37  38
ENDBRANCH  36  37
ENDBRANCH   1  36
TORSDOF 28
ENDMDL
