MODEL 1
REMARK VINA RESULT:      -9.5      0.000      0.000
REMARK SMILES Cn1cc(S(=O)(=O)NC[C@H]2CC[C@@H](C(=O)OCCOCCOCCOCCOC(=O)c3ccc(-c4c5nc(c(-c6cc(S(=O)(=O)[O-])ccc6F)c6ccc([nH]6)c(-c6cc(S(=O)(=O)[O-])ccc6F)c6nc(c(-c7cc(S(=O)(=O)[O-])ccc7F)c7ccc4[nH]7)C=C6)C=C5)cc3)CC2)cn1
REMARK SMILES IDX 21 1 20 2 19 3 18 4 17 5 16 6 14 7 15 8 13 9 10 10 11 11
REMARK SMILES IDX 95 12 12 13 94 14 9 15 8 16 5 18 6 19 7 20 4 21 1 22 2 23
REMARK SMILES IDX 3 24 97 25 96 26 22 27 23 28 24 29 25 30 26 31 27 32 28 33
REMARK SMILES IDX 29 34 30 35 31 36 32 37 93 38 33 39 92 40 34 41 35 42 36 43
REMARK SMILES IDX 86 44 37 45 91 46 85 47 87 48 38 49 90 50 84 51 83 52 39 54
REMARK SMILES IDX 71 55 51 56 70 57 52 58 55 59 69 60 88 61 53 62 54 63 68 65
REMARK SMILES IDX 89 66 56 67 40 68 41 69 49 70 42 71 48 72 50 73 47 74 43 75
REMARK SMILES IDX 44 76 45 77 46 78 72 79 73 80 81 81 74 82 80 83 82 84 79 85
REMARK SMILES IDX 75 86 76 87 77 88 78 89 57 90 58 91 66 92 59 93 65 94 67 95
REMARK SMILES IDX 64 96 60 97 61 98 62 99 63 100
REMARK H PARENT 8 17 87 53 55 64
REMARK Flexibility Score: inf
ROOT
ATOM      1  C   UNL A   1      34.864  23.808  24.632  1.00  0.00     0.188 C 
ENDROOT
BRANCH   1   2
ATOM      2  C   UNL A   1      34.907  23.430  23.147  1.00  0.00     0.188 C 
BRANCH   2   3
ATOM      3  O   UNL A   1      34.000  24.170  22.346  1.00  0.00    -0.376 OA
BRANCH   3   4
ATOM      4  C   UNL A   1      33.014  24.886  23.072  1.00  0.00     0.202 C 
BRANCH   4   5
ATOM      5  C   UNL A   1      32.630  26.268  22.533  1.00  0.00     0.261 C 
BRANCH   5   6
ATOM      6  O   UNL A   1      32.502  27.337  23.489  1.00  0.00    -0.463 OA
BRANCH   6   7
ATOM      7  C   UNL A   1      31.654  27.179  24.527  1.00  0.00     0.309 C 
ATOM      8  O   UNL A   1      30.453  27.417  24.477  1.00  0.00    -0.252 OA
BRANCH   7   9
ATOM      9  C   UNL A   1      32.360  26.733  25.818  1.00  0.00     0.099 C 
ATOM     10  C   UNL A   1      33.139  29.229  27.275  1.00  0.00     0.004 C 
ATOM     11  C   UNL A   1      31.686  28.734  27.205  1.00  0.00     0.006 C 
ATOM     12  C   UNL A   1      34.063  28.613  26.218  1.00  0.00     0.006 C 
ATOM     13  C   UNL A   1      31.559  27.223  27.027  1.00  0.00     0.015 C 
ATOM     14  C   UNL A   1      33.830  27.117  26.033  1.00  0.00     0.015 C 
BRANCH  10  15
ATOM     15  C   UNL A   1      33.247  30.761  27.302  1.00  0.00     0.102 C 
BRANCH  15  16
ATOM     16  N   UNL A   1      34.067  31.319  28.381  1.00  0.00    -0.211 NA
ATOM     17  H   UNL A   1      33.510  31.215  29.229  1.00  0.00     0.141 HD
BRANCH  16  18
ATOM     18  S   UNL A   1      34.656  32.887  28.421  1.00  0.00     0.243 S 
ATOM     19  O   UNL A   1      33.636  33.747  27.870  1.00  0.00    -0.207 OA
ATOM     20  O   UNL A   1      35.987  32.859  27.861  1.00  0.00    -0.207 OA
BRANCH  18  21
ATOM     21  C   UNL A   1      34.860  33.444  30.018  1.00  0.00     0.120 A 
ATOM     22  C   UNL A   1      34.621  35.623  32.854  1.00  0.00     0.173 C 
ATOM     23  N   UNL A   1      34.836  34.597  31.864  1.00  0.00    -0.274 N 
ATOM     24  C   UNL A   1      34.276  34.534  30.623  1.00  0.00     0.130 A 
ATOM     25  N   UNL A   1      35.716  33.606  32.114  1.00  0.00    -0.180 NA
ATOM     26  C   UNL A   1      35.703  32.883  30.988  1.00  0.00     0.156 A 
ENDBRANCH  18  21
ENDBRANCH  16  18
ENDBRANCH  15  16
ENDBRANCH  10  15
ENDBRANCH   7   9
ENDBRANCH   6   7
ENDBRANCH   5   6
ENDBRANCH   4   5
ENDBRANCH   3   4
ENDBRANCH   2   3
ENDBRANCH   1   2
BRANCH   1  27
ATOM     27  O   UNL A   1      35.250  22.841  25.599  1.00  0.00    -0.377 OA
BRANCH  27  28
ATOM     28  C   UNL A   1      35.670  21.548  25.159  1.00  0.00     0.188 C 
BRANCH  28  29
ATOM     29  C   UNL A   1      37.169  21.251  24.945  1.00  0.00     0.188 C 
BRANCH  29  30
ATOM     30  O   UNL A   1      37.488  19.879  24.750  1.00  0.00    -0.376 OA
BRANCH  30  31
ATOM     31  C   UNL A   1      38.669  19.405  25.385  1.00  0.00     0.202 C 
BRANCH  31  32
ATOM     32  C   UNL A   1      39.527  20.486  26.056  1.00  0.00     0.261 C 
BRANCH  32  33
ATOM     33  O   UNL A   1      40.646  19.989  26.808  1.00  0.00    -0.460 OA
BRANCH  33  34
ATOM     34  C   UNL A   1      41.830  19.921  26.161  1.00  0.00     0.338 C 
ATOM     35  O   UNL A   1      42.211  19.041  25.413  1.00  0.00    -0.246 OA
BRANCH  34  36
ATOM     36  C   UNL A   1      42.545  21.187  26.392  1.00  0.00     0.060 A 
ATOM     37  C   UNL A   1      42.835  21.568  27.707  1.00  0.00     0.016 A 
ATOM     38  C   UNL A   1      42.875  22.012  25.314  1.00  0.00     0.016 A 
ATOM     39  C   UNL A   1      43.409  22.813  27.952  1.00  0.00     0.010 A 
ATOM     40  C   UNL A   1      43.435  23.266  25.563  1.00  0.00     0.010 A 
ATOM     41  C   UNL A   1      43.662  23.687  26.885  1.00  0.00    -0.014 A 
BRANCH  41  42
ATOM     42  C   UNL A   1      43.938  25.116  27.166  1.00  0.00     0.031 A 
ATOM     43  C   UNL A   1      45.332  25.628  26.917  1.00  0.00     0.074 A 
ATOM     44  C   UNL A   1      42.974  25.941  27.607  1.00  0.00     0.049 A 
ATOM     45  N   UNL A   1      45.825  26.825  27.096  1.00  0.00    -0.248 NA
ATOM     46  C   UNL A   1      46.301  24.647  26.401  1.00  0.00     0.031 C 
ATOM     47  C   UNL A   1      41.583  25.562  27.851  1.00  0.00     0.029 A 
ATOM     48  N   UNL A   1      43.024  27.272  27.933  1.00  0.00    -0.354 N 
ATOM     49  C   UNL A   1      47.158  26.745  26.708  1.00  0.00     0.074 A 
ATOM     50  C   UNL A   1      47.406  25.371  26.328  1.00  0.00     0.031 C 
ATOM     51  C   UNL A   1      40.912  26.638  28.300  1.00  0.00     0.029 A 
ATOM     52  C   UNL A   1      41.830  27.772  28.399  1.00  0.00     0.049 A 
ATOM     53  H   UNL A   1      43.837  27.819  27.841  1.00  0.00     0.167 HD
ATOM     54  C   UNL A   1      48.088  27.730  26.662  1.00  0.00     0.034 A 
ATOM     55  C   UNL A   1      41.526  29.000  28.867  1.00  0.00     0.034 A 
ATOM     56  C   UNL A   1      47.833  29.089  27.069  1.00  0.00     0.049 A 
ATOM     57  C   UNL A   1      42.599  30.064  28.879  1.00  0.00     0.074 A 
ATOM     58  C   UNL A   1      48.698  30.168  27.068  1.00  0.00     0.029 A 
ATOM     59  N   UNL A   1      46.621  29.551  27.567  1.00  0.00    -0.354 N 
ATOM     60  N   UNL A   1      43.853  29.982  28.493  1.00  0.00    -0.248 NA
ATOM     61  C   UNL A   1      42.211  31.390  29.377  1.00  0.00     0.031 C 
ATOM     62  C   UNL A   1      48.031  31.265  27.625  1.00  0.00     0.029 A 
ATOM     63  C   UNL A   1      46.724  30.893  27.904  1.00  0.00     0.049 A 
ATOM     64  H   UNL A   1      45.806  29.007  27.666  1.00  0.00     0.167 HD
ATOM     65  C   UNL A   1      44.390  31.255  28.673  1.00  0.00     0.074 A 
ATOM     66  C   UNL A   1      43.322  32.085  29.190  1.00  0.00     0.031 C 
ATOM     67  C   UNL A   1      45.650  31.701  28.428  1.00  0.00     0.034 A 
BRANCH  54  68
ATOM     68  C   UNL A   1      49.474  27.344  26.207  1.00  0.00     0.023 A 
ATOM     69  C   UNL A   1      50.492  27.030  27.127  1.00  0.00     0.031 A 
ATOM     70  C   UNL A   1      49.797  27.339  24.840  1.00  0.00     0.131 A 
ATOM     71  C   UNL A   1      51.800  26.798  26.671  1.00  0.00     0.055 A 
ATOM     72  C   UNL A   1      51.082  27.031  24.387  1.00  0.00     0.041 A 
ATOM     73  F   UNL A   1      48.874  27.656  23.919  1.00  0.00    -0.206 F 
ATOM     74  C   UNL A   1      52.096  26.773  25.306  1.00  0.00     0.022 A 
BRANCH  71  75
ATOM     75  S   UNL A   1      53.136  26.673  27.891  1.00  0.00     0.124 S 
ATOM     76  O   UNL A   1      53.707  28.016  27.842  1.00  0.00    -0.237 OA
ATOM     77  O   UNL A   1      52.417  26.329  29.112  1.00  0.00    -0.237 OA
ATOM     78  O   UNL A   1      53.994  25.620  27.354  1.00  0.00    -0.744 OA
ENDBRANCH  71  75
ENDBRANCH  54  68
BRANCH  55  79
ATOM     79  C   UNL A   1      40.163  29.291  29.395  1.00  0.00     0.023 A 
ATOM     80  C   UNL A   1      39.907  29.325  30.775  1.00  0.00     0.031 A 
ATOM     81  C   UNL A   1      39.079  29.479  28.518  1.00  0.00     0.131 A 
ATOM     82  C   UNL A   1      38.591  29.491  31.238  1.00  0.00     0.055 A 
ATOM     83  C   UNL A   1      37.782  29.698  28.985  1.00  0.00     0.041 A 
ATOM     84  F   UNL A   1      39.267  29.449  27.189  1.00  0.00    -0.206 F 
ATOM     85  C   UNL A   1      37.530  29.691  30.353  1.00  0.00     0.022 A 
BRANCH  82  86
ATOM     86  S   UNL A   1      38.271  29.348  33.019  1.00  0.00     0.124 S 
ATOM     87  O   UNL A   1      37.275  28.283  33.057  1.00  0.00    -0.237 OA
ATOM     88  O   UNL A   1      39.591  29.011  33.541  1.00  0.00    -0.237 OA
ATOM     89  O   UNL A   1      37.779  30.676  33.384  1.00  0.00    -0.744 OA
ENDBRANCH  82  86
ENDBRANCH  55  79
BRANCH  67  90
ATOM     90  C   UNL A   1      45.918  33.167  28.674  1.00  0.00     0.023 A 
ATOM     91  C   UNL A   1      46.418  33.635  29.902  1.00  0.00     0.031 A 
ATOM     92  C   UNL A   1      45.659  34.110  27.663  1.00  0.00     0.131 A 
ATOM     93  C   UNL A   1      46.589  35.013  30.107  1.00  0.00     0.055 A 
ATOM     94  C   UNL A   1      45.886  35.473  27.853  1.00  0.00     0.041 A 
ATOM     95  F   UNL A   1      45.183  33.718  26.470  1.00  0.00    -0.206 F 
ATOM     96  C   UNL A   1      46.341  35.933  29.085  1.00  0.00     0.022 A 
BRANCH  93  97
ATOM     97  S   UNL A   1      47.053  35.597  31.761  1.00  0.00     0.124 S 
ATOM     98  O   UNL A   1      45.931  36.465  32.104  1.00  0.00    -0.237 OA
ATOM     99  O   UNL A   1      47.150  34.351  32.515  1.00  0.00    -0.237 OA
ATOM    100  O   UNL A   1      48.324  36.284  31.537  1.00  0.00    -0.744 OA
ENDBRANCH  93  97
ENDBRANCH  67  90
ENDBRANCH  41  42
ENDBRANCH  34  36
ENDBRANCH  33  34
ENDBRANCH  32  33
ENDBRANCH  31  32
ENDBRANCH  30  31
ENDBRANCH  29  30
ENDBRANCH  28  29
ENDBRANCH  27  28
ENDBRANCH   1  27
TORSDOF 27
ENDMDL
MODEL 2
REMARK VINA RESULT:      -9.2      1.794      2.068
REMARK SMILES Cn1cc(S(=O)(=O)NC[C@H]2CC[C@@H](C(=O)OCCOCCOCCOCCOC(=O)c3ccc(-c4c5nc(c(-c6cc(S(=O)(=O)[O-])ccc6F)c6ccc([nH]6)c(-c6cc(S(=O)(=O)[O-])ccc6F)c6nc(c(-c7cc(S(=O)(=O)[O-])ccc7F)c7ccc4[nH]7)C=C6)C=C5)cc3)CC2)cn1
REMARK SMILES IDX 21 1 20 2 19 3 18 4 17 5 16 6 14 7 15 8 13 9 10 10 11 11
REMARK SMILES IDX 95 12 12 13 94 14 9 15 8 16 5 18 6 19 7 20 4 21 1 22 2 23
REMARK SMILES IDX 3 24 97 25 96 26 22 27 23 28 24 29 25 30 26 31 27 32 28 33
REMARK SMILES IDX 29 34 30 35 31 36 32 37 93 38 33 39 92 40 34 41 35 42 36 43
REMARK SMILES IDX 86 44 37 45 91 46 85 47 87 48 38 49 90 50 84 51 83 52 39 54
REMARK SMILES IDX 71 55 51 56 70 57 52 58 55 59 69 60 88 61 53 62 54 63 68 65
REMARK SMILES IDX 89 66 56 67 40 68 41 69 49 70 42 71 48 72 50 73 47 74 43 75
REMARK SMILES IDX 44 76 45 77 46 78 72 79 73 80 81 81 74 82 80 83 82 84 79 85
REMARK SMILES IDX 75 86 76 87 77 88 78 89 57 90 58 91 66 92 59 93 65 94 67 95
REMARK SMILES IDX 64 96 60 97 61 98 62 99 63 100
REMARK H PARENT 8 17 87 53 55 64
REMARK Flexibility Score: inf
ROOT
ATOM      1  C   UNL A   1      33.399  22.332  25.588  1.00  0.00     0.188 C 
ENDROOT
BRANCH   1   2
ATOM      2  C   UNL A   1      33.016  22.286  24.104  1.00  0.00     0.188 C 
BRANCH   2   3
ATOM      3  O   UNL A   1      33.488  23.398  23.361  1.00  0.00    -0.376 OA
BRANCH   3   4
ATOM      4  C   UNL A   1      32.883  24.637  23.695  1.00  0.00     0.202 C 
BRANCH   4   5
ATOM      5  C   UNL A   1      33.492  25.893  23.064  1.00  0.00     0.261 C 
BRANCH   5   6
ATOM      6  O   UNL A   1      33.308  27.138  23.762  1.00  0.00    -0.463 OA
BRANCH   6   7
ATOM      7  C   UNL A   1      32.247  27.268  24.586  1.00  0.00     0.309 C 
ATOM      8  O   UNL A   1      31.129  27.610  24.219  1.00  0.00    -0.252 OA
BRANCH   7   9
ATOM      9  C   UNL A   1      32.596  27.010  26.061  1.00  0.00     0.099 C 
ATOM     10  C   UNL A   1      33.073  29.688  27.309  1.00  0.00     0.004 C 
ATOM     11  C   UNL A   1      31.667  29.186  26.947  1.00  0.00     0.006 C 
ATOM     12  C   UNL A   1      34.209  28.931  26.612  1.00  0.00     0.006 C 
ATOM     13  C   UNL A   1      31.536  27.665  26.952  1.00  0.00     0.015 C 
ATOM     14  C   UNL A   1      33.979  27.424  26.582  1.00  0.00     0.015 C 
BRANCH  10  15
ATOM     15  C   UNL A   1      33.223  31.210  27.152  1.00  0.00     0.102 C 
BRANCH  15  16
ATOM     16  N   UNL A   1      34.502  31.769  27.600  1.00  0.00    -0.211 NA
ATOM     17  H   UNL A   1      34.869  31.101  28.277  1.00  0.00     0.141 HD
BRANCH  16  18
ATOM     18  S   UNL A   1      34.689  33.276  28.308  1.00  0.00     0.243 S 
ATOM     19  O   UNL A   1      33.374  33.754  28.664  1.00  0.00    -0.207 OA
ATOM     20  O   UNL A   1      35.554  34.049  27.448  1.00  0.00    -0.207 OA
BRANCH  18  21
ATOM     21  C   UNL A   1      35.518  33.176  29.793  1.00  0.00     0.120 A 
ATOM     22  C   UNL A   1      38.252  33.271  32.109  1.00  0.00     0.173 C 
ATOM     23  N   UNL A   1      37.016  33.179  31.372  1.00  0.00    -0.274 N 
ATOM     24  C   UNL A   1      36.812  33.547  30.076  1.00  0.00     0.130 A 
ATOM     25  N   UNL A   1      35.933  32.626  31.956  1.00  0.00    -0.180 NA
ATOM     26  C   UNL A   1      35.006  32.656  30.991  1.00  0.00     0.156 A 
ENDBRANCH  18  21
ENDBRANCH  16  18
ENDBRANCH  15  16
ENDBRANCH  10  15
ENDBRANCH   7   9
ENDBRANCH   6   7
ENDBRANCH   5   6
ENDBRANCH   4   5
ENDBRANCH   3   4
ENDBRANCH   2   3
ENDBRANCH   1   2
BRANCH   1  27
ATOM     27  O   UNL A   1      34.508  21.564  26.036  1.00  0.00    -0.377 OA
BRANCH  27  28
ATOM     28  C   UNL A   1      35.215  20.752  25.097  1.00  0.00     0.188 C 
BRANCH  28  29
ATOM     29  C   UNL A   1      36.756  20.678  25.141  1.00  0.00     0.188 C 
BRANCH  29  30
ATOM     30  O   UNL A   1      37.305  19.397  24.860  1.00  0.00    -0.376 OA
BRANCH  30  31
ATOM     31  C   UNL A   1      38.570  19.107  25.441  1.00  0.00     0.202 C 
BRANCH  31  32
ATOM     32  C   UNL A   1      39.391  20.334  25.860  1.00  0.00     0.261 C 
BRANCH  32  33
ATOM     33  O   UNL A   1      40.526  20.047  26.692  1.00  0.00    -0.460 OA
BRANCH  33  34
ATOM     34  C   UNL A   1      41.725  19.959  26.074  1.00  0.00     0.338 C 
ATOM     35  O   UNL A   1      42.116  19.063  25.349  1.00  0.00    -0.246 OA
BRANCH  34  36
ATOM     36  C   UNL A   1      42.445  21.223  26.300  1.00  0.00     0.060 A 
ATOM     37  C   UNL A   1      42.916  21.510  27.586  1.00  0.00     0.016 A 
ATOM     38  C   UNL A   1      42.600  22.138  25.256  1.00  0.00     0.016 A 
ATOM     39  C   UNL A   1      43.498  22.748  27.845  1.00  0.00     0.010 A 
ATOM     40  C   UNL A   1      43.169  23.384  25.521  1.00  0.00     0.010 A 
ATOM     41  C   UNL A   1      43.579  23.708  26.827  1.00  0.00    -0.014 A 
BRANCH  41  42
ATOM     42  C   UNL A   1      43.868  25.119  27.178  1.00  0.00     0.031 A 
ATOM     43  C   UNL A   1      45.287  25.604  27.042  1.00  0.00     0.074 A 
ATOM     44  C   UNL A   1      42.896  25.952  27.587  1.00  0.00     0.049 A 
ATOM     45  N   UNL A   1      45.795  26.780  27.298  1.00  0.00    -0.248 NA
ATOM     46  C   UNL A   1      46.266  24.617  26.553  1.00  0.00     0.031 C 
ATOM     47  C   UNL A   1      41.484  25.599  27.725  1.00  0.00     0.029 A 
ATOM     48  N   UNL A   1      42.955  27.268  27.965  1.00  0.00    -0.354 N 
ATOM     49  C   UNL A   1      47.148  26.680  26.995  1.00  0.00     0.074 A 
ATOM     50  C   UNL A   1      47.389  25.315  26.580  1.00  0.00     0.031 C 
ATOM     51  C   UNL A   1      40.809  26.675  28.169  1.00  0.00     0.029 A 
ATOM     52  C   UNL A   1      41.745  27.781  28.370  1.00  0.00     0.049 A 
ATOM     53  H   UNL A   1      43.785  27.797  27.948  1.00  0.00     0.167 HD
ATOM     54  C   UNL A   1      48.102  27.642  27.047  1.00  0.00     0.034 A 
ATOM     55  C   UNL A   1      41.438  28.998  28.863  1.00  0.00     0.034 A 
ATOM     56  C   UNL A   1      47.852  28.992  27.488  1.00  0.00     0.049 A 
ATOM     57  C   UNL A   1      42.533  30.034  28.987  1.00  0.00     0.074 A 
ATOM     58  C   UNL A   1      48.739  30.048  27.584  1.00  0.00     0.029 A 
ATOM     59  N   UNL A   1      46.620  29.467  27.922  1.00  0.00    -0.354 N 
ATOM     60  N   UNL A   1      43.807  29.934  28.681  1.00  0.00    -0.248 NA
ATOM     61  C   UNL A   1      42.143  31.350  29.508  1.00  0.00     0.031 C 
ATOM     62  C   UNL A   1      48.062  31.141  28.137  1.00  0.00     0.029 A 
ATOM     63  C   UNL A   1      46.732  30.792  28.315  1.00  0.00     0.049 A 
ATOM     64  H   UNL A   1      45.788  28.940  27.947  1.00  0.00     0.167 HD
ATOM     65  C   UNL A   1      44.361  31.186  28.944  1.00  0.00     0.074 A 
ATOM     66  C   UNL A   1      43.280  32.024  29.421  1.00  0.00     0.031 C 
ATOM     67  C   UNL A   1      45.644  31.608  28.799  1.00  0.00     0.034 A 
BRANCH  54  68
ATOM     68  C   UNL A   1      49.506  27.238  26.670  1.00  0.00     0.023 A 
ATOM     69  C   UNL A   1      50.053  27.553  25.413  1.00  0.00     0.031 A 
ATOM     70  C   UNL A   1      50.290  26.483  27.560  1.00  0.00     0.131 A 
ATOM     71  C   UNL A   1      51.314  27.052  25.053  1.00  0.00     0.055 A 
ATOM     72  C   UNL A   1      51.575  26.054  27.225  1.00  0.00     0.041 A 
ATOM     73  F   UNL A   1      49.810  26.131  28.762  1.00  0.00    -0.206 F 
ATOM     74  C   UNL A   1      52.089  26.325  25.960  1.00  0.00     0.022 A 
BRANCH  71  75
ATOM     75  S   UNL A   1      51.866  27.240  23.336  1.00  0.00     0.124 S 
ATOM     76  O   UNL A   1      52.320  28.628  23.321  1.00  0.00    -0.237 OA
ATOM     77  O   UNL A   1      52.907  26.226  23.225  1.00  0.00    -0.237 OA
ATOM     78  O   UNL A   1      50.657  26.981  22.556  1.00  0.00    -0.744 OA
ENDBRANCH  71  75
ENDBRANCH  54  68
BRANCH  55  79
ATOM     79  C   UNL A   1      40.051  29.305  29.312  1.00  0.00     0.023 A 
ATOM     80  C   UNL A   1      39.685  29.222  30.665  1.00  0.00     0.031 A 
ATOM     81  C   UNL A   1      39.049  29.626  28.377  1.00  0.00     0.131 A 
ATOM     82  C   UNL A   1      38.345  29.408  31.040  1.00  0.00     0.055 A 
ATOM     83  C   UNL A   1      37.729  29.863  28.763  1.00  0.00     0.041 A 
ATOM     84  F   UNL A   1      39.343  29.712  27.070  1.00  0.00    -0.206 F 
ATOM     85  C   UNL A   1      37.368  29.741  30.100  1.00  0.00     0.022 A 
BRANCH  82  86
ATOM     86  S   UNL A   1      37.877  29.116  32.769  1.00  0.00     0.124 S 
ATOM     87  O   UNL A   1      38.132  27.686  32.908  1.00  0.00    -0.237 OA
ATOM     88  O   UNL A   1      38.786  30.002  33.487  1.00  0.00    -0.237 OA
ATOM     89  O   UNL A   1      36.468  29.504  32.811  1.00  0.00    -0.744 OA
ENDBRANCH  82  86
ENDBRANCH  55  79
BRANCH  67  90
ATOM     90  C   UNL A   1      45.929  33.057  29.116  1.00  0.00     0.023 A 
ATOM     91  C   UNL A   1      45.778  34.072  28.155  1.00  0.00     0.031 A 
ATOM     92  C   UNL A   1      46.366  33.423  30.402  1.00  0.00     0.131 A 
ATOM     93  C   UNL A   1      46.119  35.395  28.476  1.00  0.00     0.055 A 
ATOM     94  C   UNL A   1      46.647  34.749  30.733  1.00  0.00     0.041 A 
ATOM     95  F   UNL A   1      46.525  32.495  31.359  1.00  0.00    -0.206 F 
ATOM     96  C   UNL A   1      46.537  35.742  29.764  1.00  0.00     0.022 A 
BRANCH  93  97
ATOM     97  S   UNL A   1      46.095  36.645  27.162  1.00  0.00     0.124 S 
ATOM     98  O   UNL A   1      46.853  37.736  27.765  1.00  0.00    -0.237 OA
ATOM     99  O   UNL A   1      46.748  35.948  26.058  1.00  0.00    -0.237 OA
ATOM    100  O   UNL A   1      44.670  36.912  26.968  1.00  0.00    -0.744 OA
ENDBRANCH  93  97
ENDBRANCH  67  90
ENDBRANCH  41  42
ENDBRANCH  34  36
ENDBRANCH  33  34
ENDBRANCH  32  33
ENDBRANCH  31  32
ENDBRANCH  30  31
ENDBRANCH  29  30
ENDBRANCH  28  29
ENDBRANCH  27  28
ENDBRANCH   1  27
TORSDOF 27
ENDMDL
MODEL 3
REMARK VINA RESULT:      -9.0      4.425     10.401
REMARK SMILES Cn1cc(S(=O)(=O)NC[C@H]2CC[C@@H](C(=O)OCCOCCOCCOCCOC(=O)c3ccc(-c4c5nc(c(-c6cc(S(=O)(=O)[O-])ccc6F)c6ccc([nH]6)c(-c6cc(S(=O)(=O)[O-])ccc6F)c6nc(c(-c7cc(S(=O)(=O)[O-])ccc7F)c7ccc4[nH]7)C=C6)C=C5)cc3)CC2)cn1
REMARK SMILES IDX 21 1 20 2 19 3 18 4 17 5 16 6 14 7 15 8 13 9 10 10 11 11
REMARK SMILES IDX 95 12 12 13 94 14 9 15 8 16 5 18 6 19 7 20 4 21 1 22 2 23
REMARK SMILES IDX 3 24 97 25 96 26 22 27 23 28 24 29 25 30 26 31 27 32 28 33
REMARK SMILES IDX 29 34 30 35 31 36 32 37 93 38 33 39 92 40 34 41 35 42 36 43
REMARK SMILES IDX 86 44 37 45 91 46 85 47 87 48 38 49 90 50 84 51 83 52 39 54
REMARK SMILES IDX 71 55 51 56 70 57 52 58 55 59 69 60 88 61 53 62 54 63 68 65
REMARK SMILES IDX 89 66 56 67 40 68 41 69 49 70 42 71 48 72 50 73 47 74 43 75
REMARK SMILES IDX 44 76 45 77 46 78 72 79 73 80 81 81 74 82 80 83 82 84 79 85
REMARK SMILES IDX 75 86 76 87 77 88 78 89 57 90 58 91 66 92 59 93 65 94 67 95
REMARK SMILES IDX 64 96 60 97 61 98 62 99 63 100
REMARK H PARENT 8 17 87 53 55 64
REMARK Flexibility Score: inf
ROOT
ATOM      1  C   UNL A   1      33.153  36.426  29.895  1.00  0.00     0.188 C 
ENDROOT
BRANCH   1   2
ATOM      2  C   UNL A   1      33.320  35.142  29.074  1.00  0.00     0.188 C 
BRANCH   2   3
ATOM      3  O   UNL A   1      33.728  34.024  29.846  1.00  0.00    -0.376 OA
BRANCH   3   4
ATOM      4  C   UNL A   1      34.423  33.023  29.119  1.00  0.00     0.202 C 
BRANCH   4   5
ATOM      5  C   UNL A   1      35.709  33.457  28.408  1.00  0.00     0.261 C 
BRANCH   5   6
ATOM      6  O   UNL A   1      36.817  32.538  28.431  1.00  0.00    -0.463 OA
BRANCH   6   7
ATOM      7  C   UNL A   1      37.090  31.879  29.576  1.00  0.00     0.309 C 
ATOM      8  O   UNL A   1      37.607  32.395  30.560  1.00  0.00    -0.252 OA
BRANCH   7   9
ATOM      9  C   UNL A   1      36.748  30.382  29.503  1.00  0.00     0.099 C 
ATOM     10  C   UNL A   1      38.955  29.075  27.960  1.00  0.00     0.004 C 
ATOM     11  C   UNL A   1      39.136  29.561  29.405  1.00  0.00     0.006 C 
ATOM     12  C   UNL A   1      37.742  29.678  27.242  1.00  0.00     0.006 C 
ATOM     13  C   UNL A   1      37.842  29.580  30.215  1.00  0.00     0.015 C 
ATOM     14  C   UNL A   1      36.504  29.740  28.131  1.00  0.00     0.015 C 
BRANCH  10  15
ATOM     15  C   UNL A   1      40.236  29.206  27.121  1.00  0.00     0.102 C 
BRANCH  15  16
ATOM     16  N   UNL A   1      41.309  28.264  27.452  1.00  0.00    -0.211 NA
ATOM     17  H   UNL A   1      41.887  28.741  28.143  1.00  0.00     0.141 HD
BRANCH  16  18
ATOM     18  S   UNL A   1      42.381  27.610  26.343  1.00  0.00     0.243 S 
ATOM     19  O   UNL A   1      43.523  28.492  26.274  1.00  0.00    -0.207 OA
ATOM     20  O   UNL A   1      41.625  27.278  25.159  1.00  0.00    -0.207 OA
BRANCH  18  21
ATOM     21  C   UNL A   1      43.025  26.129  26.886  1.00  0.00     0.120 A 
ATOM     22  C   UNL A   1      44.284  23.667  29.166  1.00  0.00     0.173 C 
ATOM     23  N   UNL A   1      43.817  24.489  28.078  1.00  0.00    -0.274 N 
ATOM     24  C   UNL A   1      43.171  25.684  28.180  1.00  0.00     0.130 A 
ATOM     25  N   UNL A   1      44.071  24.116  26.807  1.00  0.00    -0.180 NA
ATOM     26  C   UNL A   1      43.553  25.112  26.078  1.00  0.00     0.156 A 
ENDBRANCH  18  21
ENDBRANCH  16  18
ENDBRANCH  15  16
ENDBRANCH  10  15
ENDBRANCH   7   9
ENDBRANCH   6   7
ENDBRANCH   5   6
ENDBRANCH   4   5
ENDBRANCH   3   4
ENDBRANCH   2   3
ENDBRANCH   1   2
BRANCH   1  27
ATOM     27  O   UNL A   1      32.214  36.443  30.962  1.00  0.00    -0.377 OA
BRANCH  27  28
ATOM     28  C   UNL A   1      32.687  36.315  32.305  1.00  0.00     0.188 C 
BRANCH  28  29
ATOM     29  C   UNL A   1      34.018  36.973  32.724  1.00  0.00     0.188 C 
BRANCH  29  30
ATOM     30  O   UNL A   1      35.059  36.064  33.057  1.00  0.00    -0.376 OA
BRANCH  30  31
ATOM     31  C   UNL A   1      34.726  34.682  33.035  1.00  0.00     0.202 C 
BRANCH  31  32
ATOM     32  C   UNL A   1      35.212  33.874  34.246  1.00  0.00     0.261 C 
BRANCH  32  33
ATOM     33  O   UNL A   1      36.357  33.042  33.998  1.00  0.00    -0.460 OA
BRANCH  33  34
ATOM     34  C   UNL A   1      37.196  32.838  35.037  1.00  0.00     0.338 C 
ATOM     35  O   UNL A   1      37.012  33.139  36.202  1.00  0.00    -0.246 OA
BRANCH  34  36
ATOM     36  C   UNL A   1      38.333  32.039  34.552  1.00  0.00     0.060 A 
ATOM     37  C   UNL A   1      39.629  32.420  34.917  1.00  0.00     0.016 A 
ATOM     38  C   UNL A   1      38.115  30.956  33.698  1.00  0.00     0.016 A 
ATOM     39  C   UNL A   1      40.722  31.746  34.377  1.00  0.00     0.010 A 
ATOM     40  C   UNL A   1      39.211  30.293  33.145  1.00  0.00     0.010 A 
ATOM     41  C   UNL A   1      40.517  30.715  33.449  1.00  0.00    -0.014 A 
BRANCH  41  42
ATOM     42  C   UNL A   1      41.655  30.243  32.624  1.00  0.00     0.031 A 
ATOM     43  C   UNL A   1      42.326  28.955  33.018  1.00  0.00     0.074 A 
ATOM     44  C   UNL A   1      42.066  30.928  31.543  1.00  0.00     0.049 A 
ATOM     45  N   UNL A   1      43.342  28.342  32.471  1.00  0.00    -0.248 NA
ATOM     46  C   UNL A   1      41.772  28.269  34.198  1.00  0.00     0.031 C 
ATOM     47  C   UNL A   1      41.471  32.169  31.052  1.00  0.00     0.029 A 
ATOM     48  N   UNL A   1      43.090  30.673  30.667  1.00  0.00    -0.354 N 
ATOM     49  C   UNL A   1      43.546  27.196  33.232  1.00  0.00     0.074 A 
ATOM     50  C   UNL A   1      42.577  27.224  34.306  1.00  0.00     0.031 C 
ATOM     51  C   UNL A   1      42.149  32.574  29.962  1.00  0.00     0.029 A 
ATOM     52  C   UNL A   1      43.239  31.636  29.698  1.00  0.00     0.049 A 
ATOM     53  H   UNL A   1      43.663  29.875  30.726  1.00  0.00     0.167 HD
ATOM     54  C   UNL A   1      44.452  26.205  33.046  1.00  0.00     0.034 A 
ATOM     55  C   UNL A   1      44.164  31.752  28.723  1.00  0.00     0.034 A 
ATOM     56  C   UNL A   1      45.429  26.205  31.987  1.00  0.00     0.049 A 
ATOM     57  C   UNL A   1      45.215  30.674  28.580  1.00  0.00     0.074 A 
ATOM     58  C   UNL A   1      46.396  25.257  31.703  1.00  0.00     0.029 A 
ATOM     59  N   UNL A   1      45.572  27.214  31.042  1.00  0.00    -0.354 N 
ATOM     60  N   UNL A   1      45.388  29.585  29.296  1.00  0.00    -0.248 NA
ATOM     61  C   UNL A   1      46.184  30.835  27.489  1.00  0.00     0.031 C 
ATOM     62  C   UNL A   1      47.165  25.723  30.630  1.00  0.00     0.029 A 
ATOM     63  C   UNL A   1      46.631  26.926  30.194  1.00  0.00     0.049 A 
ATOM     64  H   UNL A   1      45.006  28.017  30.983  1.00  0.00     0.167 HD
ATOM     65  C   UNL A   1      46.466  28.918  28.718  1.00  0.00     0.074 A 
ATOM     66  C   UNL A   1      46.894  29.721  27.592  1.00  0.00     0.031 C 
ATOM     67  C   UNL A   1      47.048  27.745  29.081  1.00  0.00     0.034 A 
BRANCH  54  68
ATOM     68  C   UNL A   1      44.452  25.079  34.051  1.00  0.00     0.023 A 
ATOM     69  C   UNL A   1      44.952  25.253  35.355  1.00  0.00     0.031 A 
ATOM     70  C   UNL A   1      43.995  23.801  33.685  1.00  0.00     0.131 A 
ATOM     71  C   UNL A   1      45.050  24.151  36.219  1.00  0.00     0.055 A 
ATOM     72  C   UNL A   1      44.024  22.726  34.575  1.00  0.00     0.041 A 
ATOM     73  F   UNL A   1      43.533  23.570  32.446  1.00  0.00    -0.206 F 
ATOM     74  C   UNL A   1      44.568  22.894  35.846  1.00  0.00     0.022 A 
BRANCH  71  75
ATOM     75  S   UNL A   1      45.950  24.350  37.781  1.00  0.00     0.124 S 
ATOM     76  O   UNL A   1      46.472  25.707  37.650  1.00  0.00    -0.237 OA
ATOM     77  O   UNL A   1      44.901  24.162  38.776  1.00  0.00    -0.237 OA
ATOM     78  O   UNL A   1      46.960  23.295  37.733  1.00  0.00    -0.744 OA
ENDBRANCH  71  75
ENDBRANCH  54  68
BRANCH  55  79
ATOM     79  C   UNL A   1      44.171  32.940  27.823  1.00  0.00     0.023 A 
ATOM     80  C   UNL A   1      44.519  34.214  28.299  1.00  0.00     0.031 A 
ATOM     81  C   UNL A   1      43.764  32.826  26.481  1.00  0.00     0.131 A 
ATOM     82  C   UNL A   1      44.407  35.330  27.454  1.00  0.00     0.055 A 
ATOM     83  C   UNL A   1      43.707  33.931  25.631  1.00  0.00     0.041 A 
ATOM     84  F   UNL A   1      43.413  31.632  25.977  1.00  0.00    -0.206 F 
ATOM     85  C   UNL A   1      44.016  35.195  26.121  1.00  0.00     0.022 A 
BRANCH  82  86
ATOM     86  S   UNL A   1      44.691  36.981  28.153  1.00  0.00     0.124 S 
ATOM     87  O   UNL A   1      46.097  36.905  28.533  1.00  0.00    -0.237 OA
ATOM     88  O   UNL A   1      44.379  37.849  27.023  1.00  0.00    -0.237 OA
ATOM     89  O   UNL A   1      43.746  37.047  29.266  1.00  0.00    -0.744 OA
ENDBRANCH  82  86
ENDBRANCH  55  79
BRANCH  67  90
ATOM     90  C   UNL A   1      48.179  27.244  28.214  1.00  0.00     0.023 A 
ATOM     91  C   UNL A   1      49.523  27.539  28.502  1.00  0.00     0.031 A 
ATOM     92  C   UNL A   1      47.902  26.465  27.076  1.00  0.00     0.131 A 
ATOM     93  C   UNL A   1      50.536  27.108  27.632  1.00  0.00     0.055 A 
ATOM     94  C   UNL A   1      48.918  25.990  26.246  1.00  0.00     0.041 A 
ATOM     95  F   UNL A   1      46.637  26.151  26.754  1.00  0.00    -0.206 F 
ATOM     96  C   UNL A   1      50.242  26.322  26.514  1.00  0.00     0.022 A 
BRANCH  93  97
ATOM     97  S   UNL A   1      52.237  27.666  27.928  1.00  0.00     0.124 S 
ATOM     98  O   UNL A   1      52.559  28.340  26.675  1.00  0.00    -0.237 OA
ATOM     99  O   UNL A   1      52.082  28.529  29.095  1.00  0.00    -0.237 OA
ATOM    100  O   UNL A   1      52.967  26.423  28.171  1.00  0.00    -0.744 OA
ENDBRANCH  93  97
ENDBRANCH  67  90
ENDBRANCH  41  42
ENDBRANCH  34  36
ENDBRANCH  33  34
ENDBRANCH  32  33
ENDBRANCH  31  32
ENDBRANCH  30  31
ENDBRANCH  29  30
ENDBRANCH  28  29
ENDBRANCH  27  28
ENDBRANCH   1  27
TORSDOF 27
ENDMDL
