MODEL 1
REMARK VINA RESULT:      -9.3      0.000      0.000
REMARK SMILES O=C(Cc1ccccc1Nc1c(Cl)cccc1C(F)(F)F)OCCOCCOCCOCCOC(=O)c1ccc(-c2c3nc(c(-c4cc(S(=O)(=O)[O-])ccc4F)c4ccc([nH]4)c(-c4cc(S(=O)(=O)[O-])ccc4F)c4nc(c(-c5cc(S(=O)(=O)[O-])ccc5F)c5ccc2[nH]5)C=C4)C=C3)cc1
REMARK SMILES IDX 27 1 26 2 25 3 24 4 23 5 22 6 2 7 1 8 3 9 4 10 5 11 9 12
REMARK SMILES IDX 6 13 8 14 7 15 10 16 11 18 12 19 17 20 13 21 14 22 16 23
REMARK SMILES IDX 15 24 18 25 19 26 20 27 21 28 28 29 29 30 30 31 31 32 32 33
REMARK SMILES IDX 33 34 34 35 35 36 36 37 37 38 38 39 99 40 39 41 98 42 40 43
REMARK SMILES IDX 41 44 42 45 92 46 43 47 97 48 91 49 93 50 44 51 96 52 90 53
REMARK SMILES IDX 89 54 45 56 77 57 57 58 76 59 58 60 61 61 75 62 94 63 59 64
REMARK SMILES IDX 60 65 74 67 95 68 62 69 46 70 47 71 55 72 48 73 54 74 56 75
REMARK SMILES IDX 53 76 49 77 50 78 51 79 52 80 78 81 79 82 87 83 80 84 86 85
REMARK SMILES IDX 88 86 85 87 81 88 82 89 83 90 84 91 63 92 64 93 72 94 65 95
REMARK SMILES IDX 71 96 73 97 70 98 66 99 67 100 68 101 69 102
REMARK H PARENT 10 17 93 55 61 66
REMARK Flexibility Score: inf
ROOT
ATOM      1  C   UNL A   1      36.883  23.080  24.695  1.00  0.00     0.188 C 
ENDROOT
BRANCH   1   2
ATOM      2  C   UNL A   1      35.531  22.676  25.286  1.00  0.00     0.188 C 
BRANCH   2   3
ATOM      3  O   UNL A   1      35.283  23.087  26.618  1.00  0.00    -0.376 OA
BRANCH   3   4
ATOM      4  C   UNL A   1      34.346  22.510  27.507  1.00  0.00     0.202 C 
BRANCH   4   5
ATOM      5  C   UNL A   1      32.893  22.239  27.131  1.00  0.00     0.261 C 
BRANCH   5   6
ATOM      6  O   UNL A   1      31.952  23.318  27.262  1.00  0.00    -0.463 OA
BRANCH   6   7
ATOM      7  C   UNL A   1      30.664  23.348  26.872  1.00  0.00     0.310 C 
ATOM      8  O   UNL A   1      29.805  22.847  27.597  1.00  0.00    -0.252 OA
BRANCH   7   9
ATOM      9  C   UNL A   1      30.304  23.858  25.500  1.00  0.00     0.160 C 
BRANCH   9  10
ATOM     10  C   UNL A   1      31.418  24.249  24.564  1.00  0.00    -0.013 A 
ATOM     11  C   UNL A   1      31.828  23.329  23.579  1.00  0.00     0.006 A 
ATOM     12  C   UNL A   1      32.127  25.468  24.733  1.00  0.00     0.042 A 
ATOM     13  C   UNL A   1      32.917  23.599  22.763  1.00  0.00     0.000 A 
ATOM     14  C   UNL A   1      33.264  25.674  23.942  1.00  0.00     0.026 A 
ATOM     15  C   UNL A   1      33.649  24.761  22.960  1.00  0.00     0.002 A 
BRANCH  12  16
ATOM     16  N   UNL A   1      31.662  26.474  25.613  1.00  0.00    -0.354 N 
ATOM     17  H   UNL A   1      31.567  26.178  26.548  1.00  0.00     0.167 HD
BRANCH  16  18
ATOM     18  C   UNL A   1      31.306  27.830  25.397  1.00  0.00     0.070 A 
ATOM     19  C   UNL A   1      31.898  28.805  26.241  1.00  0.00     0.065 A 
ATOM     20  C   UNL A   1      30.483  28.285  24.347  1.00  0.00     0.080 A 
ATOM     21  Cl  UNL A   1      32.827  28.324  27.626  1.00  0.00    -0.082 Cl
ATOM     22  C   UNL A   1      31.773  30.174  25.995  1.00  0.00     0.023 A 
ATOM     23  C   UNL A   1      30.397  29.676  24.093  1.00  0.00     0.015 A 
ATOM     24  C   UNL A   1      31.046  30.610  24.897  1.00  0.00     0.002 A 
BRANCH  20  25
ATOM     25  C   UNL A   1      29.618  27.391  23.485  1.00  0.00     0.418 C 
ATOM     26  F   UNL A   1      28.925  26.484  24.241  1.00  0.00    -0.166 F 
ATOM     27  F   UNL A   1      28.656  28.088  22.817  1.00  0.00    -0.166 F 
ATOM     28  F   UNL A   1      30.275  26.643  22.561  1.00  0.00    -0.166 F 
ENDBRANCH  20  25
ENDBRANCH  16  18
ENDBRANCH  12  16
ENDBRANCH   9  10
ENDBRANCH   7   9
ENDBRANCH   6   7
ENDBRANCH   5   6
ENDBRANCH   4   5
ENDBRANCH   3   4
ENDBRANCH   2   3
ENDBRANCH   1   2
BRANCH   1  29
ATOM     29  O   UNL A   1      37.814  22.010  24.593  1.00  0.00    -0.377 OA
BRANCH  29  30
ATOM     30  C   UNL A   1      38.304  21.554  25.845  1.00  0.00     0.188 C 
BRANCH  30  31
ATOM     31  C   UNL A   1      39.546  22.303  26.373  1.00  0.00     0.188 C 
BRANCH  31  32
ATOM     32  O   UNL A   1      40.725  21.618  26.768  1.00  0.00    -0.376 OA
BRANCH  32  33
ATOM     33  C   UNL A   1      40.754  20.204  26.853  1.00  0.00     0.202 C 
BRANCH  33  34
ATOM     34  C   UNL A   1      41.641  19.323  25.955  1.00  0.00     0.261 C 
BRANCH  34  35
ATOM     35  O   UNL A   1      43.049  19.359  26.187  1.00  0.00    -0.460 OA
BRANCH  35  36
ATOM     36  C   UNL A   1      43.811  19.803  25.160  1.00  0.00     0.338 C 
ATOM     37  O   UNL A   1      44.072  19.211  24.127  1.00  0.00    -0.246 OA
BRANCH  36  38
ATOM     38  C   UNL A   1      44.106  21.231  25.406  1.00  0.00     0.060 A 
ATOM     39  C   UNL A   1      44.211  21.678  26.733  1.00  0.00     0.016 A 
ATOM     40  C   UNL A   1      44.345  22.105  24.345  1.00  0.00     0.016 A 
ATOM     41  C   UNL A   1      44.577  22.996  27.001  1.00  0.00     0.010 A 
ATOM     42  C   UNL A   1      44.662  23.438  24.615  1.00  0.00     0.010 A 
ATOM     43  C   UNL A   1      44.770  23.891  25.942  1.00  0.00    -0.014 A 
BRANCH  43  44
ATOM     44  C   UNL A   1      44.899  25.342  26.212  1.00  0.00     0.031 A 
ATOM     45  C   UNL A   1      46.270  25.950  26.128  1.00  0.00     0.074 A 
ATOM     46  C   UNL A   1      43.831  26.090  26.544  1.00  0.00     0.049 A 
ATOM     47  N   UNL A   1      46.664  27.152  26.450  1.00  0.00    -0.248 NA
ATOM     48  C   UNL A   1      47.341  25.079  25.615  1.00  0.00     0.031 C 
ATOM     49  C   UNL A   1      42.448  25.618  26.592  1.00  0.00     0.029 A 
ATOM     50  N   UNL A   1      43.749  27.407  26.928  1.00  0.00    -0.354 N 
ATOM     51  C   UNL A   1      48.031  27.179  26.199  1.00  0.00     0.074 A 
ATOM     52  C   UNL A   1      48.399  25.872  25.703  1.00  0.00     0.031 C 
ATOM     53  C   UNL A   1      41.660  26.621  27.020  1.00  0.00     0.029 A 
ATOM     54  C   UNL A   1      42.487  27.788  27.325  1.00  0.00     0.049 A 
ATOM     55  H   UNL A   1      44.520  28.019  26.920  1.00  0.00     0.167 HD
ATOM     56  C   UNL A   1      48.897  28.203  26.380  1.00  0.00     0.034 A 
ATOM     57  C   UNL A   1      42.065  28.926  27.915  1.00  0.00     0.034 A 
ATOM     58  C   UNL A   1      48.511  29.495  26.884  1.00  0.00     0.049 A 
ATOM     59  C   UNL A   1      43.078  30.016  28.203  1.00  0.00     0.074 A 
ATOM     60  C   UNL A   1      49.301  30.616  27.063  1.00  0.00     0.029 A 
ATOM     61  N   UNL A   1      47.236  29.832  27.315  1.00  0.00    -0.354 N 
ATOM     62  N   UNL A   1      44.363  30.045  27.927  1.00  0.00    -0.248 NA
ATOM     63  C   UNL A   1      42.587  31.223  28.883  1.00  0.00     0.031 C 
ATOM     64  C   UNL A   1      48.527  31.599  27.684  1.00  0.00     0.029 A 
ATOM     65  C   UNL A   1      47.231  31.125  27.811  1.00  0.00     0.049 A 
ATOM     66  H   UNL A   1      46.451  29.240  27.273  1.00  0.00     0.167 HD
ATOM     67  C   UNL A   1      44.821  31.282  28.379  1.00  0.00     0.074 A 
ATOM     68  C   UNL A   1      43.674  31.977  28.920  1.00  0.00     0.031 C 
ATOM     69  C   UNL A   1      46.076  31.799  28.354  1.00  0.00     0.034 A 
BRANCH  56  70
ATOM     70  C   UNL A   1      50.355  27.950  26.099  1.00  0.00     0.023 A 
ATOM     71  C   UNL A   1      51.283  27.710  27.125  1.00  0.00     0.031 A 
ATOM     72  C   UNL A   1      50.814  27.927  24.770  1.00  0.00     0.131 A 
ATOM     73  C   UNL A   1      52.632  27.487  26.806  1.00  0.00     0.055 A 
ATOM     74  C   UNL A   1      52.142  27.640  24.455  1.00  0.00     0.041 A 
ATOM     75  F   UNL A   1      49.973  28.179  23.753  1.00  0.00    -0.206 F 
ATOM     76  C   UNL A   1      53.061  27.424  25.476  1.00  0.00     0.022 A 
BRANCH  73  77
ATOM     77  S   UNL A   1      53.839  27.369  28.153  1.00  0.00     0.124 S 
ATOM     78  O   UNL A   1      53.240  26.337  28.997  1.00  0.00    -0.237 OA
ATOM     79  O   UNL A   1      55.059  26.989  27.452  1.00  0.00    -0.237 OA
ATOM     80  O   UNL A   1      53.843  28.711  28.730  1.00  0.00    -0.744 OA
ENDBRANCH  73  77
ENDBRANCH  56  70
BRANCH  57  81
ATOM     81  C   UNL A   1      40.650  29.083  28.369  1.00  0.00     0.023 A 
ATOM     82  C   UNL A   1      40.304  28.973  29.726  1.00  0.00     0.031 A 
ATOM     83  C   UNL A   1      39.604  29.233  27.439  1.00  0.00     0.131 A 
ATOM     84  C   UNL A   1      38.952  28.942  30.105  1.00  0.00     0.055 A 
ATOM     85  C   UNL A   1      38.264  29.273  27.828  1.00  0.00     0.041 A 
ATOM     86  F   UNL A   1      39.871  29.330  26.126  1.00  0.00    -0.206 F 
ATOM     87  C   UNL A   1      37.930  29.106  29.167  1.00  0.00     0.022 A 
BRANCH  84  88
ATOM     88  S   UNL A   1      38.543  28.538  31.827  1.00  0.00     0.124 S 
ATOM     89  O   UNL A   1      37.249  29.191  31.984  1.00  0.00    -0.237 OA
ATOM     90  O   UNL A   1      38.527  27.078  31.798  1.00  0.00    -0.237 OA
ATOM     91  O   UNL A   1      39.641  29.133  32.586  1.00  0.00    -0.744 OA
ENDBRANCH  84  88
ENDBRANCH  57  81
BRANCH  69  92
ATOM     92  C   UNL A   1      46.263  33.197  28.893  1.00  0.00     0.023 A 
ATOM     93  C   UNL A   1      46.072  34.331  28.085  1.00  0.00     0.031 A 
ATOM     94  C   UNL A   1      46.622  33.396  30.239  1.00  0.00     0.131 A 
ATOM     95  C   UNL A   1      46.286  35.611  28.617  1.00  0.00     0.055 A 
ATOM     96  C   UNL A   1      46.771  34.674  30.779  1.00  0.00     0.041 A 
ATOM     97  F   UNL A   1      46.819  32.348  31.056  1.00  0.00    -0.206 F 
ATOM     98  C   UNL A   1      46.614  35.790  29.964  1.00  0.00     0.022 A 
BRANCH  95  99
ATOM     99  S   UNL A   1      46.207  37.042  27.505  1.00  0.00     0.124 S 
ATOM    100  O   UNL A   1      46.815  36.513  26.288  1.00  0.00    -0.237 OA
ATOM    101  O   UNL A   1      44.773  37.307  27.438  1.00  0.00    -0.237 OA
ATOM    102  O   UNL A   1      46.993  38.060  28.200  1.00  0.00    -0.744 OA
ENDBRANCH  95  99
ENDBRANCH  69  92
ENDBRANCH  43  44
ENDBRANCH  36  38
ENDBRANCH  35  36
ENDBRANCH  34  35
ENDBRANCH  33  34
ENDBRANCH  32  33
ENDBRANCH  31  32
ENDBRANCH  30  31
ENDBRANCH  29  30
ENDBRANCH   1  29
TORSDOF 27
ENDMDL
MODEL 2
REMARK VINA RESULT:      -9.3      3.128      8.336
REMARK SMILES O=C(Cc1ccccc1Nc1c(Cl)cccc1C(F)(F)F)OCCOCCOCCOCCOC(=O)c1ccc(-c2c3nc(c(-c4cc(S(=O)(=O)[O-])ccc4F)c4ccc([nH]4)c(-c4cc(S(=O)(=O)[O-])ccc4F)c4nc(c(-c5cc(S(=O)(=O)[O-])ccc5F)c5ccc2[nH]5)C=C4)C=C3)cc1
REMARK SMILES IDX 27 1 26 2 25 3 24 4 23 5 22 6 2 7 1 8 3 9 4 10 5 11 9 12
REMARK SMILES IDX 6 13 8 14 7 15 10 16 11 18 12 19 17 20 13 21 14 22 16 23
REMARK SMILES IDX 15 24 18 25 19 26 20 27 21 28 28 29 29 30 30 31 31 32 32 33
REMARK SMILES IDX 33 34 34 35 35 36 36 37 37 38 38 39 99 40 39 41 98 42 40 43
REMARK SMILES IDX 41 44 42 45 92 46 43 47 97 48 91 49 93 50 44 51 96 52 90 53
REMARK SMILES IDX 89 54 45 56 77 57 57 58 76 59 58 60 61 61 75 62 94 63 59 64
REMARK SMILES IDX 60 65 74 67 95 68 62 69 46 70 47 71 55 72 48 73 54 74 56 75
REMARK SMILES IDX 53 76 49 77 50 78 51 79 52 80 78 81 79 82 87 83 80 84 86 85
REMARK SMILES IDX 88 86 85 87 81 88 82 89 83 90 84 91 63 92 64 93 72 94 65 95
REMARK SMILES IDX 71 96 73 97 70 98 66 99 67 100 68 101 69 102
REMARK H PARENT 10 17 93 55 61 66
REMARK Flexibility Score: inf
ROOT
ATOM      1  C   UNL A   1      41.814  21.019  27.270  1.00  0.00     0.188 C 
ENDROOT
BRANCH   1   2
ATOM      2  C   UNL A   1      40.467  21.318  26.610  1.00  0.00     0.188 C 
BRANCH   2   3
ATOM      3  O   UNL A   1      40.270  22.648  26.166  1.00  0.00    -0.376 OA
BRANCH   3   4
ATOM      4  C   UNL A   1      39.633  23.682  26.892  1.00  0.00     0.202 C 
BRANCH   4   5
ATOM      5  C   UNL A   1      38.161  24.040  26.724  1.00  0.00     0.261 C 
BRANCH   5   6
ATOM      6  O   UNL A   1      37.581  23.908  25.415  1.00  0.00    -0.463 OA
BRANCH   6   7
ATOM      7  C   UNL A   1      36.708  22.980  24.984  1.00  0.00     0.310 C 
ATOM      8  O   UNL A   1      36.796  22.562  23.830  1.00  0.00    -0.252 OA
BRANCH   7   9
ATOM      9  C   UNL A   1      35.552  22.569  25.860  1.00  0.00     0.160 C 
BRANCH   9  10
ATOM     10  C   UNL A   1      34.410  21.811  25.232  1.00  0.00    -0.013 A 
ATOM     11  C   UNL A   1      34.534  20.418  25.066  1.00  0.00     0.006 A 
ATOM     12  C   UNL A   1      33.277  22.489  24.710  1.00  0.00     0.042 A 
ATOM     13  C   UNL A   1      33.557  19.691  24.399  1.00  0.00     0.000 A 
ATOM     14  C   UNL A   1      32.349  21.736  23.980  1.00  0.00     0.026 A 
ATOM     15  C   UNL A   1      32.476  20.354  23.837  1.00  0.00     0.002 A 
BRANCH  12  16
ATOM     16  N   UNL A   1      33.051  23.860  24.978  1.00  0.00    -0.354 N 
ATOM     17  H   UNL A   1      33.691  24.256  25.613  1.00  0.00     0.167 HD
BRANCH  16  18
ATOM     18  C   UNL A   1      32.072  24.768  24.501  1.00  0.00     0.070 A 
ATOM     19  C   UNL A   1      30.873  24.893  25.250  1.00  0.00     0.065 A 
ATOM     20  C   UNL A   1      32.242  25.621  23.392  1.00  0.00     0.080 A 
ATOM     21  Cl  UNL A   1      30.533  23.802  26.556  1.00  0.00    -0.082 Cl
ATOM     22  C   UNL A   1      29.932  25.890  24.984  1.00  0.00     0.023 A 
ATOM     23  C   UNL A   1      31.294  26.648  23.160  1.00  0.00     0.015 A 
ATOM     24  C   UNL A   1      30.160  26.792  23.955  1.00  0.00     0.002 A 
BRANCH  20  25
ATOM     25  C   UNL A   1      33.353  25.490  22.371  1.00  0.00     0.418 C 
ATOM     26  F   UNL A   1      33.838  26.716  21.999  1.00  0.00    -0.166 F 
ATOM     27  F   UNL A   1      34.436  24.828  22.866  1.00  0.00    -0.166 F 
ATOM     28  F   UNL A   1      33.018  24.881  21.205  1.00  0.00    -0.166 F 
ENDBRANCH  20  25
ENDBRANCH  16  18
ENDBRANCH  12  16
ENDBRANCH   9  10
ENDBRANCH   7   9
ENDBRANCH   6   7
ENDBRANCH   5   6
ENDBRANCH   4   5
ENDBRANCH   3   4
ENDBRANCH   2   3
ENDBRANCH   1   2
BRANCH   1  29
ATOM     29  O   UNL A   1      42.286  19.696  27.054  1.00  0.00    -0.377 OA
BRANCH  29  30
ATOM     30  C   UNL A   1      42.615  19.417  25.702  1.00  0.00     0.188 C 
BRANCH  30  31
ATOM     31  C   UNL A   1      44.014  18.799  25.484  1.00  0.00     0.188 C 
BRANCH  31  32
ATOM     32  O   UNL A   1      44.901  19.282  24.488  1.00  0.00    -0.376 OA
BRANCH  32  33
ATOM     33  C   UNL A   1      45.983  20.133  24.824  1.00  0.00     0.202 C 
BRANCH  33  34
ATOM     34  C   UNL A   1      45.868  21.667  24.867  1.00  0.00     0.261 C 
BRANCH  34  35
ATOM     35  O   UNL A   1      44.914  22.228  25.770  1.00  0.00    -0.460 OA
BRANCH  35  36
ATOM     36  C   UNL A   1      43.948  22.995  25.213  1.00  0.00     0.338 C 
ATOM     37  O   UNL A   1      43.130  22.656  24.375  1.00  0.00    -0.246 OA
BRANCH  36  38
ATOM     38  C   UNL A   1      43.909  24.274  25.953  1.00  0.00     0.060 A 
ATOM     39  C   UNL A   1      43.666  25.458  25.239  1.00  0.00     0.016 A 
ATOM     40  C   UNL A   1      44.043  24.301  27.342  1.00  0.00     0.016 A 
ATOM     41  C   UNL A   1      43.533  26.669  25.916  1.00  0.00     0.010 A 
ATOM     42  C   UNL A   1      43.959  25.523  28.014  1.00  0.00     0.010 A 
ATOM     43  C   UNL A   1      43.715  26.712  27.303  1.00  0.00    -0.014 A 
BRANCH  43  44
ATOM     44  C   UNL A   1      43.837  28.016  27.995  1.00  0.00     0.031 A 
ATOM     45  C   UNL A   1      42.586  28.632  28.555  1.00  0.00     0.074 A 
ATOM     46  C   UNL A   1      45.022  28.644  28.103  1.00  0.00     0.049 A 
ATOM     47  N   UNL A   1      42.406  29.815  29.077  1.00  0.00    -0.248 NA
ATOM     48  C   UNL A   1      41.372  27.798  28.515  1.00  0.00     0.031 C 
ATOM     49  C   UNL A   1      46.307  28.109  27.653  1.00  0.00     0.029 A 
ATOM     50  N   UNL A   1      45.332  29.885  28.605  1.00  0.00    -0.354 N 
ATOM     51  C   UNL A   1      41.058  29.878  29.409  1.00  0.00     0.074 A 
ATOM     52  C   UNL A   1      40.465  28.616  29.026  1.00  0.00     0.031 C 
ATOM     53  C   UNL A   1      47.262  29.034  27.867  1.00  0.00     0.029 A 
ATOM     54  C   UNL A   1      46.649  30.242  28.417  1.00  0.00     0.049 A 
ATOM     55  H   UNL A   1      44.675  30.464  29.054  1.00  0.00     0.167 HD
ATOM     56  C   UNL A   1      40.380  30.904  29.973  1.00  0.00     0.034 A 
ATOM     57  C   UNL A   1      47.268  31.424  28.618  1.00  0.00     0.034 A 
ATOM     58  C   UNL A   1      40.989  32.157  30.339  1.00  0.00     0.049 A 
ATOM     59  C   UNL A   1      46.459  32.589  29.151  1.00  0.00     0.074 A 
ATOM     60  C   UNL A   1      40.402  33.247  30.956  1.00  0.00     0.029 A 
ATOM     61  N   UNL A   1      42.311  32.499  30.096  1.00  0.00    -0.354 N 
ATOM     62  N   UNL A   1      45.192  32.627  29.498  1.00  0.00    -0.248 NA
ATOM     63  C   UNL A   1      47.161  33.871  29.317  1.00  0.00     0.031 C 
ATOM     64  C   UNL A   1      41.343  34.278  31.007  1.00  0.00     0.029 A 
ATOM     65  C   UNL A   1      42.543  33.803  30.502  1.00  0.00     0.049 A 
ATOM     66  H   UNL A   1      42.985  31.904  29.697  1.00  0.00     0.167 HD
ATOM     67  C   UNL A   1      44.958  33.927  29.944  1.00  0.00     0.074 A 
ATOM     68  C   UNL A   1      46.216  34.632  29.848  1.00  0.00     0.031 C 
ATOM     69  C   UNL A   1      43.807  34.491  30.391  1.00  0.00     0.034 A 
BRANCH  56  70
ATOM     70  C   UNL A   1      38.894  30.747  30.164  1.00  0.00     0.023 A 
ATOM     71  C   UNL A   1      37.963  31.275  29.256  1.00  0.00     0.031 A 
ATOM     72  C   UNL A   1      38.408  30.030  31.272  1.00  0.00     0.131 A 
ATOM     73  C   UNL A   1      36.589  31.104  29.488  1.00  0.00     0.055 A 
ATOM     74  C   UNL A   1      37.045  29.806  31.463  1.00  0.00     0.041 A 
ATOM     75  F   UNL A   1      39.255  29.528  32.186  1.00  0.00    -0.206 F 
ATOM     76  C   UNL A   1      36.126  30.350  30.571  1.00  0.00     0.022 A 
BRANCH  73  77
ATOM     77  S   UNL A   1      35.409  31.955  28.407  1.00  0.00     0.124 S 
ATOM     78  O   UNL A   1      36.233  33.029  27.857  1.00  0.00    -0.237 OA
ATOM     79  O   UNL A   1      35.024  30.905  27.471  1.00  0.00    -0.237 OA
ATOM     80  O   UNL A   1      34.357  32.391  29.322  1.00  0.00    -0.744 OA
ENDBRANCH  73  77
ENDBRANCH  56  70
BRANCH  57  81
ATOM     81  C   UNL A   1      48.700  31.621  28.235  1.00  0.00     0.023 A 
ATOM     82  C   UNL A   1      49.742  31.255  29.102  1.00  0.00     0.031 A 
ATOM     83  C   UNL A   1      49.044  32.283  27.042  1.00  0.00     0.131 A 
ATOM     84  C   UNL A   1      51.065  31.616  28.799  1.00  0.00     0.055 A 
ATOM     85  C   UNL A   1      50.369  32.576  26.711  1.00  0.00     0.041 A 
ATOM     86  F   UNL A   1      48.091  32.670  26.178  1.00  0.00    -0.206 F 
ATOM     87  C   UNL A   1      51.387  32.260  27.603  1.00  0.00     0.022 A 
BRANCH  84  88
ATOM     88  S   UNL A   1      52.345  31.358  30.061  1.00  0.00     0.124 S 
ATOM     89  O   UNL A   1      53.105  30.253  29.489  1.00  0.00    -0.237 OA
ATOM     90  O   UNL A   1      53.013  32.656  30.082  1.00  0.00    -0.237 OA
ATOM     91  O   UNL A   1      51.577  31.034  31.262  1.00  0.00    -0.744 OA
ENDBRANCH  84  88
ENDBRANCH  57  81
BRANCH  69  92
ATOM     92  C   UNL A   1      43.869  35.930  30.844  1.00  0.00     0.023 A 
ATOM     93  C   UNL A   1      43.681  36.996  29.946  1.00  0.00     0.031 A 
ATOM     94  C   UNL A   1      44.106  36.238  32.196  1.00  0.00     0.131 A 
ATOM     95  C   UNL A   1      43.780  38.319  30.402  1.00  0.00     0.055 A 
ATOM     96  C   UNL A   1      44.138  37.555  32.656  1.00  0.00     0.041 A 
ATOM     97  F   UNL A   1      44.295  35.260  33.097  1.00  0.00    -0.206 F 
ATOM     98  C   UNL A   1      43.986  38.605  31.755  1.00  0.00     0.022 A 
BRANCH  95  99
ATOM     99  S   UNL A   1      43.711  39.667  29.191  1.00  0.00     0.124 S 
ATOM    100  O   UNL A   1      43.170  38.990  28.016  1.00  0.00    -0.237 OA
ATOM    101  O   UNL A   1      42.821  40.625  29.840  1.00  0.00    -0.237 OA
ATOM    102  O   UNL A   1      45.103  40.095  29.076  1.00  0.00    -0.744 OA
ENDBRANCH  95  99
ENDBRANCH  69  92
ENDBRANCH  43  44
ENDBRANCH  36  38
ENDBRANCH  35  36
ENDBRANCH  34  35
ENDBRANCH  33  34
ENDBRANCH  32  33
ENDBRANCH  31  32
ENDBRANCH  30  31
ENDBRANCH  29  30
ENDBRANCH   1  29
TORSDOF 27
ENDMDL
MODEL 3
REMARK VINA RESULT:      -8.7      4.526      8.790
REMARK SMILES O=C(Cc1ccccc1Nc1c(Cl)cccc1C(F)(F)F)OCCOCCOCCOCCOC(=O)c1ccc(-c2c3nc(c(-c4cc(S(=O)(=O)[O-])ccc4F)c4ccc([nH]4)c(-c4cc(S(=O)(=O)[O-])ccc4F)c4nc(c(-c5cc(S(=O)(=O)[O-])ccc5F)c5ccc2[nH]5)C=C4)C=C3)cc1
REMARK SMILES IDX 27 1 26 2 25 3 24 4 23 5 22 6 2 7 1 8 3 9 4 10 5 11 9 12
REMARK SMILES IDX 6 13 8 14 7 15 10 16 11 18 12 19 17 20 13 21 14 22 16 23
REMARK SMILES IDX 15 24 18 25 19 26 20 27 21 28 28 29 29 30 30 31 31 32 32 33
REMARK SMILES IDX 33 34 34 35 35 36 36 37 37 38 38 39 99 40 39 41 98 42 40 43
REMARK SMILES IDX 41 44 42 45 92 46 43 47 97 48 91 49 93 50 44 51 96 52 90 53
REMARK SMILES IDX 89 54 45 56 77 57 57 58 76 59 58 60 61 61 75 62 94 63 59 64
REMARK SMILES IDX 60 65 74 67 95 68 62 69 46 70 47 71 55 72 48 73 54 74 56 75
REMARK SMILES IDX 53 76 49 77 50 78 51 79 52 80 78 81 79 82 87 83 80 84 86 85
REMARK SMILES IDX 88 86 85 87 81 88 82 89 83 90 84 91 63 92 64 93 72 94 65 95
REMARK SMILES IDX 71 96 73 97 70 98 66 99 67 100 68 101 69 102
REMARK H PARENT 10 17 93 55 61 66
REMARK Flexibility Score: inf
ROOT
ATOM      1  C   UNL A   1      41.308  20.431  27.316  1.00  0.00     0.188 C 
ENDROOT
BRANCH   1   2
ATOM      2  C   UNL A   1      40.152  20.800  26.386  1.00  0.00     0.188 C 
BRANCH   2   3
ATOM      3  O   UNL A   1      40.141  22.129  25.898  1.00  0.00    -0.376 OA
BRANCH   3   4
ATOM      4  C   UNL A   1      39.647  23.264  26.584  1.00  0.00     0.202 C 
BRANCH   4   5
ATOM      5  C   UNL A   1      38.173  23.653  26.605  1.00  0.00     0.261 C 
BRANCH   5   6
ATOM      6  O   UNL A   1      37.414  23.479  25.396  1.00  0.00    -0.463 OA
BRANCH   6   7
ATOM      7  C   UNL A   1      36.755  22.381  24.982  1.00  0.00     0.310 C 
ATOM      8  O   UNL A   1      36.844  22.036  23.804  1.00  0.00    -0.252 OA
BRANCH   7   9
ATOM      9  C   UNL A   1      35.810  21.672  25.917  1.00  0.00     0.160 C 
BRANCH   9  10
ATOM     10  C   UNL A   1      34.607  20.978  25.331  1.00  0.00    -0.013 A 
ATOM     11  C   UNL A   1      34.736  19.640  24.909  1.00  0.00     0.006 A 
ATOM     12  C   UNL A   1      33.395  21.680  25.096  1.00  0.00     0.042 A 
ATOM     13  C   UNL A   1      33.690  18.992  24.269  1.00  0.00     0.000 A 
ATOM     14  C   UNL A   1      32.388  21.019  24.382  1.00  0.00     0.026 A 
ATOM     15  C   UNL A   1      32.525  19.688  23.985  1.00  0.00     0.002 A 
BRANCH  12  16
ATOM     16  N   UNL A   1      33.179  22.974  25.628  1.00  0.00    -0.354 N 
ATOM     17  H   UNL A   1      33.698  23.166  26.442  1.00  0.00     0.167 HD
BRANCH  16  18
ATOM     18  C   UNL A   1      32.353  24.046  25.202  1.00  0.00     0.070 A 
ATOM     19  C   UNL A   1      31.081  24.178  25.819  1.00  0.00     0.065 A 
ATOM     20  C   UNL A   1      32.740  25.041  24.282  1.00  0.00     0.080 A 
ATOM     21  Cl  UNL A   1      30.480  22.935  26.872  1.00  0.00    -0.082 Cl
ATOM     22  C   UNL A   1      30.273  25.298  25.620  1.00  0.00     0.023 A 
ATOM     23  C   UNL A   1      31.922  26.186  24.121  1.00  0.00     0.015 A 
ATOM     24  C   UNL A   1      30.711  26.322  24.793  1.00  0.00     0.002 A 
BRANCH  20  25
ATOM     25  C   UNL A   1      33.960  24.956  23.389  1.00  0.00     0.418 C 
ATOM     26  F   UNL A   1      33.993  23.775  22.697  1.00  0.00    -0.166 F 
ATOM     27  F   UNL A   1      33.964  25.919  22.425  1.00  0.00    -0.166 F 
ATOM     28  F   UNL A   1      35.161  25.023  24.018  1.00  0.00    -0.166 F 
ENDBRANCH  20  25
ENDBRANCH  16  18
ENDBRANCH  12  16
ENDBRANCH   9  10
ENDBRANCH   7   9
ENDBRANCH   6   7
ENDBRANCH   5   6
ENDBRANCH   4   5
ENDBRANCH   3   4
ENDBRANCH   2   3
ENDBRANCH   1   2
BRANCH   1  29
ATOM     29  O   UNL A   1      41.894  19.165  27.042  1.00  0.00    -0.377 OA
BRANCH  29  30
ATOM     30  C   UNL A   1      42.488  19.075  25.756  1.00  0.00     0.188 C 
BRANCH  30  31
ATOM     31  C   UNL A   1      43.920  18.497  25.736  1.00  0.00     0.188 C 
BRANCH  31  32
ATOM     32  O   UNL A   1      44.841  18.806  24.702  1.00  0.00    -0.376 OA
BRANCH  32  33
ATOM     33  C   UNL A   1      45.889  19.736  24.912  1.00  0.00     0.202 C 
BRANCH  33  34
ATOM     34  C   UNL A   1      45.668  21.258  24.972  1.00  0.00     0.261 C 
BRANCH  34  35
ATOM     35  O   UNL A   1      44.614  21.735  25.809  1.00  0.00    -0.460 OA
BRANCH  35  36
ATOM     36  C   UNL A   1      43.928  22.808  25.349  1.00  0.00     0.338 C 
ATOM     37  O   UNL A   1      43.393  22.929  24.260  1.00  0.00    -0.246 OA
BRANCH  36  38
ATOM     38  C   UNL A   1      43.750  23.743  26.480  1.00  0.00     0.060 A 
ATOM     39  C   UNL A   1      44.051  25.100  26.285  1.00  0.00     0.016 A 
ATOM     40  C   UNL A   1      43.228  23.303  27.696  1.00  0.00     0.016 A 
ATOM     41  C   UNL A   1      43.809  26.024  27.300  1.00  0.00     0.010 A 
ATOM     42  C   UNL A   1      43.033  24.222  28.731  1.00  0.00     0.010 A 
ATOM     43  C   UNL A   1      43.332  25.584  28.540  1.00  0.00    -0.014 A 
BRANCH  43  44
ATOM     44  C   UNL A   1      43.320  26.504  29.700  1.00  0.00     0.031 A 
ATOM     45  C   UNL A   1      42.101  27.359  29.903  1.00  0.00     0.074 A 
ATOM     46  C   UNL A   1      44.371  26.593  30.535  1.00  0.00     0.049 A 
ATOM     47  N   UNL A   1      41.903  28.332  30.751  1.00  0.00    -0.248 NA
ATOM     48  C   UNL A   1      40.953  27.080  29.024  1.00  0.00     0.031 C 
ATOM     49  C   UNL A   1      45.576  25.767  30.470  1.00  0.00     0.029 A 
ATOM     50  N   UNL A   1      44.603  27.441  31.591  1.00  0.00    -0.354 N 
ATOM     51  C   UNL A   1      40.617  28.795  30.497  1.00  0.00     0.074 A 
ATOM     52  C   UNL A   1      40.084  28.001  29.412  1.00  0.00     0.031 C 
ATOM     53  C   UNL A   1      46.436  26.175  31.422  1.00  0.00     0.029 A 
ATOM     54  C   UNL A   1      45.865  27.322  32.127  1.00  0.00     0.049 A 
ATOM     55  H   UNL A   1      43.930  28.074  31.932  1.00  0.00     0.167 HD
ATOM     56  C   UNL A   1      39.952  29.802  31.109  1.00  0.00     0.034 A 
ATOM     57  C   UNL A   1      46.500  28.086  33.041  1.00  0.00     0.034 A 
ATOM     58  C   UNL A   1      40.505  30.587  32.182  1.00  0.00     0.049 A 
ATOM     59  C   UNL A   1      45.767  29.272  33.634  1.00  0.00     0.074 A 
ATOM     60  C   UNL A   1      39.899  31.601  32.903  1.00  0.00     0.029 A 
ATOM     61  N   UNL A   1      41.798  30.468  32.670  1.00  0.00    -0.354 N 
ATOM     62  N   UNL A   1      44.537  29.679  33.414  1.00  0.00    -0.248 NA
ATOM     63  C   UNL A   1      46.507  30.103  34.595  1.00  0.00     0.031 C 
ATOM     64  C   UNL A   1      40.852  32.153  33.762  1.00  0.00     0.029 A 
ATOM     65  C   UNL A   1      42.027  31.426  33.643  1.00  0.00     0.049 A 
ATOM     66  H   UNL A   1      42.456  29.800  32.370  1.00  0.00     0.167 HD
ATOM     67  C   UNL A   1      44.354  30.797  34.228  1.00  0.00     0.074 A 
ATOM     68  C   UNL A   1      45.587  30.983  34.961  1.00  0.00     0.031 C 
ATOM     69  C   UNL A   1      43.268  31.600  34.358  1.00  0.00     0.034 A 
BRANCH  56  70
ATOM     70  C   UNL A   1      38.583  30.159  30.592  1.00  0.00     0.023 A 
ATOM     71  C   UNL A   1      38.317  31.388  29.968  1.00  0.00     0.031 A 
ATOM     72  C   UNL A   1      37.531  29.233  30.709  1.00  0.00     0.131 A 
ATOM     73  C   UNL A   1      37.021  31.671  29.511  1.00  0.00     0.055 A 
ATOM     74  C   UNL A   1      36.261  29.493  30.195  1.00  0.00     0.041 A 
ATOM     75  F   UNL A   1      37.725  28.054  31.323  1.00  0.00    -0.206 F 
ATOM     76  C   UNL A   1      35.999  30.720  29.596  1.00  0.00     0.022 A 
BRANCH  73  77
ATOM     77  S   UNL A   1      36.661  33.333  28.882  1.00  0.00     0.124 S 
ATOM     78  O   UNL A   1      35.837  33.884  29.955  1.00  0.00    -0.237 OA
ATOM     79  O   UNL A   1      37.992  33.912  28.739  1.00  0.00    -0.237 OA
ATOM     80  O   UNL A   1      35.953  33.080  27.629  1.00  0.00    -0.744 OA
ENDBRANCH  73  77
ENDBRANCH  56  70
BRANCH  57  81
ATOM     81  C   UNL A   1      47.930  27.836  33.398  1.00  0.00     0.023 A 
ATOM     82  C   UNL A   1      48.976  28.338  32.606  1.00  0.00     0.031 A 
ATOM     83  C   UNL A   1      48.271  26.997  34.475  1.00  0.00     0.131 A 
ATOM     84  C   UNL A   1      50.299  27.939  32.857  1.00  0.00     0.055 A 
ATOM     85  C   UNL A   1      49.594  26.660  34.764  1.00  0.00     0.041 A 
ATOM     86  F   UNL A   1      47.314  26.476  35.261  1.00  0.00    -0.206 F 
ATOM     87  C   UNL A   1      50.617  27.116  33.940  1.00  0.00     0.022 A 
BRANCH  84  88
ATOM     88  S   UNL A   1      51.585  28.396  31.660  1.00  0.00     0.124 S 
ATOM     89  O   UNL A   1      52.668  28.822  32.538  1.00  0.00    -0.237 OA
ATOM     90  O   UNL A   1      51.792  27.140  30.946  1.00  0.00    -0.237 OA
ATOM     91  O   UNL A   1      50.958  29.460  30.878  1.00  0.00    -0.744 OA
ENDBRANCH  84  88
ENDBRANCH  57  81
BRANCH  69  92
ATOM     92  C   UNL A   1      43.355  32.728  35.358  1.00  0.00     0.023 A 
ATOM     93  C   UNL A   1      43.736  34.026  34.974  1.00  0.00     0.031 A 
ATOM     94  C   UNL A   1      43.039  32.504  36.710  1.00  0.00     0.131 A 
ATOM     95  C   UNL A   1      43.835  35.039  35.940  1.00  0.00     0.055 A 
ATOM     96  C   UNL A   1      43.077  33.531  37.654  1.00  0.00     0.041 A 
ATOM     97  F   UNL A   1      42.671  31.283  37.132  1.00  0.00    -0.206 F 
ATOM     98  C   UNL A   1      43.488  34.804  37.274  1.00  0.00     0.022 A 
BRANCH  95  99
ATOM     99  S   UNL A   1      44.499  36.653  35.446  1.00  0.00     0.124 S 
ATOM    100  O   UNL A   1      44.293  36.636  34.002  1.00  0.00    -0.237 OA
ATOM    101  O   UNL A   1      43.660  37.580  36.199  1.00  0.00    -0.237 OA
ATOM    102  O   UNL A   1      45.895  36.595  35.876  1.00  0.00    -0.744 OA
ENDBRANCH  95  99
ENDBRANCH  69  92
ENDBRANCH  43  44
ENDBRANCH  36  38
ENDBRANCH  35  36
ENDBRANCH  34  35
ENDBRANCH  33  34
ENDBRANCH  32  33
ENDBRANCH  31  32
ENDBRANCH  30  31
ENDBRANCH  29  30
ENDBRANCH   1  29
TORSDOF 27
ENDMDL
