MODEL 1
REMARK VINA RESULT:      -9.2      0.000      0.000
REMARK SMILES CCCc1nc(C)cc(N2CCC(C(=O)OCCOCCOCCOCCOC(=O)c3ccc(-c4c5nc(c(-c6cc(S(=O)(=O)[O-])ccc6F)c6ccc([nH]6)c(-c6cc(S(=O)(=O)[O-])ccc6F)c6nc(c(-c7cc(S(=O)(=O)[O-])ccc7F)c7ccc4[nH]7)C=C6)C=C5)cc3)(n3ccc(C(C)C)n3)CC2)n1
REMARK SMILES IDX 22 1 21 2 20 3 19 4 18 5 17 6 16 7 14 8 15 9 13 10 10 11
REMARK SMILES IDX 11 12 103 13 12 14 102 15 9 16 4 17 5 18 104 19 6 20 7 21
REMARK SMILES IDX 8 22 3 23 2 24 1 25 94 26 95 27 101 28 96 29 97 30 98 31
REMARK SMILES IDX 99 32 100 33 23 34 24 35 25 36 26 37 27 38 28 39 29 40 30 41
REMARK SMILES IDX 31 42 32 43 93 44 33 45 92 46 34 47 35 48 36 49 86 50 37 51
REMARK SMILES IDX 91 52 85 53 87 54 38 55 90 56 84 57 83 58 39 60 71 61 51 62
REMARK SMILES IDX 70 63 52 64 55 65 69 66 88 67 53 68 54 69 68 71 89 72 56 73
REMARK SMILES IDX 40 74 41 75 49 76 42 77 48 78 50 79 47 80 43 81 44 82 45 83
REMARK SMILES IDX 46 84 72 85 73 86 81 87 74 88 80 89 82 90 79 91 75 92 76 93
REMARK SMILES IDX 77 94 78 95 57 96 58 97 66 98 59 99 65 100 67 101 64 102
REMARK SMILES IDX 60 103 61 104 62 105 63 106
REMARK H PARENT 87 59 55 70
REMARK Flexibility Score: inf
ROOT
ATOM      1  O   UNL A   1      32.789  28.234  25.560  1.00  0.00    -0.377 OA
ENDROOT
BRANCH   1   2
ATOM      2  C   UNL A   1      31.592  28.676  24.953  1.00  0.00     0.188 C 
BRANCH   2   3
ATOM      3  C   UNL A   1      31.624  28.866  23.433  1.00  0.00     0.188 C 
BRANCH   3   4
ATOM      4  O   UNL A   1      32.464  28.045  22.649  1.00  0.00    -0.376 OA
BRANCH   4   5
ATOM      5  C   UNL A   1      32.096  26.707  22.348  1.00  0.00     0.202 C 
BRANCH   5   6
ATOM      6  C   UNL A   1      32.357  25.485  23.256  1.00  0.00     0.261 C 
BRANCH   6   7
ATOM      7  O   UNL A   1      33.722  25.146  23.547  1.00  0.00    -0.461 OA
BRANCH   7   8
ATOM      8  C   UNL A   1      34.196  23.989  23.018  1.00  0.00     0.334 C 
ATOM      9  O   UNL A   1      34.024  23.677  21.839  1.00  0.00    -0.249 OA
BRANCH   8  10
ATOM     10  C   UNL A   1      34.872  23.044  24.054  1.00  0.00     0.163 C 
ATOM     11  N   UNL A   1      37.131  22.910  25.858  1.00  0.00    -0.356 N 
ATOM     12  C   UNL A   1      37.104  21.960  24.769  1.00  0.00     0.121 C 
ATOM     13  C   UNL A   1      35.925  23.510  26.374  1.00  0.00     0.121 C 
ATOM     14  C   UNL A   1      36.248  22.471  23.625  1.00  0.00     0.064 C 
ATOM     15  C   UNL A   1      35.078  24.029  25.232  1.00  0.00     0.064 C 
BRANCH  11  16
ATOM     16  C   UNL A   1      38.360  23.241  26.385  1.00  0.00     0.132 A 
ATOM     17  C   UNL A   1      39.656  24.721  27.572  1.00  0.00     0.130 A 
ATOM     18  N   UNL A   1      40.750  23.950  27.465  1.00  0.00    -0.238 NA
ATOM     19  N   UNL A   1      38.471  24.418  27.018  1.00  0.00    -0.216 NA
ATOM     20  C   UNL A   1      40.629  22.795  26.791  1.00  0.00     0.043 A 
ATOM     21  C   UNL A   1      41.866  21.969  26.642  1.00  0.00     0.067 C 
ATOM     22  C   UNL A   1      39.434  22.388  26.250  1.00  0.00     0.070 A 
BRANCH  17  23
ATOM     23  C   UNL A   1      39.741  26.030  28.311  1.00  0.00     0.077 C 
BRANCH  23  24
ATOM     24  C   UNL A   1      40.557  27.128  27.624  1.00  0.00     0.005 C 
ATOM     25  C   UNL A   1      40.926  26.803  26.181  1.00  0.00     0.004 C 
ENDBRANCH  23  24
ENDBRANCH  17  23
ENDBRANCH  11  16
BRANCH  10  26
ATOM     26  N   UNL A   1      33.932  21.946  24.377  1.00  0.00    -0.255 N 
ATOM     27  C   UNL A   1      32.642  22.023  24.843  1.00  0.00     0.110 A 
ATOM     28  N   UNL A   1      34.338  20.656  24.307  1.00  0.00    -0.177 NA
ATOM     29  C   UNL A   1      32.165  20.739  24.931  1.00  0.00     0.045 A 
ATOM     30  C   UNL A   1      33.246  19.923  24.546  1.00  0.00     0.065 A 
BRANCH  30  31
ATOM     31  C   UNL A   1      33.272  18.432  24.367  1.00  0.00     0.034 C 
ATOM     32  C   UNL A   1      32.657  17.695  25.558  1.00  0.00     0.014 C 
ATOM     33  C   UNL A   1      32.561  18.030  23.070  1.00  0.00     0.014 C 
ENDBRANCH  30  31
ENDBRANCH  10  26
ENDBRANCH   8  10
ENDBRANCH   7   8
ENDBRANCH   6   7
ENDBRANCH   5   6
ENDBRANCH   4   5
ENDBRANCH   3   4
ENDBRANCH   2   3
ENDBRANCH   1   2
BRANCH   1  34
ATOM     34  C   UNL A   1      33.800  29.193  25.851  1.00  0.00     0.188 C 
BRANCH  34  35
ATOM     35  C   UNL A   1      33.689  30.057  27.123  1.00  0.00     0.188 C 
BRANCH  35  36
ATOM     36  O   UNL A   1      34.765  30.962  27.320  1.00  0.00    -0.376 OA
BRANCH  36  37
ATOM     37  C   UNL A   1      35.280  31.157  28.627  1.00  0.00     0.202 C 
BRANCH  37  38
ATOM     38  C   UNL A   1      36.800  31.302  28.816  1.00  0.00     0.261 C 
BRANCH  38  39
ATOM     39  O   UNL A   1      37.522  30.134  29.235  1.00  0.00    -0.460 OA
BRANCH  39  40
ATOM     40  C   UNL A   1      37.332  29.673  30.492  1.00  0.00     0.338 C 
ATOM     41  O   UNL A   1      36.275  29.424  31.027  1.00  0.00    -0.246 OA
BRANCH  40  42
ATOM     42  C   UNL A   1      38.668  29.327  31.032  1.00  0.00     0.060 A 
ATOM     43  C   UNL A   1      39.664  30.313  31.074  1.00  0.00     0.016 A 
ATOM     44  C   UNL A   1      38.925  28.043  31.513  1.00  0.00     0.016 A 
ATOM     45  C   UNL A   1      40.928  30.010  31.582  1.00  0.00     0.010 A 
ATOM     46  C   UNL A   1      40.200  27.733  31.992  1.00  0.00     0.010 A 
ATOM     47  C   UNL A   1      41.215  28.708  32.008  1.00  0.00    -0.014 A 
BRANCH  47  48
ATOM     48  C   UNL A   1      42.614  28.303  32.286  1.00  0.00     0.031 A 
ATOM     49  C   UNL A   1      43.494  27.950  31.118  1.00  0.00     0.074 A 
ATOM     50  C   UNL A   1      43.094  28.242  33.540  1.00  0.00     0.049 A 
ATOM     51  N   UNL A   1      44.698  27.443  31.105  1.00  0.00    -0.248 NA
ATOM     52  C   UNL A   1      42.929  28.202  29.783  1.00  0.00     0.031 C 
ATOM     53  C   UNL A   1      42.360  28.628  34.745  1.00  0.00     0.029 A 
ATOM     54  N   UNL A   1      44.312  27.814  34.010  1.00  0.00    -0.354 N 
ATOM     55  C   UNL A   1      45.032  27.301  29.763  1.00  0.00     0.074 A 
ATOM     56  C   UNL A   1      43.892  27.750  28.994  1.00  0.00     0.031 C 
ATOM     57  C   UNL A   1      43.138  28.399  35.818  1.00  0.00     0.029 A 
ATOM     58  C   UNL A   1      44.399  27.800  35.383  1.00  0.00     0.049 A 
ATOM     59  H   UNL A   1      45.052  27.544  33.419  1.00  0.00     0.167 HD
ATOM     60  C   UNL A   1      46.187  26.841  29.224  1.00  0.00     0.034 A 
ATOM     61  C   UNL A   1      45.366  27.316  36.191  1.00  0.00     0.034 A 
ATOM     62  C   UNL A   1      47.307  26.382  30.008  1.00  0.00     0.049 A 
ATOM     63  C   UNL A   1      46.593  26.687  35.568  1.00  0.00     0.074 A 
ATOM     64  C   UNL A   1      48.529  25.907  29.568  1.00  0.00     0.029 A 
ATOM     65  N   UNL A   1      47.335  26.324  31.395  1.00  0.00    -0.354 N 
ATOM     66  N   UNL A   1      46.902  26.556  34.298  1.00  0.00    -0.248 NA
ATOM     67  C   UNL A   1      47.598  26.134  36.488  1.00  0.00     0.031 C 
ATOM     68  C   UNL A   1      49.259  25.480  30.681  1.00  0.00     0.029 A 
ATOM     69  C   UNL A   1      48.533  25.774  31.824  1.00  0.00     0.049 A 
ATOM     70  H   UNL A   1      46.610  26.629  31.988  1.00  0.00     0.167 HD
ATOM     71  C   UNL A   1      48.150  25.934  34.271  1.00  0.00     0.074 A 
ATOM     72  C   UNL A   1      48.542  25.730  35.650  1.00  0.00     0.031 C 
ATOM     73  C   UNL A   1      48.906  25.567  33.204  1.00  0.00     0.034 A 
BRANCH  60  74
ATOM     74  C   UNL A   1      46.267  26.752  27.720  1.00  0.00     0.023 A 
ATOM     75  C   UNL A   1      45.965  25.566  27.029  1.00  0.00     0.031 A 
ATOM     76  C   UNL A   1      46.677  27.866  26.967  1.00  0.00     0.131 A 
ATOM     77  C   UNL A   1      46.142  25.502  25.639  1.00  0.00     0.055 A 
ATOM     78  C   UNL A   1      46.770  27.822  25.575  1.00  0.00     0.041 A 
ATOM     79  F   UNL A   1      47.005  29.018  27.574  1.00  0.00    -0.206 F 
ATOM     80  C   UNL A   1      46.516  26.630  24.904  1.00  0.00     0.022 A 
BRANCH  77  81
ATOM     81  S   UNL A   1      46.021  23.886  24.823  1.00  0.00     0.124 S 
ATOM     82  O   UNL A   1      44.623  23.876  24.396  1.00  0.00    -0.237 OA
ATOM     83  O   UNL A   1      47.013  23.994  23.761  1.00  0.00    -0.237 OA
ATOM     84  O   UNL A   1      46.345  22.939  25.889  1.00  0.00    -0.744 OA
ENDBRANCH  77  81
ENDBRANCH  60  74
BRANCH  61  85
ATOM     85  C   UNL A   1      45.199  27.338  37.675  1.00  0.00     0.023 A 
ATOM     86  C   UNL A   1      45.649  28.425  38.439  1.00  0.00     0.031 A 
ATOM     87  C   UNL A   1      44.653  26.236  38.359  1.00  0.00     0.131 A 
ATOM     88  C   UNL A   1      45.591  28.369  39.842  1.00  0.00     0.055 A 
ATOM     89  C   UNL A   1      44.538  26.212  39.750  1.00  0.00     0.041 A 
ATOM     90  F   UNL A   1      44.219  25.162  37.681  1.00  0.00    -0.206 F 
ATOM     91  C   UNL A   1      45.022  27.278  40.501  1.00  0.00     0.022 A 
BRANCH  88  92
ATOM     92  S   UNL A   1      46.369  29.701  40.796  1.00  0.00     0.124 S 
ATOM     93  O   UNL A   1      47.203  28.949  41.727  1.00  0.00    -0.237 OA
ATOM     94  O   UNL A   1      47.074  30.445  39.758  1.00  0.00    -0.237 OA
ATOM     95  O   UNL A   1      45.233  30.398  41.396  1.00  0.00    -0.744 OA
ENDBRANCH  88  92
ENDBRANCH  61  85
BRANCH  73  96
ATOM     96  C   UNL A   1      50.252  24.942  33.485  1.00  0.00     0.023 A 
ATOM     97  C   UNL A   1      50.450  23.552  33.430  1.00  0.00     0.031 A 
ATOM     98  C   UNL A   1      51.359  25.755  33.793  1.00  0.00     0.131 A 
ATOM     99  C   UNL A   1      51.713  23.014  33.720  1.00  0.00     0.055 A 
ATOM    100  C   UNL A   1      52.626  25.218  34.017  1.00  0.00     0.041 A 
ATOM    101  F   UNL A   1      51.227  27.090  33.864  1.00  0.00    -0.206 F 
ATOM    102  C   UNL A   1      52.807  23.839  33.991  1.00  0.00     0.022 A 
BRANCH  99 103
ATOM    103  S   UNL A   1      51.893  21.210  33.813  1.00  0.00     0.124 S 
ATOM    104  O   UNL A   1      53.282  21.023  33.406  1.00  0.00    -0.237 OA
ATOM    105  O   UNL A   1      51.595  20.937  35.215  1.00  0.00    -0.237 OA
ATOM    106  O   UNL A   1      50.897  20.717  32.861  1.00  0.00    -0.744 OA
ENDBRANCH  99 103
ENDBRANCH  73  96
ENDBRANCH  47  48
ENDBRANCH  40  42
ENDBRANCH  39  40
ENDBRANCH  38  39
ENDBRANCH  37  38
ENDBRANCH  36  37
ENDBRANCH  35  36
ENDBRANCH  34  35
ENDBRANCH   1  34
TORSDOF 28
ENDMDL
MODEL 2
REMARK VINA RESULT:      -8.8      5.271     10.285
REMARK SMILES CCCc1nc(C)cc(N2CCC(C(=O)OCCOCCOCCOCCOC(=O)c3ccc(-c4c5nc(c(-c6cc(S(=O)(=O)[O-])ccc6F)c6ccc([nH]6)c(-c6cc(S(=O)(=O)[O-])ccc6F)c6nc(c(-c7cc(S(=O)(=O)[O-])ccc7F)c7ccc4[nH]7)C=C6)C=C5)cc3)(n3ccc(C(C)C)n3)CC2)n1
REMARK SMILES IDX 22 1 21 2 20 3 19 4 18 5 17 6 16 7 14 8 15 9 13 10 10 11
REMARK SMILES IDX 11 12 103 13 12 14 102 15 9 16 4 17 5 18 104 19 6 20 7 21
REMARK SMILES IDX 8 22 3 23 2 24 1 25 94 26 95 27 101 28 96 29 97 30 98 31
REMARK SMILES IDX 99 32 100 33 23 34 24 35 25 36 26 37 27 38 28 39 29 40 30 41
REMARK SMILES IDX 31 42 32 43 93 44 33 45 92 46 34 47 35 48 36 49 86 50 37 51
REMARK SMILES IDX 91 52 85 53 87 54 38 55 90 56 84 57 83 58 39 60 71 61 51 62
REMARK SMILES IDX 70 63 52 64 55 65 69 66 88 67 53 68 54 69 68 71 89 72 56 73
REMARK SMILES IDX 40 74 41 75 49 76 42 77 48 78 50 79 47 80 43 81 44 82 45 83
REMARK SMILES IDX 46 84 72 85 73 86 81 87 74 88 80 89 82 90 79 91 75 92 76 93
REMARK SMILES IDX 77 94 78 95 57 96 58 97 66 98 59 99 65 100 67 101 64 102
REMARK SMILES IDX 60 103 61 104 62 105 63 106
REMARK H PARENT 87 59 55 70
REMARK Flexibility Score: inf
ROOT
ATOM      1  O   UNL A   1      38.913  28.180  27.780  1.00  0.00    -0.377 OA
ENDROOT
BRANCH   1   2
ATOM      2  C   UNL A   1      38.172  29.032  28.631  1.00  0.00     0.188 C 
BRANCH   2   3
ATOM      3  C   UNL A   1      37.199  30.001  27.951  1.00  0.00     0.188 C 
BRANCH   3   4
ATOM      4  O   UNL A   1      36.086  29.487  27.249  1.00  0.00    -0.376 OA
BRANCH   4   5
ATOM      5  C   UNL A   1      34.771  29.640  27.761  1.00  0.00     0.202 C 
BRANCH   5   6
ATOM      6  C   UNL A   1      33.506  28.969  27.183  1.00  0.00     0.261 C 
BRANCH   6   7
ATOM      7  O   UNL A   1      33.642  27.655  26.620  1.00  0.00    -0.461 OA
BRANCH   7   8
ATOM      8  C   UNL A   1      33.632  27.560  25.266  1.00  0.00     0.334 C 
ATOM      9  O   UNL A   1      34.060  28.453  24.534  1.00  0.00    -0.249 OA
BRANCH   8  10
ATOM     10  C   UNL A   1      32.931  26.282  24.721  1.00  0.00     0.163 C 
ATOM     11  N   UNL A   1      33.236  23.405  24.613  1.00  0.00    -0.356 N 
ATOM     12  C   UNL A   1      33.271  24.116  23.355  1.00  0.00     0.121 C 
ATOM     13  C   UNL A   1      32.565  23.943  25.772  1.00  0.00     0.121 C 
ATOM     14  C   UNL A   1      33.673  25.565  23.563  1.00  0.00     0.064 C 
ATOM     15  C   UNL A   1      32.976  25.384  25.983  1.00  0.00     0.064 C 
BRANCH  11  16
ATOM     16  C   UNL A   1      33.884  22.192  24.678  1.00  0.00     0.132 A 
ATOM     17  C   UNL A   1      33.770  19.897  24.640  1.00  0.00     0.130 A 
ATOM     18  N   UNL A   1      35.098  19.763  24.780  1.00  0.00    -0.238 NA
ATOM     19  N   UNL A   1      33.136  21.080  24.625  1.00  0.00    -0.216 NA
ATOM     20  C   UNL A   1      35.827  20.887  24.874  1.00  0.00     0.043 A 
ATOM     21  C   UNL A   1      37.299  20.722  25.073  1.00  0.00     0.067 C 
ATOM     22  C   UNL A   1      35.256  22.134  24.803  1.00  0.00     0.070 A 
BRANCH  17  23
ATOM     23  C   UNL A   1      32.907  18.667  24.540  1.00  0.00     0.077 C 
BRANCH  23  24
ATOM     24  C   UNL A   1      33.101  17.822  23.278  1.00  0.00     0.005 C 
ATOM     25  C   UNL A   1      33.948  16.574  23.501  1.00  0.00     0.004 C 
ENDBRANCH  23  24
ENDBRANCH  17  23
ENDBRANCH  11  16
BRANCH  10  26
ATOM     26  N   UNL A   1      31.552  26.635  24.312  1.00  0.00    -0.255 N 
ATOM     27  C   UNL A   1      30.415  25.866  24.357  1.00  0.00     0.110 A 
ATOM     28  N   UNL A   1      31.297  27.833  23.735  1.00  0.00    -0.177 NA
ATOM     29  C   UNL A   1      29.376  26.654  23.930  1.00  0.00     0.045 A 
ATOM     30  C   UNL A   1      29.968  27.885  23.592  1.00  0.00     0.065 A 
BRANCH  30  31
ATOM     31  C   UNL A   1      29.297  29.155  23.151  1.00  0.00     0.034 C 
ATOM     32  C   UNL A   1      29.985  29.780  21.935  1.00  0.00     0.014 C 
ATOM     33  C   UNL A   1      27.814  28.908  22.852  1.00  0.00     0.014 C 
ENDBRANCH  30  31
ENDBRANCH  10  26
ENDBRANCH   8  10
ENDBRANCH   7   8
ENDBRANCH   6   7
ENDBRANCH   5   6
ENDBRANCH   4   5
ENDBRANCH   3   4
ENDBRANCH   2   3
ENDBRANCH   1   2
BRANCH   1  34
ATOM     34  C   UNL A   1      39.422  26.962  28.312  1.00  0.00     0.188 C 
BRANCH  34  35
ATOM     35  C   UNL A   1      40.500  26.180  27.536  1.00  0.00     0.188 C 
BRANCH  35  36
ATOM     36  O   UNL A   1      40.019  25.043  26.835  1.00  0.00    -0.376 OA
BRANCH  36  37
ATOM     37  C   UNL A   1      39.866  23.813  27.525  1.00  0.00     0.202 C 
BRANCH  37  38
ATOM     38  C   UNL A   1      40.299  22.511  26.831  1.00  0.00     0.261 C 
BRANCH  38  39
ATOM     39  O   UNL A   1      41.139  22.634  25.673  1.00  0.00    -0.460 OA
BRANCH  39  40
ATOM     40  C   UNL A   1      42.436  22.261  25.773  1.00  0.00     0.338 C 
ATOM     41  O   UNL A   1      42.915  21.196  25.457  1.00  0.00    -0.246 OA
BRANCH  40  42
ATOM     42  C   UNL A   1      43.205  23.470  26.148  1.00  0.00     0.060 A 
ATOM     43  C   UNL A   1      43.290  24.535  25.240  1.00  0.00     0.016 A 
ATOM     44  C   UNL A   1      43.819  23.558  27.398  1.00  0.00     0.016 A 
ATOM     45  C   UNL A   1      44.006  25.686  25.575  1.00  0.00     0.010 A 
ATOM     46  C   UNL A   1      44.561  24.697  27.719  1.00  0.00     0.010 A 
ATOM     47  C   UNL A   1      44.678  25.757  26.800  1.00  0.00    -0.014 A 
BRANCH  47  48
ATOM     48  C   UNL A   1      45.659  26.840  27.053  1.00  0.00     0.031 A 
ATOM     49  C   UNL A   1      45.190  28.061  27.795  1.00  0.00     0.074 A 
ATOM     50  C   UNL A   1      46.933  26.749  26.632  1.00  0.00     0.049 A 
ATOM     51  N   UNL A   1      45.810  29.189  28.020  1.00  0.00    -0.248 NA
ATOM     52  C   UNL A   1      43.830  27.996  28.353  1.00  0.00     0.031 C 
ATOM     53  C   UNL A   1      47.522  25.587  25.967  1.00  0.00     0.029 A 
ATOM     54  N   UNL A   1      47.958  27.662  26.686  1.00  0.00    -0.354 N 
ATOM     55  C   UNL A   1      44.913  29.975  28.734  1.00  0.00     0.074 A 
ATOM     56  C   UNL A   1      43.697  29.204  28.879  1.00  0.00     0.031 C 
ATOM     57  C   UNL A   1      48.800  25.868  25.657  1.00  0.00     0.029 A 
ATOM     58  C   UNL A   1      49.104  27.243  26.049  1.00  0.00     0.049 A 
ATOM     59  H   UNL A   1      47.880  28.533  27.138  1.00  0.00     0.167 HD
ATOM     60  C   UNL A   1      45.091  31.226  29.226  1.00  0.00     0.034 A 
ATOM     61  C   UNL A   1      50.244  27.911  25.776  1.00  0.00     0.034 A 
ATOM     62  C   UNL A   1      46.305  31.984  29.057  1.00  0.00     0.049 A 
ATOM     63  C   UNL A   1      50.373  29.352  26.221  1.00  0.00     0.074 A 
ATOM     64  C   UNL A   1      46.599  33.253  29.523  1.00  0.00     0.029 A 
ATOM     65  N   UNL A   1      47.422  31.552  28.353  1.00  0.00    -0.354 N 
ATOM     66  N   UNL A   1      49.520  30.089  26.896  1.00  0.00    -0.248 NA
ATOM     67  C   UNL A   1      51.615  30.052  25.863  1.00  0.00     0.031 C 
ATOM     68  C   UNL A   1      47.853  33.622  29.027  1.00  0.00     0.029 A 
ATOM     69  C   UNL A   1      48.384  32.548  28.329  1.00  0.00     0.049 A 
ATOM     70  H   UNL A   1      47.515  30.666  27.931  1.00  0.00     0.167 HD
ATOM     71  C   UNL A   1      50.138  31.328  27.067  1.00  0.00     0.074 A 
ATOM     72  C   UNL A   1      51.439  31.233  26.438  1.00  0.00     0.031 C 
ATOM     73  C   UNL A   1      49.674  32.442  27.689  1.00  0.00     0.034 A 
BRANCH  60  74
ATOM     74  C   UNL A   1      43.923  31.869  29.933  1.00  0.00     0.023 A 
ATOM     75  C   UNL A   1      43.565  31.517  31.246  1.00  0.00     0.031 A 
ATOM     76  C   UNL A   1      43.140  32.831  29.273  1.00  0.00     0.131 A 
ATOM     77  C   UNL A   1      42.418  32.072  31.831  1.00  0.00     0.055 A 
ATOM     78  C   UNL A   1      42.048  33.443  29.890  1.00  0.00     0.041 A 
ATOM     79  F   UNL A   1      43.417  33.187  28.008  1.00  0.00    -0.206 F 
ATOM     80  C   UNL A   1      41.672  33.054  31.172  1.00  0.00     0.022 A 
BRANCH  77  81
ATOM     81  S   UNL A   1      41.828  31.386  33.403  1.00  0.00     0.124 S 
ATOM     82  O   UNL A   1      40.403  31.711  33.349  1.00  0.00    -0.237 OA
ATOM     83  O   UNL A   1      42.166  29.974  33.278  1.00  0.00    -0.237 OA
ATOM     84  O   UNL A   1      42.589  32.126  34.407  1.00  0.00    -0.744 OA
ENDBRANCH  77  81
ENDBRANCH  60  74
BRANCH  61  85
ATOM     85  C   UNL A   1      51.335  27.264  24.988  1.00  0.00     0.023 A 
ATOM     86  C   UNL A   1      52.421  26.645  25.625  1.00  0.00     0.031 A 
ATOM     87  C   UNL A   1      51.344  27.320  23.582  1.00  0.00     0.131 A 
ATOM     88  C   UNL A   1      53.493  26.151  24.864  1.00  0.00     0.055 A 
ATOM     89  C   UNL A   1      52.381  26.770  22.826  1.00  0.00     0.041 A 
ATOM     90  F   UNL A   1      50.339  27.912  22.919  1.00  0.00    -0.206 F 
ATOM     91  C   UNL A   1      53.472  26.194  23.468  1.00  0.00     0.022 A 
BRANCH  88  92
ATOM     92  S   UNL A   1      54.967  25.547  25.730  1.00  0.00     0.124 S 
ATOM     93  O   UNL A   1      54.471  25.404  27.094  1.00  0.00    -0.237 OA
ATOM     94  O   UNL A   1      55.251  24.306  25.016  1.00  0.00    -0.237 OA
ATOM     95  O   UNL A   1      55.943  26.616  25.528  1.00  0.00    -0.744 OA
ENDBRANCH  88  92
ENDBRANCH  61  85
BRANCH  73  96
ATOM     96  C   UNL A   1      50.596  33.638  27.754  1.00  0.00     0.023 A 
ATOM     97  C   UNL A   1      50.595  34.629  26.758  1.00  0.00     0.031 A 
ATOM     98  C   UNL A   1      51.472  33.796  28.844  1.00  0.00     0.131 A 
ATOM     99  C   UNL A   1      51.484  35.712  26.850  1.00  0.00     0.055 A 
ATOM    100  C   UNL A   1      52.307  34.907  28.962  1.00  0.00     0.041 A 
ATOM    101  F   UNL A   1      51.518  32.877  29.823  1.00  0.00    -0.206 F 
ATOM    102  C   UNL A   1      52.324  35.868  27.956  1.00  0.00     0.022 A 
BRANCH  99 103
ATOM    103  S   UNL A   1      51.584  36.878  25.464  1.00  0.00     0.124 S 
ATOM    104  O   UNL A   1      50.205  36.899  24.987  1.00  0.00    -0.237 OA
ATOM    105  O   UNL A   1      52.054  38.098  26.113  1.00  0.00    -0.237 OA
ATOM    106  O   UNL A   1      52.545  36.251  24.556  1.00  0.00    -0.744 OA
ENDBRANCH  99 103
ENDBRANCH  73  96
ENDBRANCH  47  48
ENDBRANCH  40  42
ENDBRANCH  39  40
ENDBRANCH  38  39
ENDBRANCH  37  38
ENDBRANCH  36  37
ENDBRANCH  35  36
ENDBRANCH  34  35
ENDBRANCH   1  34
TORSDOF 28
ENDMDL
MODEL 3
REMARK VINA RESULT:      -8.7      6.574     10.336
REMARK SMILES CCCc1nc(C)cc(N2CCC(C(=O)OCCOCCOCCOCCOC(=O)c3ccc(-c4c5nc(c(-c6cc(S(=O)(=O)[O-])ccc6F)c6ccc([nH]6)c(-c6cc(S(=O)(=O)[O-])ccc6F)c6nc(c(-c7cc(S(=O)(=O)[O-])ccc7F)c7ccc4[nH]7)C=C6)C=C5)cc3)(n3ccc(C(C)C)n3)CC2)n1
REMARK SMILES IDX 22 1 21 2 20 3 19 4 18 5 17 6 16 7 14 8 15 9 13 10 10 11
REMARK SMILES IDX 11 12 103 13 12 14 102 15 9 16 4 17 5 18 104 19 6 20 7 21
REMARK SMILES IDX 8 22 3 23 2 24 1 25 94 26 95 27 101 28 96 29 97 30 98 31
REMARK SMILES IDX 99 32 100 33 23 34 24 35 25 36 26 37 27 38 28 39 29 40 30 41
REMARK SMILES IDX 31 42 32 43 93 44 33 45 92 46 34 47 35 48 36 49 86 50 37 51
REMARK SMILES IDX 91 52 85 53 87 54 38 55 90 56 84 57 83 58 39 60 71 61 51 62
REMARK SMILES IDX 70 63 52 64 55 65 69 66 88 67 53 68 54 69 68 71 89 72 56 73
REMARK SMILES IDX 40 74 41 75 49 76 42 77 48 78 50 79 47 80 43 81 44 82 45 83
REMARK SMILES IDX 46 84 72 85 73 86 81 87 74 88 80 89 82 90 79 91 75 92 76 93
REMARK SMILES IDX 77 94 78 95 57 96 58 97 66 98 59 99 65 100 67 101 64 102
REMARK SMILES IDX 60 103 61 104 62 105 63 106
REMARK H PARENT 87 59 55 70
REMARK Flexibility Score: inf
ROOT
ATOM      1  O   UNL A   1      37.923  29.475  28.088  1.00  0.00    -0.377 OA
ENDROOT
BRANCH   1   2
ATOM      2  C   UNL A   1      37.013  29.893  29.087  1.00  0.00     0.188 C 
BRANCH   2   3
ATOM      3  C   UNL A   1      35.785  30.674  28.611  1.00  0.00     0.188 C 
BRANCH   3   4
ATOM      4  O   UNL A   1      34.782  30.007  27.873  1.00  0.00    -0.376 OA
BRANCH   4   5
ATOM      5  C   UNL A   1      33.677  30.721  27.339  1.00  0.00     0.202 C 
BRANCH   5   6
ATOM      6  C   UNL A   1      32.608  30.131  26.392  1.00  0.00     0.261 C 
BRANCH   6   7
ATOM      7  O   UNL A   1      32.566  28.705  26.235  1.00  0.00    -0.461 OA
BRANCH   7   8
ATOM      8  C   UNL A   1      33.147  28.189  25.121  1.00  0.00     0.334 C 
ATOM      9  O   UNL A   1      34.124  28.708  24.580  1.00  0.00    -0.249 OA
BRANCH   8  10
ATOM     10  C   UNL A   1      32.405  26.958  24.526  1.00  0.00     0.163 C 
ATOM     11  N   UNL A   1      32.547  24.069  24.408  1.00  0.00    -0.356 N 
ATOM     12  C   UNL A   1      32.694  24.784  23.161  1.00  0.00     0.121 C 
ATOM     13  C   UNL A   1      31.845  24.637  25.533  1.00  0.00     0.121 C 
ATOM     14  C   UNL A   1      33.168  26.206  23.404  1.00  0.00     0.064 C 
ATOM     15  C   UNL A   1      32.326  26.051  25.781  1.00  0.00     0.064 C 
BRANCH  11  16
ATOM     16  C   UNL A   1      33.118  22.819  24.498  1.00  0.00     0.132 A 
ATOM     17  C   UNL A   1      34.900  21.511  25.125  1.00  0.00     0.130 A 
ATOM     18  N   UNL A   1      34.298  20.382  24.721  1.00  0.00    -0.238 NA
ATOM     19  N   UNL A   1      34.361  22.734  24.994  1.00  0.00    -0.216 NA
ATOM     20  C   UNL A   1      33.070  20.492  24.188  1.00  0.00     0.043 A 
ATOM     21  C   UNL A   1      32.430  19.230  23.703  1.00  0.00     0.067 C 
ATOM     22  C   UNL A   1      32.428  21.701  24.078  1.00  0.00     0.070 A 
BRANCH  17  23
ATOM     23  C   UNL A   1      36.281  21.443  25.722  1.00  0.00     0.077 C 
BRANCH  23  24
ATOM     24  C   UNL A   1      37.406  21.074  24.750  1.00  0.00     0.005 C 
ATOM     25  C   UNL A   1      37.907  19.644  24.909  1.00  0.00     0.004 C 
ENDBRANCH  23  24
ENDBRANCH  17  23
ENDBRANCH  11  16
BRANCH  10  26
ATOM     26  N   UNL A   1      31.073  27.394  24.045  1.00  0.00    -0.255 N 
ATOM     27  C   UNL A   1      29.919  26.661  23.918  1.00  0.00     0.110 A 
ATOM     28  N   UNL A   1      30.896  28.651  23.574  1.00  0.00    -0.177 NA
ATOM     29  C   UNL A   1      28.938  27.521  23.490  1.00  0.00     0.045 A 
ATOM     30  C   UNL A   1      29.586  28.760  23.330  1.00  0.00     0.065 A 
BRANCH  30  31
ATOM     31  C   UNL A   1      28.985  30.088  22.967  1.00  0.00     0.034 C 
ATOM     32  C   UNL A   1      29.147  30.409  21.479  1.00  0.00     0.014 C 
ATOM     33  C   UNL A   1      27.504  30.138  23.362  1.00  0.00     0.014 C 
ENDBRANCH  30  31
ENDBRANCH  10  26
ENDBRANCH   8  10
ENDBRANCH   7   8
ENDBRANCH   6   7
ENDBRANCH   5   6
ENDBRANCH   4   5
ENDBRANCH   3   4
ENDBRANCH   2   3
ENDBRANCH   1   2
BRANCH   1  34
ATOM     34  C   UNL A   1      38.587  28.227  28.252  1.00  0.00     0.188 C 
BRANCH  34  35
ATOM     35  C   UNL A   1      40.090  28.112  27.928  1.00  0.00     0.188 C 
BRANCH  35  36
ATOM     36  O   UNL A   1      40.417  27.102  26.987  1.00  0.00    -0.376 OA
BRANCH  36  37
ATOM     37  C   UNL A   1      40.991  25.887  27.441  1.00  0.00     0.202 C 
BRANCH  37  38
ATOM     38  C   UNL A   1      42.155  25.269  26.647  1.00  0.00     0.261 C 
BRANCH  38  39
ATOM     39  O   UNL A   1      42.870  26.135  25.753  1.00  0.00    -0.460 OA
BRANCH  39  40
ATOM     40  C   UNL A   1      44.078  26.607  26.138  1.00  0.00     0.338 C 
ATOM     41  O   UNL A   1      45.164  26.223  25.766  1.00  0.00    -0.246 OA
BRANCH  40  42
ATOM     42  C   UNL A   1      43.829  27.825  26.944  1.00  0.00     0.060 A 
ATOM     43  C   UNL A   1      43.198  28.924  26.345  1.00  0.00     0.016 A 
ATOM     44  C   UNL A   1      44.197  27.869  28.290  1.00  0.00     0.016 A 
ATOM     45  C   UNL A   1      42.950  30.080  27.088  1.00  0.00     0.010 A 
ATOM     46  C   UNL A   1      43.976  29.038  29.023  1.00  0.00     0.010 A 
ATOM     47  C   UNL A   1      43.373  30.157  28.420  1.00  0.00    -0.014 A 
BRANCH  47  48
ATOM     48  C   UNL A   1      43.369  31.458  29.131  1.00  0.00     0.031 A 
ATOM     49  C   UNL A   1      44.403  32.480  28.745  1.00  0.00     0.074 A 
ATOM     50  C   UNL A   1      42.476  31.728  30.100  1.00  0.00     0.049 A 
ATOM     51  N   UNL A   1      44.691  33.626  29.302  1.00  0.00    -0.248 NA
ATOM     52  C   UNL A   1      45.226  32.154  27.570  1.00  0.00     0.031 C 
ATOM     53  C   UNL A   1      41.384  30.848  30.512  1.00  0.00     0.029 A 
ATOM     54  N   UNL A   1      42.360  32.818  30.928  1.00  0.00    -0.354 N 
ATOM     55  C   UNL A   1      45.738  34.154  28.555  1.00  0.00     0.074 A 
ATOM     56  C   UNL A   1      46.051  33.189  27.524  1.00  0.00     0.031 C 
ATOM     57  C   UNL A   1      40.721  31.426  31.529  1.00  0.00     0.029 A 
ATOM     58  C   UNL A   1      41.374  32.688  31.878  1.00  0.00     0.049 A 
ATOM     59  H   UNL A   1      42.929  33.618  30.847  1.00  0.00     0.167 HD
ATOM     60  C   UNL A   1      46.376  35.339  28.716  1.00  0.00     0.034 A 
ATOM     61  C   UNL A   1      41.067  33.473  32.931  1.00  0.00     0.034 A 
ATOM     62  C   UNL A   1      46.060  36.281  29.760  1.00  0.00     0.049 A 
ATOM     63  C   UNL A   1      41.878  34.729  33.169  1.00  0.00     0.074 A 
ATOM     64  C   UNL A   1      46.633  37.515  30.009  1.00  0.00     0.029 A 
ATOM     65  N   UNL A   1      45.097  36.086  30.742  1.00  0.00    -0.354 N 
ATOM     66  N   UNL A   1      42.867  35.222  32.458  1.00  0.00    -0.248 NA
ATOM     67  C   UNL A   1      41.536  35.529  34.354  1.00  0.00     0.031 C 
ATOM     68  C   UNL A   1      46.081  38.024  31.188  1.00  0.00     0.029 A 
ATOM     69  C   UNL A   1      45.096  37.153  31.626  1.00  0.00     0.049 A 
ATOM     70  H   UNL A   1      44.502  35.303  30.801  1.00  0.00     0.167 HD
ATOM     71  C   UNL A   1      43.242  36.404  33.096  1.00  0.00     0.074 A 
ATOM     72  C   UNL A   1      42.364  36.557  34.237  1.00  0.00     0.031 C 
ATOM     73  C   UNL A   1      44.220  37.287  32.767  1.00  0.00     0.034 A 
BRANCH  60  74
ATOM     74  C   UNL A   1      47.518  35.647  27.779  1.00  0.00     0.023 A 
ATOM     75  C   UNL A   1      48.836  35.244  28.057  1.00  0.00     0.031 A 
ATOM     76  C   UNL A   1      47.289  36.378  26.601  1.00  0.00     0.131 A 
ATOM     77  C   UNL A   1      49.881  35.632  27.205  1.00  0.00     0.055 A 
ATOM     78  C   UNL A   1      48.320  36.689  25.713  1.00  0.00     0.041 A 
ATOM     79  F   UNL A   1      46.056  36.815  26.296  1.00  0.00    -0.206 F 
ATOM     80  C   UNL A   1      49.628  36.328  26.020  1.00  0.00     0.022 A 
BRANCH  77  81
ATOM     81  S   UNL A   1      51.589  35.343  27.742  1.00  0.00     0.124 S 
ATOM     82  O   UNL A   1      51.604  33.891  27.906  1.00  0.00    -0.237 OA
ATOM     83  O   UNL A   1      52.363  35.868  26.624  1.00  0.00    -0.237 OA
ATOM     84  O   UNL A   1      51.691  36.104  28.986  1.00  0.00    -0.744 OA
ENDBRANCH  77  81
ENDBRANCH  60  74
BRANCH  61  85
ATOM     85  C   UNL A   1      39.990  33.078  33.888  1.00  0.00     0.023 A 
ATOM     86  C   UNL A   1      38.654  33.443  33.667  1.00  0.00     0.031 A 
ATOM     87  C   UNL A   1      40.295  32.390  35.077  1.00  0.00     0.131 A 
ATOM     88  C   UNL A   1      37.680  33.164  34.640  1.00  0.00     0.055 A 
ATOM     89  C   UNL A   1      39.313  32.057  36.012  1.00  0.00     0.041 A 
ATOM     90  F   UNL A   1      41.558  32.027  35.348  1.00  0.00    -0.206 F 
ATOM     91  C   UNL A   1      37.998  32.459  35.802  1.00  0.00     0.022 A 
BRANCH  88  92
ATOM     92  S   UNL A   1      36.009  33.833  34.413  1.00  0.00     0.124 S 
ATOM     93  O   UNL A   1      35.469  33.744  35.764  1.00  0.00    -0.237 OA
ATOM     94  O   UNL A   1      36.286  35.178  33.918  1.00  0.00    -0.237 OA
ATOM     95  O   UNL A   1      35.409  32.925  33.437  1.00  0.00    -0.744 OA
ENDBRANCH  88  92
ENDBRANCH  61  85
BRANCH  73  96
ATOM     96  C   UNL A   1      44.368  38.517  33.630  1.00  0.00     0.023 A 
ATOM     97  C   UNL A   1      43.550  39.647  33.458  1.00  0.00     0.031 A 
ATOM     98  C   UNL A   1      45.331  38.549  34.656  1.00  0.00     0.131 A 
ATOM     99  C   UNL A   1      43.738  40.776  34.270  1.00  0.00     0.055 A 
ATOM    100  C   UNL A   1      45.469  39.650  35.502  1.00  0.00     0.041 A 
ATOM    101  F   UNL A   1      46.143  37.500  34.864  1.00  0.00    -0.206 F 
ATOM    102  C   UNL A   1      44.677  40.776  35.305  1.00  0.00     0.022 A 
BRANCH  99 103
ATOM    103  S   UNL A   1      42.788  42.279  33.908  1.00  0.00     0.124 S 
ATOM    104  O   UNL A   1      41.622  41.740  33.215  1.00  0.00    -0.237 OA
ATOM    105  O   UNL A   1      42.544  42.825  35.239  1.00  0.00    -0.237 OA
ATOM    106  O   UNL A   1      43.695  43.065  33.073  1.00  0.00    -0.744 OA
ENDBRANCH  99 103
ENDBRANCH  73  96
ENDBRANCH  47  48
ENDBRANCH  40  42
ENDBRANCH  39  40
ENDBRANCH  38  39
ENDBRANCH  37  38
ENDBRANCH  36  37
ENDBRANCH  35  36
ENDBRANCH  34  35
ENDBRANCH   1  34
TORSDOF 28
ENDMDL
