MODEL 1
REMARK VINA RESULT:      -8.9      0.000      0.000
REMARK SMILES O=C(CCCN1C(=O)c2ccc3c4c(ccc(c24)C1=O)C(=O)NC3=O)OCCOCCOCCOCCOC(=O)c1ccc(-c2c3nc(c(-c4cc(S(=O)(=O)[O-])ccc4F)c4ccc([nH]4)c(-c4cc(S(=O)(=O)[O-])ccc4F)c4nc(c(-c5cc(S(=O)(=O)[O-])ccc5F)c5ccc2[nH]5)C=C4)C=C3)cc1
REMARK SMILES IDX 32 1 31 2 30 3 29 4 28 5 27 6 26 7 2 8 1 9 3 10 4 11 5 12
REMARK SMILES IDX 6 13 19 14 7 15 20 16 17 17 9 18 8 19 16 20 18 21 10 22
REMARK SMILES IDX 15 23 13 24 11 25 14 26 12 27 21 28 24 29 23 30 22 31 25 32
REMARK SMILES IDX 33 34 34 35 35 36 36 37 37 38 38 39 39 40 40 41 41 42 42 43
REMARK SMILES IDX 103 44 43 45 102 46 44 47 45 48 46 49 96 50 47 51 101 52
REMARK SMILES IDX 95 53 97 54 48 55 100 56 94 57 93 58 49 60 81 61 61 62 80 63
REMARK SMILES IDX 62 64 65 65 79 66 98 67 63 68 64 69 78 71 99 72 66 73 50 74
REMARK SMILES IDX 51 75 59 76 52 77 58 78 60 79 57 80 53 81 54 82 55 83 56 84
REMARK SMILES IDX 82 85 83 86 91 87 84 88 90 89 92 90 89 91 85 92 86 93 87 94
REMARK SMILES IDX 88 95 67 96 68 97 76 98 69 99 75 100 77 101 74 102 70 103
REMARK SMILES IDX 71 104 72 105 73 106
REMARK H PARENT 23 33 97 59 65 70
REMARK Flexibility Score: inf
ROOT
ATOM      1  O   UNL A   1      36.167  22.081  23.892  1.00  0.00    -0.377 OA
ENDROOT
BRANCH   1   2
ATOM      2  C   UNL A   1      36.113  21.159  24.963  1.00  0.00     0.188 C 
BRANCH   2   3
ATOM      3  C   UNL A   1      37.303  20.227  25.175  1.00  0.00     0.188 C 
BRANCH   3   4
ATOM      4  O   UNL A   1      37.160  18.829  24.865  1.00  0.00    -0.376 OA
BRANCH   4   5
ATOM      5  C   UNL A   1      35.863  18.240  24.930  1.00  0.00     0.202 C 
BRANCH   5   6
ATOM      6  C   UNL A   1      35.789  16.738  25.248  1.00  0.00     0.261 C 
BRANCH   6   7
ATOM      7  O   UNL A   1      34.877  15.985  24.457  1.00  0.00    -0.463 OA
BRANCH   7   8
ATOM      8  C   UNL A   1      33.717  15.612  25.026  1.00  0.00     0.305 C 
ATOM      9  O   UNL A   1      33.480  14.490  25.454  1.00  0.00    -0.252 OA
BRANCH   8  10
ATOM     10  C   UNL A   1      32.686  16.711  24.867  1.00  0.00     0.124 C 
BRANCH  10  11
ATOM     11  C   UNL A   1      32.841  17.655  23.672  1.00  0.00     0.034 C 
BRANCH  11  12
ATOM     12  C   UNL A   1      31.852  18.818  23.443  1.00  0.00     0.130 C 
BRANCH  12  13
ATOM     13  N   UNL A   1      32.227  20.237  23.470  1.00  0.00    -0.274 N 
ATOM     14  C   UNL A   1      32.325  20.765  24.769  1.00  0.00     0.261 C 
ATOM     15  C   UNL A   1      32.266  21.029  22.327  1.00  0.00     0.261 C 
ATOM     16  O   UNL A   1      32.197  20.093  25.792  1.00  0.00    -0.269 OA
ATOM     17  C   UNL A   1      32.547  22.220  24.918  1.00  0.00     0.049 A 
ATOM     18  C   UNL A   1      32.672  22.454  22.503  1.00  0.00     0.049 A 
ATOM     19  O   UNL A   1      31.932  20.655  21.206  1.00  0.00    -0.269 OA
ATOM     20  C   UNL A   1      32.551  22.795  26.199  1.00  0.00     0.015 A 
ATOM     21  C   UNL A   1      32.757  23.004  23.786  1.00  0.00     0.009 A 
ATOM     22  C   UNL A   1      32.924  23.255  21.381  1.00  0.00     0.015 A 
ATOM     23  C   UNL A   1      32.787  24.158  26.358  1.00  0.00     0.015 A 
ATOM     24  C   UNL A   1      33.049  24.387  23.947  1.00  0.00     0.009 A 
ATOM     25  C   UNL A   1      33.265  24.602  21.536  1.00  0.00     0.015 A 
ATOM     26  C   UNL A   1      33.051  24.946  25.236  1.00  0.00     0.048 A 
ATOM     27  C   UNL A   1      33.315  25.167  22.813  1.00  0.00     0.048 A 
ATOM     28  C   UNL A   1      33.327  26.392  25.404  1.00  0.00     0.258 C 
ATOM     29  C   UNL A   1      33.640  26.606  22.975  1.00  0.00     0.258 C 
ATOM     30  N   UNL A   1      33.673  27.079  24.265  1.00  0.00    -0.288 N 
ATOM     31  O   UNL A   1      33.217  26.939  26.493  1.00  0.00    -0.269 OA
ATOM     32  O   UNL A   1      33.815  27.334  22.007  1.00  0.00    -0.269 OA
ATOM     33  H   UNL A   1      33.977  28.008  24.386  1.00  0.00     0.173 HD
ENDBRANCH  12  13
ENDBRANCH  11  12
ENDBRANCH  10  11
ENDBRANCH   8  10
ENDBRANCH   7   8
ENDBRANCH   6   7
ENDBRANCH   5   6
ENDBRANCH   4   5
ENDBRANCH   3   4
ENDBRANCH   2   3
ENDBRANCH   1   2
BRANCH   1  34
ATOM     34  C   UNL A   1      36.535  23.422  24.145  1.00  0.00     0.188 C 
BRANCH  34  35
ATOM     35  C   UNL A   1      36.435  23.887  25.609  1.00  0.00     0.188 C 
BRANCH  35  36
ATOM     36  O   UNL A   1      37.542  23.743  26.494  1.00  0.00    -0.376 OA
BRANCH  36  37
ATOM     37  C   UNL A   1      38.872  23.858  26.005  1.00  0.00     0.202 C 
BRANCH  37  38
ATOM     38  C   UNL A   1      39.791  24.855  26.711  1.00  0.00     0.261 C 
BRANCH  38  39
ATOM     39  O   UNL A   1      40.407  25.766  25.792  1.00  0.00    -0.460 OA
BRANCH  39  40
ATOM     40  C   UNL A   1      41.761  25.734  25.769  1.00  0.00     0.338 C 
ATOM     41  O   UNL A   1      42.464  24.927  25.180  1.00  0.00    -0.246 OA
BRANCH  40  42
ATOM     42  C   UNL A   1      42.294  26.977  26.370  1.00  0.00     0.060 A 
ATOM     43  C   UNL A   1      43.105  26.847  27.508  1.00  0.00     0.016 A 
ATOM     44  C   UNL A   1      42.053  28.239  25.817  1.00  0.00     0.016 A 
ATOM     45  C   UNL A   1      43.625  27.977  28.131  1.00  0.00     0.010 A 
ATOM     46  C   UNL A   1      42.567  29.375  26.447  1.00  0.00     0.010 A 
ATOM     47  C   UNL A   1      43.313  29.248  27.633  1.00  0.00    -0.014 A 
BRANCH  47  48
ATOM     48  C   UNL A   1      43.510  30.431  28.503  1.00  0.00     0.031 A 
ATOM     49  C   UNL A   1      42.371  30.813  29.411  1.00  0.00     0.074 A 
ATOM     50  C   UNL A   1      44.660  31.126  28.510  1.00  0.00     0.049 A 
ATOM     51  N   UNL A   1      42.256  31.830  30.222  1.00  0.00    -0.248 NA
ATOM     52  C   UNL A   1      41.200  29.921  29.389  1.00  0.00     0.031 C 
ATOM     53  C   UNL A   1      45.845  30.813  27.713  1.00  0.00     0.029 A 
ATOM     54  N   UNL A   1      45.015  32.248  29.216  1.00  0.00    -0.354 N 
ATOM     55  C   UNL A   1      40.998  31.704  30.802  1.00  0.00     0.074 A 
ATOM     56  C   UNL A   1      40.375  30.537  30.217  1.00  0.00     0.031 C 
ATOM     57  C   UNL A   1      46.793  31.735  27.964  1.00  0.00     0.029 A 
ATOM     58  C   UNL A   1      46.269  32.720  28.910  1.00  0.00     0.049 A 
ATOM     59  H   UNL A   1      44.425  32.675  29.879  1.00  0.00     0.167 HD
ATOM     60  C   UNL A   1      40.417  32.486  31.744  1.00  0.00     0.034 A 
ATOM     61  C   UNL A   1      46.902  33.836  29.328  1.00  0.00     0.034 A 
ATOM     62  C   UNL A   1      41.046  33.656  32.299  1.00  0.00     0.049 A 
ATOM     63  C   UNL A   1      46.201  34.746  30.312  1.00  0.00     0.074 A 
ATOM     64  C   UNL A   1      40.556  34.528  33.254  1.00  0.00     0.029 A 
ATOM     65  N   UNL A   1      42.303  34.126  31.937  1.00  0.00    -0.354 N 
ATOM     66  N   UNL A   1      45.011  34.618  30.856  1.00  0.00    -0.248 NA
ATOM     67  C   UNL A   1      46.932  35.945  30.744  1.00  0.00     0.031 C 
ATOM     68  C   UNL A   1      41.483  35.563  33.416  1.00  0.00     0.029 A 
ATOM     69  C   UNL A   1      42.591  35.293  32.626  1.00  0.00     0.049 A 
ATOM     70  H   UNL A   1      42.901  33.693  31.286  1.00  0.00     0.167 HD
ATOM     71  C   UNL A   1      44.869  35.704  31.719  1.00  0.00     0.074 A 
ATOM     72  C   UNL A   1      46.098  36.465  31.632  1.00  0.00     0.031 C 
ATOM     73  C   UNL A   1      43.822  36.040  32.518  1.00  0.00     0.034 A 
BRANCH  60  74
ATOM     74  C   UNL A   1      39.016  32.124  32.170  1.00  0.00     0.023 A 
ATOM     75  C   UNL A   1      37.885  32.716  31.578  1.00  0.00     0.031 A 
ATOM     76  C   UNL A   1      38.809  31.215  33.222  1.00  0.00     0.131 A 
ATOM     77  C   UNL A   1      36.607  32.451  32.092  1.00  0.00     0.055 A 
ATOM     78  C   UNL A   1      37.528  30.891  33.673  1.00  0.00     0.041 A 
ATOM     79  F   UNL A   1      39.850  30.642  33.845  1.00  0.00    -0.206 F 
ATOM     80  C   UNL A   1      36.418  31.523  33.118  1.00  0.00     0.022 A 
BRANCH  77  81
ATOM     81  S   UNL A   1      35.212  33.451  31.505  1.00  0.00     0.124 S 
ATOM     82  O   UNL A   1      34.071  32.648  31.936  1.00  0.00    -0.237 OA
ATOM     83  O   UNL A   1      35.411  34.712  32.210  1.00  0.00    -0.237 OA
ATOM     84  O   UNL A   1      35.416  33.506  30.059  1.00  0.00    -0.744 OA
ENDBRANCH  77  81
ENDBRANCH  60  74
BRANCH  61  85
ATOM     85  C   UNL A   1      48.252  34.190  28.797  1.00  0.00     0.023 A 
ATOM     86  C   UNL A   1      49.422  33.671  29.373  1.00  0.00     0.031 A 
ATOM     87  C   UNL A   1      48.391  35.112  27.743  1.00  0.00     0.131 A 
ATOM     88  C   UNL A   1      50.678  34.113  28.927  1.00  0.00     0.055 A 
ATOM     89  C   UNL A   1      49.642  35.507  27.266  1.00  0.00     0.041 A 
ATOM     90  F   UNL A   1      47.306  35.641  27.155  1.00  0.00    -0.206 F 
ATOM     91  C   UNL A   1      50.797  35.016  27.869  1.00  0.00     0.022 A 
BRANCH  88  92
ATOM     92  S   UNL A   1      52.161  33.552  29.809  1.00  0.00     0.124 S 
ATOM     93  O   UNL A   1      52.837  32.766  28.783  1.00  0.00    -0.237 OA
ATOM     94  O   UNL A   1      52.793  34.816  30.170  1.00  0.00    -0.237 OA
ATOM     95  O   UNL A   1      51.621  32.785  30.930  1.00  0.00    -0.744 OA
ENDBRANCH  88  92
ENDBRANCH  61  85
BRANCH  73  96
ATOM     96  C   UNL A   1      43.989  37.255  33.398  1.00  0.00     0.023 A 
ATOM     97  C   UNL A   1      43.499  38.518  33.024  1.00  0.00     0.031 A 
ATOM     98  C   UNL A   1      44.654  37.144  34.634  1.00  0.00     0.131 A 
ATOM     99  C   UNL A   1      43.729  39.630  33.848  1.00  0.00     0.055 A 
ATOM    100  C   UNL A   1      44.823  38.240  35.479  1.00  0.00     0.041 A 
ATOM    101  F   UNL A   1      45.143  35.962  35.043  1.00  0.00    -0.206 F 
ATOM    102  C   UNL A   1      44.372  39.496  35.082  1.00  0.00     0.022 A 
BRANCH  99 103
ATOM    103  S   UNL A   1      43.264  41.275  33.242  1.00  0.00     0.124 S 
ATOM    104  O   UNL A   1      41.955  41.465  33.856  1.00  0.00    -0.237 OA
ATOM    105  O   UNL A   1      44.340  42.113  33.761  1.00  0.00    -0.237 OA
ATOM    106  O   UNL A   1      43.251  41.113  31.788  1.00  0.00    -0.744 OA
ENDBRANCH  99 103
ENDBRANCH  73  96
ENDBRANCH  47  48
ENDBRANCH  40  42
ENDBRANCH  39  40
ENDBRANCH  38  39
ENDBRANCH  37  38
ENDBRANCH  36  37
ENDBRANCH  35  36
ENDBRANCH  34  35
ENDBRANCH   1  34
TORSDOF 26
ENDMDL
MODEL 2
REMARK VINA RESULT:      -8.8      5.461      9.348
REMARK SMILES O=C(CCCN1C(=O)c2ccc3c4c(ccc(c24)C1=O)C(=O)NC3=O)OCCOCCOCCOCCOC(=O)c1ccc(-c2c3nc(c(-c4cc(S(=O)(=O)[O-])ccc4F)c4ccc([nH]4)c(-c4cc(S(=O)(=O)[O-])ccc4F)c4nc(c(-c5cc(S(=O)(=O)[O-])ccc5F)c5ccc2[nH]5)C=C4)C=C3)cc1
REMARK SMILES IDX 32 1 31 2 30 3 29 4 28 5 27 6 26 7 2 8 1 9 3 10 4 11 5 12
REMARK SMILES IDX 6 13 19 14 7 15 20 16 17 17 9 18 8 19 16 20 18 21 10 22
REMARK SMILES IDX 15 23 13 24 11 25 14 26 12 27 21 28 24 29 23 30 22 31 25 32
REMARK SMILES IDX 33 34 34 35 35 36 36 37 37 38 38 39 39 40 40 41 41 42 42 43
REMARK SMILES IDX 103 44 43 45 102 46 44 47 45 48 46 49 96 50 47 51 101 52
REMARK SMILES IDX 95 53 97 54 48 55 100 56 94 57 93 58 49 60 81 61 61 62 80 63
REMARK SMILES IDX 62 64 65 65 79 66 98 67 63 68 64 69 78 71 99 72 66 73 50 74
REMARK SMILES IDX 51 75 59 76 52 77 58 78 60 79 57 80 53 81 54 82 55 83 56 84
REMARK SMILES IDX 82 85 83 86 91 87 84 88 90 89 92 90 89 91 85 92 86 93 87 94
REMARK SMILES IDX 88 95 67 96 68 97 76 98 69 99 75 100 77 101 74 102 70 103
REMARK SMILES IDX 71 104 72 105 73 106
REMARK H PARENT 23 33 97 59 65 70
REMARK Flexibility Score: inf
ROOT
ATOM      1  O   UNL A   1      37.385  23.081  25.060  1.00  0.00    -0.377 OA
ENDROOT
BRANCH   1   2
ATOM      2  C   UNL A   1      36.268  23.828  25.504  1.00  0.00     0.188 C 
BRANCH   2   3
ATOM      3  C   UNL A   1      35.030  23.068  25.971  1.00  0.00     0.188 C 
BRANCH   3   4
ATOM      4  O   UNL A   1      33.728  23.621  25.706  1.00  0.00    -0.376 OA
BRANCH   4   5
ATOM      5  C   UNL A   1      33.639  24.924  25.132  1.00  0.00     0.202 C 
BRANCH   5   6
ATOM      6  C   UNL A   1      32.508  25.835  25.634  1.00  0.00     0.261 C 
BRANCH   6   7
ATOM      7  O   UNL A   1      32.870  27.189  25.876  1.00  0.00    -0.463 OA
BRANCH   7   8
ATOM      8  C   UNL A   1      32.451  27.752  27.023  1.00  0.00     0.305 C 
ATOM      9  O   UNL A   1      31.319  27.645  27.480  1.00  0.00    -0.252 OA
BRANCH   8  10
ATOM     10  C   UNL A   1      33.507  28.700  27.551  1.00  0.00     0.124 C 
BRANCH  10  11
ATOM     11  C   UNL A   1      33.731  30.005  26.782  1.00  0.00     0.034 C 
BRANCH  11  12
ATOM     12  C   UNL A   1      34.783  31.033  27.249  1.00  0.00     0.130 C 
BRANCH  12  13
ATOM     13  N   UNL A   1      34.745  31.720  28.546  1.00  0.00    -0.274 N 
ATOM     14  C   UNL A   1      34.013  32.920  28.522  1.00  0.00     0.261 C 
ATOM     15  C   UNL A   1      35.533  31.337  29.626  1.00  0.00     0.261 C 
ATOM     16  O   UNL A   1      33.389  33.321  27.541  1.00  0.00    -0.269 OA
ATOM     17  C   UNL A   1      34.033  33.776  29.729  1.00  0.00     0.049 A 
ATOM     18  C   UNL A   1      35.386  32.122  30.887  1.00  0.00     0.049 A 
ATOM     19  O   UNL A   1      36.377  30.446  29.594  1.00  0.00    -0.269 OA
ATOM     20  C   UNL A   1      33.394  35.026  29.705  1.00  0.00     0.015 A 
ATOM     21  C   UNL A   1      34.677  33.328  30.881  1.00  0.00     0.009 A 
ATOM     22  C   UNL A   1      35.995  31.676  32.068  1.00  0.00     0.015 A 
ATOM     23  C   UNL A   1      33.379  35.830  30.842  1.00  0.00     0.015 A 
ATOM     24  C   UNL A   1      34.621  34.124  32.058  1.00  0.00     0.009 A 
ATOM     25  C   UNL A   1      35.896  32.427  33.242  1.00  0.00     0.015 A 
ATOM     26  C   UNL A   1      33.976  35.371  32.018  1.00  0.00     0.048 A 
ATOM     27  C   UNL A   1      35.222  33.651  33.234  1.00  0.00     0.048 A 
ATOM     28  C   UNL A   1      33.941  36.214  33.236  1.00  0.00     0.258 C 
ATOM     29  C   UNL A   1      35.149  34.466  34.471  1.00  0.00     0.258 C 
ATOM     30  N   UNL A   1      34.463  35.653  34.376  1.00  0.00    -0.288 N 
ATOM     31  O   UNL A   1      33.498  37.355  33.208  1.00  0.00    -0.269 OA
ATOM     32  O   UNL A   1      35.715  34.119  35.499  1.00  0.00    -0.269 OA
ATOM     33  H   UNL A   1      34.332  36.155  35.214  1.00  0.00     0.173 HD
ENDBRANCH  12  13
ENDBRANCH  11  12
ENDBRANCH  10  11
ENDBRANCH   8  10
ENDBRANCH   7   8
ENDBRANCH   6   7
ENDBRANCH   5   6
ENDBRANCH   4   5
ENDBRANCH   3   4
ENDBRANCH   2   3
ENDBRANCH   1   2
BRANCH   1  34
ATOM     34  C   UNL A   1      38.094  22.276  25.979  1.00  0.00     0.188 C 
BRANCH  34  35
ATOM     35  C   UNL A   1      39.450  22.825  26.457  1.00  0.00     0.188 C 
BRANCH  35  36
ATOM     36  O   UNL A   1      40.243  22.093  27.389  1.00  0.00    -0.376 OA
BRANCH  36  37
ATOM     37  C   UNL A   1      41.326  21.292  26.935  1.00  0.00     0.202 C 
BRANCH  37  38
ATOM     38  C   UNL A   1      42.137  21.821  25.752  1.00  0.00     0.261 C 
BRANCH  38  39
ATOM     39  O   UNL A   1      42.556  23.177  25.947  1.00  0.00    -0.460 OA
BRANCH  39  40
ATOM     40  C   UNL A   1      43.699  23.331  26.659  1.00  0.00     0.338 C 
ATOM     41  O   UNL A   1      44.784  22.827  26.417  1.00  0.00    -0.246 OA
BRANCH  40  42
ATOM     42  C   UNL A   1      43.516  24.407  27.658  1.00  0.00     0.060 A 
ATOM     43  C   UNL A   1      44.603  25.262  27.891  1.00  0.00     0.016 A 
ATOM     44  C   UNL A   1      42.301  24.613  28.322  1.00  0.00     0.016 A 
ATOM     45  C   UNL A   1      44.502  26.286  28.829  1.00  0.00     0.010 A 
ATOM     46  C   UNL A   1      42.202  25.634  29.270  1.00  0.00     0.010 A 
ATOM     47  C   UNL A   1      43.318  26.441  29.560  1.00  0.00    -0.014 A 
BRANCH  47  48
ATOM     48  C   UNL A   1      43.342  27.231  30.813  1.00  0.00     0.031 A 
ATOM     49  C   UNL A   1      42.820  28.642  30.745  1.00  0.00     0.074 A 
ATOM     50  C   UNL A   1      43.783  26.714  31.972  1.00  0.00     0.049 A 
ATOM     51  N   UNL A   1      42.783  29.563  31.670  1.00  0.00    -0.248 NA
ATOM     52  C   UNL A   1      42.271  29.067  29.447  1.00  0.00     0.031 C 
ATOM     53  C   UNL A   1      44.260  25.346  32.164  1.00  0.00     0.029 A 
ATOM     54  N   UNL A   1      43.906  27.291  33.211  1.00  0.00    -0.354 N 
ATOM     55  C   UNL A   1      42.214  30.678  31.064  1.00  0.00     0.074 A 
ATOM     56  C   UNL A   1      41.961  30.329  29.683  1.00  0.00     0.031 C 
ATOM     57  C   UNL A   1      44.639  25.193  33.446  1.00  0.00     0.029 A 
ATOM     58  C   UNL A   1      44.466  26.462  34.154  1.00  0.00     0.049 A 
ATOM     59  H   UNL A   1      43.620  28.213  33.406  1.00  0.00     0.167 HD
ATOM     60  C   UNL A   1      41.920  31.882  31.611  1.00  0.00     0.034 A 
ATOM     61  C   UNL A   1      44.821  26.714  35.431  1.00  0.00     0.034 A 
ATOM     62  C   UNL A   1      42.198  32.218  32.984  1.00  0.00     0.049 A 
ATOM     63  C   UNL A   1      44.568  28.093  35.998  1.00  0.00     0.074 A 
ATOM     64  C   UNL A   1      41.951  33.404  33.649  1.00  0.00     0.029 A 
ATOM     65  N   UNL A   1      42.802  31.364  33.900  1.00  0.00    -0.354 N 
ATOM     66  N   UNL A   1      44.027  29.142  35.417  1.00  0.00    -0.248 NA
ATOM     67  C   UNL A   1      44.965  28.319  37.394  1.00  0.00     0.031 C 
ATOM     68  C   UNL A   1      42.469  33.293  34.944  1.00  0.00     0.029 A 
ATOM     69  C   UNL A   1      42.963  32.009  35.115  1.00  0.00     0.049 A 
ATOM     70  H   UNL A   1      43.074  30.437  33.712  1.00  0.00     0.167 HD
ATOM     71  C   UNL A   1      43.990  30.139  36.391  1.00  0.00     0.074 A 
ATOM     72  C   UNL A   1      44.550  29.561  37.596  1.00  0.00     0.031 C 
ATOM     73  C   UNL A   1      43.530  31.414  36.303  1.00  0.00     0.034 A 
BRANCH  60  74
ATOM     74  C   UNL A   1      41.328  32.926  30.698  1.00  0.00     0.023 A 
ATOM     75  C   UNL A   1      42.132  33.729  29.869  1.00  0.00     0.031 A 
ATOM     76  C   UNL A   1      39.942  33.162  30.698  1.00  0.00     0.131 A 
ATOM     77  C   UNL A   1      41.555  34.776  29.134  1.00  0.00     0.055 A 
ATOM     78  C   UNL A   1      39.363  34.151  29.900  1.00  0.00     0.041 A 
ATOM     79  F   UNL A   1      39.127  32.448  31.490  1.00  0.00    -0.206 F 
ATOM     80  C   UNL A   1      40.173  34.976  29.124  1.00  0.00     0.022 A 
BRANCH  77  81
ATOM     81  S   UNL A   1      42.651  35.967  28.316  1.00  0.00     0.124 S 
ATOM     82  O   UNL A   1      42.710  35.431  26.959  1.00  0.00    -0.237 OA
ATOM     83  O   UNL A   1      41.927  37.223  28.478  1.00  0.00    -0.237 OA
ATOM     84  O   UNL A   1      43.896  35.863  29.075  1.00  0.00    -0.744 OA
ENDBRANCH  77  81
ENDBRANCH  60  74
BRANCH  61  85
ATOM     85  C   UNL A   1      45.491  25.666  36.256  1.00  0.00     0.023 A 
ATOM     86  C   UNL A   1      46.875  25.445  36.173  1.00  0.00     0.031 A 
ATOM     87  C   UNL A   1      44.740  24.822  37.094  1.00  0.00     0.131 A 
ATOM     88  C   UNL A   1      47.457  24.377  36.874  1.00  0.00     0.055 A 
ATOM     89  C   UNL A   1      45.332  23.794  37.832  1.00  0.00     0.041 A 
ATOM     90  F   UNL A   1      43.413  24.986  37.212  1.00  0.00    -0.206 F 
ATOM     91  C   UNL A   1      46.699  23.559  37.713  1.00  0.00     0.022 A 
BRANCH  88  92
ATOM     92  S   UNL A   1      49.216  24.017  36.606  1.00  0.00     0.124 S 
ATOM     93  O   UNL A   1      49.573  23.342  37.849  1.00  0.00    -0.237 OA
ATOM     94  O   UNL A   1      49.174  23.182  35.411  1.00  0.00    -0.237 OA
ATOM     95  O   UNL A   1      49.810  25.340  36.420  1.00  0.00    -0.744 OA
ENDBRANCH  88  92
ENDBRANCH  61  85
BRANCH  73  96
ATOM     96  C   UNL A   1      43.565  32.248  37.561  1.00  0.00     0.023 A 
ATOM     97  C   UNL A   1      42.557  32.166  38.537  1.00  0.00     0.031 A 
ATOM     98  C   UNL A   1      44.628  33.144  37.783  1.00  0.00     0.131 A 
ATOM     99  C   UNL A   1      42.603  33.003  39.662  1.00  0.00     0.055 A 
ATOM    100  C   UNL A   1      44.701  33.928  38.934  1.00  0.00     0.041 A 
ATOM    101  F   UNL A   1      45.619  33.265  36.884  1.00  0.00    -0.206 F 
ATOM    102  C   UNL A   1      43.678  33.870  39.876  1.00  0.00     0.022 A 
BRANCH  99 103
ATOM    103  S   UNL A   1      41.187  33.017  40.796  1.00  0.00     0.124 S 
ATOM    104  O   UNL A   1      41.713  33.772  41.928  1.00  0.00    -0.237 OA
ATOM    105  O   UNL A   1      40.161  33.688  40.004  1.00  0.00    -0.237 OA
ATOM    106  O   UNL A   1      40.942  31.599  41.055  1.00  0.00    -0.744 OA
ENDBRANCH  99 103
ENDBRANCH  73  96
ENDBRANCH  47  48
ENDBRANCH  40  42
ENDBRANCH  39  40
ENDBRANCH  38  39
ENDBRANCH  37  38
ENDBRANCH  36  37
ENDBRANCH  35  36
ENDBRANCH  34  35
ENDBRANCH   1  34
TORSDOF 26
ENDMDL
MODEL 3
REMARK VINA RESULT:      -8.3      8.872     14.875
REMARK SMILES O=C(CCCN1C(=O)c2ccc3c4c(ccc(c24)C1=O)C(=O)NC3=O)OCCOCCOCCOCCOC(=O)c1ccc(-c2c3nc(c(-c4cc(S(=O)(=O)[O-])ccc4F)c4ccc([nH]4)c(-c4cc(S(=O)(=O)[O-])ccc4F)c4nc(c(-c5cc(S(=O)(=O)[O-])ccc5F)c5ccc2[nH]5)C=C4)C=C3)cc1
REMARK SMILES IDX 32 1 31 2 30 3 29 4 28 5 27 6 26 7 2 8 1 9 3 10 4 11 5 12
REMARK SMILES IDX 6 13 19 14 7 15 20 16 17 17 9 18 8 19 16 20 18 21 10 22
REMARK SMILES IDX 15 23 13 24 11 25 14 26 12 27 21 28 24 29 23 30 22 31 25 32
REMARK SMILES IDX 33 34 34 35 35 36 36 37 37 38 38 39 39 40 40 41 41 42 42 43
REMARK SMILES IDX 103 44 43 45 102 46 44 47 45 48 46 49 96 50 47 51 101 52
REMARK SMILES IDX 95 53 97 54 48 55 100 56 94 57 93 58 49 60 81 61 61 62 80 63
REMARK SMILES IDX 62 64 65 65 79 66 98 67 63 68 64 69 78 71 99 72 66 73 50 74
REMARK SMILES IDX 51 75 59 76 52 77 58 78 60 79 57 80 53 81 54 82 55 83 56 84
REMARK SMILES IDX 82 85 83 86 91 87 84 88 90 89 92 90 89 91 85 92 86 93 87 94
REMARK SMILES IDX 88 95 67 96 68 97 76 98 69 99 75 100 77 101 74 102 70 103
REMARK SMILES IDX 71 104 72 105 73 106
REMARK H PARENT 23 33 97 59 65 70
REMARK Flexibility Score: inf
ROOT
ATOM      1  O   UNL A   1      42.571  40.371  28.975  1.00  0.00    -0.377 OA
ENDROOT
BRANCH   1   2
ATOM      2  C   UNL A   1      43.775  40.097  28.285  1.00  0.00     0.188 C 
BRANCH   2   3
ATOM      3  C   UNL A   1      43.687  39.433  26.913  1.00  0.00     0.188 C 
BRANCH   3   4
ATOM      4  O   UNL A   1      43.895  38.013  26.810  1.00  0.00    -0.376 OA
BRANCH   4   5
ATOM      5  C   UNL A   1      42.758  37.152  26.791  1.00  0.00     0.202 C 
BRANCH   5   6
ATOM      6  C   UNL A   1      43.009  35.653  27.018  1.00  0.00     0.261 C 
BRANCH   6   7
ATOM      7  O   UNL A   1      42.961  35.218  28.371  1.00  0.00    -0.463 OA
BRANCH   7   8
ATOM      8  C   UNL A   1      41.756  34.919  28.888  1.00  0.00     0.305 C 
ATOM      9  O   UNL A   1      40.696  35.408  28.516  1.00  0.00    -0.252 OA
BRANCH   8  10
ATOM     10  C   UNL A   1      41.922  34.062  30.126  1.00  0.00     0.124 C 
BRANCH  10  11
ATOM     11  C   UNL A   1      42.239  32.579  29.918  1.00  0.00     0.034 C 
BRANCH  11  12
ATOM     12  C   UNL A   1      43.327  31.873  30.755  1.00  0.00     0.130 C 
BRANCH  12  13
ATOM     13  N   UNL A   1      43.501  32.053  32.202  1.00  0.00    -0.274 N 
ATOM     14  C   UNL A   1      42.476  31.468  32.966  1.00  0.00     0.261 C 
ATOM     15  C   UNL A   1      44.459  32.902  32.747  1.00  0.00     0.261 C 
ATOM     16  O   UNL A   1      41.566  30.793  32.486  1.00  0.00    -0.269 OA
ATOM     17  C   UNL A   1      42.462  31.715  34.424  1.00  0.00     0.049 A 
ATOM     18  C   UNL A   1      44.527  32.982  34.235  1.00  0.00     0.049 A 
ATOM     19  O   UNL A   1      45.202  33.628  32.092  1.00  0.00    -0.269 OA
ATOM     20  C   UNL A   1      41.400  31.227  35.201  1.00  0.00     0.015 A 
ATOM     21  C   UNL A   1      43.509  32.422  35.013  1.00  0.00     0.009 A 
ATOM     22  C   UNL A   1      45.588  33.657  34.854  1.00  0.00     0.015 A 
ATOM     23  C   UNL A   1      41.387  31.427  36.580  1.00  0.00     0.015 A 
ATOM     24  C   UNL A   1      43.525  32.584  36.426  1.00  0.00     0.009 A 
ATOM     25  C   UNL A   1      45.638  33.771  36.246  1.00  0.00     0.015 A 
ATOM     26  C   UNL A   1      42.455  32.088  37.190  1.00  0.00     0.048 A 
ATOM     27  C   UNL A   1      44.604  33.247  37.027  1.00  0.00     0.048 A 
ATOM     28  C   UNL A   1      42.456  32.280  38.659  1.00  0.00     0.258 C 
ATOM     29  C   UNL A   1      44.638  33.402  38.502  1.00  0.00     0.258 C 
ATOM     30  N   UNL A   1      43.585  32.852  39.194  1.00  0.00    -0.288 N 
ATOM     31  O   UNL A   1      41.488  31.973  39.342  1.00  0.00    -0.269 OA
ATOM     32  O   UNL A   1      45.528  34.030  39.059  1.00  0.00    -0.269 OA
ATOM     33  H   UNL A   1      43.645  32.870  40.177  1.00  0.00     0.173 HD
ENDBRANCH  12  13
ENDBRANCH  11  12
ENDBRANCH  10  11
ENDBRANCH   8  10
ENDBRANCH   7   8
ENDBRANCH   6   7
ENDBRANCH   5   6
ENDBRANCH   4   5
ENDBRANCH   3   4
ENDBRANCH   2   3
ENDBRANCH   1   2
BRANCH   1  34
ATOM     34  C   UNL A   1      42.624  40.842  30.306  1.00  0.00     0.188 C 
BRANCH  34  35
ATOM     35  C   UNL A   1      43.593  42.008  30.575  1.00  0.00     0.188 C 
BRANCH  35  36
ATOM     36  O   UNL A   1      43.859  42.438  31.908  1.00  0.00    -0.376 OA
BRANCH  36  37
ATOM     37  C   UNL A   1      45.196  42.502  32.388  1.00  0.00     0.202 C 
BRANCH  37  38
ATOM     38  C   UNL A   1      46.182  41.469  31.843  1.00  0.00     0.261 C 
BRANCH  38  39
ATOM     39  O   UNL A   1      46.169  40.254  32.603  1.00  0.00    -0.460 OA
BRANCH  39  40
ATOM     40  C   UNL A   1      45.771  39.152  31.923  1.00  0.00     0.338 C 
ATOM     41  O   UNL A   1      46.220  38.746  30.862  1.00  0.00    -0.246 OA
BRANCH  40  42
ATOM     42  C   UNL A   1      44.861  38.351  32.771  1.00  0.00     0.060 A 
ATOM     43  C   UNL A   1      43.705  38.983  33.252  1.00  0.00     0.016 A 
ATOM     44  C   UNL A   1      45.099  37.002  33.057  1.00  0.00     0.016 A 
ATOM     45  C   UNL A   1      42.815  38.290  34.069  1.00  0.00     0.010 A 
ATOM     46  C   UNL A   1      44.211  36.309  33.883  1.00  0.00     0.010 A 
ATOM     47  C   UNL A   1      43.094  36.966  34.430  1.00  0.00    -0.014 A 
BRANCH  47  48
ATOM     48  C   UNL A   1      42.395  36.375  35.595  1.00  0.00     0.031 A 
ATOM     49  C   UNL A   1      41.212  35.489  35.310  1.00  0.00     0.074 A 
ATOM     50  C   UNL A   1      42.807  36.590  36.856  1.00  0.00     0.049 A 
ATOM     51  N   UNL A   1      40.392  34.900  36.138  1.00  0.00    -0.248 NA
ATOM     52  C   UNL A   1      40.914  35.246  33.888  1.00  0.00     0.031 C 
ATOM     53  C   UNL A   1      43.971  37.385  37.244  1.00  0.00     0.029 A 
ATOM     54  N   UNL A   1      42.281  36.158  38.047  1.00  0.00    -0.354 N 
ATOM     55  C   UNL A   1      39.478  34.221  35.339  1.00  0.00     0.074 A 
ATOM     56  C   UNL A   1      39.820  34.508  33.963  1.00  0.00     0.031 C 
ATOM     57  C   UNL A   1      44.061  37.396  38.587  1.00  0.00     0.029 A 
ATOM     58  C   UNL A   1      42.943  36.640  39.151  1.00  0.00     0.049 A 
ATOM     59  H   UNL A   1      41.503  35.558  38.105  1.00  0.00     0.167 HD
ATOM     60  C   UNL A   1      38.450  33.423  35.717  1.00  0.00     0.034 A 
ATOM     61  C   UNL A   1      42.656  36.506  40.463  1.00  0.00     0.034 A 
ATOM     62  C   UNL A   1      38.112  33.166  37.093  1.00  0.00     0.049 A 
ATOM     63  C   UNL A   1      41.451  35.685  40.864  1.00  0.00     0.074 A 
ATOM     64  C   UNL A   1      37.093  32.381  37.599  1.00  0.00     0.029 A 
ATOM     65  N   UNL A   1      38.783  33.703  38.186  1.00  0.00    -0.354 N 
ATOM     66  N   UNL A   1      40.592  35.046  40.101  1.00  0.00    -0.248 NA
ATOM     67  C   UNL A   1      41.181  35.562  42.303  1.00  0.00     0.031 C 
ATOM     68  C   UNL A   1      37.102  32.500  38.993  1.00  0.00     0.029 A 
ATOM     69  C   UNL A   1      38.179  33.291  39.363  1.00  0.00     0.049 A 
ATOM     70  H   UNL A   1      39.571  34.290  38.131  1.00  0.00     0.167 HD
ATOM     71  C   UNL A   1      39.703  34.418  40.972  1.00  0.00     0.074 A 
ATOM     72  C   UNL A   1      40.138  34.745  42.314  1.00  0.00     0.031 C 
ATOM     73  C   UNL A   1      38.627  33.636  40.692  1.00  0.00     0.034 A 
BRANCH  60  74
ATOM     74  C   UNL A   1      37.596  32.837  34.621  1.00  0.00     0.023 A 
ATOM     75  C   UNL A   1      37.784  31.521  34.158  1.00  0.00     0.031 A 
ATOM     76  C   UNL A   1      36.615  33.622  33.992  1.00  0.00     0.131 A 
ATOM     77  C   UNL A   1      37.058  31.059  33.050  1.00  0.00     0.055 A 
ATOM     78  C   UNL A   1      35.837  33.128  32.943  1.00  0.00     0.041 A 
ATOM     79  F   UNL A   1      36.411  34.894  34.370  1.00  0.00    -0.206 F 
ATOM     80  C   UNL A   1      36.067  31.845  32.456  1.00  0.00     0.022 A 
BRANCH  77  81
ATOM     81  S   UNL A   1      37.535  29.479  32.299  1.00  0.00     0.124 S 
ATOM     82  O   UNL A   1      38.904  29.755  31.874  1.00  0.00    -0.237 OA
ATOM     83  O   UNL A   1      37.386  28.545  33.410  1.00  0.00    -0.237 OA
ATOM     84  O   UNL A   1      36.573  29.312  31.212  1.00  0.00    -0.744 OA
ENDBRANCH  77  81
ENDBRANCH  60  74
BRANCH  61  85
ATOM     85  C   UNL A   1      43.486  37.190  41.498  1.00  0.00     0.023 A 
ATOM     86  C   UNL A   1      43.281  38.540  41.823  1.00  0.00     0.031 A 
ATOM     87  C   UNL A   1      44.547  36.515  42.130  1.00  0.00     0.131 A 
ATOM     88  C   UNL A   1      44.152  39.186  42.716  1.00  0.00     0.055 A 
ATOM     89  C   UNL A   1      45.377  37.147  43.058  1.00  0.00     0.041 A 
ATOM     90  F   UNL A   1      44.790  35.224  41.857  1.00  0.00    -0.206 F 
ATOM     91  C   UNL A   1      45.190  38.496  43.346  1.00  0.00     0.022 A 
BRANCH  88  92
ATOM     92  S   UNL A   1      43.961  40.971  42.978  1.00  0.00     0.124 S 
ATOM     93  O   UNL A   1      43.434  41.406  41.689  1.00  0.00    -0.237 OA
ATOM     94  O   UNL A   1      43.030  41.013  44.100  1.00  0.00    -0.237 OA
ATOM     95  O   UNL A   1      45.319  41.418  43.281  1.00  0.00    -0.744 OA
ENDBRANCH  88  92
ENDBRANCH  61  85
BRANCH  73  96
ATOM     96  C   UNL A   1      37.885  33.039  41.863  1.00  0.00     0.023 A 
ATOM     97  C   UNL A   1      36.761  33.666  42.429  1.00  0.00     0.031 A 
ATOM     98  C   UNL A   1      38.314  31.821  42.423  1.00  0.00     0.131 A 
ATOM     99  C   UNL A   1      36.139  33.103  43.554  1.00  0.00     0.055 A 
ATOM    100  C   UNL A   1      37.652  31.233  43.500  1.00  0.00     0.041 A 
ATOM    101  F   UNL A   1      39.382  31.178  41.922  1.00  0.00    -0.206 F 
ATOM    102  C   UNL A   1      36.566  31.882  44.081  1.00  0.00     0.022 A 
BRANCH  99 103
ATOM    103  S   UNL A   1      34.824  34.038  44.381  1.00  0.00     0.124 S 
ATOM    104  O   UNL A   1      35.559  35.173  44.930  1.00  0.00    -0.237 OA
ATOM    105  O   UNL A   1      33.916  34.340  43.279  1.00  0.00    -0.237 OA
ATOM    106  O   UNL A   1      34.305  33.097  45.372  1.00  0.00    -0.744 OA
ENDBRANCH  99 103
ENDBRANCH  73  96
ENDBRANCH  47  48
ENDBRANCH  40  42
ENDBRANCH  39  40
ENDBRANCH  38  39
ENDBRANCH  37  38
ENDBRANCH  36  37
ENDBRANCH  35  36
ENDBRANCH  34  35
ENDBRANCH   1  34
TORSDOF 26
ENDMDL
