MODEL 1
REMARK VINA RESULT:     -10.2      0.000      0.000
REMARK SMILES CCc1sc(NC(=O)[C@H]2CC(C)=C(C)C[C@H]2C(=O)OCCOCCOCCOCCOC(=O)c2ccc(-c3c4nc(c(-c5cc(S(=O)(=O)[O-])ccc5F)c5ccc([nH]5)c(-c5cc(S(=O)(=O)[O-])ccc5F)c5nc(c(-c6cc(S(=O)(=O)[O-])ccc6F)c6ccc3[nH]6)C=C5)C=C4)cc2)nc1-c1ccccc1
REMARK SMILES IDX 25 1 24 2 23 3 22 4 21 5 20 6 19 7 17 8 18 9 16 10 9 11
REMARK SMILES IDX 10 12 11 13 15 14 12 15 13 16 14 17 7 18 6 19 8 21 5 22 3 23
REMARK SMILES IDX 4 24 98 25 97 26 2 27 1 28 99 29 100 30 104 31 101 32 103 33
REMARK SMILES IDX 102 34 26 35 27 36 28 37 29 38 30 39 31 40 32 41 33 42 34 43
REMARK SMILES IDX 35 44 96 45 36 46 95 47 37 48 38 49 39 50 89 51 40 52 94 53
REMARK SMILES IDX 88 54 90 55 41 56 93 57 87 58 86 59 42 61 74 62 54 63 73 64
REMARK SMILES IDX 55 65 58 66 72 67 91 68 56 69 57 70 71 72 92 73 59 74 43 75
REMARK SMILES IDX 44 76 52 77 45 78 51 79 53 80 50 81 46 82 47 83 48 84 49 85
REMARK SMILES IDX 75 86 76 87 84 88 77 89 83 90 85 91 82 92 78 93 79 94 80 95
REMARK SMILES IDX 81 96 60 97 61 98 69 99 62 100 68 101 70 102 67 103 63 104
REMARK SMILES IDX 64 105 65 106 66 107
REMARK H PARENT 6 20 90 60 58 71
REMARK Flexibility Score: inf
ROOT
ATOM      1  O   UNL A   1      36.020  21.854  24.867  1.00  0.00    -0.377 OA
ENDROOT
BRANCH   1   2
ATOM      2  C   UNL A   1      35.364  22.042  26.111  1.00  0.00     0.188 C 
BRANCH   2   3
ATOM      3  C   UNL A   1      35.216  23.511  26.495  1.00  0.00     0.188 C 
BRANCH   3   4
ATOM      4  O   UNL A   1      35.142  24.452  25.416  1.00  0.00    -0.376 OA
BRANCH   4   5
ATOM      5  C   UNL A   1      33.851  24.940  25.070  1.00  0.00     0.202 C 
BRANCH   5   6
ATOM      6  C   UNL A   1      33.877  26.225  24.205  1.00  0.00     0.261 C 
BRANCH   6   7
ATOM      7  O   UNL A   1      33.878  27.509  24.884  1.00  0.00    -0.463 OA
BRANCH   7   8
ATOM      8  C   UNL A   1      32.661  27.941  25.294  1.00  0.00     0.310 C 
ATOM      9  O   UNL A   1      32.418  28.352  26.428  1.00  0.00    -0.252 OA
BRANCH   8  10
ATOM     10  C   UNL A   1      31.510  27.685  24.327  1.00  0.00     0.116 C 
ATOM     11  C   UNL A   1      30.413  26.597  24.442  1.00  0.00     0.097 C 
ATOM     12  C   UNL A   1      29.104  26.881  23.671  1.00  0.00     0.045 C 
ATOM     13  C   UNL A   1      28.725  28.330  23.460  1.00  0.00    -0.074 C 
ATOM     14  C   UNL A   1      31.069  29.086  23.883  1.00  0.00     0.046 C 
ATOM     15  C   UNL A   1      27.255  28.549  23.211  1.00  0.00     0.039 C 
ATOM     16  C   UNL A   1      29.619  29.330  23.594  1.00  0.00    -0.073 C 
ATOM     17  C   UNL A   1      29.286  30.800  23.536  1.00  0.00     0.039 C 
BRANCH  11  18
ATOM     18  C   UNL A   1      30.203  25.654  25.650  1.00  0.00     0.230 C 
ATOM     19  N   UNL A   1      30.294  24.311  25.738  1.00  0.00    -0.302 N 
ATOM     20  H   UNL A   1      29.938  23.956  26.584  1.00  0.00     0.172 HD
ATOM     21  O   UNL A   1      29.994  26.214  26.747  1.00  0.00    -0.274 OA
BRANCH  19  22
ATOM     22  C   UNL A   1      30.771  23.342  24.912  1.00  0.00     0.190 A 
ATOM     23  C   UNL A   1      32.167  22.380  23.227  1.00  0.00     0.034 A 
ATOM     24  S   UNL A   1      30.938  23.578  23.261  1.00  0.00    -0.101 S 
ATOM     25  C   UNL A   1      31.925  21.573  24.331  1.00  0.00     0.087 A 
ATOM     26  N   UNL A   1      31.162  22.160  25.334  1.00  0.00    -0.220 NA
BRANCH  23  27
ATOM     27  C   UNL A   1      33.087  22.362  22.046  1.00  0.00     0.046 C 
ATOM     28  C   UNL A   1      33.293  23.653  21.281  1.00  0.00     0.010 C 
ENDBRANCH  23  27
BRANCH  25  29
ATOM     29  C   UNL A   1      32.292  20.178  24.330  1.00  0.00     0.001 A 
ATOM     30  C   UNL A   1      33.024  19.595  25.367  1.00  0.00     0.010 A 
ATOM     31  C   UNL A   1      32.112  19.499  23.121  1.00  0.00     0.010 A 
ATOM     32  C   UNL A   1      33.671  18.375  25.145  1.00  0.00     0.001 A 
ATOM     33  C   UNL A   1      32.772  18.300  22.904  1.00  0.00     0.001 A 
ATOM     34  C   UNL A   1      33.564  17.743  23.906  1.00  0.00     0.000 A 
ENDBRANCH  25  29
ENDBRANCH  19  22
ENDBRANCH  11  18
ENDBRANCH   8  10
ENDBRANCH   7   8
ENDBRANCH   6   7
ENDBRANCH   5   6
ENDBRANCH   4   5
ENDBRANCH   3   4
ENDBRANCH   2   3
ENDBRANCH   1   2
BRANCH   1  35
ATOM     35  C   UNL A   1      37.357  22.314  24.758  1.00  0.00     0.188 C 
BRANCH  35  36
ATOM     36  C   UNL A   1      38.332  21.859  25.853  1.00  0.00     0.188 C 
BRANCH  36  37
ATOM     37  O   UNL A   1      39.443  21.142  25.328  1.00  0.00    -0.376 OA
BRANCH  37  38
ATOM     38  C   UNL A   1      39.882  19.972  26.004  1.00  0.00     0.202 C 
BRANCH  38  39
ATOM     39  C   UNL A   1      40.774  20.094  27.257  1.00  0.00     0.261 C 
BRANCH  39  40
ATOM     40  O   UNL A   1      42.195  19.952  27.100  1.00  0.00    -0.460 OA
BRANCH  40  41
ATOM     41  C   UNL A   1      42.844  20.825  26.307  1.00  0.00     0.338 C 
ATOM     42  O   UNL A   1      43.406  20.563  25.249  1.00  0.00    -0.246 OA
BRANCH  41  43
ATOM     43  C   UNL A   1      42.584  22.192  26.814  1.00  0.00     0.060 A 
ATOM     44  C   UNL A   1      42.329  23.217  25.895  1.00  0.00     0.016 A 
ATOM     45  C   UNL A   1      42.587  22.468  28.186  1.00  0.00     0.016 A 
ATOM     46  C   UNL A   1      42.127  24.526  26.338  1.00  0.00     0.010 A 
ATOM     47  C   UNL A   1      42.412  23.786  28.629  1.00  0.00     0.010 A 
ATOM     48  C   UNL A   1      42.227  24.829  27.703  1.00  0.00    -0.014 A 
BRANCH  48  49
ATOM     49  C   UNL A   1      42.438  26.246  28.108  1.00  0.00     0.031 A 
ATOM     50  C   UNL A   1      43.852  26.770  28.090  1.00  0.00     0.074 A 
ATOM     51  C   UNL A   1      41.420  27.070  28.419  1.00  0.00     0.049 A 
ATOM     52  N   UNL A   1      44.313  27.955  28.398  1.00  0.00    -0.248 NA
ATOM     53  C   UNL A   1      44.888  25.813  27.669  1.00  0.00     0.031 C 
ATOM     54  C   UNL A   1      40.005  26.707  28.432  1.00  0.00     0.029 A 
ATOM     55  N   UNL A   1      41.430  28.395  28.783  1.00  0.00    -0.354 N 
ATOM     56  C   UNL A   1      45.690  27.886  28.208  1.00  0.00     0.074 A 
ATOM     57  C   UNL A   1      45.991  26.529  27.807  1.00  0.00     0.031 C 
ATOM     58  C   UNL A   1      39.282  27.784  28.795  1.00  0.00     0.029 A 
ATOM     59  C   UNL A   1      40.184  28.903  29.069  1.00  0.00     0.049 A 
ATOM     60  H   UNL A   1      42.254  28.933  28.835  1.00  0.00     0.167 HD
ATOM     61  C   UNL A   1      46.620  28.865  28.345  1.00  0.00     0.034 A 
ATOM     62  C   UNL A   1      39.821  30.119  29.528  1.00  0.00     0.034 A 
ATOM     63  C   UNL A   1      46.310  30.205  28.779  1.00  0.00     0.049 A 
ATOM     64  C   UNL A   1      40.878  31.159  29.784  1.00  0.00     0.074 A 
ATOM     65  C   UNL A   1      47.167  31.277  28.954  1.00  0.00     0.029 A 
ATOM     66  N   UNL A   1      45.041  30.653  29.130  1.00  0.00    -0.354 N 
ATOM     67  N   UNL A   1      42.177  31.079  29.620  1.00  0.00    -0.248 NA
ATOM     68  C   UNL A   1      40.409  32.455  30.289  1.00  0.00     0.031 C 
ATOM     69  C   UNL A   1      46.435  32.342  29.489  1.00  0.00     0.029 A 
ATOM     70  C   UNL A   1      45.101  31.972  29.556  1.00  0.00     0.049 A 
ATOM     71  H   UNL A   1      44.219  30.112  29.084  1.00  0.00     0.167 HD
ATOM     72  C   UNL A   1      42.680  32.329  29.974  1.00  0.00     0.074 A 
ATOM     73  C   UNL A   1      41.542  33.139  30.358  1.00  0.00     0.031 C 
ATOM     74  C   UNL A   1      43.965  32.768  29.964  1.00  0.00     0.034 A 
BRANCH  61  75
ATOM     75  C   UNL A   1      48.061  28.482  28.089  1.00  0.00     0.023 A 
ATOM     76  C   UNL A   1      48.659  28.642  26.824  1.00  0.00     0.031 A 
ATOM     77  C   UNL A   1      48.826  27.876  29.102  1.00  0.00     0.131 A 
ATOM     78  C   UNL A   1      49.934  28.110  26.580  1.00  0.00     0.055 A 
ATOM     79  C   UNL A   1      50.133  27.438  28.878  1.00  0.00     0.041 A 
ATOM     80  F   UNL A   1      48.305  27.670  30.322  1.00  0.00    -0.206 F 
ATOM     81  C   UNL A   1      50.686  27.533  27.605  1.00  0.00     0.022 A 
BRANCH  78  82
ATOM     82  S   UNL A   1      50.512  28.004  24.862  1.00  0.00     0.124 S 
ATOM     83  O   UNL A   1      51.234  29.265  24.716  1.00  0.00    -0.237 OA
ATOM     84  O   UNL A   1      51.329  26.797  24.878  1.00  0.00    -0.237 OA
ATOM     85  O   UNL A   1      49.274  27.912  24.090  1.00  0.00    -0.744 OA
ENDBRANCH  78  82
ENDBRANCH  61  75
BRANCH  62  86
ATOM     86  C   UNL A   1      38.402  30.401  29.877  1.00  0.00     0.023 A 
ATOM     87  C   UNL A   1      37.503  31.001  28.984  1.00  0.00     0.031 A 
ATOM     88  C   UNL A   1      37.951  30.127  31.176  1.00  0.00     0.131 A 
ATOM     89  C   UNL A   1      36.193  31.285  29.407  1.00  0.00     0.055 A 
ATOM     90  C   UNL A   1      36.628  30.326  31.566  1.00  0.00     0.041 A 
ATOM     91  F   UNL A   1      38.818  29.685  32.097  1.00  0.00    -0.206 F 
ATOM     92  C   UNL A   1      35.737  30.910  30.674  1.00  0.00     0.022 A 
BRANCH  89  93
ATOM     93  S   UNL A   1      35.106  32.245  28.316  1.00  0.00     0.124 S 
ATOM     94  O   UNL A   1      36.049  33.177  27.711  1.00  0.00    -0.237 OA
ATOM     95  O   UNL A   1      34.565  31.215  27.437  1.00  0.00    -0.237 OA
ATOM     96  O   UNL A   1      34.141  32.842  29.239  1.00  0.00    -0.744 OA
ENDBRANCH  89  93
ENDBRANCH  62  86
BRANCH  74  97
ATOM     97  C   UNL A   1      44.198  34.215  30.325  1.00  0.00     0.023 A 
ATOM     98  C   UNL A   1      44.125  35.246  29.371  1.00  0.00     0.031 A 
ATOM     99  C   UNL A   1      44.526  34.563  31.648  1.00  0.00     0.131 A 
ATOM    100  C   UNL A   1      44.439  36.562  29.741  1.00  0.00     0.055 A 
ATOM    101  C   UNL A   1      44.767  35.884  32.024  1.00  0.00     0.041 A 
ATOM    102  F   UNL A   1      44.620  33.619  32.599  1.00  0.00    -0.206 F 
ATOM    103  C   UNL A   1      44.739  36.892  31.066  1.00  0.00     0.022 A 
BRANCH 100 104
ATOM    104  S   UNL A   1      44.566  37.826  28.445  1.00  0.00     0.124 S 
ATOM    105  O   UNL A   1      43.336  38.586  28.644  1.00  0.00    -0.237 OA
ATOM    106  O   UNL A   1      45.803  38.513  28.799  1.00  0.00    -0.237 OA
ATOM    107  O   UNL A   1      44.620  37.047  27.210  1.00  0.00    -0.744 OA
ENDBRANCH 100 104
ENDBRANCH  74  97
ENDBRANCH  48  49
ENDBRANCH  41  43
ENDBRANCH  40  41
ENDBRANCH  39  40
ENDBRANCH  38  39
ENDBRANCH  37  38
ENDBRANCH  36  37
ENDBRANCH  35  36
ENDBRANCH   1  35
TORSDOF 27
ENDMDL
MODEL 2
REMARK VINA RESULT:      -9.6      2.420      4.750
REMARK SMILES CCc1sc(NC(=O)[C@H]2CC(C)=C(C)C[C@H]2C(=O)OCCOCCOCCOCCOC(=O)c2ccc(-c3c4nc(c(-c5cc(S(=O)(=O)[O-])ccc5F)c5ccc([nH]5)c(-c5cc(S(=O)(=O)[O-])ccc5F)c5nc(c(-c6cc(S(=O)(=O)[O-])ccc6F)c6ccc3[nH]6)C=C5)C=C4)cc2)nc1-c1ccccc1
REMARK SMILES IDX 25 1 24 2 23 3 22 4 21 5 20 6 19 7 17 8 18 9 16 10 9 11
REMARK SMILES IDX 10 12 11 13 15 14 12 15 13 16 14 17 7 18 6 19 8 21 5 22 3 23
REMARK SMILES IDX 4 24 98 25 97 26 2 27 1 28 99 29 100 30 104 31 101 32 103 33
REMARK SMILES IDX 102 34 26 35 27 36 28 37 29 38 30 39 31 40 32 41 33 42 34 43
REMARK SMILES IDX 35 44 96 45 36 46 95 47 37 48 38 49 39 50 89 51 40 52 94 53
REMARK SMILES IDX 88 54 90 55 41 56 93 57 87 58 86 59 42 61 74 62 54 63 73 64
REMARK SMILES IDX 55 65 58 66 72 67 91 68 56 69 57 70 71 72 92 73 59 74 43 75
REMARK SMILES IDX 44 76 52 77 45 78 51 79 53 80 50 81 46 82 47 83 48 84 49 85
REMARK SMILES IDX 75 86 76 87 84 88 77 89 83 90 85 91 82 92 78 93 79 94 80 95
REMARK SMILES IDX 81 96 60 97 61 98 69 99 62 100 68 101 70 102 67 103 63 104
REMARK SMILES IDX 64 105 65 106 66 107
REMARK H PARENT 6 20 90 60 58 71
REMARK Flexibility Score: inf
ROOT
ATOM      1  O   UNL A   1      36.783  18.486  25.027  1.00  0.00    -0.377 OA
ENDROOT
BRANCH   1   2
ATOM      2  C   UNL A   1      35.422  18.447  24.625  1.00  0.00     0.188 C 
BRANCH   2   3
ATOM      3  C   UNL A   1      34.843  17.036  24.608  1.00  0.00     0.188 C 
BRANCH   3   4
ATOM      4  O   UNL A   1      33.479  16.907  24.186  1.00  0.00    -0.376 OA
BRANCH   4   5
ATOM      5  C   UNL A   1      33.067  17.698  23.077  1.00  0.00     0.202 C 
BRANCH   5   6
ATOM      6  C   UNL A   1      32.155  18.890  23.460  1.00  0.00     0.261 C 
BRANCH   6   7
ATOM      7  O   UNL A   1      32.095  19.287  24.856  1.00  0.00    -0.463 OA
BRANCH   7   8
ATOM      8  C   UNL A   1      32.721  20.453  25.146  1.00  0.00     0.310 C 
ATOM      9  O   UNL A   1      33.283  20.689  26.215  1.00  0.00    -0.252 OA
BRANCH   8  10
ATOM     10  C   UNL A   1      32.508  21.584  24.145  1.00  0.00     0.116 C 
ATOM     11  C   UNL A   1      31.519  22.770  24.267  1.00  0.00     0.097 C 
ATOM     12  C   UNL A   1      31.867  24.020  23.428  1.00  0.00     0.045 C 
ATOM     13  C   UNL A   1      33.329  24.271  23.132  1.00  0.00    -0.074 C 
ATOM     14  C   UNL A   1      33.915  21.891  23.616  1.00  0.00     0.046 C 
ATOM     15  C   UNL A   1      33.652  25.707  22.811  1.00  0.00     0.039 C 
ATOM     16  C   UNL A   1      34.260  23.304  23.254  1.00  0.00    -0.073 C 
ATOM     17  C   UNL A   1      35.747  23.512  23.111  1.00  0.00     0.039 C 
BRANCH  11  18
ATOM     18  C   UNL A   1      30.661  23.102  25.509  1.00  0.00     0.230 C 
ATOM     19  N   UNL A   1      30.271  24.293  26.011  1.00  0.00    -0.302 N 
ATOM     20  H   UNL A   1      29.877  24.222  26.910  1.00  0.00     0.172 HD
ATOM     21  O   UNL A   1      30.173  22.123  26.112  1.00  0.00    -0.274 OA
BRANCH  19  22
ATOM     22  C   UNL A   1      30.304  25.569  25.544  1.00  0.00     0.190 A 
ATOM     23  C   UNL A   1      31.293  27.588  24.730  1.00  0.00     0.034 A 
ATOM     24  S   UNL A   1      31.287  26.744  26.225  1.00  0.00    -0.101 S 
ATOM     25  C   UNL A   1      30.135  27.188  24.078  1.00  0.00     0.087 A 
ATOM     26  N   UNL A   1      29.598  25.982  24.516  1.00  0.00    -0.220 NA
BRANCH  23  27
ATOM     27  C   UNL A   1      32.374  28.600  24.508  1.00  0.00     0.046 C 
ATOM     28  C   UNL A   1      33.263  28.964  25.680  1.00  0.00     0.010 C 
ENDBRANCH  23  27
BRANCH  25  29
ATOM     29  C   UNL A   1      29.461  28.063  23.149  1.00  0.00     0.001 A 
ATOM     30  C   UNL A   1      30.153  28.871  22.244  1.00  0.00     0.010 A 
ATOM     31  C   UNL A   1      28.096  28.264  23.379  1.00  0.00     0.010 A 
ATOM     32  C   UNL A   1      29.495  29.954  21.654  1.00  0.00     0.001 A 
ATOM     33  C   UNL A   1      27.458  29.351  22.804  1.00  0.00     0.001 A 
ATOM     34  C   UNL A   1      28.156  30.206  21.955  1.00  0.00     0.000 A 
ENDBRANCH  25  29
ENDBRANCH  19  22
ENDBRANCH  11  18
ENDBRANCH   8  10
ENDBRANCH   7   8
ENDBRANCH   6   7
ENDBRANCH   5   6
ENDBRANCH   4   5
ENDBRANCH   3   4
ENDBRANCH   2   3
ENDBRANCH   1   2
BRANCH   1  35
ATOM     35  C   UNL A   1      37.569  19.570  24.563  1.00  0.00     0.188 C 
BRANCH  35  36
ATOM     36  C   UNL A   1      37.142  20.973  25.016  1.00  0.00     0.188 C 
BRANCH  36  37
ATOM     37  O   UNL A   1      38.165  21.645  25.743  1.00  0.00    -0.376 OA
BRANCH  37  38
ATOM     38  C   UNL A   1      39.367  20.947  26.034  1.00  0.00     0.202 C 
BRANCH  38  39
ATOM     39  C   UNL A   1      40.592  21.714  26.575  1.00  0.00     0.261 C 
BRANCH  39  40
ATOM     40  O   UNL A   1      41.898  21.155  26.359  1.00  0.00    -0.460 OA
BRANCH  40  41
ATOM     41  C   UNL A   1      42.919  21.991  26.093  1.00  0.00     0.338 C 
ATOM     42  O   UNL A   1      43.868  21.763  25.350  1.00  0.00    -0.246 OA
BRANCH  41  43
ATOM     43  C   UNL A   1      42.597  23.313  26.678  1.00  0.00     0.060 A 
ATOM     44  C   UNL A   1      42.364  24.394  25.818  1.00  0.00     0.016 A 
ATOM     45  C   UNL A   1      42.522  23.493  28.063  1.00  0.00     0.016 A 
ATOM     46  C   UNL A   1      42.105  25.664  26.338  1.00  0.00     0.010 A 
ATOM     47  C   UNL A   1      42.290  24.774  28.585  1.00  0.00     0.010 A 
ATOM     48  C   UNL A   1      42.126  25.874  27.724  1.00  0.00    -0.014 A 
BRANCH  48  49
ATOM     49  C   UNL A   1      42.278  27.263  28.235  1.00  0.00     0.031 A 
ATOM     50  C   UNL A   1      43.675  27.830  28.301  1.00  0.00     0.074 A 
ATOM     51  C   UNL A   1      41.225  28.032  28.570  1.00  0.00     0.049 A 
ATOM     52  N   UNL A   1      44.087  29.003  28.707  1.00  0.00    -0.248 NA
ATOM     53  C   UNL A   1      44.754  26.938  27.846  1.00  0.00     0.031 C 
ATOM     54  C   UNL A   1      39.823  27.627  28.511  1.00  0.00     0.029 A 
ATOM     55  N   UNL A   1      41.181  29.327  29.027  1.00  0.00    -0.354 N 
ATOM     56  C   UNL A   1      45.472  28.990  28.557  1.00  0.00     0.074 A 
ATOM     57  C   UNL A   1      45.828  27.674  28.070  1.00  0.00     0.031 C 
ATOM     58  C   UNL A   1      39.055  28.652  28.926  1.00  0.00     0.029 A 
ATOM     59  C   UNL A   1      39.911  29.775  29.308  1.00  0.00     0.049 A 
ATOM     60  H   UNL A   1      41.985  29.884  29.144  1.00  0.00     0.167 HD
ATOM     61  C   UNL A   1      46.364  29.983  28.793  1.00  0.00     0.034 A 
ATOM     62  C   UNL A   1      39.495  30.944  29.839  1.00  0.00     0.034 A 
ATOM     63  C   UNL A   1      45.998  31.279  29.311  1.00  0.00     0.049 A 
ATOM     64  C   UNL A   1      40.510  31.994  30.203  1.00  0.00     0.074 A 
ATOM     65  C   UNL A   1      46.814  32.361  29.589  1.00  0.00     0.029 A 
ATOM     66  N   UNL A   1      44.705  31.662  29.651  1.00  0.00    -0.354 N 
ATOM     67  N   UNL A   1      41.816  31.965  30.076  1.00  0.00    -0.248 NA
ATOM     68  C   UNL A   1      39.985  33.236  30.783  1.00  0.00     0.031 C 
ATOM     69  C   UNL A   1      46.032  33.363  30.174  1.00  0.00     0.029 A 
ATOM     70  C   UNL A   1      44.710  32.948  30.171  1.00  0.00     0.049 A 
ATOM     71  H   UNL A   1      43.903  31.102  29.540  1.00  0.00     0.167 HD
ATOM     72  C   UNL A   1      42.267  33.201  30.534  1.00  0.00     0.074 A 
ATOM     73  C   UNL A   1      41.092  33.947  30.937  1.00  0.00     0.031 C 
ATOM     74  C   UNL A   1      43.536  33.678  30.597  1.00  0.00     0.034 A 
BRANCH  61  75
ATOM     75  C   UNL A   1      47.824  29.663  28.557  1.00  0.00     0.023 A 
ATOM     76  C   UNL A   1      48.700  29.362  29.618  1.00  0.00     0.031 A 
ATOM     77  C   UNL A   1      48.367  29.736  27.262  1.00  0.00     0.131 A 
ATOM     78  C   UNL A   1      50.077  29.250  29.379  1.00  0.00     0.055 A 
ATOM     79  C   UNL A   1      49.725  29.525  27.018  1.00  0.00     0.041 A 
ATOM     80  F   UNL A   1      47.590  30.045  26.211  1.00  0.00    -0.206 F 
ATOM     81  C   UNL A   1      50.594  29.302  28.082  1.00  0.00     0.022 A 
BRANCH  78  82
ATOM     82  S   UNL A   1      51.204  29.235  30.803  1.00  0.00     0.124 S 
ATOM     83  O   UNL A   1      50.348  29.765  31.861  1.00  0.00    -0.237 OA
ATOM     84  O   UNL A   1      51.555  27.824  30.911  1.00  0.00    -0.237 OA
ATOM     85  O   UNL A   1      52.291  30.120  30.389  1.00  0.00    -0.744 OA
ENDBRANCH  78  82
ENDBRANCH  61  75
BRANCH  62  86
ATOM     86  C   UNL A   1      38.058  31.157  30.161  1.00  0.00     0.023 A 
ATOM     87  C   UNL A   1      37.151  31.725  29.255  1.00  0.00     0.031 A 
ATOM     88  C   UNL A   1      37.594  30.849  31.448  1.00  0.00     0.131 A 
ATOM     89  C   UNL A   1      35.821  31.945  29.654  1.00  0.00     0.055 A 
ATOM     90  C   UNL A   1      36.255  30.983  31.812  1.00  0.00     0.041 A 
ATOM     91  F   UNL A   1      38.460  30.437  32.383  1.00  0.00    -0.206 F 
ATOM     92  C   UNL A   1      35.356  31.536  30.907  1.00  0.00     0.022 A 
BRANCH  89  93
ATOM     93  S   UNL A   1      34.714  32.865  28.549  1.00  0.00     0.124 S 
ATOM     94  O   UNL A   1      35.642  33.791  27.911  1.00  0.00    -0.237 OA
ATOM     95  O   UNL A   1      34.175  31.807  27.702  1.00  0.00    -0.237 OA
ATOM     96  O   UNL A   1      33.752  33.476  29.466  1.00  0.00    -0.744 OA
ENDBRANCH  89  93
ENDBRANCH  62  86
BRANCH  74  97
ATOM     97  C   UNL A   1      43.711  35.102  31.067  1.00  0.00     0.023 A 
ATOM     98  C   UNL A   1      43.909  35.424  32.422  1.00  0.00     0.031 A 
ATOM     99  C   UNL A   1      43.653  36.158  30.140  1.00  0.00     0.131 A 
ATOM    100  C   UNL A   1      43.975  36.769  32.817  1.00  0.00     0.055 A 
ATOM    101  C   UNL A   1      43.793  37.490  30.530  1.00  0.00     0.041 A 
ATOM    102  F   UNL A   1      43.457  35.911  28.835  1.00  0.00    -0.206 F 
ATOM    103  C   UNL A   1      43.939  37.803  31.878  1.00  0.00     0.022 A 
BRANCH 100 104
ATOM    104  S   UNL A   1      43.992  37.158  34.589  1.00  0.00     0.124 S 
ATOM    105  O   UNL A   1      42.663  36.724  35.006  1.00  0.00    -0.237 OA
ATOM    106  O   UNL A   1      45.107  36.352  35.075  1.00  0.00    -0.237 OA
ATOM    107  O   UNL A   1      44.211  38.603  34.621  1.00  0.00    -0.744 OA
ENDBRANCH 100 104
ENDBRANCH  74  97
ENDBRANCH  48  49
ENDBRANCH  41  43
ENDBRANCH  40  41
ENDBRANCH  39  40
ENDBRANCH  38  39
ENDBRANCH  37  38
ENDBRANCH  36  37
ENDBRANCH  35  36
ENDBRANCH   1  35
TORSDOF 27
ENDMDL
MODEL 3
REMARK VINA RESULT:      -9.0      5.945     10.948
REMARK SMILES CCc1sc(NC(=O)[C@H]2CC(C)=C(C)C[C@H]2C(=O)OCCOCCOCCOCCOC(=O)c2ccc(-c3c4nc(c(-c5cc(S(=O)(=O)[O-])ccc5F)c5ccc([nH]5)c(-c5cc(S(=O)(=O)[O-])ccc5F)c5nc(c(-c6cc(S(=O)(=O)[O-])ccc6F)c6ccc3[nH]6)C=C5)C=C4)cc2)nc1-c1ccccc1
REMARK SMILES IDX 25 1 24 2 23 3 22 4 21 5 20 6 19 7 17 8 18 9 16 10 9 11
REMARK SMILES IDX 10 12 11 13 15 14 12 15 13 16 14 17 7 18 6 19 8 21 5 22 3 23
REMARK SMILES IDX 4 24 98 25 97 26 2 27 1 28 99 29 100 30 104 31 101 32 103 33
REMARK SMILES IDX 102 34 26 35 27 36 28 37 29 38 30 39 31 40 32 41 33 42 34 43
REMARK SMILES IDX 35 44 96 45 36 46 95 47 37 48 38 49 39 50 89 51 40 52 94 53
REMARK SMILES IDX 88 54 90 55 41 56 93 57 87 58 86 59 42 61 74 62 54 63 73 64
REMARK SMILES IDX 55 65 58 66 72 67 91 68 56 69 57 70 71 72 92 73 59 74 43 75
REMARK SMILES IDX 44 76 52 77 45 78 51 79 53 80 50 81 46 82 47 83 48 84 49 85
REMARK SMILES IDX 75 86 76 87 84 88 77 89 83 90 85 91 82 92 78 93 79 94 80 95
REMARK SMILES IDX 81 96 60 97 61 98 69 99 62 100 68 101 70 102 67 103 63 104
REMARK SMILES IDX 64 105 65 106 66 107
REMARK H PARENT 6 20 90 60 58 71
REMARK Flexibility Score: inf
ROOT
ATOM      1  O   UNL A   1      36.286  19.759  24.832  1.00  0.00    -0.377 OA
ENDROOT
BRANCH   1   2
ATOM      2  C   UNL A   1      35.029  19.123  25.006  1.00  0.00     0.188 C 
BRANCH   2   3
ATOM      3  C   UNL A   1      34.911  17.808  24.242  1.00  0.00     0.188 C 
BRANCH   3   4
ATOM      4  O   UNL A   1      33.619  17.190  24.225  1.00  0.00    -0.376 OA
BRANCH   4   5
ATOM      5  C   UNL A   1      32.908  17.207  22.992  1.00  0.00     0.202 C 
BRANCH   5   6
ATOM      6  C   UNL A   1      32.521  18.627  22.510  1.00  0.00     0.261 C 
BRANCH   6   7
ATOM      7  O   UNL A   1      31.968  19.554  23.481  1.00  0.00    -0.463 OA
BRANCH   7   8
ATOM      8  C   UNL A   1      32.199  20.863  23.219  1.00  0.00     0.310 C 
ATOM      9  O   UNL A   1      32.176  21.357  22.092  1.00  0.00    -0.252 OA
BRANCH   8  10
ATOM     10  C   UNL A   1      32.723  21.689  24.389  1.00  0.00     0.116 C 
ATOM     11  C   UNL A   1      33.750  22.848  24.332  1.00  0.00     0.097 C 
ATOM     12  C   UNL A   1      33.702  23.842  25.514  1.00  0.00     0.045 C 
ATOM     13  C   UNL A   1      32.371  24.034  26.205  1.00  0.00    -0.074 C 
ATOM     14  C   UNL A   1      31.502  21.874  25.299  1.00  0.00     0.046 C 
ATOM     15  C   UNL A   1      32.245  25.343  26.941  1.00  0.00     0.039 C 
ATOM     16  C   UNL A   1      31.362  23.150  26.073  1.00  0.00    -0.073 C 
ATOM     17  C   UNL A   1      29.968  23.342  26.614  1.00  0.00     0.039 C 
BRANCH  11  18
ATOM     18  C   UNL A   1      34.329  23.476  23.044  1.00  0.00     0.230 C 
ATOM     19  N   UNL A   1      34.008  24.623  22.409  1.00  0.00    -0.302 N 
ATOM     20  H   UNL A   1      34.413  24.694  21.515  1.00  0.00     0.172 HD
ATOM     21  O   UNL A   1      35.305  22.882  22.539  1.00  0.00    -0.274 OA
BRANCH  19  22
ATOM     22  C   UNL A   1      33.248  25.701  22.736  1.00  0.00     0.190 A 
ATOM     23  C   UNL A   1      31.273  26.887  23.374  1.00  0.00     0.034 A 
ATOM     24  S   UNL A   1      31.789  26.028  21.981  1.00  0.00    -0.101 S 
ATOM     25  C   UNL A   1      32.440  27.289  24.010  1.00  0.00     0.087 A 
ATOM     26  N   UNL A   1      33.574  26.556  23.680  1.00  0.00    -0.220 NA
BRANCH  23  27
ATOM     27  C   UNL A   1      29.804  27.130  23.536  1.00  0.00     0.046 C 
ATOM     28  C   UNL A   1      29.089  26.443  24.681  1.00  0.00     0.010 C 
ENDBRANCH  23  27
BRANCH  25  29
ATOM     29  C   UNL A   1      32.479  28.492  24.806  1.00  0.00     0.001 A 
ATOM     30  C   UNL A   1      33.256  28.601  25.961  1.00  0.00     0.010 A 
ATOM     31  C   UNL A   1      31.500  29.448  24.518  1.00  0.00     0.010 A 
ATOM     32  C   UNL A   1      32.972  29.613  26.884  1.00  0.00     0.001 A 
ATOM     33  C   UNL A   1      31.213  30.436  25.447  1.00  0.00     0.001 A 
ATOM     34  C   UNL A   1      31.934  30.512  26.636  1.00  0.00     0.000 A 
ENDBRANCH  25  29
ENDBRANCH  19  22
ENDBRANCH  11  18
ENDBRANCH   8  10
ENDBRANCH   7   8
ENDBRANCH   6   7
ENDBRANCH   5   6
ENDBRANCH   4   5
ENDBRANCH   3   4
ENDBRANCH   2   3
ENDBRANCH   1   2
BRANCH   1  35
ATOM     35  C   UNL A   1      36.443  21.055  25.383  1.00  0.00     0.188 C 
BRANCH  35  36
ATOM     36  C   UNL A   1      37.630  21.882  24.869  1.00  0.00     0.188 C 
BRANCH  36  37
ATOM     37  O   UNL A   1      38.637  22.063  25.859  1.00  0.00    -0.376 OA
BRANCH  37  38
ATOM     38  C   UNL A   1      38.773  23.338  26.470  1.00  0.00     0.202 C 
BRANCH  38  39
ATOM     39  C   UNL A   1      40.034  23.668  27.295  1.00  0.00     0.261 C 
BRANCH  39  40
ATOM     40  O   UNL A   1      41.015  24.546  26.723  1.00  0.00    -0.460 OA
BRANCH  40  41
ATOM     41  C   UNL A   1      41.203  25.754  27.285  1.00  0.00     0.338 C 
ATOM     42  O   UNL A   1      40.476  26.733  27.158  1.00  0.00    -0.246 OA
BRANCH  41  43
ATOM     43  C   UNL A   1      42.316  25.643  28.256  1.00  0.00     0.060 A 
ATOM     44  C   UNL A   1      42.733  26.792  28.941  1.00  0.00     0.016 A 
ATOM     45  C   UNL A   1      42.947  24.418  28.497  1.00  0.00     0.016 A 
ATOM     46  C   UNL A   1      43.811  26.730  29.827  1.00  0.00     0.010 A 
ATOM     47  C   UNL A   1      44.046  24.362  29.365  1.00  0.00     0.010 A 
ATOM     48  C   UNL A   1      44.512  25.528  29.999  1.00  0.00    -0.014 A 
BRANCH  48  49
ATOM     49  C   UNL A   1      45.878  25.575  30.588  1.00  0.00     0.031 A 
ATOM     50  C   UNL A   1      46.002  25.337  32.073  1.00  0.00     0.074 A 
ATOM     51  C   UNL A   1      46.984  25.754  29.843  1.00  0.00     0.049 A 
ATOM     52  N   UNL A   1      47.064  25.326  32.837  1.00  0.00    -0.248 NA
ATOM     53  C   UNL A   1      44.743  25.079  32.791  1.00  0.00     0.031 C 
ATOM     54  C   UNL A   1      47.011  25.950  28.396  1.00  0.00     0.029 A 
ATOM     55  N   UNL A   1      48.307  25.797  30.212  1.00  0.00    -0.354 N 
ATOM     56  C   UNL A   1      46.602  25.062  34.123  1.00  0.00     0.074 A 
ATOM     57  C   UNL A   1      45.160  24.969  34.040  1.00  0.00     0.031 C 
ATOM     58  C   UNL A   1      48.290  26.102  28.000  1.00  0.00     0.029 A 
ATOM     59  C   UNL A   1      49.168  26.043  29.169  1.00  0.00     0.049 A 
ATOM     60  H   UNL A   1      48.611  25.664  31.140  1.00  0.00     0.167 HD
ATOM     61  C   UNL A   1      47.312  24.901  35.268  1.00  0.00     0.034 A 
ATOM     62  C   UNL A   1      50.505  26.228  29.165  1.00  0.00     0.034 A 
ATOM     63  C   UNL A   1      48.746  25.031  35.341  1.00  0.00     0.049 A 
ATOM     64  C   UNL A   1      51.265  26.160  30.462  1.00  0.00     0.074 A 
ATOM     65  C   UNL A   1      49.571  24.890  36.443  1.00  0.00     0.029 A 
ATOM     66  N   UNL A   1      49.571  25.354  34.270  1.00  0.00    -0.354 N 
ATOM     67  N   UNL A   1      50.818  25.929  31.674  1.00  0.00    -0.248 NA
ATOM     68  C   UNL A   1      52.714  26.379  30.382  1.00  0.00     0.031 C 
ATOM     69  C   UNL A   1      50.878  25.210  36.058  1.00  0.00     0.029 A 
ATOM     70  C   UNL A   1      50.889  25.455  34.694  1.00  0.00     0.049 A 
ATOM     71  H   UNL A   1      49.265  25.493  33.344  1.00  0.00     0.167 HD
ATOM     72  C   UNL A   1      51.940  25.945  32.499  1.00  0.00     0.074 A 
ATOM     73  C   UNL A   1      53.079  26.207  31.644  1.00  0.00     0.031 C 
ATOM     74  C   UNL A   1      52.019  25.743  33.840  1.00  0.00     0.034 A 
BRANCH  61  75
ATOM     75  C   UNL A   1      46.523  24.642  36.532  1.00  0.00     0.023 A 
ATOM     76  C   UNL A   1      46.074  25.691  37.357  1.00  0.00     0.031 A 
ATOM     77  C   UNL A   1      46.284  23.324  36.962  1.00  0.00     0.131 A 
ATOM     78  C   UNL A   1      45.508  25.406  38.608  1.00  0.00     0.055 A 
ATOM     79  C   UNL A   1      45.629  23.048  38.164  1.00  0.00     0.041 A 
ATOM     80  F   UNL A   1      46.710  22.279  36.235  1.00  0.00    -0.206 F 
ATOM     81  C   UNL A   1      45.257  24.091  39.006  1.00  0.00     0.022 A 
BRANCH  78  82
ATOM     82  S   UNL A   1      45.286  26.768  39.788  1.00  0.00     0.124 S 
ATOM     83  O   UNL A   1      44.177  26.276  40.600  1.00  0.00    -0.237 OA
ATOM     84  O   UNL A   1      46.585  26.827  40.447  1.00  0.00    -0.237 OA
ATOM     85  O   UNL A   1      44.965  27.910  38.935  1.00  0.00    -0.744 OA
ENDBRANCH  78  82
ENDBRANCH  61  75
BRANCH  62  86
ATOM     86  C   UNL A   1      51.212  26.600  27.909  1.00  0.00     0.023 A 
ATOM     87  C   UNL A   1      51.988  25.692  27.175  1.00  0.00     0.031 A 
ATOM     88  C   UNL A   1      51.168  27.930  27.469  1.00  0.00     0.131 A 
ATOM     89  C   UNL A   1      52.670  26.134  26.028  1.00  0.00     0.055 A 
ATOM     90  C   UNL A   1      51.770  28.346  26.282  1.00  0.00     0.041 A 
ATOM     91  F   UNL A   1      50.553  28.855  28.219  1.00  0.00    -0.206 F 
ATOM     92  C   UNL A   1      52.529  27.440  25.552  1.00  0.00     0.022 A 
BRANCH  89  93
ATOM     93  S   UNL A   1      53.832  25.006  25.208  1.00  0.00     0.124 S 
ATOM     94  O   UNL A   1      53.146  23.727  25.351  1.00  0.00    -0.237 OA
ATOM     95  O   UNL A   1      53.894  25.556  23.858  1.00  0.00    -0.237 OA
ATOM     96  O   UNL A   1      55.056  25.151  25.994  1.00  0.00    -0.744 OA
ENDBRANCH  89  93
ENDBRANCH  62  86
BRANCH  74  97
ATOM     97  C   UNL A   1      53.398  25.739  34.453  1.00  0.00     0.023 A 
ATOM     98  C   UNL A   1      54.194  24.580  34.498  1.00  0.00     0.031 A 
ATOM     99  C   UNL A   1      53.913  26.915  35.027  1.00  0.00     0.131 A 
ATOM    100  C   UNL A   1      55.431  24.608  35.159  1.00  0.00     0.055 A 
ATOM    101  C   UNL A   1      55.176  26.955  35.619  1.00  0.00     0.041 A 
ATOM    102  F   UNL A   1      53.194  28.050  35.021  1.00  0.00    -0.206 F 
ATOM    103  C   UNL A   1      55.936  25.793  35.703  1.00  0.00     0.022 A 
BRANCH 100 104
ATOM    104  S   UNL A   1      56.324  23.049  35.406  1.00  0.00     0.124 S 
ATOM    105  O   UNL A   1      56.923  23.249  36.722  1.00  0.00    -0.237 OA
ATOM    106  O   UNL A   1      55.252  22.060  35.339  1.00  0.00    -0.237 OA
ATOM    107  O   UNL A   1      57.271  23.015  34.294  1.00  0.00    -0.744 OA
ENDBRANCH 100 104
ENDBRANCH  74  97
ENDBRANCH  48  49
ENDBRANCH  41  43
ENDBRANCH  40  41
ENDBRANCH  39  40
ENDBRANCH  38  39
ENDBRANCH  37  38
ENDBRANCH  36  37
ENDBRANCH  35  36
ENDBRANCH   1  35
TORSDOF 27
ENDMDL
