MODEL 1
REMARK VINA RESULT:      -8.8      0.000      0.000
REMARK SMILES COCCN1C(=O)CC[C@@H](C(=O)OCCOCCOCCOCCOC(=O)c2ccc(-c3c4nc(c(-c5cc(S(=O)(=O)[O-])ccc5F)c5ccc([nH]5)c(-c5cc(S(=O)(=O)[O-])ccc5F)c5nc(c(-c6cc(S(=O)(=O)[O-])ccc6F)c6ccc3[nH]6)C=C5)C=C4)cc2)[C@H]1c1ccccc1C
REMARK SMILES IDX 19 1 18 2 17 3 16 4 15 5 14 6 13 7 11 8 12 9 10 10 5 11 6 12
REMARK SMILES IDX 91 13 7 14 8 15 9 16 4 17 3 18 2 19 1 20 92 21 93 22 97 23
REMARK SMILES IDX 94 24 96 25 98 26 95 27 20 28 21 29 22 30 23 31 24 32 25 33
REMARK SMILES IDX 26 34 27 35 28 36 29 37 90 38 30 39 89 40 31 41 32 42 33 43
REMARK SMILES IDX 83 44 34 45 88 46 82 47 84 48 35 49 87 50 81 51 80 52 36 54
REMARK SMILES IDX 68 55 48 56 67 57 49 58 52 59 66 60 85 61 50 62 51 63 65 65
REMARK SMILES IDX 86 66 53 67 37 68 38 69 46 70 39 71 45 72 47 73 44 74 40 75
REMARK SMILES IDX 41 76 42 77 43 78 69 79 70 80 78 81 71 82 77 83 79 84 76 85
REMARK SMILES IDX 72 86 73 87 74 88 75 89 54 90 55 91 63 92 56 93 62 94 64 95
REMARK SMILES IDX 61 96 57 97 58 98 59 99 60 100
REMARK H PARENT 84 53 52 64
REMARK Flexibility Score: inf
ROOT
ATOM      1  O   UNL A   1      40.847  26.295  27.281  1.00  0.00    -0.377 OA
ENDROOT
BRANCH   1   2
ATOM      2  C   UNL A   1      41.051  24.998  26.766  1.00  0.00     0.188 C 
BRANCH   2   3
ATOM      3  C   UNL A   1      39.840  24.059  26.922  1.00  0.00     0.188 C 
BRANCH   3   4
ATOM      4  O   UNL A   1      38.553  24.375  26.414  1.00  0.00    -0.376 OA
BRANCH   4   5
ATOM      5  C   UNL A   1      37.759  23.484  25.643  1.00  0.00     0.202 C 
BRANCH   5   6
ATOM      6  C   UNL A   1      37.630  21.983  25.913  1.00  0.00     0.261 C 
BRANCH   6   7
ATOM      7  O   UNL A   1      36.580  21.330  25.210  1.00  0.00    -0.463 OA
BRANCH   7   8
ATOM      8  C   UNL A   1      35.359  21.898  25.309  1.00  0.00     0.311 C 
ATOM      9  O   UNL A   1      34.888  22.310  26.361  1.00  0.00    -0.252 OA
BRANCH   8  10
ATOM     10  C   UNL A   1      34.723  22.073  23.942  1.00  0.00     0.127 C 
ATOM     11  N   UNL A   1      32.551  22.916  24.743  1.00  0.00    -0.332 N 
ATOM     12  C   UNL A   1      32.910  24.259  24.590  1.00  0.00     0.223 C 
ATOM     13  C   UNL A   1      33.207  21.909  23.911  1.00  0.00     0.130 C 
ATOM     14  O   UNL A   1      32.180  25.195  24.920  1.00  0.00    -0.275 OA
ATOM     15  C   UNL A   1      34.327  24.565  24.110  1.00  0.00     0.101 C 
ATOM     16  C   UNL A   1      35.066  23.455  23.380  1.00  0.00     0.028 C 
BRANCH  11  17
ATOM     17  C   UNL A   1      31.346  22.601  25.517  1.00  0.00     0.148 C 
BRANCH  17  18
ATOM     18  C   UNL A   1      31.379  23.160  26.952  1.00  0.00     0.181 C 
BRANCH  18  19
ATOM     19  O   UNL A   1      30.092  23.567  27.426  1.00  0.00    -0.383 OA
ATOM     20  C   UNL A   1      29.114  22.540  27.339  1.00  0.00     0.194 C 
ENDBRANCH  18  19
ENDBRANCH  17  18
ENDBRANCH  11  17
BRANCH  13  21
ATOM     21  C   UNL A   1      32.779  20.434  23.941  1.00  0.00    -0.022 A 
ATOM     22  C   UNL A   1      33.047  19.642  25.076  1.00  0.00     0.006 A 
ATOM     23  C   UNL A   1      32.292  19.765  22.788  1.00  0.00    -0.046 A 
ATOM     24  C   UNL A   1      32.991  18.246  25.038  1.00  0.00     0.000 A 
ATOM     25  C   UNL A   1      32.240  18.354  22.769  1.00  0.00     0.004 A 
ATOM     26  C   UNL A   1      31.817  20.439  21.526  1.00  0.00     0.045 C 
ATOM     27  C   UNL A   1      32.616  17.598  23.874  1.00  0.00     0.000 A 
ENDBRANCH  13  21
ENDBRANCH   8  10
ENDBRANCH   7   8
ENDBRANCH   6   7
ENDBRANCH   5   6
ENDBRANCH   4   5
ENDBRANCH   3   4
ENDBRANCH   2   3
ENDBRANCH   1   2
BRANCH   1  28
ATOM     28  C   UNL A   1      39.578  26.559  27.873  1.00  0.00     0.188 C 
BRANCH  28  29
ATOM     29  C   UNL A   1      39.458  27.708  28.903  1.00  0.00     0.188 C 
BRANCH  29  30
ATOM     30  O   UNL A   1      38.981  28.935  28.371  1.00  0.00    -0.376 OA
BRANCH  30  31
ATOM     31  C   UNL A   1      37.595  29.078  28.109  1.00  0.00     0.202 C 
BRANCH  31  32
ATOM     32  C   UNL A   1      36.741  29.849  29.131  1.00  0.00     0.261 C 
BRANCH  32  33
ATOM     33  O   UNL A   1      36.604  29.254  30.429  1.00  0.00    -0.460 OA
BRANCH  33  34
ATOM     34  C   UNL A   1      36.918  30.016  31.498  1.00  0.00     0.338 C 
ATOM     35  O   UNL A   1      36.194  30.830  32.050  1.00  0.00    -0.246 OA
BRANCH  34  36
ATOM     36  C   UNL A   1      38.214  29.542  32.026  1.00  0.00     0.060 A 
ATOM     37  C   UNL A   1      39.240  30.471  32.244  1.00  0.00     0.016 A 
ATOM     38  C   UNL A   1      38.414  28.188  32.301  1.00  0.00     0.016 A 
ATOM     39  C   UNL A   1      40.486  30.041  32.700  1.00  0.00     0.010 A 
ATOM     40  C   UNL A   1      39.671  27.756  32.731  1.00  0.00     0.010 A 
ATOM     41  C   UNL A   1      40.722  28.675  32.894  1.00  0.00    -0.014 A 
BRANCH  41  42
ATOM     42  C   UNL A   1      42.116  28.191  33.041  1.00  0.00     0.031 A 
ATOM     43  C   UNL A   1      42.881  27.851  31.790  1.00  0.00     0.074 A 
ATOM     44  C   UNL A   1      42.701  28.086  34.247  1.00  0.00     0.049 A 
ATOM     45  N   UNL A   1      44.084  27.357  31.657  1.00  0.00    -0.248 NA
ATOM     46  C   UNL A   1      42.185  28.098  30.516  1.00  0.00     0.031 C 
ATOM     47  C   UNL A   1      42.082  28.447  35.521  1.00  0.00     0.029 A 
ATOM     48  N   UNL A   1      43.952  27.639  34.594  1.00  0.00    -0.354 N 
ATOM     49  C   UNL A   1      44.286  27.223  30.286  1.00  0.00     0.074 A 
ATOM     50  C   UNL A   1      43.068  27.653  29.636  1.00  0.00     0.031 C 
ATOM     51  C   UNL A   1      42.955  28.201  36.514  1.00  0.00     0.029 A 
ATOM     52  C   UNL A   1      44.175  27.622  35.951  1.00  0.00     0.049 A 
ATOM     53  H   UNL A   1      44.625  27.358  33.934  1.00  0.00     0.167 HD
ATOM     54  C   UNL A   1      45.390  26.786  29.632  1.00  0.00     0.034 A 
ATOM     55  C   UNL A   1      45.232  27.164  36.654  1.00  0.00     0.034 A 
ATOM     56  C   UNL A   1      46.592  26.351  30.299  1.00  0.00     0.049 A 
ATOM     57  C   UNL A   1      46.412  26.584  35.907  1.00  0.00     0.074 A 
ATOM     58  C   UNL A   1      47.775  25.905  29.736  1.00  0.00     0.029 A 
ATOM     59  N   UNL A   1      46.761  26.291  31.677  1.00  0.00    -0.354 N 
ATOM     60  N   UNL A   1      46.597  26.467  34.610  1.00  0.00    -0.248 NA
ATOM     61  C   UNL A   1      47.528  26.082  36.718  1.00  0.00     0.031 C 
ATOM     62  C   UNL A   1      48.621  25.491  30.769  1.00  0.00     0.029 A 
ATOM     63  C   UNL A   1      48.010  25.773  31.981  1.00  0.00     0.049 A 
ATOM     64  H   UNL A   1      46.091  26.574  32.340  1.00  0.00     0.167 HD
ATOM     65  C   UNL A   1      47.867  25.913  34.455  1.00  0.00     0.074 A 
ATOM     66  C   UNL A   1      48.405  25.734  35.788  1.00  0.00     0.031 C 
ATOM     67  C   UNL A   1      48.532  25.589  33.316  1.00  0.00     0.034 A 
BRANCH  54  68
ATOM     68  C   UNL A   1      45.317  26.696  28.126  1.00  0.00     0.023 A 
ATOM     69  C   UNL A   1      45.148  25.469  27.460  1.00  0.00     0.031 A 
ATOM     70  C   UNL A   1      45.451  27.856  27.343  1.00  0.00     0.131 A 
ATOM     71  C   UNL A   1      45.190  25.423  26.057  1.00  0.00     0.055 A 
ATOM     72  C   UNL A   1      45.403  27.815  25.949  1.00  0.00     0.041 A 
ATOM     73  F   UNL A   1      45.644  29.053  27.921  1.00  0.00    -0.206 F 
ATOM     74  C   UNL A   1      45.287  26.591  25.297  1.00  0.00     0.022 A 
BRANCH  71  75
ATOM     75  S   UNL A   1      45.272  23.804  25.246  1.00  0.00     0.124 S 
ATOM     76  O   UNL A   1      45.988  23.011  26.242  1.00  0.00    -0.237 OA
ATOM     77  O   UNL A   1      43.864  23.473  25.057  1.00  0.00    -0.237 OA
ATOM     78  O   UNL A   1      46.021  24.072  24.020  1.00  0.00    -0.744 OA
ENDBRANCH  71  75
ENDBRANCH  54  68
BRANCH  55  79
ATOM     79  C   UNL A   1      45.220  27.189  38.146  1.00  0.00     0.023 A 
ATOM     80  C   UNL A   1      45.726  28.289  38.857  1.00  0.00     0.031 A 
ATOM     81  C   UNL A   1      44.765  26.082  38.885  1.00  0.00     0.131 A 
ATOM     82  C   UNL A   1      45.815  28.237  40.258  1.00  0.00     0.055 A 
ATOM     83  C   UNL A   1      44.798  26.061  40.282  1.00  0.00     0.041 A 
ATOM     84  F   UNL A   1      44.276  25.001  38.259  1.00  0.00    -0.206 F 
ATOM     85  C   UNL A   1      45.339  27.137  40.975  1.00  0.00     0.022 A 
BRANCH  82  86
ATOM     86  S   UNL A   1      46.657  29.591  41.123  1.00  0.00     0.124 S 
ATOM     87  O   UNL A   1      48.035  29.411  40.681  1.00  0.00    -0.237 OA
ATOM     88  O   UNL A   1      45.962  30.761  40.600  1.00  0.00    -0.237 OA
ATOM     89  O   UNL A   1      46.408  29.298  42.533  1.00  0.00    -0.744 OA
ENDBRANCH  82  86
ENDBRANCH  55  79
BRANCH  67  90
ATOM     90  C   UNL A   1      49.940  25.057  33.463  1.00  0.00     0.023 A 
ATOM     91  C   UNL A   1      50.242  23.693  33.309  1.00  0.00     0.031 A 
ATOM     92  C   UNL A   1      50.998  25.935  33.769  1.00  0.00     0.131 A 
ATOM     93  C   UNL A   1      51.552  23.238  33.526  1.00  0.00     0.055 A 
ATOM     94  C   UNL A   1      52.312  25.486  33.909  1.00  0.00     0.041 A 
ATOM     95  F   UNL A   1      50.771  27.249  33.930  1.00  0.00    -0.206 F 
ATOM     96  C   UNL A   1      52.592  24.128  33.804  1.00  0.00     0.022 A 
BRANCH  93  97
ATOM     97  S   UNL A   1      51.858  21.449  33.551  1.00  0.00     0.124 S 
ATOM     98  O   UNL A   1      52.192  21.181  32.156  1.00  0.00    -0.237 OA
ATOM     99  O   UNL A   1      52.956  21.334  34.503  1.00  0.00    -0.237 OA
ATOM    100  O   UNL A   1      50.584  20.890  34.002  1.00  0.00    -0.744 OA
ENDBRANCH  93  97
ENDBRANCH  67  90
ENDBRANCH  41  42
ENDBRANCH  34  36
ENDBRANCH  33  34
ENDBRANCH  32  33
ENDBRANCH  31  32
ENDBRANCH  30  31
ENDBRANCH  29  30
ENDBRANCH  28  29
ENDBRANCH   1  28
TORSDOF 27
ENDMDL
MODEL 2
REMARK VINA RESULT:      -8.4      5.543     11.064
REMARK SMILES COCCN1C(=O)CC[C@@H](C(=O)OCCOCCOCCOCCOC(=O)c2ccc(-c3c4nc(c(-c5cc(S(=O)(=O)[O-])ccc5F)c5ccc([nH]5)c(-c5cc(S(=O)(=O)[O-])ccc5F)c5nc(c(-c6cc(S(=O)(=O)[O-])ccc6F)c6ccc3[nH]6)C=C5)C=C4)cc2)[C@H]1c1ccccc1C
REMARK SMILES IDX 19 1 18 2 17 3 16 4 15 5 14 6 13 7 11 8 12 9 10 10 5 11 6 12
REMARK SMILES IDX 91 13 7 14 8 15 9 16 4 17 3 18 2 19 1 20 92 21 93 22 97 23
REMARK SMILES IDX 94 24 96 25 98 26 95 27 20 28 21 29 22 30 23 31 24 32 25 33
REMARK SMILES IDX 26 34 27 35 28 36 29 37 90 38 30 39 89 40 31 41 32 42 33 43
REMARK SMILES IDX 83 44 34 45 88 46 82 47 84 48 35 49 87 50 81 51 80 52 36 54
REMARK SMILES IDX 68 55 48 56 67 57 49 58 52 59 66 60 85 61 50 62 51 63 65 65
REMARK SMILES IDX 86 66 53 67 37 68 38 69 46 70 39 71 45 72 47 73 44 74 40 75
REMARK SMILES IDX 41 76 42 77 43 78 69 79 70 80 78 81 71 82 77 83 79 84 76 85
REMARK SMILES IDX 72 86 73 87 74 88 75 89 54 90 55 91 63 92 56 93 62 94 64 95
REMARK SMILES IDX 61 96 57 97 58 98 59 99 60 100
REMARK H PARENT 84 53 52 64
REMARK Flexibility Score: inf
ROOT
ATOM      1  O   UNL A   1      51.507  28.856  25.413  1.00  0.00    -0.377 OA
ENDROOT
BRANCH   1   2
ATOM      2  C   UNL A   1      51.137  28.284  24.178  1.00  0.00     0.188 C 
BRANCH   2   3
ATOM      3  C   UNL A   1      50.567  26.857  24.290  1.00  0.00     0.188 C 
BRANCH   3   4
ATOM      4  O   UNL A   1      49.237  26.593  24.712  1.00  0.00    -0.376 OA
BRANCH   4   5
ATOM      5  C   UNL A   1      48.380  27.561  25.299  1.00  0.00     0.202 C 
BRANCH   5   6
ATOM      6  C   UNL A   1      46.862  27.607  25.105  1.00  0.00     0.261 C 
BRANCH   6   7
ATOM      7  O   UNL A   1      46.310  26.501  24.400  1.00  0.00    -0.463 OA
BRANCH   7   8
ATOM      8  C   UNL A   1      45.280  25.871  25.003  1.00  0.00     0.311 C 
ATOM      9  O   UNL A   1      44.111  26.010  24.668  1.00  0.00    -0.252 OA
BRANCH   8  10
ATOM     10  C   UNL A   1      45.775  24.882  26.044  1.00  0.00     0.127 C 
ATOM     11  N   UNL A   1      43.994  23.210  25.721  1.00  0.00    -0.332 N 
ATOM     12  C   UNL A   1      44.752  22.438  24.833  1.00  0.00     0.223 C 
ATOM     13  C   UNL A   1      44.687  24.042  26.704  1.00  0.00     0.130 C 
ATOM     14  O   UNL A   1      44.312  21.439  24.264  1.00  0.00    -0.275 OA
ATOM     15  C   UNL A   1      46.145  22.942  24.465  1.00  0.00     0.101 C 
ATOM     16  C   UNL A   1      46.798  23.932  25.415  1.00  0.00     0.028 C 
BRANCH  11  17
ATOM     17  C   UNL A   1      42.556  22.946  25.821  1.00  0.00     0.148 C 
BRANCH  17  18
ATOM     18  C   UNL A   1      42.219  21.725  26.698  1.00  0.00     0.181 C 
BRANCH  18  19
ATOM     19  O   UNL A   1      41.253  22.013  27.713  1.00  0.00    -0.383 OA
ATOM     20  C   UNL A   1      40.682  23.308  27.590  1.00  0.00     0.194 C 
ENDBRANCH  18  19
ENDBRANCH  17  18
ENDBRANCH  11  17
BRANCH  13  21
ATOM     21  C   UNL A   1      43.921  24.822  27.783  1.00  0.00    -0.022 A 
ATOM     22  C   UNL A   1      43.467  26.130  27.523  1.00  0.00     0.006 A 
ATOM     23  C   UNL A   1      43.816  24.356  29.119  1.00  0.00    -0.046 A 
ATOM     24  C   UNL A   1      43.073  26.998  28.545  1.00  0.00     0.000 A 
ATOM     25  C   UNL A   1      43.413  25.247  30.139  1.00  0.00     0.004 A 
ATOM     26  C   UNL A   1      44.114  22.951  29.578  1.00  0.00     0.045 C 
ATOM     27  C   UNL A   1      43.075  26.566  29.860  1.00  0.00     0.000 A 
ENDBRANCH  13  21
ENDBRANCH   8  10
ENDBRANCH   7   8
ENDBRANCH   6   7
ENDBRANCH   5   6
ENDBRANCH   4   5
ENDBRANCH   3   4
ENDBRANCH   2   3
ENDBRANCH   1   2
BRANCH   1  28
ATOM     28  C   UNL A   1      52.901  29.018  25.655  1.00  0.00     0.188 C 
BRANCH  28  29
ATOM     29  C   UNL A   1      53.859  27.850  25.318  1.00  0.00     0.188 C 
BRANCH  29  30
ATOM     30  O   UNL A   1      54.575  27.330  26.428  1.00  0.00    -0.376 OA
BRANCH  30  31
ATOM     31  C   UNL A   1      53.915  27.207  27.676  1.00  0.00     0.202 C 
BRANCH  31  32
ATOM     32  C   UNL A   1      53.184  25.888  27.982  1.00  0.00     0.261 C 
BRANCH  32  33
ATOM     33  O   UNL A   1      51.956  25.992  28.717  1.00  0.00    -0.460 OA
BRANCH  33  34
ATOM     34  C   UNL A   1      50.824  25.607  28.092  1.00  0.00     0.338 C 
ATOM     35  O   UNL A   1      50.737  24.818  27.163  1.00  0.00    -0.246 OA
BRANCH  34  36
ATOM     36  C   UNL A   1      49.680  26.135  28.863  1.00  0.00     0.060 A 
ATOM     37  C   UNL A   1      48.388  25.684  28.557  1.00  0.00     0.016 A 
ATOM     38  C   UNL A   1      49.881  27.070  29.880  1.00  0.00     0.016 A 
ATOM     39  C   UNL A   1      47.288  26.201  29.241  1.00  0.00     0.010 A 
ATOM     40  C   UNL A   1      48.776  27.606  30.545  1.00  0.00     0.010 A 
ATOM     41  C   UNL A   1      47.474  27.203  30.201  1.00  0.00    -0.014 A 
BRANCH  41  42
ATOM     42  C   UNL A   1      46.305  27.985  30.673  1.00  0.00     0.031 A 
ATOM     43  C   UNL A   1      45.898  29.195  29.876  1.00  0.00     0.074 A 
ATOM     44  C   UNL A   1      45.604  27.615  31.759  1.00  0.00     0.049 A 
ATOM     45  N   UNL A   1      44.955  30.069  30.112  1.00  0.00    -0.248 NA
ATOM     46  C   UNL A   1      46.667  29.454  28.648  1.00  0.00     0.031 C 
ATOM     47  C   UNL A   1      45.865  26.429  32.570  1.00  0.00     0.029 A 
ATOM     48  N   UNL A   1      44.525  28.210  32.366  1.00  0.00    -0.354 N 
ATOM     49  C   UNL A   1      45.024  30.988  29.069  1.00  0.00     0.074 A 
ATOM     50  C   UNL A   1      46.125  30.584  28.222  1.00  0.00     0.031 C 
ATOM     51  C   UNL A   1      44.973  26.385  33.576  1.00  0.00     0.029 A 
ATOM     52  C   UNL A   1      44.110  27.564  33.507  1.00  0.00     0.049 A 
ATOM     53  H   UNL A   1      44.092  29.021  32.018  1.00  0.00     0.167 HD
ATOM     54  C   UNL A   1      44.238  32.067  28.837  1.00  0.00     0.034 A 
ATOM     55  C   UNL A   1      43.161  27.904  34.403  1.00  0.00     0.034 A 
ATOM     56  C   UNL A   1      43.150  32.461  29.699  1.00  0.00     0.049 A 
ATOM     57  C   UNL A   1      42.362  29.170  34.180  1.00  0.00     0.074 A 
ATOM     58  C   UNL A   1      42.278  33.525  29.553  1.00  0.00     0.029 A 
ATOM     59  N   UNL A   1      42.796  31.817  30.878  1.00  0.00    -0.354 N 
ATOM     60  N   UNL A   1      42.431  30.029  33.187  1.00  0.00    -0.248 NA
ATOM     61  C   UNL A   1      41.355  29.505  35.194  1.00  0.00     0.031 C 
ATOM     62  C   UNL A   1      41.459  33.578  30.685  1.00  0.00     0.029 A 
ATOM     63  C   UNL A   1      41.749  32.488  31.491  1.00  0.00     0.049 A 
ATOM     64  H   UNL A   1      43.226  31.004  31.229  1.00  0.00     0.167 HD
ATOM     65  C   UNL A   1      41.448  30.985  33.443  1.00  0.00     0.074 A 
ATOM     66  C   UNL A   1      40.795  30.586  34.672  1.00  0.00     0.031 C 
ATOM     67  C   UNL A   1      41.111  32.086  32.724  1.00  0.00     0.034 A 
BRANCH  54  68
ATOM     68  C   UNL A   1      44.571  32.930  27.643  1.00  0.00     0.023 A 
ATOM     69  C   UNL A   1      45.285  34.134  27.769  1.00  0.00     0.031 A 
ATOM     70  C   UNL A   1      44.137  32.554  26.359  1.00  0.00     0.131 A 
ATOM     71  C   UNL A   1      45.482  34.952  26.645  1.00  0.00     0.055 A 
ATOM     72  C   UNL A   1      44.413  33.328  25.231  1.00  0.00     0.041 A 
ATOM     73  F   UNL A   1      43.425  31.429  26.180  1.00  0.00    -0.206 F 
ATOM     74  C   UNL A   1      45.075  34.543  25.372  1.00  0.00     0.022 A 
BRANCH  71  75
ATOM     75  S   UNL A   1      46.135  36.625  26.894  1.00  0.00     0.124 S 
ATOM     76  O   UNL A   1      44.920  37.431  26.815  1.00  0.00    -0.237 OA
ATOM     77  O   UNL A   1      46.754  36.529  28.211  1.00  0.00    -0.237 OA
ATOM     78  O   UNL A   1      47.063  36.800  25.779  1.00  0.00    -0.744 OA
ENDBRANCH  71  75
ENDBRANCH  54  68
BRANCH  55  79
ATOM     79  C   UNL A   1      42.929  27.069  35.619  1.00  0.00     0.023 A 
ATOM     80  C   UNL A   1      43.814  27.113  36.708  1.00  0.00     0.031 A 
ATOM     81  C   UNL A   1      41.855  26.163  35.680  1.00  0.00     0.131 A 
ATOM     82  C   UNL A   1      43.641  26.230  37.786  1.00  0.00     0.055 A 
ATOM     83  C   UNL A   1      41.652  25.331  36.784  1.00  0.00     0.041 A 
ATOM     84  F   UNL A   1      40.981  26.074  34.666  1.00  0.00    -0.206 F 
ATOM     85  C   UNL A   1      42.557  25.351  37.839  1.00  0.00     0.022 A 
BRANCH  82  86
ATOM     86  S   UNL A   1      44.915  26.178  39.077  1.00  0.00     0.124 S 
ATOM     87  O   UNL A   1      45.762  27.304  38.699  1.00  0.00    -0.237 OA
ATOM     88  O   UNL A   1      44.123  26.347  40.289  1.00  0.00    -0.237 OA
ATOM     89  O   UNL A   1      45.517  24.858  38.905  1.00  0.00    -0.744 OA
ENDBRANCH  82  86
ENDBRANCH  55  79
BRANCH  67  90
ATOM     90  C   UNL A   1      39.945  32.910  33.223  1.00  0.00     0.023 A 
ATOM     91  C   UNL A   1      38.611  32.529  32.995  1.00  0.00     0.031 A 
ATOM     92  C   UNL A   1      40.176  34.102  33.934  1.00  0.00     0.131 A 
ATOM     93  C   UNL A   1      37.563  33.363  33.415  1.00  0.00     0.055 A 
ATOM     94  C   UNL A   1      39.129  34.889  34.414  1.00  0.00     0.041 A 
ATOM     95  F   UNL A   1      41.429  34.520  34.180  1.00  0.00    -0.206 F 
ATOM     96  C   UNL A   1      37.813  34.529  34.141  1.00  0.00     0.022 A 
BRANCH  93  97
ATOM     97  S   UNL A   1      35.871  32.960  32.901  1.00  0.00     0.124 S 
ATOM     98  O   UNL A   1      35.597  34.003  31.919  1.00  0.00    -0.237 OA
ATOM     99  O   UNL A   1      36.018  31.609  32.372  1.00  0.00    -0.237 OA
ATOM    100  O   UNL A   1      35.103  33.060  34.142  1.00  0.00    -0.744 OA
ENDBRANCH  93  97
ENDBRANCH  67  90
ENDBRANCH  41  42
ENDBRANCH  34  36
ENDBRANCH  33  34
ENDBRANCH  32  33
ENDBRANCH  31  32
ENDBRANCH  30  31
ENDBRANCH  29  30
ENDBRANCH  28  29
ENDBRANCH   1  28
TORSDOF 27
ENDMDL
MODEL 3
REMARK VINA RESULT:      -8.3      4.860     10.793
REMARK SMILES COCCN1C(=O)CC[C@@H](C(=O)OCCOCCOCCOCCOC(=O)c2ccc(-c3c4nc(c(-c5cc(S(=O)(=O)[O-])ccc5F)c5ccc([nH]5)c(-c5cc(S(=O)(=O)[O-])ccc5F)c5nc(c(-c6cc(S(=O)(=O)[O-])ccc6F)c6ccc3[nH]6)C=C5)C=C4)cc2)[C@H]1c1ccccc1C
REMARK SMILES IDX 19 1 18 2 17 3 16 4 15 5 14 6 13 7 11 8 12 9 10 10 5 11 6 12
REMARK SMILES IDX 91 13 7 14 8 15 9 16 4 17 3 18 2 19 1 20 92 21 93 22 97 23
REMARK SMILES IDX 94 24 96 25 98 26 95 27 20 28 21 29 22 30 23 31 24 32 25 33
REMARK SMILES IDX 26 34 27 35 28 36 29 37 90 38 30 39 89 40 31 41 32 42 33 43
REMARK SMILES IDX 83 44 34 45 88 46 82 47 84 48 35 49 87 50 81 51 80 52 36 54
REMARK SMILES IDX 68 55 48 56 67 57 49 58 52 59 66 60 85 61 50 62 51 63 65 65
REMARK SMILES IDX 86 66 53 67 37 68 38 69 46 70 39 71 45 72 47 73 44 74 40 75
REMARK SMILES IDX 41 76 42 77 43 78 69 79 70 80 78 81 71 82 77 83 79 84 76 85
REMARK SMILES IDX 72 86 73 87 74 88 75 89 54 90 55 91 63 92 56 93 62 94 64 95
REMARK SMILES IDX 61 96 57 97 58 98 59 99 60 100
REMARK H PARENT 84 53 52 64
REMARK Flexibility Score: inf
ROOT
ATOM      1  O   UNL A   1      50.882  28.929  25.098  1.00  0.00    -0.377 OA
ENDROOT
BRANCH   1   2
ATOM      2  C   UNL A   1      50.651  27.928  24.132  1.00  0.00     0.188 C 
BRANCH   2   3
ATOM      3  C   UNL A   1      50.279  26.555  24.722  1.00  0.00     0.188 C 
BRANCH   3   4
ATOM      4  O   UNL A   1      49.025  26.296  25.334  1.00  0.00    -0.376 OA
BRANCH   4   5
ATOM      5  C   UNL A   1      48.006  27.271  25.506  1.00  0.00     0.202 C 
BRANCH   5   6
ATOM      6  C   UNL A   1      46.590  27.155  24.935  1.00  0.00     0.261 C 
BRANCH   6   7
ATOM      7  O   UNL A   1      46.170  25.831  24.626  1.00  0.00    -0.463 OA
BRANCH   7   8
ATOM      8  C   UNL A   1      45.015  25.429  25.197  1.00  0.00     0.311 C 
ATOM      9  O   UNL A   1      43.908  25.702  24.752  1.00  0.00    -0.252 OA
BRANCH   8  10
ATOM     10  C   UNL A   1      45.277  24.496  26.367  1.00  0.00     0.127 C 
ATOM     11  N   UNL A   1      43.360  22.999  25.974  1.00  0.00    -0.332 N 
ATOM     12  C   UNL A   1      44.115  22.070  25.249  1.00  0.00     0.223 C 
ATOM     13  C   UNL A   1      44.033  23.842  26.961  1.00  0.00     0.130 C 
ATOM     14  O   UNL A   1      43.628  21.073  24.715  1.00  0.00    -0.275 OA
ATOM     15  C   UNL A   1      45.589  22.387  25.007  1.00  0.00     0.101 C 
ATOM     16  C   UNL A   1      46.245  23.389  25.944  1.00  0.00     0.028 C 
BRANCH  11  17
ATOM     17  C   UNL A   1      41.899  22.898  25.924  1.00  0.00     0.148 C 
BRANCH  17  18
ATOM     18  C   UNL A   1      41.316  21.943  26.983  1.00  0.00     0.181 C 
BRANCH  18  19
ATOM     19  O   UNL A   1      40.416  20.977  26.433  1.00  0.00    -0.383 OA
ATOM     20  C   UNL A   1      39.124  21.505  26.164  1.00  0.00     0.194 C 
ENDBRANCH  18  19
ENDBRANCH  17  18
ENDBRANCH  11  17
BRANCH  13  21
ATOM     21  C   UNL A   1      43.251  24.797  27.874  1.00  0.00    -0.022 A 
ATOM     22  C   UNL A   1      42.207  25.584  27.347  1.00  0.00     0.006 A 
ATOM     23  C   UNL A   1      43.660  25.075  29.203  1.00  0.00    -0.046 A 
ATOM     24  C   UNL A   1      41.694  26.691  28.029  1.00  0.00     0.000 A 
ATOM     25  C   UNL A   1      43.129  26.196  29.878  1.00  0.00     0.004 A 
ATOM     26  C   UNL A   1      44.656  24.265  29.995  1.00  0.00     0.045 C 
ATOM     27  C   UNL A   1      42.176  27.017  29.285  1.00  0.00     0.000 A 
ENDBRANCH  13  21
ENDBRANCH   8  10
ENDBRANCH   7   8
ENDBRANCH   6   7
ENDBRANCH   5   6
ENDBRANCH   4   5
ENDBRANCH   3   4
ENDBRANCH   2   3
ENDBRANCH   1   2
BRANCH   1  28
ATOM     28  C   UNL A   1      52.041  29.739  24.919  1.00  0.00     0.188 C 
BRANCH  28  29
ATOM     29  C   UNL A   1      53.321  29.094  24.337  1.00  0.00     0.188 C 
BRANCH  29  30
ATOM     30  O   UNL A   1      54.536  29.691  24.768  1.00  0.00    -0.376 OA
BRANCH  30  31
ATOM     31  C   UNL A   1      54.651  30.118  26.115  1.00  0.00     0.202 C 
BRANCH  31  32
ATOM     32  C   UNL A   1      54.964  29.060  27.187  1.00  0.00     0.261 C 
BRANCH  32  33
ATOM     33  O   UNL A   1      53.875  28.668  28.035  1.00  0.00    -0.460 OA
BRANCH  33  34
ATOM     34  C   UNL A   1      53.161  27.583  27.669  1.00  0.00     0.338 C 
ATOM     35  O   UNL A   1      53.546  26.664  26.962  1.00  0.00    -0.246 OA
BRANCH  34  36
ATOM     36  C   UNL A   1      51.905  27.585  28.445  1.00  0.00     0.060 A 
ATOM     37  C   UNL A   1      50.953  26.586  28.200  1.00  0.00     0.016 A 
ATOM     38  C   UNL A   1      51.667  28.569  29.406  1.00  0.00     0.016 A 
ATOM     39  C   UNL A   1      49.740  26.593  28.889  1.00  0.00     0.010 A 
ATOM     40  C   UNL A   1      50.441  28.590  30.075  1.00  0.00     0.010 A 
ATOM     41  C   UNL A   1      49.458  27.626  29.790  1.00  0.00    -0.014 A 
BRANCH  41  42
ATOM     42  C   UNL A   1      48.064  27.826  30.255  1.00  0.00     0.031 A 
ATOM     43  C   UNL A   1      47.264  28.936  29.628  1.00  0.00     0.074 A 
ATOM     44  C   UNL A   1      47.510  27.027  31.183  1.00  0.00     0.049 A 
ATOM     45  N   UNL A   1      46.053  29.348  29.901  1.00  0.00    -0.248 NA
ATOM     46  C   UNL A   1      47.927  29.687  28.549  1.00  0.00     0.031 C 
ATOM     47  C   UNL A   1      48.166  25.883  31.813  1.00  0.00     0.029 A 
ATOM     48  N   UNL A   1      46.265  27.062  31.760  1.00  0.00    -0.354 N 
ATOM     49  C   UNL A   1      45.813  30.411  29.036  1.00  0.00     0.074 A 
ATOM     50  C   UNL A   1      47.017  30.603  28.259  1.00  0.00     0.031 C 
ATOM     51  C   UNL A   1      47.317  25.327  32.696  1.00  0.00     0.029 A 
ATOM     52  C   UNL A   1      46.078  26.104  32.728  1.00  0.00     0.049 A 
ATOM     53  H   UNL A   1      45.572  27.713  31.506  1.00  0.00     0.167 HD
ATOM     54  C   UNL A   1      44.689  31.156  28.902  1.00  0.00     0.034 A 
ATOM     55  C   UNL A   1      45.036  25.898  33.560  1.00  0.00     0.034 A 
ATOM     56  C   UNL A   1      43.501  30.956  29.695  1.00  0.00     0.049 A 
ATOM     57  C   UNL A   1      43.831  26.807  33.463  1.00  0.00     0.074 A 
ATOM     58  C   UNL A   1      42.299  31.640  29.631  1.00  0.00     0.029 A 
ATOM     59  N   UNL A   1      43.368  30.015  30.707  1.00  0.00    -0.354 N 
ATOM     60  N   UNL A   1      43.611  27.807  32.638  1.00  0.00    -0.248 NA
ATOM     61  C   UNL A   1      42.732  26.554  34.404  1.00  0.00     0.031 C 
ATOM     62  C   UNL A   1      41.477  31.175  30.662  1.00  0.00     0.029 A 
ATOM     63  C   UNL A   1      42.123  30.130  31.305  1.00  0.00     0.049 A 
ATOM     64  H   UNL A   1      44.057  29.360  30.963  1.00  0.00     0.167 HD
ATOM     65  C   UNL A   1      42.332  28.274  32.940  1.00  0.00     0.074 A 
ATOM     66  C   UNL A   1      41.829  27.438  34.009  1.00  0.00     0.031 C 
ATOM     67  C   UNL A   1      41.634  29.296  32.379  1.00  0.00     0.034 A 
BRANCH  54  68
ATOM     68  C   UNL A   1      44.721  32.293  27.908  1.00  0.00     0.023 A 
ATOM     69  C   UNL A   1      45.192  33.572  28.253  1.00  0.00     0.031 A 
ATOM     70  C   UNL A   1      44.241  32.100  26.600  1.00  0.00     0.131 A 
ATOM     71  C   UNL A   1      45.106  34.623  27.326  1.00  0.00     0.055 A 
ATOM     72  C   UNL A   1      44.240  33.127  25.655  1.00  0.00     0.041 A 
ATOM     73  F   UNL A   1      43.751  30.909  26.221  1.00  0.00    -0.206 F 
ATOM     74  C   UNL A   1      44.660  34.402  26.021  1.00  0.00     0.022 A 
BRANCH  71  75
ATOM     75  S   UNL A   1      45.438  36.312  27.897  1.00  0.00     0.124 S 
ATOM     76  O   UNL A   1      46.884  36.405  27.717  1.00  0.00    -0.237 OA
ATOM     77  O   UNL A   1      44.627  37.117  26.990  1.00  0.00    -0.237 OA
ATOM     78  O   UNL A   1      44.991  36.297  29.288  1.00  0.00    -0.744 OA
ENDBRANCH  71  75
ENDBRANCH  54  68
BRANCH  55  79
ATOM     79  C   UNL A   1      45.088  24.819  34.590  1.00  0.00     0.023 A 
ATOM     80  C   UNL A   1      45.648  25.051  35.857  1.00  0.00     0.031 A 
ATOM     81  C   UNL A   1      44.638  23.518  34.299  1.00  0.00     0.131 A 
ATOM     82  C   UNL A   1      45.794  23.989  36.763  1.00  0.00     0.055 A 
ATOM     83  C   UNL A   1      44.729  22.479  35.228  1.00  0.00     0.041 A 
ATOM     84  F   UNL A   1      44.099  23.237  33.102  1.00  0.00    -0.206 F 
ATOM     85  C   UNL A   1      45.324  22.708  36.464  1.00  0.00     0.022 A 
BRANCH  82  86
ATOM     86  S   UNL A   1      46.702  24.284  38.306  1.00  0.00     0.124 S 
ATOM     87  O   UNL A   1      45.676  24.015  39.307  1.00  0.00    -0.237 OA
ATOM     88  O   UNL A   1      47.780  23.307  38.212  1.00  0.00    -0.237 OA
ATOM     89  O   UNL A   1      47.116  25.680  38.193  1.00  0.00    -0.744 OA
ENDBRANCH  82  86
ENDBRANCH  55  79
BRANCH  67  90
ATOM     90  C   UNL A   1      40.226  29.529  32.878  1.00  0.00     0.023 A 
ATOM     91  C   UNL A   1      39.953  30.358  33.980  1.00  0.00     0.031 A 
ATOM     92  C   UNL A   1      39.138  28.904  32.239  1.00  0.00     0.131 A 
ATOM     93  C   UNL A   1      38.636  30.487  34.449  1.00  0.00     0.055 A 
ATOM     94  C   UNL A   1      37.823  29.095  32.665  1.00  0.00     0.041 A 
ATOM     95  F   UNL A   1      39.337  28.098  31.183  1.00  0.00    -0.206 F 
ATOM     96  C   UNL A   1      37.568  29.878  33.786  1.00  0.00     0.022 A 
BRANCH  93  97
ATOM     97  S   UNL A   1      38.351  31.371  36.008  1.00  0.00     0.124 S 
ATOM     98  O   UNL A   1      39.624  32.054  36.205  1.00  0.00    -0.237 OA
ATOM     99  O   UNL A   1      37.214  32.223  35.679  1.00  0.00    -0.237 OA
ATOM    100  O   UNL A   1      38.067  30.300  36.962  1.00  0.00    -0.744 OA
ENDBRANCH  93  97
ENDBRANCH  67  90
ENDBRANCH  41  42
ENDBRANCH  34  36
ENDBRANCH  33  34
ENDBRANCH  32  33
ENDBRANCH  31  32
ENDBRANCH  30  31
ENDBRANCH  29  30
ENDBRANCH  28  29
ENDBRANCH   1  28
TORSDOF 27
ENDMDL
