MODEL 1
REMARK VINA RESULT:      -9.3      0.000      0.000
REMARK SMILES CC1(C)[C@@]2(C(=O)OCCOCCOCCOCCOC(=O)c3ccc(-c4c5nc(c(-c6cc(S(=O)(=O)[O-])ccc6F)c6ccc([nH]6)c(-c6cc(S(=O)(=O)[O-])ccc6F)c6nc(c(-c7cc(S(=O)(=O)[O-])ccc7F)c7ccc4[nH]7)C=C6)C=C5)cc3)CC[C@]1(C)/C(=N/NC(=O)c1ccc(Cl)cc1)C2
REMARK SMILES IDX 14 1 13 2 12 3 11 4 10 5 9 6 8 7 7 8 5 9 6 10 4 11 1 12 2 13
REMARK SMILES IDX 3 14 87 15 85 16 101 17 86 18 88 19 89 20 90 21 91 22 92 23
REMARK SMILES IDX 93 25 94 26 95 27 100 28 96 29 99 30 97 31 98 32 15 33 16 34
REMARK SMILES IDX 17 35 18 36 19 37 20 38 21 39 22 40 23 41 84 42 24 43 83 44
REMARK SMILES IDX 25 45 26 46 27 47 77 48 28 49 82 50 76 51 78 52 29 53 81 54
REMARK SMILES IDX 75 55 74 56 30 58 62 59 42 60 61 61 43 62 46 63 60 64 79 65
REMARK SMILES IDX 44 66 45 67 59 69 80 70 47 71 31 72 32 73 40 74 33 75 39 76
REMARK SMILES IDX 41 77 38 78 34 79 35 80 36 81 37 82 63 83 64 84 72 85 65 86
REMARK SMILES IDX 71 87 73 88 70 89 66 90 67 91 68 92 69 93 48 94 49 95 57 96
REMARK SMILES IDX 50 97 56 98 58 99 55 100 51 101 52 102 53 103 54 104
REMARK H PARENT 91 24 78 57 46 68
REMARK Flexibility Score: inf
ROOT
ATOM      1  C   UNL A   1      37.043  30.008  31.080  1.00  0.00     0.188 C 
ENDROOT
BRANCH   1   2
ATOM      2  O   UNL A   1      35.918  30.829  30.753  1.00  0.00    -0.377 OA
BRANCH   2   3
ATOM      3  C   UNL A   1      36.164  32.224  30.723  1.00  0.00     0.188 C 
BRANCH   3   4
ATOM      4  C   UNL A   1      35.579  33.001  29.543  1.00  0.00     0.188 C 
BRANCH   4   5
ATOM      5  O   UNL A   1      34.179  32.930  29.330  1.00  0.00    -0.376 OA
BRANCH   5   6
ATOM      6  C   UNL A   1      33.722  32.426  28.068  1.00  0.00     0.202 C 
BRANCH   6   7
ATOM      7  C   UNL A   1      34.402  31.163  27.541  1.00  0.00     0.261 C 
BRANCH   7   8
ATOM      8  O   UNL A   1      33.500  30.425  26.687  1.00  0.00    -0.463 OA
BRANCH   8   9
ATOM      9  C   UNL A   1      33.745  29.101  26.523  1.00  0.00     0.313 C 
ATOM     10  O   UNL A   1      34.783  28.538  26.844  1.00  0.00    -0.252 OA
BRANCH   9  11
ATOM     11  C   UNL A   1      32.618  28.416  25.779  1.00  0.00     0.079 C 
ATOM     12  C   UNL A   1      33.532  28.900  23.379  1.00  0.00     0.013 C 
ATOM     13  C   UNL A   1      32.933  27.865  24.357  1.00  0.00    -0.008 C 
ATOM     14  C   UNL A   1      33.863  26.635  24.312  1.00  0.00     0.013 C 
ATOM     15  C   UNL A   1      31.431  27.527  24.095  1.00  0.00     0.014 C 
ATOM     16  C   UNL A   1      31.481  29.457  25.514  1.00  0.00     0.021 C 
ATOM     17  C   UNL A   1      31.979  27.192  26.490  1.00  0.00     0.073 C 
ATOM     18  C   UNL A   1      30.711  28.868  24.318  1.00  0.00     0.014 C 
ATOM     19  C   UNL A   1      31.107  26.836  22.787  1.00  0.00     0.018 C 
ATOM     20  C   UNL A   1      31.082  26.722  25.373  1.00  0.00     0.046 C 
ATOM     21  N   UNL A   1      30.157  25.821  25.306  1.00  0.00    -0.181 NA
BRANCH  21  22
ATOM     22  N   UNL A   1      29.754  24.960  26.269  1.00  0.00    -0.243 N 
ATOM     23  C   UNL A   1      30.135  23.724  26.734  1.00  0.00     0.271 C 
ATOM     24  H   UNL A   1      28.982  25.312  26.768  1.00  0.00     0.194 HD
ATOM     25  O   UNL A   1      29.436  23.164  27.582  1.00  0.00    -0.267 OA
BRANCH  23  26
ATOM     26  C   UNL A   1      31.359  23.042  26.306  1.00  0.00     0.041 A 
ATOM     27  C   UNL A   1      32.582  23.566  26.753  1.00  0.00     0.015 A 
ATOM     28  C   UNL A   1      31.329  21.912  25.480  1.00  0.00     0.015 A 
ATOM     29  C   UNL A   1      33.771  22.902  26.460  1.00  0.00     0.021 A 
ATOM     30  C   UNL A   1      32.528  21.253  25.182  1.00  0.00     0.021 A 
ATOM     31  C   UNL A   1      33.736  21.736  25.694  1.00  0.00     0.041 A 
ATOM     32  Cl  UNL A   1      35.190  20.859  25.420  1.00  0.00    -0.084 Cl
ENDBRANCH  23  26
ENDBRANCH  21  22
ENDBRANCH   9  11
ENDBRANCH   8   9
ENDBRANCH   7   8
ENDBRANCH   6   7
ENDBRANCH   5   6
ENDBRANCH   4   5
ENDBRANCH   3   4
ENDBRANCH   2   3
ENDBRANCH   1   2
BRANCH   1  33
ATOM     33  C   UNL A   1      37.112  29.476  32.519  1.00  0.00     0.188 C 
BRANCH  33  34
ATOM     34  O   UNL A   1      38.268  29.804  33.286  1.00  0.00    -0.376 OA
BRANCH  34  35
ATOM     35  C   UNL A   1      38.308  31.057  33.963  1.00  0.00     0.202 C 
BRANCH  35  36
ATOM     36  C   UNL A   1      39.462  31.973  33.566  1.00  0.00     0.261 C 
BRANCH  36  37
ATOM     37  O   UNL A   1      39.244  32.527  32.258  1.00  0.00    -0.460 OA
BRANCH  37  38
ATOM     38  C   UNL A   1      39.240  33.873  32.185  1.00  0.00     0.338 C 
ATOM     39  O   UNL A   1      38.448  34.642  32.720  1.00  0.00    -0.246 OA
BRANCH  38  40
ATOM     40  C   UNL A   1      40.434  34.324  31.457  1.00  0.00     0.060 A 
ATOM     41  C   UNL A   1      40.402  34.317  30.057  1.00  0.00     0.016 A 
ATOM     42  C   UNL A   1      41.603  34.655  32.147  1.00  0.00     0.016 A 
ATOM     43  C   UNL A   1      41.568  34.577  29.340  1.00  0.00     0.010 A 
ATOM     44  C   UNL A   1      42.770  34.905  31.427  1.00  0.00     0.010 A 
ATOM     45  C   UNL A   1      42.766  34.817  30.024  1.00  0.00    -0.014 A 
BRANCH  45  46
ATOM     46  C   UNL A   1      44.054  34.768  29.293  1.00  0.00     0.031 A 
ATOM     47  C   UNL A   1      44.774  33.451  29.208  1.00  0.00     0.074 A 
ATOM     48  C   UNL A   1      44.565  35.871  28.722  1.00  0.00     0.049 A 
ATOM     49  N   UNL A   1      45.937  33.169  28.682  1.00  0.00    -0.248 NA
ATOM     50  C   UNL A   1      44.087  32.297  29.810  1.00  0.00     0.031 C 
ATOM     51  C   UNL A   1      43.928  37.186  28.705  1.00  0.00     0.029 A 
ATOM     52  N   UNL A   1      45.747  36.057  28.052  1.00  0.00    -0.354 N 
ATOM     53  C   UNL A   1      46.127  31.806  28.894  1.00  0.00     0.074 A 
ATOM     54  C   UNL A   1      44.974  31.331  29.629  1.00  0.00     0.031 C 
ATOM     55  C   UNL A   1      44.733  38.049  28.062  1.00  0.00     0.029 A 
ATOM     56  C   UNL A   1      45.955  37.357  27.659  1.00  0.00     0.049 A 
ATOM     57  H   UNL A   1      46.384  35.330  27.871  1.00  0.00     0.167 HD
ATOM     58  C   UNL A   1      47.164  31.024  28.504  1.00  0.00     0.034 A 
ATOM     59  C   UNL A   1      47.026  37.920  27.064  1.00  0.00     0.034 A 
ATOM     60  C   UNL A   1      48.313  31.526  27.792  1.00  0.00     0.049 A 
ATOM     61  C   UNL A   1      48.215  37.052  26.728  1.00  0.00     0.074 A 
ATOM     62  C   UNL A   1      49.415  30.830  27.328  1.00  0.00     0.029 A 
ATOM     63  N   UNL A   1      48.518  32.860  27.456  1.00  0.00    -0.354 N 
ATOM     64  N   UNL A   1      48.378  35.761  26.916  1.00  0.00    -0.248 NA
ATOM     65  C   UNL A   1      49.361  37.719  26.098  1.00  0.00     0.031 C 
ATOM     66  C   UNL A   1      50.317  31.751  26.780  1.00  0.00     0.029 A 
ATOM     67  C   UNL A   1      49.744  33.013  26.828  1.00  0.00     0.049 A 
ATOM     68  H   UNL A   1      47.883  33.591  27.638  1.00  0.00     0.167 HD
ATOM     69  C   UNL A   1      49.634  35.458  26.394  1.00  0.00     0.074 A 
ATOM     70  C   UNL A   1      50.178  36.698  25.879  1.00  0.00     0.031 C 
ATOM     71  C   UNL A   1      50.276  34.263  26.334  1.00  0.00     0.034 A 
BRANCH  58  72
ATOM     72  C   UNL A   1      47.119  29.569  28.906  1.00  0.00     0.023 A 
ATOM     73  C   UNL A   1      46.485  28.598  28.111  1.00  0.00     0.031 A 
ATOM     74  C   UNL A   1      47.668  29.155  30.134  1.00  0.00     0.131 A 
ATOM     75  C   UNL A   1      46.341  27.285  28.587  1.00  0.00     0.055 A 
ATOM     76  C   UNL A   1      47.593  27.829  30.564  1.00  0.00     0.041 A 
ATOM     77  F   UNL A   1      48.265  30.040  30.948  1.00  0.00    -0.206 F 
ATOM     78  C   UNL A   1      46.911  26.889  29.798  1.00  0.00     0.022 A 
BRANCH  75  79
ATOM     79  S   UNL A   1      45.255  26.148  27.681  1.00  0.00     0.124 S 
ATOM     80  O   UNL A   1      44.117  26.038  28.591  1.00  0.00    -0.237 OA
ATOM     81  O   UNL A   1      45.012  26.869  26.437  1.00  0.00    -0.237 OA
ATOM     82  O   UNL A   1      46.060  24.934  27.553  1.00  0.00    -0.744 OA
ENDBRANCH  75  79
ENDBRANCH  58  72
BRANCH  59  83
ATOM     83  C   UNL A   1      47.043  39.381  26.768  1.00  0.00     0.023 A 
ATOM     84  C   UNL A   1      46.715  39.862  25.491  1.00  0.00     0.031 A 
ATOM     85  C   UNL A   1      47.433  40.313  27.746  1.00  0.00     0.131 A 
ATOM     86  C   UNL A   1      46.821  41.233  25.213  1.00  0.00     0.055 A 
ATOM     87  C   UNL A   1      47.489  41.682  27.478  1.00  0.00     0.041 A 
ATOM     88  F   UNL A   1      47.757  39.904  28.983  1.00  0.00    -0.206 F 
ATOM     89  C   UNL A   1      47.193  42.148  26.201  1.00  0.00     0.022 A 
BRANCH  86  90
ATOM     90  S   UNL A   1      46.532  41.799  23.514  1.00  0.00     0.124 S 
ATOM     91  O   UNL A   1      47.517  42.866  23.385  1.00  0.00    -0.237 OA
ATOM     92  O   UNL A   1      46.794  40.588  22.743  1.00  0.00    -0.237 OA
ATOM     93  O   UNL A   1      45.137  42.234  23.533  1.00  0.00    -0.744 OA
ENDBRANCH  86  90
ENDBRANCH  59  83
BRANCH  71  94
ATOM     94  C   UNL A   1      51.619  34.241  25.643  1.00  0.00     0.023 A 
ATOM     95  C   UNL A   1      51.767  33.779  24.324  1.00  0.00     0.031 A 
ATOM     96  C   UNL A   1      52.768  34.679  26.324  1.00  0.00     0.131 A 
ATOM     97  C   UNL A   1      53.045  33.711  23.748  1.00  0.00     0.055 A 
ATOM     98  C   UNL A   1      54.028  34.667  25.725  1.00  0.00     0.041 A 
ATOM     99  F   UNL A   1      52.685  35.130  27.587  1.00  0.00    -0.206 F 
ATOM    100  C   UNL A   1      54.174  34.168  24.434  1.00  0.00     0.022 A 
BRANCH  97 101
ATOM    101  S   UNL A   1      53.228  32.930  22.121  1.00  0.00     0.124 S 
ATOM    102  O   UNL A   1      54.481  32.198  22.275  1.00  0.00    -0.237 OA
ATOM    103  O   UNL A   1      52.021  32.114  22.028  1.00  0.00    -0.237 OA
ATOM    104  O   UNL A   1      53.282  34.063  21.200  1.00  0.00    -0.744 OA
ENDBRANCH  97 101
ENDBRANCH  71  94
ENDBRANCH  45  46
ENDBRANCH  38  40
ENDBRANCH  37  38
ENDBRANCH  36  37
ENDBRANCH  35  36
ENDBRANCH  34  35
ENDBRANCH  33  34
ENDBRANCH   1  33
TORSDOF 25
ENDMDL
MODEL 2
REMARK VINA RESULT:      -8.7      8.746     11.945
REMARK SMILES CC1(C)[C@@]2(C(=O)OCCOCCOCCOCCOC(=O)c3ccc(-c4c5nc(c(-c6cc(S(=O)(=O)[O-])ccc6F)c6ccc([nH]6)c(-c6cc(S(=O)(=O)[O-])ccc6F)c6nc(c(-c7cc(S(=O)(=O)[O-])ccc7F)c7ccc4[nH]7)C=C6)C=C5)cc3)CC[C@]1(C)/C(=N/NC(=O)c1ccc(Cl)cc1)C2
REMARK SMILES IDX 14 1 13 2 12 3 11 4 10 5 9 6 8 7 7 8 5 9 6 10 4 11 1 12 2 13
REMARK SMILES IDX 3 14 87 15 85 16 101 17 86 18 88 19 89 20 90 21 91 22 92 23
REMARK SMILES IDX 93 25 94 26 95 27 100 28 96 29 99 30 97 31 98 32 15 33 16 34
REMARK SMILES IDX 17 35 18 36 19 37 20 38 21 39 22 40 23 41 84 42 24 43 83 44
REMARK SMILES IDX 25 45 26 46 27 47 77 48 28 49 82 50 76 51 78 52 29 53 81 54
REMARK SMILES IDX 75 55 74 56 30 58 62 59 42 60 61 61 43 62 46 63 60 64 79 65
REMARK SMILES IDX 44 66 45 67 59 69 80 70 47 71 31 72 32 73 40 74 33 75 39 76
REMARK SMILES IDX 41 77 38 78 34 79 35 80 36 81 37 82 63 83 64 84 72 85 65 86
REMARK SMILES IDX 71 87 73 88 70 89 66 90 67 91 68 92 69 93 48 94 49 95 57 96
REMARK SMILES IDX 50 97 56 98 58 99 55 100 51 101 52 102 53 103 54 104
REMARK H PARENT 91 24 78 57 46 68
REMARK Flexibility Score: inf
ROOT
ATOM      1  C   UNL A   1      33.417  35.821  29.711  1.00  0.00     0.188 C 
ENDROOT
BRANCH   1   2
ATOM      2  O   UNL A   1      32.619  35.238  28.678  1.00  0.00    -0.377 OA
BRANCH   2   3
ATOM      3  C   UNL A   1      33.075  33.994  28.177  1.00  0.00     0.188 C 
BRANCH   3   4
ATOM      4  C   UNL A   1      34.574  33.868  27.906  1.00  0.00     0.188 C 
BRANCH   4   5
ATOM      5  O   UNL A   1      35.351  33.099  28.810  1.00  0.00    -0.376 OA
BRANCH   5   6
ATOM      6  C   UNL A   1      35.082  31.693  28.889  1.00  0.00     0.202 C 
BRANCH   6   7
ATOM      7  C   UNL A   1      34.762  30.975  27.577  1.00  0.00     0.261 C 
BRANCH   7   8
ATOM      8  O   UNL A   1      33.616  30.112  27.742  1.00  0.00    -0.463 OA
BRANCH   8   9
ATOM      9  C   UNL A   1      32.730  30.054  26.717  1.00  0.00     0.313 C 
ATOM     10  O   UNL A   1      32.037  30.989  26.340  1.00  0.00    -0.252 OA
BRANCH   9  11
ATOM     11  C   UNL A   1      32.611  28.649  26.165  1.00  0.00     0.079 C 
ATOM     12  C   UNL A   1      30.753  29.195  24.410  1.00  0.00     0.013 C 
ATOM     13  C   UNL A   1      32.101  28.499  24.701  1.00  0.00    -0.008 C 
ATOM     14  C   UNL A   1      33.079  28.970  23.605  1.00  0.00     0.013 C 
ATOM     15  C   UNL A   1      32.007  26.946  24.835  1.00  0.00     0.014 C 
ATOM     16  C   UNL A   1      31.541  27.868  26.996  1.00  0.00     0.021 C 
ATOM     17  C   UNL A   1      33.915  27.806  26.164  1.00  0.00     0.073 C 
ATOM     18  C   UNL A   1      31.090  26.740  26.052  1.00  0.00     0.014 C 
ATOM     19  C   UNL A   1      31.605  26.179  23.592  1.00  0.00     0.018 C 
ATOM     20  C   UNL A   1      33.414  26.612  25.392  1.00  0.00     0.046 C 
ATOM     21  N   UNL A   1      33.929  25.456  25.126  1.00  0.00    -0.181 NA
BRANCH  21  22
ATOM     22  N   UNL A   1      35.160  24.994  25.443  1.00  0.00    -0.243 N 
ATOM     23  C   UNL A   1      35.728  23.782  25.758  1.00  0.00     0.271 C 
ATOM     24  H   UNL A   1      35.827  25.718  25.451  1.00  0.00     0.194 HD
ATOM     25  O   UNL A   1      36.905  23.751  26.123  1.00  0.00    -0.267 OA
BRANCH  23  26
ATOM     26  C   UNL A   1      35.019  22.505  25.646  1.00  0.00     0.041 A 
ATOM     27  C   UNL A   1      33.756  22.411  26.253  1.00  0.00     0.015 A 
ATOM     28  C   UNL A   1      35.566  21.409  24.967  1.00  0.00     0.015 A 
ATOM     29  C   UNL A   1      32.994  21.255  26.094  1.00  0.00     0.021 A 
ATOM     30  C   UNL A   1      34.798  20.248  24.818  1.00  0.00     0.021 A 
ATOM     31  C   UNL A   1      33.510  20.187  25.359  1.00  0.00     0.041 A 
ATOM     32  Cl  UNL A   1      32.529  18.803  25.075  1.00  0.00    -0.084 Cl
ENDBRANCH  23  26
ENDBRANCH  21  22
ENDBRANCH   9  11
ENDBRANCH   8   9
ENDBRANCH   7   8
ENDBRANCH   6   7
ENDBRANCH   5   6
ENDBRANCH   4   5
ENDBRANCH   3   4
ENDBRANCH   2   3
ENDBRANCH   1   2
BRANCH   1  33
ATOM     33  C   UNL A   1      32.939  35.605  31.154  1.00  0.00     0.188 C 
BRANCH  33  34
ATOM     34  O   UNL A   1      33.474  34.489  31.863  1.00  0.00    -0.376 OA
BRANCH  34  35
ATOM     35  C   UNL A   1      34.608  34.690  32.701  1.00  0.00     0.202 C 
BRANCH  35  36
ATOM     36  C   UNL A   1      35.938  34.227  32.116  1.00  0.00     0.261 C 
BRANCH  36  37
ATOM     37  O   UNL A   1      36.058  32.798  32.195  1.00  0.00    -0.460 OA
BRANCH  37  38
ATOM     38  C   UNL A   1      37.293  32.300  31.984  1.00  0.00     0.338 C 
ATOM     39  O   UNL A   1      37.784  31.966  30.911  1.00  0.00    -0.246 OA
BRANCH  38  40
ATOM     40  C   UNL A   1      38.051  32.332  33.242  1.00  0.00     0.060 A 
ATOM     41  C   UNL A   1      39.215  33.107  33.298  1.00  0.00     0.016 A 
ATOM     42  C   UNL A   1      37.671  31.529  34.321  1.00  0.00     0.016 A 
ATOM     43  C   UNL A   1      40.044  33.028  34.414  1.00  0.00     0.010 A 
ATOM     44  C   UNL A   1      38.507  31.444  35.433  1.00  0.00     0.010 A 
ATOM     45  C   UNL A   1      39.720  32.155  35.461  1.00  0.00    -0.014 A 
BRANCH  45  46
ATOM     46  C   UNL A   1      40.738  31.819  36.482  1.00  0.00     0.031 A 
ATOM     47  C   UNL A   1      41.712  30.714  36.180  1.00  0.00     0.074 A 
ATOM     48  C   UNL A   1      40.790  32.484  37.648  1.00  0.00     0.049 A 
ATOM     49  N   UNL A   1      42.647  30.198  36.934  1.00  0.00    -0.248 NA
ATOM     50  C   UNL A   1      41.606  30.103  34.846  1.00  0.00     0.031 C 
ATOM     51  C   UNL A   1      39.925  33.600  38.023  1.00  0.00     0.029 A 
ATOM     52  N   UNL A   1      41.606  32.306  38.736  1.00  0.00    -0.354 N 
ATOM     53  C   UNL A   1      43.239  29.197  36.169  1.00  0.00     0.074 A 
ATOM     54  C   UNL A   1      42.528  29.157  34.908  1.00  0.00     0.031 C 
ATOM     55  C   UNL A   1      40.251  34.004  39.263  1.00  0.00     0.029 A 
ATOM     56  C   UNL A   1      41.319  33.150  39.781  1.00  0.00     0.049 A 
ATOM     57  H   UNL A   1      42.327  31.637  38.765  1.00  0.00     0.167 HD
ATOM     58  C   UNL A   1      44.282  28.391  36.488  1.00  0.00     0.034 A 
ATOM     59  C   UNL A   1      41.845  33.204  41.021  1.00  0.00     0.034 A 
ATOM     60  C   UNL A   1      44.959  28.434  37.761  1.00  0.00     0.049 A 
ATOM     61  C   UNL A   1      42.938  32.230  41.392  1.00  0.00     0.074 A 
ATOM     62  C   UNL A   1      46.037  27.683  38.193  1.00  0.00     0.029 A 
ATOM     63  N   UNL A   1      44.606  29.265  38.818  1.00  0.00    -0.354 N 
ATOM     64  N   UNL A   1      43.503  31.298  40.656  1.00  0.00    -0.248 NA
ATOM     65  C   UNL A   1      43.463  32.318  42.760  1.00  0.00     0.031 C 
ATOM     66  C   UNL A   1      46.289  28.007  39.532  1.00  0.00     0.029 A 
ATOM     67  C   UNL A   1      45.420  29.017  39.913  1.00  0.00     0.049 A 
ATOM     68  H   UNL A   1      43.884  29.934  38.793  1.00  0.00     0.167 HD
ATOM     69  C   UNL A   1      44.475  30.714  41.465  1.00  0.00     0.074 A 
ATOM     70  C   UNL A   1      44.423  31.404  42.738  1.00  0.00     0.031 C 
ATOM     71  C   UNL A   1      45.342  29.707  41.181  1.00  0.00     0.034 A 
BRANCH  58  72
ATOM     72  C   UNL A   1      44.694  27.359  35.464  1.00  0.00     0.023 A 
ATOM     73  C   UNL A   1      44.172  26.053  35.475  1.00  0.00     0.031 A 
ATOM     74  C   UNL A   1      45.668  27.668  34.498  1.00  0.00     0.131 A 
ATOM     75  C   UNL A   1      44.686  25.085  34.598  1.00  0.00     0.055 A 
ATOM     76  C   UNL A   1      46.116  26.721  33.574  1.00  0.00     0.041 A 
ATOM     77  F   UNL A   1      46.221  28.890  34.452  1.00  0.00    -0.206 F 
ATOM     78  C   UNL A   1      45.637  25.416  33.632  1.00  0.00     0.022 A 
BRANCH  75  79
ATOM     79  S   UNL A   1      44.215  23.350  34.850  1.00  0.00     0.124 S 
ATOM     80  O   UNL A   1      44.730  23.095  36.193  1.00  0.00    -0.237 OA
ATOM     81  O   UNL A   1      42.765  23.395  34.719  1.00  0.00    -0.237 OA
ATOM     82  O   UNL A   1      44.918  22.645  33.778  1.00  0.00    -0.744 OA
ENDBRANCH  75  79
ENDBRANCH  58  72
BRANCH  59  83
ATOM     83  C   UNL A   1      41.337  34.191  42.015  1.00  0.00     0.023 A 
ATOM     84  C   UNL A   1      40.208  33.908  42.799  1.00  0.00     0.031 A 
ATOM     85  C   UNL A   1      41.945  35.450  42.161  1.00  0.00     0.131 A 
ATOM     86  C   UNL A   1      39.697  34.885  43.667  1.00  0.00     0.055 A 
ATOM     87  C   UNL A   1      41.463  36.401  43.061  1.00  0.00     0.041 A 
ATOM     88  F   UNL A   1      43.027  35.771  41.434  1.00  0.00    -0.206 F 
ATOM     89  C   UNL A   1      40.325  36.125  43.814  1.00  0.00     0.022 A 
BRANCH  86  90
ATOM     90  S   UNL A   1      38.154  34.538  44.554  1.00  0.00     0.124 S 
ATOM     91  O   UNL A   1      38.588  34.610  45.944  1.00  0.00    -0.237 OA
ATOM     92  O   UNL A   1      37.291  35.621  44.094  1.00  0.00    -0.237 OA
ATOM     93  O   UNL A   1      37.783  33.205  44.082  1.00  0.00    -0.744 OA
ENDBRANCH  86  90
ENDBRANCH  59  83
BRANCH  71  94
ATOM     94  C   UNL A   1      46.332  29.332  42.257  1.00  0.00     0.023 A 
ATOM     95  C   UNL A   1      47.587  29.956  42.362  1.00  0.00     0.031 A 
ATOM     96  C   UNL A   1      46.015  28.324  43.185  1.00  0.00     0.131 A 
ATOM     97  C   UNL A   1      48.502  29.525  43.334  1.00  0.00     0.055 A 
ATOM     98  C   UNL A   1      46.906  27.941  44.189  1.00  0.00     0.041 A 
ATOM     99  F   UNL A   1      44.831  27.693  43.131  1.00  0.00    -0.206 F 
ATOM    100  C   UNL A   1      48.163  28.533  44.259  1.00  0.00     0.022 A 
BRANCH  97 101
ATOM    101  S   UNL A   1      50.181  30.213  43.318  1.00  0.00     0.124 S 
ATOM    102  O   UNL A   1      50.999  29.022  43.523  1.00  0.00    -0.237 OA
ATOM    103  O   UNL A   1      50.258  30.819  41.992  1.00  0.00    -0.237 OA
ATOM    104  O   UNL A   1      50.175  31.159  44.432  1.00  0.00    -0.744 OA
ENDBRANCH  97 101
ENDBRANCH  71  94
ENDBRANCH  45  46
ENDBRANCH  38  40
ENDBRANCH  37  38
ENDBRANCH  36  37
ENDBRANCH  35  36
ENDBRANCH  34  35
ENDBRANCH  33  34
ENDBRANCH   1  33
TORSDOF 25
ENDMDL
MODEL 3
REMARK VINA RESULT:      -8.5      3.078      7.468
REMARK SMILES CC1(C)[C@@]2(C(=O)OCCOCCOCCOCCOC(=O)c3ccc(-c4c5nc(c(-c6cc(S(=O)(=O)[O-])ccc6F)c6ccc([nH]6)c(-c6cc(S(=O)(=O)[O-])ccc6F)c6nc(c(-c7cc(S(=O)(=O)[O-])ccc7F)c7ccc4[nH]7)C=C6)C=C5)cc3)CC[C@]1(C)/C(=N/NC(=O)c1ccc(Cl)cc1)C2
REMARK SMILES IDX 14 1 13 2 12 3 11 4 10 5 9 6 8 7 7 8 5 9 6 10 4 11 1 12 2 13
REMARK SMILES IDX 3 14 87 15 85 16 101 17 86 18 88 19 89 20 90 21 91 22 92 23
REMARK SMILES IDX 93 25 94 26 95 27 100 28 96 29 99 30 97 31 98 32 15 33 16 34
REMARK SMILES IDX 17 35 18 36 19 37 20 38 21 39 22 40 23 41 84 42 24 43 83 44
REMARK SMILES IDX 25 45 26 46 27 47 77 48 28 49 82 50 76 51 78 52 29 53 81 54
REMARK SMILES IDX 75 55 74 56 30 58 62 59 42 60 61 61 43 62 46 63 60 64 79 65
REMARK SMILES IDX 44 66 45 67 59 69 80 70 47 71 31 72 32 73 40 74 33 75 39 76
REMARK SMILES IDX 41 77 38 78 34 79 35 80 36 81 37 82 63 83 64 84 72 85 65 86
REMARK SMILES IDX 71 87 73 88 70 89 66 90 67 91 68 92 69 93 48 94 49 95 57 96
REMARK SMILES IDX 50 97 56 98 58 99 55 100 51 101 52 102 53 103 54 104
REMARK H PARENT 91 24 78 57 46 68
REMARK Flexibility Score: inf
ROOT
ATOM      1  C   UNL A   1      34.517  33.405  32.375  1.00  0.00     0.188 C 
ENDROOT
BRANCH   1   2
ATOM      2  O   UNL A   1      34.042  33.122  31.056  1.00  0.00    -0.377 OA
BRANCH   2   3
ATOM      3  C   UNL A   1      34.754  33.744  30.001  1.00  0.00     0.188 C 
BRANCH   3   4
ATOM      4  C   UNL A   1      35.714  32.860  29.203  1.00  0.00     0.188 C 
BRANCH   4   5
ATOM      5  O   UNL A   1      35.306  31.535  28.907  1.00  0.00    -0.376 OA
BRANCH   5   6
ATOM      6  C   UNL A   1      34.731  31.288  27.617  1.00  0.00     0.202 C 
BRANCH   6   7
ATOM      7  C   UNL A   1      33.558  30.310  27.558  1.00  0.00     0.261 C 
BRANCH   7   8
ATOM      8  O   UNL A   1      33.373  29.827  26.209  1.00  0.00    -0.463 OA
BRANCH   8   9
ATOM      9  C   UNL A   1      33.677  28.527  25.968  1.00  0.00     0.313 C 
ATOM     10  O   UNL A   1      34.711  27.976  26.318  1.00  0.00    -0.252 OA
BRANCH   9  11
ATOM     11  C   UNL A   1      32.626  27.863  25.103  1.00  0.00     0.079 C 
ATOM     12  C   UNL A   1      31.071  29.953  24.897  1.00  0.00     0.013 C 
ATOM     13  C   UNL A   1      31.778  28.783  24.177  1.00  0.00    -0.008 C 
ATOM     14  C   UNL A   1      32.534  29.402  22.983  1.00  0.00     0.013 C 
ATOM     15  C   UNL A   1      30.832  27.606  23.780  1.00  0.00     0.014 C 
ATOM     16  C   UNL A   1      31.551  27.203  26.030  1.00  0.00     0.021 C 
ATOM     17  C   UNL A   1      33.141  26.771  24.127  1.00  0.00     0.073 C 
ATOM     18  C   UNL A   1      30.308  27.088  25.130  1.00  0.00     0.014 C 
ATOM     19  C   UNL A   1      29.763  27.910  22.751  1.00  0.00     0.018 C 
ATOM     20  C   UNL A   1      31.863  26.526  23.364  1.00  0.00     0.046 C 
ATOM     21  N   UNL A   1      31.520  25.647  22.480  1.00  0.00    -0.181 NA
BRANCH  21  22
ATOM     22  N   UNL A   1      32.280  24.677  21.924  1.00  0.00    -0.243 N 
ATOM     23  C   UNL A   1      33.037  23.616  22.364  1.00  0.00     0.271 C 
ATOM     24  H   UNL A   1      32.298  24.750  20.942  1.00  0.00     0.194 HD
ATOM     25  O   UNL A   1      33.719  22.991  21.549  1.00  0.00    -0.267 OA
BRANCH  23  26
ATOM     26  C   UNL A   1      33.049  23.156  23.755  1.00  0.00     0.041 A 
ATOM     27  C   UNL A   1      34.179  23.467  24.528  1.00  0.00     0.015 A 
ATOM     28  C   UNL A   1      31.987  22.429  24.306  1.00  0.00     0.015 A 
ATOM     29  C   UNL A   1      34.203  23.142  25.883  1.00  0.00     0.021 A 
ATOM     30  C   UNL A   1      32.021  22.098  25.666  1.00  0.00     0.021 A 
ATOM     31  C   UNL A   1      33.114  22.479  26.450  1.00  0.00     0.041 A 
ATOM     32  Cl  UNL A   1      33.099  22.171  28.143  1.00  0.00    -0.084 Cl
ENDBRANCH  23  26
ENDBRANCH  21  22
ENDBRANCH   9  11
ENDBRANCH   8   9
ENDBRANCH   7   8
ENDBRANCH   6   7
ENDBRANCH   5   6
ENDBRANCH   4   5
ENDBRANCH   3   4
ENDBRANCH   2   3
ENDBRANCH   1   2
BRANCH   1  33
ATOM     33  C   UNL A   1      34.975  34.845  32.648  1.00  0.00     0.188 C 
BRANCH  33  34
ATOM     34  O   UNL A   1      36.298  35.031  33.146  1.00  0.00    -0.376 OA
BRANCH  34  35
ATOM     35  C   UNL A   1      37.378  34.381  32.481  1.00  0.00     0.202 C 
BRANCH  35  36
ATOM     36  C   UNL A   1      37.909  33.130  33.174  1.00  0.00     0.261 C 
BRANCH  36  37
ATOM     37  O   UNL A   1      37.931  32.017  32.267  1.00  0.00    -0.460 OA
BRANCH  37  38
ATOM     38  C   UNL A   1      38.700  30.973  32.637  1.00  0.00     0.338 C 
ATOM     39  O   UNL A   1      38.359  29.998  33.297  1.00  0.00    -0.246 OA
BRANCH  38  40
ATOM     40  C   UNL A   1      40.022  31.097  32.007  1.00  0.00     0.060 A 
ATOM     41  C   UNL A   1      41.128  31.351  32.827  1.00  0.00     0.016 A 
ATOM     42  C   UNL A   1      40.152  31.061  30.616  1.00  0.00     0.016 A 
ATOM     43  C   UNL A   1      42.363  31.639  32.249  1.00  0.00     0.010 A 
ATOM     44  C   UNL A   1      41.386  31.360  30.040  1.00  0.00     0.010 A 
ATOM     45  C   UNL A   1      42.481  31.698  30.855  1.00  0.00    -0.014 A 
BRANCH  45  46
ATOM     46  C   UNL A   1      43.681  32.315  30.243  1.00  0.00     0.031 A 
ATOM     47  C   UNL A   1      43.648  33.788  29.943  1.00  0.00     0.074 A 
ATOM     48  C   UNL A   1      44.769  31.579  29.963  1.00  0.00     0.049 A 
ATOM     49  N   UNL A   1      44.543  34.539  29.356  1.00  0.00    -0.248 NA
ATOM     50  C   UNL A   1      42.432  34.508  30.356  1.00  0.00     0.031 C 
ATOM     51  C   UNL A   1      44.922  30.155  30.254  1.00  0.00     0.029 A 
ATOM     52  N   UNL A   1      45.949  31.932  29.361  1.00  0.00    -0.354 N 
ATOM     53  C   UNL A   1      43.998  35.820  29.322  1.00  0.00     0.074 A 
ATOM     54  C   UNL A   1      42.680  35.730  29.915  1.00  0.00     0.031 C 
ATOM     55  C   UNL A   1      46.129  29.752  29.821  1.00  0.00     0.029 A 
ATOM     56  C   UNL A   1      46.813  30.878  29.189  1.00  0.00     0.049 A 
ATOM     57  H   UNL A   1      46.156  32.851  29.079  1.00  0.00     0.167 HD
ATOM     58  C   UNL A   1      44.549  36.964  28.847  1.00  0.00     0.034 A 
ATOM     59  C   UNL A   1      48.009  30.832  28.568  1.00  0.00     0.034 A 
ATOM     60  C   UNL A   1      45.856  37.023  28.239  1.00  0.00     0.049 A 
ATOM     61  C   UNL A   1      48.562  32.096  27.954  1.00  0.00     0.074 A 
ATOM     62  C   UNL A   1      46.528  38.123  27.739  1.00  0.00     0.029 A 
ATOM     63  N   UNL A   1      46.684  35.925  28.031  1.00  0.00    -0.354 N 
ATOM     64  N   UNL A   1      48.047  33.305  27.942  1.00  0.00    -0.248 NA
ATOM     65  C   UNL A   1      49.858  31.986  27.273  1.00  0.00     0.031 C 
ATOM     66  C   UNL A   1      47.726  37.681  27.163  1.00  0.00     0.029 A 
ATOM     67  C   UNL A   1      47.841  36.316  27.375  1.00  0.00     0.049 A 
ATOM     68  H   UNL A   1      46.479  35.003  28.311  1.00  0.00     0.167 HD
ATOM     69  C   UNL A   1      48.976  34.106  27.282  1.00  0.00     0.074 A 
ATOM     70  C   UNL A   1      50.082  33.243  26.920  1.00  0.00     0.031 C 
ATOM     71  C   UNL A   1      48.927  35.436  27.009  1.00  0.00     0.034 A 
BRANCH  58  72
ATOM     72  C   UNL A   1      43.704  38.214  28.909  1.00  0.00     0.023 A 
ATOM     73  C   UNL A   1      43.857  39.164  29.936  1.00  0.00     0.031 A 
ATOM     74  C   UNL A   1      42.689  38.432  27.960  1.00  0.00     0.131 A 
ATOM     75  C   UNL A   1      42.959  40.237  30.038  1.00  0.00     0.055 A 
ATOM     76  C   UNL A   1      41.851  39.548  28.021  1.00  0.00     0.041 A 
ATOM     77  F   UNL A   1      42.478  37.551  26.970  1.00  0.00    -0.206 F 
ATOM     78  C   UNL A   1      41.971  40.449  29.075  1.00  0.00     0.022 A 
BRANCH  75  79
ATOM     79  S   UNL A   1      42.994  41.256  31.540  1.00  0.00     0.124 S 
ATOM     80  O   UNL A   1      41.996  42.277  31.228  1.00  0.00    -0.237 OA
ATOM     81  O   UNL A   1      42.628  40.301  32.578  1.00  0.00    -0.237 OA
ATOM     82  O   UNL A   1      44.372  41.740  31.593  1.00  0.00    -0.744 OA
ENDBRANCH  75  79
ENDBRANCH  58  72
BRANCH  59  83
ATOM     83  C   UNL A   1      48.757  29.547  28.466  1.00  0.00     0.023 A 
ATOM     84  C   UNL A   1      48.598  28.706  27.353  1.00  0.00     0.031 A 
ATOM     85  C   UNL A   1      49.606  29.119  29.502  1.00  0.00     0.131 A 
ATOM     86  C   UNL A   1      49.247  27.463  27.319  1.00  0.00     0.055 A 
ATOM     87  C   UNL A   1      50.288  27.903  29.441  1.00  0.00     0.041 A 
ATOM     88  F   UNL A   1      49.792  29.886  30.588  1.00  0.00    -0.206 F 
ATOM     89  C   UNL A   1      50.102  27.061  28.349  1.00  0.00     0.022 A 
BRANCH  86  90
ATOM     90  S   UNL A   1      48.903  26.341  25.935  1.00  0.00     0.124 S 
ATOM     91  O   UNL A   1      50.244  26.073  25.429  1.00  0.00    -0.237 OA
ATOM     92  O   UNL A   1      48.236  25.230  26.606  1.00  0.00    -0.237 OA
ATOM     93  O   UNL A   1      48.049  27.138  25.056  1.00  0.00    -0.744 OA
ENDBRANCH  86  90
ENDBRANCH  59  83
BRANCH  71  94
ATOM     94  C   UNL A   1      50.132  36.039  26.326  1.00  0.00     0.023 A 
ATOM     95  C   UNL A   1      51.189  36.611  27.054  1.00  0.00     0.031 A 
ATOM     96  C   UNL A   1      50.213  36.050  24.922  1.00  0.00     0.131 A 
ATOM     97  C   UNL A   1      52.254  37.222  26.374  1.00  0.00     0.055 A 
ATOM     98  C   UNL A   1      51.304  36.605  24.252  1.00  0.00     0.041 A 
ATOM     99  F   UNL A   1      49.230  35.518  24.176  1.00  0.00    -0.206 F 
ATOM    100  C   UNL A   1      52.326  37.208  24.978  1.00  0.00     0.022 A 
BRANCH  97 101
ATOM    101  S   UNL A   1      53.502  38.121  27.337  1.00  0.00     0.124 S 
ATOM    102  O   UNL A   1      54.743  37.689  26.701  1.00  0.00    -0.237 OA
ATOM    103  O   UNL A   1      53.124  39.514  27.117  1.00  0.00    -0.237 OA
ATOM    104  O   UNL A   1      53.302  37.633  28.700  1.00  0.00    -0.744 OA
ENDBRANCH  97 101
ENDBRANCH  71  94
ENDBRANCH  45  46
ENDBRANCH  38  40
ENDBRANCH  37  38
ENDBRANCH  36  37
ENDBRANCH  35  36
ENDBRANCH  34  35
ENDBRANCH  33  34
ENDBRANCH   1  33
TORSDOF 25
ENDMDL
