MODEL 1
REMARK VINA RESULT:      -9.1      0.000      0.000
REMARK SMILES CCC1C[NH+]([C@@H](Cc2c[nH]c3ccccc23)C(=O)OCCOCCOCCOCCOC(=O)c2ccc(-c3c4nc(c(-c5cc(S(=O)(=O)[O-])ccc5F)c5ccc([nH]5)c(-c5cc(S(=O)(=O)[O-])ccc5F)c5nc(c(-c6cc(S(=O)(=O)[O-])ccc6F)c6ccc3[nH]6)C=C5)C=C4)cc2)C1
REMARK SMILES IDX 26 1 25 2 24 3 23 4 22 5 21 6 20 7 19 8 17 9 18 10 6 11 5 12
REMARK SMILES IDX 3 13 4 14 97 15 2 17 1 18 7 19 8 20 9 21 16 22 10 23 11 24
REMARK SMILES IDX 15 25 12 27 14 28 13 29 27 30 28 31 29 32 30 33 31 34 32 35
REMARK SMILES IDX 33 36 34 37 35 38 96 39 36 40 95 41 37 42 38 43 39 44 89 45
REMARK SMILES IDX 40 46 94 47 88 48 90 49 41 50 93 51 87 52 86 53 42 55 74 56
REMARK SMILES IDX 54 57 73 58 55 59 58 60 72 61 91 62 56 63 57 64 71 66 92 67
REMARK SMILES IDX 59 68 43 69 44 70 52 71 45 72 51 73 53 74 50 75 46 76 47 77
REMARK SMILES IDX 48 78 49 79 75 80 76 81 84 82 77 83 83 84 85 85 82 86 78 87
REMARK SMILES IDX 79 88 80 89 81 90 60 91 61 92 69 93 62 94 68 95 70 96 67 97
REMARK SMILES IDX 63 98 64 99 65 100 66 101
REMARK H PARENT 5 16 10 26 90 54 58 65
REMARK Flexibility Score: inf
ROOT
ATOM      1  C   UNL A   1      37.012  22.392  25.663  1.00  0.00     0.188 C 
ENDROOT
BRANCH   1   2
ATOM      2  O   UNL A   1      35.885  21.777  25.056  1.00  0.00    -0.377 OA
BRANCH   2   3
ATOM      3  C   UNL A   1      34.768  22.589  24.759  1.00  0.00     0.188 C 
BRANCH   3   4
ATOM      4  C   UNL A   1      33.516  21.813  24.319  1.00  0.00     0.188 C 
BRANCH   4   5
ATOM      5  O   UNL A   1      32.815  22.166  23.135  1.00  0.00    -0.376 OA
BRANCH   5   6
ATOM      6  C   UNL A   1      33.326  23.153  22.250  1.00  0.00     0.202 C 
BRANCH   6   7
ATOM      7  C   UNL A   1      32.806  24.596  22.219  1.00  0.00     0.261 C 
BRANCH   7   8
ATOM      8  O   UNL A   1      33.214  25.458  23.290  1.00  0.00    -0.459 OA
BRANCH   8   9
ATOM      9  C   UNL A   1      32.289  25.718  24.244  1.00  0.00     0.365 C 
ATOM     10  O   UNL A   1      31.890  24.881  25.053  1.00  0.00    -0.245 OA
BRANCH   9  11
ATOM     11  C   UNL A   1      31.684  27.129  24.183  1.00  0.00     0.299 C 
BRANCH  11  12
ATOM     12  N   UNL A   1      30.784  27.364  23.018  1.00  0.00    -0.322 N 
ATOM     13  C   UNL A   1      29.202  28.727  23.402  1.00  0.00     0.099 C 
ATOM     14  C   UNL A   1      29.337  27.197  23.245  1.00  0.00     0.272 C 
ATOM     15  C   UNL A   1      30.561  28.786  22.675  1.00  0.00     0.272 C 
ATOM     16  H   UNL A   1      31.267  26.736  22.375  1.00  0.00     0.348 HD
BRANCH  13  17
ATOM     17  C   UNL A   1      27.963  29.445  22.887  1.00  0.00     0.012 C 
ATOM     18  C   UNL A   1      27.973  30.901  23.340  1.00  0.00     0.004 C 
ENDBRANCH  13  17
ENDBRANCH  11  12
BRANCH  11  19
ATOM     19  C   UNL A   1      31.418  27.561  25.644  1.00  0.00     0.115 C 
BRANCH  19  20
ATOM     20  C   UNL A   1      32.336  28.583  26.247  1.00  0.00    -0.016 A 
ATOM     21  C   UNL A   1      33.517  28.386  26.934  1.00  0.00     0.087 A 
ATOM     22  C   UNL A   1      32.096  29.995  26.256  1.00  0.00     0.003 A 
ATOM     23  N   UNL A   1      33.867  29.570  27.532  1.00  0.00    -0.361 N 
ATOM     24  C   UNL A   1      32.990  30.560  27.161  1.00  0.00     0.046 A 
ATOM     25  C   UNL A   1      31.105  30.815  25.676  1.00  0.00     0.010 A 
ATOM     26  H   UNL A   1      34.633  29.692  28.138  1.00  0.00     0.166 HD
ATOM     27  C   UNL A   1      32.898  31.891  27.577  1.00  0.00     0.026 A 
ATOM     28  C   UNL A   1      30.999  32.148  26.078  1.00  0.00     0.001 A 
ATOM     29  C   UNL A   1      31.871  32.669  27.029  1.00  0.00     0.002 A 
ENDBRANCH  19  20
ENDBRANCH  11  19
ENDBRANCH   9  11
ENDBRANCH   8   9
ENDBRANCH   7   8
ENDBRANCH   6   7
ENDBRANCH   5   6
ENDBRANCH   4   5
ENDBRANCH   3   4
ENDBRANCH   2   3
ENDBRANCH   1   2
BRANCH   1  30
ATOM     30  C   UNL A   1      38.399  21.741  25.484  1.00  0.00     0.188 C 
BRANCH  30  31
ATOM     31  O   UNL A   1      38.372  20.331  25.306  1.00  0.00    -0.376 OA
BRANCH  31  32
ATOM     32  C   UNL A   1      39.581  19.604  25.472  1.00  0.00     0.202 C 
BRANCH  32  33
ATOM     33  C   UNL A   1      40.385  19.823  26.765  1.00  0.00     0.261 C 
BRANCH  33  34
ATOM     34  O   UNL A   1      41.716  19.285  26.804  1.00  0.00    -0.460 OA
BRANCH  34  35
ATOM     35  C   UNL A   1      42.672  19.882  26.061  1.00  0.00     0.338 C 
ATOM     36  O   UNL A   1      43.321  19.376  25.161  1.00  0.00    -0.246 OA
BRANCH  35  37
ATOM     37  C   UNL A   1      42.665  21.321  26.398  1.00  0.00     0.060 A 
ATOM     38  C   UNL A   1      42.342  22.258  25.407  1.00  0.00     0.016 A 
ATOM     39  C   UNL A   1      42.967  21.743  27.694  1.00  0.00     0.016 A 
ATOM     40  C   UNL A   1      42.350  23.624  25.703  1.00  0.00     0.010 A 
ATOM     41  C   UNL A   1      42.999  23.110  27.982  1.00  0.00     0.010 A 
ATOM     42  C   UNL A   1      42.718  24.059  26.982  1.00  0.00    -0.014 A 
BRANCH  42  43
ATOM     43  C   UNL A   1      43.001  25.494  27.236  1.00  0.00     0.031 A 
ATOM     44  C   UNL A   1      44.367  26.019  26.890  1.00  0.00     0.074 A 
ATOM     45  C   UNL A   1      42.072  26.315  27.761  1.00  0.00     0.049 A 
ATOM     46  N   UNL A   1      44.895  27.190  27.132  1.00  0.00    -0.248 NA
ATOM     47  C   UNL A   1      45.258  25.091  26.174  1.00  0.00     0.031 C 
ATOM     48  C   UNL A   1      40.693  25.944  28.070  1.00  0.00     0.029 A 
ATOM     49  N   UNL A   1      42.158  27.633  28.139  1.00  0.00    -0.354 N 
ATOM     50  C   UNL A   1      46.181  27.140  26.601  1.00  0.00     0.074 A 
ATOM     51  C   UNL A   1      46.362  25.811  26.060  1.00  0.00     0.031 C 
ATOM     52  C   UNL A   1      40.066  27.007  28.606  1.00  0.00     0.029 A 
ATOM     53  C   UNL A   1      41.012  28.115  28.728  1.00  0.00     0.049 A 
ATOM     54  H   UNL A   1      42.964  28.180  28.002  1.00  0.00     0.167 HD
ATOM     55  C   UNL A   1      47.118  28.118  26.560  1.00  0.00     0.034 A 
ATOM     56  C   UNL A   1      40.771  29.299  29.330  1.00  0.00     0.034 A 
ATOM     57  C   UNL A   1      46.930  29.432  27.121  1.00  0.00     0.049 A 
ATOM     58  C   UNL A   1      41.885  30.325  29.401  1.00  0.00     0.074 A 
ATOM     59  C   UNL A   1      47.817  30.494  27.143  1.00  0.00     0.029 A 
ATOM     60  N   UNL A   1      45.779  29.863  27.767  1.00  0.00    -0.354 N 
ATOM     61  N   UNL A   1      43.100  30.266  28.905  1.00  0.00    -0.248 NA
ATOM     62  C   UNL A   1      41.594  31.577  30.115  1.00  0.00     0.031 C 
ATOM     63  C   UNL A   1      47.234  31.536  27.870  1.00  0.00     0.029 A 
ATOM     64  C   UNL A   1      45.950  31.159  28.226  1.00  0.00     0.049 A 
ATOM     65  H   UNL A   1      44.963  29.326  27.884  1.00  0.00     0.167 HD
ATOM     66  C   UNL A   1      43.698  31.486  29.214  1.00  0.00     0.074 A 
ATOM     67  C   UNL A   1      42.709  32.266  29.925  1.00  0.00     0.031 C 
ATOM     68  C   UNL A   1      44.952  31.925  28.933  1.00  0.00     0.034 A 
BRANCH  55  69
ATOM     69  C   UNL A   1      48.447  27.783  25.930  1.00  0.00     0.023 A 
ATOM     70  C   UNL A   1      48.647  27.872  24.542  1.00  0.00     0.031 A 
ATOM     71  C   UNL A   1      49.526  27.360  26.726  1.00  0.00     0.131 A 
ATOM     72  C   UNL A   1      49.875  27.487  23.986  1.00  0.00     0.055 A 
ATOM     73  C   UNL A   1      50.772  27.056  26.175  1.00  0.00     0.041 A 
ATOM     74  F   UNL A   1      49.386  27.232  28.055  1.00  0.00    -0.206 F 
ATOM     75  C   UNL A   1      50.949  27.106  24.796  1.00  0.00     0.022 A 
BRANCH  72  76
ATOM     76  S   UNL A   1      50.009  27.364  22.182  1.00  0.00     0.124 S 
ATOM     77  O   UNL A   1      51.393  26.924  22.020  1.00  0.00    -0.237 OA
ATOM     78  O   UNL A   1      48.984  26.379  21.857  1.00  0.00    -0.237 OA
ATOM     79  O   UNL A   1      49.737  28.725  21.724  1.00  0.00    -0.744 OA
ENDBRANCH  72  76
ENDBRANCH  55  69
BRANCH  56  80
ATOM     80  C   UNL A   1      39.453  29.583  29.973  1.00  0.00     0.023 A 
ATOM     81  C   UNL A   1      38.554  30.497  29.401  1.00  0.00     0.031 A 
ATOM     82  C   UNL A   1      39.112  29.023  31.219  1.00  0.00     0.131 A 
ATOM     83  C   UNL A   1      37.398  30.876  30.100  1.00  0.00     0.055 A 
ATOM     84  C   UNL A   1      37.926  29.352  31.879  1.00  0.00     0.041 A 
ATOM     85  F   UNL A   1      39.935  28.149  31.821  1.00  0.00    -0.206 F 
ATOM     86  C   UNL A   1      37.069  30.298  31.327  1.00  0.00     0.022 A 
BRANCH  83  87
ATOM     87  S   UNL A   1      36.396  32.239  29.442  1.00  0.00     0.124 S 
ATOM     88  O   UNL A   1      35.264  32.241  30.361  1.00  0.00    -0.237 OA
ATOM     89  O   UNL A   1      37.315  33.367  29.552  1.00  0.00    -0.237 OA
ATOM     90  O   UNL A   1      36.096  31.810  28.078  1.00  0.00    -0.744 OA
ENDBRANCH  83  87
ENDBRANCH  56  80
BRANCH  68  91
ATOM     91  C   UNL A   1      45.307  33.333  29.349  1.00  0.00     0.023 A 
ATOM     92  C   UNL A   1      45.041  34.440  28.525  1.00  0.00     0.031 A 
ATOM     93  C   UNL A   1      45.905  33.570  30.601  1.00  0.00     0.131 A 
ATOM     94  C   UNL A   1      45.410  35.728  28.944  1.00  0.00     0.055 A 
ATOM     95  C   UNL A   1      46.212  34.859  31.038  1.00  0.00     0.041 A 
ATOM     96  F   UNL A   1      46.185  32.550  31.428  1.00  0.00    -0.206 F 
ATOM     97  C   UNL A   1      45.974  35.946  30.203  1.00  0.00     0.022 A 
BRANCH  94  98
ATOM     98  S   UNL A   1      45.211  37.111  27.788  1.00  0.00     0.124 S 
ATOM     99  O   UNL A   1      46.529  37.178  27.166  1.00  0.00    -0.237 OA
ATOM    100  O   UNL A   1      44.125  36.648  26.929  1.00  0.00    -0.237 OA
ATOM    101  O   UNL A   1      44.876  38.239  28.655  1.00  0.00    -0.744 OA
ENDBRANCH  94  98
ENDBRANCH  68  91
ENDBRANCH  42  43
ENDBRANCH  35  37
ENDBRANCH  34  35
ENDBRANCH  33  34
ENDBRANCH  32  33
ENDBRANCH  31  32
ENDBRANCH  30  31
ENDBRANCH   1  30
TORSDOF 27
ENDMDL
MODEL 2
REMARK VINA RESULT:      -9.1      1.542      2.689
REMARK SMILES CCC1C[NH+]([C@@H](Cc2c[nH]c3ccccc23)C(=O)OCCOCCOCCOCCOC(=O)c2ccc(-c3c4nc(c(-c5cc(S(=O)(=O)[O-])ccc5F)c5ccc([nH]5)c(-c5cc(S(=O)(=O)[O-])ccc5F)c5nc(c(-c6cc(S(=O)(=O)[O-])ccc6F)c6ccc3[nH]6)C=C5)C=C4)cc2)C1
REMARK SMILES IDX 26 1 25 2 24 3 23 4 22 5 21 6 20 7 19 8 17 9 18 10 6 11 5 12
REMARK SMILES IDX 3 13 4 14 97 15 2 17 1 18 7 19 8 20 9 21 16 22 10 23 11 24
REMARK SMILES IDX 15 25 12 27 14 28 13 29 27 30 28 31 29 32 30 33 31 34 32 35
REMARK SMILES IDX 33 36 34 37 35 38 96 39 36 40 95 41 37 42 38 43 39 44 89 45
REMARK SMILES IDX 40 46 94 47 88 48 90 49 41 50 93 51 87 52 86 53 42 55 74 56
REMARK SMILES IDX 54 57 73 58 55 59 58 60 72 61 91 62 56 63 57 64 71 66 92 67
REMARK SMILES IDX 59 68 43 69 44 70 52 71 45 72 51 73 53 74 50 75 46 76 47 77
REMARK SMILES IDX 48 78 49 79 75 80 76 81 84 82 77 83 83 84 85 85 82 86 78 87
REMARK SMILES IDX 79 88 80 89 81 90 60 91 61 92 69 93 62 94 68 95 70 96 67 97
REMARK SMILES IDX 63 98 64 99 65 100 66 101
REMARK H PARENT 5 16 10 26 90 54 58 65
REMARK Flexibility Score: inf
ROOT
ATOM      1  C   UNL A   1      36.476  21.306  25.405  1.00  0.00     0.188 C 
ENDROOT
BRANCH   1   2
ATOM      2  O   UNL A   1      35.532  20.295  25.080  1.00  0.00    -0.377 OA
BRANCH   2   3
ATOM      3  C   UNL A   1      34.249  20.699  24.649  1.00  0.00     0.188 C 
BRANCH   3   4
ATOM      4  C   UNL A   1      33.086  20.070  25.431  1.00  0.00     0.188 C 
BRANCH   4   5
ATOM      5  O   UNL A   1      31.780  20.623  25.371  1.00  0.00    -0.376 OA
BRANCH   5   6
ATOM      6  C   UNL A   1      31.452  21.622  24.416  1.00  0.00     0.202 C 
BRANCH   6   7
ATOM      7  C   UNL A   1      31.172  23.082  24.799  1.00  0.00     0.261 C 
BRANCH   7   8
ATOM      8  O   UNL A   1      32.080  24.072  24.299  1.00  0.00    -0.459 OA
BRANCH   8   9
ATOM      9  C   UNL A   1      32.741  24.809  25.224  1.00  0.00     0.365 C 
ATOM     10  O   UNL A   1      33.431  24.320  26.117  1.00  0.00    -0.245 OA
BRANCH   9  11
ATOM     11  C   UNL A   1      32.484  26.321  25.142  1.00  0.00     0.299 C 
BRANCH  11  12
ATOM     12  N   UNL A   1      32.718  27.055  26.418  1.00  0.00    -0.322 N 
ATOM     13  C   UNL A   1      32.037  29.067  26.402  1.00  0.00     0.099 C 
ATOM     14  C   UNL A   1      33.406  28.357  26.326  1.00  0.00     0.272 C 
ATOM     15  C   UNL A   1      31.528  27.730  26.981  1.00  0.00     0.272 C 
ATOM     16  H   UNL A   1      33.169  26.284  26.911  1.00  0.00     0.348 HD
BRANCH  13  17
ATOM     17  C   UNL A   1      31.898  30.388  27.142  1.00  0.00     0.012 C 
ATOM     18  C   UNL A   1      31.404  31.474  26.193  1.00  0.00     0.004 C 
ENDBRANCH  13  17
ENDBRANCH  11  12
BRANCH  11  19
ATOM     19  C   UNL A   1      32.934  26.772  23.733  1.00  0.00     0.115 C 
BRANCH  19  20
ATOM     20  C   UNL A   1      32.097  27.799  23.030  1.00  0.00    -0.016 A 
ATOM     21  C   UNL A   1      32.506  28.927  22.345  1.00  0.00     0.087 A 
ATOM     22  C   UNL A   1      30.665  27.808  22.999  1.00  0.00     0.003 A 
ATOM     23  N   UNL A   1      31.403  29.707  22.107  1.00  0.00    -0.361 N 
ATOM     24  C   UNL A   1      30.269  29.059  22.533  1.00  0.00     0.046 A 
ATOM     25  C   UNL A   1      29.679  26.910  23.459  1.00  0.00     0.010 A 
ATOM     26  H   UNL A   1      31.421  30.600  21.694  1.00  0.00     0.166 HD
ATOM     27  C   UNL A   1      28.940  29.490  22.574  1.00  0.00     0.026 A 
ATOM     28  C   UNL A   1      28.346  27.323  23.505  1.00  0.00     0.001 A 
ATOM     29  C   UNL A   1      27.988  28.601  23.086  1.00  0.00     0.002 A 
ENDBRANCH  19  20
ENDBRANCH  11  19
ENDBRANCH   9  11
ENDBRANCH   8   9
ENDBRANCH   7   8
ENDBRANCH   6   7
ENDBRANCH   5   6
ENDBRANCH   4   5
ENDBRANCH   3   4
ENDBRANCH   2   3
ENDBRANCH   1   2
BRANCH   1  30
ATOM     30  C   UNL A   1      37.957  21.083  25.038  1.00  0.00     0.188 C 
BRANCH  30  31
ATOM     31  O   UNL A   1      38.417  19.751  25.215  1.00  0.00    -0.376 OA
BRANCH  31  32
ATOM     32  C   UNL A   1      39.810  19.531  25.381  1.00  0.00     0.202 C 
BRANCH  32  33
ATOM     33  C   UNL A   1      40.340  19.292  26.805  1.00  0.00     0.261 C 
BRANCH  33  34
ATOM     34  O   UNL A   1      41.761  19.140  26.956  1.00  0.00    -0.460 OA
BRANCH  34  35
ATOM     35  C   UNL A   1      42.571  19.776  26.084  1.00  0.00     0.338 C 
ATOM     36  O   UNL A   1      43.124  19.290  25.111  1.00  0.00    -0.246 OA
BRANCH  35  37
ATOM     37  C   UNL A   1      42.520  21.219  26.398  1.00  0.00     0.060 A 
ATOM     38  C   UNL A   1      42.282  22.140  25.368  1.00  0.00     0.016 A 
ATOM     39  C   UNL A   1      42.699  21.661  27.710  1.00  0.00     0.016 A 
ATOM     40  C   UNL A   1      42.251  23.509  25.645  1.00  0.00     0.010 A 
ATOM     41  C   UNL A   1      42.692  23.032  27.981  1.00  0.00     0.010 A 
ATOM     42  C   UNL A   1      42.495  23.965  26.947  1.00  0.00    -0.014 A 
BRANCH  42  43
ATOM     43  C   UNL A   1      42.741  25.406  27.205  1.00  0.00     0.031 A 
ATOM     44  C   UNL A   1      44.092  25.969  26.856  1.00  0.00     0.074 A 
ATOM     45  C   UNL A   1      41.793  26.200  27.737  1.00  0.00     0.049 A 
ATOM     46  N   UNL A   1      44.590  27.152  27.101  1.00  0.00    -0.248 NA
ATOM     47  C   UNL A   1      45.004  25.067  26.134  1.00  0.00     0.031 C 
ATOM     48  C   UNL A   1      40.425  25.791  28.049  1.00  0.00     0.029 A 
ATOM     49  N   UNL A   1      41.846  27.518  28.120  1.00  0.00    -0.354 N 
ATOM     50  C   UNL A   1      45.874  27.138  26.566  1.00  0.00     0.074 A 
ATOM     51  C   UNL A   1      46.089  25.816  26.018  1.00  0.00     0.031 C 
ATOM     52  C   UNL A   1      39.772  26.835  28.591  1.00  0.00     0.029 A 
ATOM     53  C   UNL A   1      40.689  27.968  28.715  1.00  0.00     0.049 A 
ATOM     54  H   UNL A   1      42.636  28.087  27.982  1.00  0.00     0.167 HD
ATOM     55  C   UNL A   1      46.785  28.141  26.526  1.00  0.00     0.034 A 
ATOM     56  C   UNL A   1      40.419  29.143  29.323  1.00  0.00     0.034 A 
ATOM     57  C   UNL A   1      46.564  29.447  27.093  1.00  0.00     0.049 A 
ATOM     58  C   UNL A   1      41.505  30.197  29.394  1.00  0.00     0.074 A 
ATOM     59  C   UNL A   1      47.423  30.532  27.116  1.00  0.00     0.029 A 
ATOM     60  N   UNL A   1      45.404  29.844  27.745  1.00  0.00    -0.354 N 
ATOM     61  N   UNL A   1      42.720  30.172  28.893  1.00  0.00    -0.248 NA
ATOM     62  C   UNL A   1      41.184  31.439  30.114  1.00  0.00     0.031 C 
ATOM     63  C   UNL A   1      46.815  31.555  27.849  1.00  0.00     0.029 A 
ATOM     64  C   UNL A   1      45.543  31.143  28.208  1.00  0.00     0.049 A 
ATOM     65  H   UNL A   1      44.603  29.286  27.862  1.00  0.00     0.167 HD
ATOM     66  C   UNL A   1      43.287  31.407  29.205  1.00  0.00     0.074 A 
ATOM     67  C   UNL A   1      42.280  32.157  29.923  1.00  0.00     0.031 C 
ATOM     68  C   UNL A   1      44.527  31.880  28.922  1.00  0.00     0.034 A 
BRANCH  55  69
ATOM     69  C   UNL A   1      48.120  27.843  25.890  1.00  0.00     0.023 A 
ATOM     70  C   UNL A   1      48.288  27.846  24.494  1.00  0.00     0.031 A 
ATOM     71  C   UNL A   1      49.238  27.544  26.688  1.00  0.00     0.131 A 
ATOM     72  C   UNL A   1      49.527  27.498  23.938  1.00  0.00     0.055 A 
ATOM     73  C   UNL A   1      50.490  27.278  26.130  1.00  0.00     0.041 A 
ATOM     74  F   UNL A   1      49.132  27.501  28.025  1.00  0.00    -0.206 F 
ATOM     75  C   UNL A   1      50.638  27.241  24.747  1.00  0.00     0.022 A 
BRANCH  72  76
ATOM     76  S   UNL A   1      49.634  27.257  22.145  1.00  0.00     0.124 S 
ATOM     77  O   UNL A   1      49.270  28.582  21.647  1.00  0.00    -0.237 OA
ATOM     78  O   UNL A   1      51.028  26.868  21.962  1.00  0.00    -0.237 OA
ATOM     79  O   UNL A   1      48.652  26.209  21.879  1.00  0.00    -0.744 OA
ENDBRANCH  72  76
ENDBRANCH  55  69
BRANCH  56  80
ATOM     80  C   UNL A   1      39.096  29.389  29.972  1.00  0.00     0.023 A 
ATOM     81  C   UNL A   1      38.122  30.181  29.343  1.00  0.00     0.031 A 
ATOM     82  C   UNL A   1      38.821  28.921  31.270  1.00  0.00     0.131 A 
ATOM     83  C   UNL A   1      36.955  30.539  30.036  1.00  0.00     0.055 A 
ATOM     84  C   UNL A   1      37.627  29.223  31.929  1.00  0.00     0.041 A 
ATOM     85  F   UNL A   1      39.717  28.166  31.926  1.00  0.00    -0.206 F 
ATOM     86  C   UNL A   1      36.693  30.052  31.317  1.00  0.00     0.022 A 
BRANCH  83  87
ATOM     87  S   UNL A   1      35.844  31.761  29.285  1.00  0.00     0.124 S 
ATOM     88  O   UNL A   1      35.093  30.936  28.345  1.00  0.00    -0.237 OA
ATOM     89  O   UNL A   1      35.105  32.248  30.445  1.00  0.00    -0.237 OA
ATOM     90  O   UNL A   1      36.760  32.725  28.680  1.00  0.00    -0.744 OA
ENDBRANCH  83  87
ENDBRANCH  56  80
BRANCH  68  91
ATOM     91  C   UNL A   1      44.847  33.295  29.342  1.00  0.00     0.023 A 
ATOM     92  C   UNL A   1      45.466  33.583  30.571  1.00  0.00     0.031 A 
ATOM     93  C   UNL A   1      44.545  34.371  28.486  1.00  0.00     0.131 A 
ATOM     94  C   UNL A   1      45.724  34.915  30.928  1.00  0.00     0.055 A 
ATOM     95  C   UNL A   1      44.861  35.688  28.820  1.00  0.00     0.041 A 
ATOM     96  F   UNL A   1      43.952  34.156  27.302  1.00  0.00    -0.206 F 
ATOM     97  C   UNL A   1      45.445  35.967  30.052  1.00  0.00     0.022 A 
BRANCH  94  98
ATOM     98  S   UNL A   1      46.363  35.264  32.589  1.00  0.00     0.124 S 
ATOM     99  O   UNL A   1      45.538  34.393  33.420  1.00  0.00    -0.237 OA
ATOM    100  O   UNL A   1      47.768  34.887  32.470  1.00  0.00    -0.237 OA
ATOM    101  O   UNL A   1      46.119  36.695  32.758  1.00  0.00    -0.744 OA
ENDBRANCH  94  98
ENDBRANCH  68  91
ENDBRANCH  42  43
ENDBRANCH  35  37
ENDBRANCH  34  35
ENDBRANCH  33  34
ENDBRANCH  32  33
ENDBRANCH  31  32
ENDBRANCH  30  31
ENDBRANCH   1  30
TORSDOF 27
ENDMDL
MODEL 3
REMARK VINA RESULT:      -8.6      3.310      4.763
REMARK SMILES CCC1C[NH+]([C@@H](Cc2c[nH]c3ccccc23)C(=O)OCCOCCOCCOCCOC(=O)c2ccc(-c3c4nc(c(-c5cc(S(=O)(=O)[O-])ccc5F)c5ccc([nH]5)c(-c5cc(S(=O)(=O)[O-])ccc5F)c5nc(c(-c6cc(S(=O)(=O)[O-])ccc6F)c6ccc3[nH]6)C=C5)C=C4)cc2)C1
REMARK SMILES IDX 26 1 25 2 24 3 23 4 22 5 21 6 20 7 19 8 17 9 18 10 6 11 5 12
REMARK SMILES IDX 3 13 4 14 97 15 2 17 1 18 7 19 8 20 9 21 16 22 10 23 11 24
REMARK SMILES IDX 15 25 12 27 14 28 13 29 27 30 28 31 29 32 30 33 31 34 32 35
REMARK SMILES IDX 33 36 34 37 35 38 96 39 36 40 95 41 37 42 38 43 39 44 89 45
REMARK SMILES IDX 40 46 94 47 88 48 90 49 41 50 93 51 87 52 86 53 42 55 74 56
REMARK SMILES IDX 54 57 73 58 55 59 58 60 72 61 91 62 56 63 57 64 71 66 92 67
REMARK SMILES IDX 59 68 43 69 44 70 52 71 45 72 51 73 53 74 50 75 46 76 47 77
REMARK SMILES IDX 48 78 49 79 75 80 76 81 84 82 77 83 83 84 85 85 82 86 78 87
REMARK SMILES IDX 79 88 80 89 81 90 60 91 61 92 69 93 62 94 68 95 70 96 67 97
REMARK SMILES IDX 63 98 64 99 65 100 66 101
REMARK H PARENT 5 16 10 26 90 54 58 65
REMARK Flexibility Score: inf
ROOT
ATOM      1  C   UNL A   1      38.238  22.582  25.838  1.00  0.00     0.188 C 
ENDROOT
BRANCH   1   2
ATOM      2  O   UNL A   1      36.957  22.407  25.251  1.00  0.00    -0.377 OA
BRANCH   2   3
ATOM      3  C   UNL A   1      36.798  22.758  23.892  1.00  0.00     0.188 C 
BRANCH   3   4
ATOM      4  C   UNL A   1      35.359  23.118  23.491  1.00  0.00     0.188 C 
BRANCH   4   5
ATOM      5  O   UNL A   1      34.818  24.399  23.780  1.00  0.00    -0.376 OA
BRANCH   5   6
ATOM      6  C   UNL A   1      34.805  24.905  25.107  1.00  0.00     0.202 C 
BRANCH   6   7
ATOM      7  C   UNL A   1      33.915  26.076  25.544  1.00  0.00     0.261 C 
BRANCH   7   8
ATOM      8  O   UNL A   1      32.857  25.781  26.466  1.00  0.00    -0.459 OA
BRANCH   8   9
ATOM      9  C   UNL A   1      31.805  26.634  26.473  1.00  0.00     0.365 C 
ATOM     10  O   UNL A   1      31.620  27.481  27.347  1.00  0.00    -0.245 OA
BRANCH   9  11
ATOM     11  C   UNL A   1      30.783  26.403  25.350  1.00  0.00     0.299 C 
BRANCH  11  12
ATOM     12  N   UNL A   1      31.045  27.184  24.108  1.00  0.00    -0.322 N 
ATOM     13  C   UNL A   1      29.618  28.707  23.720  1.00  0.00     0.099 C 
ATOM     14  C   UNL A   1      29.933  27.308  23.148  1.00  0.00     0.272 C 
ATOM     15  C   UNL A   1      31.054  28.653  24.281  1.00  0.00     0.272 C 
ATOM     16  H   UNL A   1      31.890  26.680  23.835  1.00  0.00     0.348 HD
BRANCH  13  17
ATOM     17  C   UNL A   1      29.135  29.821  22.803  1.00  0.00     0.012 C 
ATOM     18  C   UNL A   1      27.634  30.025  22.968  1.00  0.00     0.004 C 
ENDBRANCH  13  17
ENDBRANCH  11  12
BRANCH  11  19
ATOM     19  C   UNL A   1      30.373  24.914  25.423  1.00  0.00     0.115 C 
BRANCH  19  20
ATOM     20  C   UNL A   1      31.003  23.968  24.444  1.00  0.00    -0.016 A 
ATOM     21  C   UNL A   1      30.892  23.947  23.068  1.00  0.00     0.087 A 
ATOM     22  C   UNL A   1      31.818  22.845  24.799  1.00  0.00     0.003 A 
ATOM     23  N   UNL A   1      31.407  22.759  22.614  1.00  0.00    -0.361 N 
ATOM     24  C   UNL A   1      31.946  22.051  23.662  1.00  0.00     0.046 A 
ATOM     25  C   UNL A   1      32.337  22.370  26.021  1.00  0.00     0.010 A 
ATOM     26  H   UNL A   1      31.392  22.457  21.678  1.00  0.00     0.166 HD
ATOM     27  C   UNL A   1      32.500  20.769  23.699  1.00  0.00     0.026 A 
ATOM     28  C   UNL A   1      32.897  21.092  26.077  1.00  0.00     0.001 A 
ATOM     29  C   UNL A   1      32.958  20.299  24.935  1.00  0.00     0.002 A 
ENDBRANCH  19  20
ENDBRANCH  11  19
ENDBRANCH   9  11
ENDBRANCH   8   9
ENDBRANCH   7   8
ENDBRANCH   6   7
ENDBRANCH   5   6
ENDBRANCH   4   5
ENDBRANCH   3   4
ENDBRANCH   2   3
ENDBRANCH   1   2
BRANCH   1  30
ATOM     30  C   UNL A   1      39.256  21.426  25.758  1.00  0.00     0.188 C 
BRANCH  30  31
ATOM     31  O   UNL A   1      39.793  21.022  27.010  1.00  0.00    -0.376 OA
BRANCH  31  32
ATOM     32  C   UNL A   1      41.121  20.520  27.048  1.00  0.00     0.202 C 
BRANCH  32  33
ATOM     33  C   UNL A   1      42.194  21.364  27.755  1.00  0.00     0.261 C 
BRANCH  33  34
ATOM     34  O   UNL A   1      43.267  21.868  26.945  1.00  0.00    -0.460 OA
BRANCH  34  35
ATOM     35  C   UNL A   1      42.966  22.697  25.923  1.00  0.00     0.338 C 
ATOM     36  O   UNL A   1      42.747  22.382  24.765  1.00  0.00    -0.246 OA
BRANCH  35  37
ATOM     37  C   UNL A   1      42.756  24.046  26.490  1.00  0.00     0.060 A 
ATOM     38  C   UNL A   1      42.461  25.114  25.633  1.00  0.00     0.016 A 
ATOM     39  C   UNL A   1      42.841  24.252  27.869  1.00  0.00     0.016 A 
ATOM     40  C   UNL A   1      42.278  26.399  26.151  1.00  0.00     0.010 A 
ATOM     41  C   UNL A   1      42.683  25.541  28.382  1.00  0.00     0.010 A 
ATOM     42  C   UNL A   1      42.428  26.627  27.524  1.00  0.00    -0.014 A 
BRANCH  42  43
ATOM     43  C   UNL A   1      42.515  28.012  28.052  1.00  0.00     0.031 A 
ATOM     44  C   UNL A   1      43.874  28.648  28.154  1.00  0.00     0.074 A 
ATOM     45  C   UNL A   1      41.418  28.693  28.433  1.00  0.00     0.049 A 
ATOM     46  N   UNL A   1      44.223  29.785  28.696  1.00  0.00    -0.248 NA
ATOM     47  C   UNL A   1      44.991  27.892  27.566  1.00  0.00     0.031 C 
ATOM     48  C   UNL A   1      40.042  28.213  28.315  1.00  0.00     0.029 A 
ATOM     49  N   UNL A   1      41.293  29.932  29.012  1.00  0.00    -0.354 N 
ATOM     50  C   UNL A   1      45.599  29.882  28.516  1.00  0.00     0.074 A 
ATOM     51  C   UNL A   1      46.024  28.670  27.850  1.00  0.00     0.031 C 
ATOM     52  C   UNL A   1      39.212  29.144  28.820  1.00  0.00     0.029 A 
ATOM     53  C   UNL A   1      39.999  30.259  29.347  1.00  0.00     0.049 A 
ATOM     54  H   UNL A   1      42.058  30.531  29.170  1.00  0.00     0.167 HD
ATOM     55  C   UNL A   1      46.430  30.895  28.865  1.00  0.00     0.034 A 
ATOM     56  C   UNL A   1      39.515  31.315  30.034  1.00  0.00     0.034 A 
ATOM     57  C   UNL A   1      45.995  32.088  29.545  1.00  0.00     0.049 A 
ATOM     58  C   UNL A   1      40.483  32.365  30.542  1.00  0.00     0.074 A 
ATOM     59  C   UNL A   1      46.754  33.171  29.954  1.00  0.00     0.029 A 
ATOM     60  N   UNL A   1      44.687  32.354  29.927  1.00  0.00    -0.354 N 
ATOM     61  N   UNL A   1      41.784  32.443  30.376  1.00  0.00    -0.248 NA
ATOM     62  C   UNL A   1      39.917  33.468  31.333  1.00  0.00     0.031 C 
ATOM     63  C   UNL A   1      45.921  34.051  30.650  1.00  0.00     0.029 A 
ATOM     64  C   UNL A   1      44.626  33.563  30.601  1.00  0.00     0.049 A 
ATOM     65  H   UNL A   1      43.917  31.769  29.747  1.00  0.00     0.167 HD
ATOM     66  C   UNL A   1      42.179  33.621  31.007  1.00  0.00     0.074 A 
ATOM     67  C   UNL A   1      40.981  34.228  31.544  1.00  0.00     0.031 C 
ATOM     68  C   UNL A   1      43.421  34.157  31.129  1.00  0.00     0.034 A 
BRANCH  55  69
ATOM     69  C   UNL A   1      47.897  30.728  28.560  1.00  0.00     0.023 A 
ATOM     70  C   UNL A   1      48.758  30.042  29.435  1.00  0.00     0.031 A 
ATOM     71  C   UNL A   1      48.446  31.270  27.384  1.00  0.00     0.131 A 
ATOM     72  C   UNL A   1      50.129  29.966  29.150  1.00  0.00     0.055 A 
ATOM     73  C   UNL A   1      49.797  31.120  27.067  1.00  0.00     0.041 A 
ATOM     74  F   UNL A   1      47.678  31.956  26.525  1.00  0.00    -0.206 F 
ATOM     75  C   UNL A   1      50.650  30.477  27.958  1.00  0.00     0.022 A 
BRANCH  72  76
ATOM     76  S   UNL A   1      51.242  29.309  30.421  1.00  0.00     0.124 S 
ATOM     77  O   UNL A   1      50.870  27.895  30.434  1.00  0.00    -0.237 OA
ATOM     78  O   UNL A   1      52.559  29.617  29.875  1.00  0.00    -0.237 OA
ATOM     79  O   UNL A   1      50.872  30.055  31.622  1.00  0.00    -0.744 OA
ENDBRANCH  72  76
ENDBRANCH  55  69
BRANCH  56  80
ATOM     80  C   UNL A   1      38.059  31.430  30.347  1.00  0.00     0.023 A 
ATOM     81  C   UNL A   1      37.150  31.902  29.387  1.00  0.00     0.031 A 
ATOM     82  C   UNL A   1      37.566  31.164  31.638  1.00  0.00     0.131 A 
ATOM     83  C   UNL A   1      35.819  32.161  29.747  1.00  0.00     0.055 A 
ATOM     84  C   UNL A   1      36.224  31.356  31.974  1.00  0.00     0.041 A 
ATOM     85  F   UNL A   1      38.388  30.717  32.602  1.00  0.00    -0.206 F 
ATOM     86  C   UNL A   1      35.345  31.876  31.029  1.00  0.00     0.022 A 
BRANCH  83  87
ATOM     87  S   UNL A   1      34.746  33.002  28.550  1.00  0.00     0.124 S 
ATOM     88  O   UNL A   1      34.137  34.037  29.379  1.00  0.00    -0.237 OA
ATOM     89  O   UNL A   1      35.709  33.460  27.554  1.00  0.00    -0.237 OA
ATOM     90  O   UNL A   1      33.842  31.945  28.103  1.00  0.00    -0.744 OA
ENDBRANCH  83  87
ENDBRANCH  56  80
BRANCH  68  91
ATOM     91  C   UNL A   1      43.540  35.491  31.827  1.00  0.00     0.023 A 
ATOM     92  C   UNL A   1      43.535  35.600  33.228  1.00  0.00     0.031 A 
ATOM     93  C   UNL A   1      43.681  36.672  31.072  1.00  0.00     0.131 A 
ATOM     94  C   UNL A   1      43.626  36.864  33.831  1.00  0.00     0.055 A 
ATOM     95  C   UNL A   1      43.833  37.919  31.679  1.00  0.00     0.041 A 
ATOM     96  F   UNL A   1      43.689  36.629  29.731  1.00  0.00    -0.206 F 
ATOM     97  C   UNL A   1      43.796  38.021  33.067  1.00  0.00     0.022 A 
BRANCH  94  98
ATOM     98  S   UNL A   1      43.443  36.986  35.631  1.00  0.00     0.124 S 
ATOM     99  O   UNL A   1      42.006  36.796  35.803  1.00  0.00    -0.237 OA
ATOM    100  O   UNL A   1      44.291  35.896  36.107  1.00  0.00    -0.237 OA
ATOM    101  O   UNL A   1      43.932  38.328  35.937  1.00  0.00    -0.744 OA
ENDBRANCH  94  98
ENDBRANCH  68  91
ENDBRANCH  42  43
ENDBRANCH  35  37
ENDBRANCH  34  35
ENDBRANCH  33  34
ENDBRANCH  32  33
ENDBRANCH  31  32
ENDBRANCH  30  31
ENDBRANCH   1  30
TORSDOF 27
ENDMDL
