MODEL 1
REMARK VINA RESULT:     -10.9      0.000      0.000
REMARK SMILES COc1cc(Cl)c2c(c1)C=C(C(=O)OCCOCCOCCOCCOC(=O)c1ccc(-c3c4nc(c(-c5cc(S(=O)(=O)[O-])ccc5F)c5ccc([nH]5)c(-c5cc(S(=O)(=O)[O-])ccc5F)c5nc(c(-c6cc(S(=O)(=O)[O-])ccc6F)c6ccc3[nH]6)C=C5)C=C4)cc1)[C@@H](C(F)(F)F)O2
REMARK SMILES IDX 21 1 20 2 19 3 18 4 17 5 16 6 15 7 14 8 12 9 13 10 11 11
REMARK SMILES IDX 3 12 4 13 9 14 5 15 8 16 6 17 7 18 10 19 97 20 92 21 2 22
REMARK SMILES IDX 1 23 93 24 94 25 95 26 96 27 22 28 23 29 24 30 25 31 26 32
REMARK SMILES IDX 27 33 28 34 29 35 30 36 91 37 31 38 90 39 32 40 33 41 34 42
REMARK SMILES IDX 84 43 35 44 89 45 83 46 85 47 36 48 88 49 82 50 81 51 37 53
REMARK SMILES IDX 69 54 49 55 68 56 50 57 53 58 67 59 86 60 51 61 52 62 66 64
REMARK SMILES IDX 87 65 54 66 38 67 39 68 47 69 40 70 46 71 48 72 45 73 41 74
REMARK SMILES IDX 42 75 43 76 44 77 70 78 71 79 79 80 72 81 78 82 80 83 77 84
REMARK SMILES IDX 73 85 74 86 75 87 76 88 55 89 56 90 64 91 57 92 63 93 65 94
REMARK SMILES IDX 62 95 58 96 59 97 60 98 61 99
REMARK H PARENT 85 52 53 63
REMARK Flexibility Score: inf
ROOT
ATOM      1  C   UNL A   1      32.990  27.665  23.386  1.00  0.00     0.188 C 
ENDROOT
BRANCH   1   2
ATOM      2  O   UNL A   1      31.745  27.863  22.723  1.00  0.00    -0.377 OA
BRANCH   2   3
ATOM      3  C   UNL A   1      30.836  26.780  22.740  1.00  0.00     0.188 C 
BRANCH   3   4
ATOM      4  C   UNL A   1      29.713  26.954  23.778  1.00  0.00     0.188 C 
BRANCH   4   5
ATOM      5  O   UNL A   1      29.708  26.154  24.945  1.00  0.00    -0.376 OA
BRANCH   5   6
ATOM      6  C   UNL A   1      30.613  26.321  26.027  1.00  0.00     0.202 C 
BRANCH   6   7
ATOM      7  C   UNL A   1      31.727  25.351  26.469  1.00  0.00     0.261 C 
BRANCH   7   8
ATOM      8  O   UNL A   1      31.734  24.045  25.908  1.00  0.00    -0.460 OA
BRANCH   8   9
ATOM      9  C   UNL A   1      32.921  23.417  25.866  1.00  0.00     0.338 C 
ATOM     10  O   UNL A   1      33.943  23.733  26.451  1.00  0.00    -0.246 OA
BRANCH   9  11
ATOM     11  C   UNL A   1      32.736  22.154  25.123  1.00  0.00     0.087 C 
ATOM     12  C   UNL A   1      33.053  17.369  25.108  1.00  0.00     0.121 A 
ATOM     13  C   UNL A   1      32.789  17.341  23.742  1.00  0.00     0.070 A 
ATOM     14  C   UNL A   1      33.008  18.571  25.809  1.00  0.00     0.058 A 
ATOM     15  C   UNL A   1      32.494  18.530  23.073  1.00  0.00     0.087 A 
ATOM     16  C   UNL A   1      32.768  19.767  25.125  1.00  0.00     0.022 A 
ATOM     17  Cl  UNL A   1      32.189  18.450  21.374  1.00  0.00    -0.080 Cl
ATOM     18  C   UNL A   1      32.483  19.752  23.758  1.00  0.00     0.146 A 
ATOM     19  C   UNL A   1      32.899  21.029  25.828  1.00  0.00     0.027 C 
ATOM     20  O   UNL A   1      32.189  20.884  23.050  1.00  0.00    -0.474 OA
ATOM     21  C   UNL A   1      32.331  22.190  23.673  1.00  0.00     0.316 C 
BRANCH  12  22
ATOM     22  O   UNL A   1      33.330  16.238  25.826  1.00  0.00    -0.497 OA
ATOM     23  C   UNL A   1      32.483  15.154  25.444  1.00  0.00     0.278 C 
ENDBRANCH  12  22
BRANCH  21  24
ATOM     24  C   UNL A   1      33.305  23.026  22.831  1.00  0.00     0.430 C 
ATOM     25  F   UNL A   1      33.245  22.693  21.523  1.00  0.00    -0.167 F 
ATOM     26  F   UNL A   1      33.043  24.349  22.921  1.00  0.00    -0.167 F 
ATOM     27  F   UNL A   1      34.584  22.842  23.240  1.00  0.00    -0.167 F 
ENDBRANCH  21  24
ENDBRANCH   9  11
ENDBRANCH   8   9
ENDBRANCH   7   8
ENDBRANCH   6   7
ENDBRANCH   5   6
ENDBRANCH   4   5
ENDBRANCH   3   4
ENDBRANCH   2   3
ENDBRANCH   1   2
BRANCH   1  28
ATOM     28  C   UNL A   1      33.232  28.337  24.757  1.00  0.00     0.188 C 
BRANCH  28  29
ATOM     29  O   UNL A   1      32.835  29.702  24.810  1.00  0.00    -0.376 OA
BRANCH  29  30
ATOM     30  C   UNL A   1      31.542  30.008  25.308  1.00  0.00     0.202 C 
BRANCH  30  31
ATOM     31  C   UNL A   1      31.392  31.325  26.084  1.00  0.00     0.261 C 
BRANCH  31  32
ATOM     32  O   UNL A   1      32.145  31.431  27.300  1.00  0.00    -0.460 OA
BRANCH  32  33
ATOM     33  C   UNL A   1      32.881  32.547  27.484  1.00  0.00     0.338 C 
ATOM     34  O   UNL A   1      32.476  33.698  27.502  1.00  0.00    -0.246 OA
BRANCH  33  35
ATOM     35  C   UNL A   1      34.243  32.120  27.855  1.00  0.00     0.060 A 
ATOM     36  C   UNL A   1      34.480  30.772  28.160  1.00  0.00     0.016 A 
ATOM     37  C   UNL A   1      35.281  33.053  27.904  1.00  0.00     0.016 A 
ATOM     38  C   UNL A   1      35.752  30.358  28.550  1.00  0.00     0.010 A 
ATOM     39  C   UNL A   1      36.544  32.645  28.337  1.00  0.00     0.010 A 
ATOM     40  C   UNL A   1      36.769  31.307  28.702  1.00  0.00    -0.014 A 
BRANCH  40  41
ATOM     41  C   UNL A   1      37.965  30.968  29.507  1.00  0.00     0.031 A 
ATOM     42  C   UNL A   1      38.931  29.975  28.923  1.00  0.00     0.074 A 
ATOM     43  C   UNL A   1      38.184  31.503  30.720  1.00  0.00     0.049 A 
ATOM     44  N   UNL A   1      39.979  29.426  29.470  1.00  0.00    -0.248 NA
ATOM     45  C   UNL A   1      38.679  29.545  27.534  1.00  0.00     0.031 C 
ATOM     46  C   UNL A   1      37.343  32.507  31.364  1.00  0.00     0.029 A 
ATOM     47  N   UNL A   1      39.176  31.248  31.636  1.00  0.00    -0.354 N 
ATOM     48  C   UNL A   1      40.504  28.579  28.502  1.00  0.00     0.074 A 
ATOM     49  C   UNL A   1      39.657  28.673  27.337  1.00  0.00     0.031 C 
ATOM     50  C   UNL A   1      37.828  32.752  32.594  1.00  0.00     0.029 A 
ATOM     51  C   UNL A   1      38.990  31.892  32.837  1.00  0.00     0.049 A 
ATOM     52  H   UNL A   1      39.944  30.661  31.451  1.00  0.00     0.167 HD
ATOM     53  C   UNL A   1      41.598  27.793  28.582  1.00  0.00     0.034 A 
ATOM     54  C   UNL A   1      39.651  31.769  34.008  1.00  0.00     0.034 A 
ATOM     55  C   UNL A   1      42.437  27.706  29.743  1.00  0.00     0.049 A 
ATOM     56  C   UNL A   1      40.839  30.840  34.096  1.00  0.00     0.074 A 
ATOM     57  C   UNL A   1      43.583  26.949  29.906  1.00  0.00     0.029 A 
ATOM     58  N   UNL A   1      42.225  28.383  30.932  1.00  0.00    -0.354 N 
ATOM     59  N   UNL A   1      41.355  30.078  33.160  1.00  0.00    -0.248 NA
ATOM     60  C   UNL A   1      41.540  30.753  35.385  1.00  0.00     0.031 C 
ATOM     61  C   UNL A   1      44.031  27.121  31.213  1.00  0.00     0.029 A 
ATOM     62  C   UNL A   1      43.208  28.043  31.842  1.00  0.00     0.049 A 
ATOM     63  H   UNL A   1      41.487  29.012  31.103  1.00  0.00     0.167 HD
ATOM     64  C   UNL A   1      42.452  29.445  33.739  1.00  0.00     0.074 A 
ATOM     65  C   UNL A   1      42.535  29.921  35.103  1.00  0.00     0.031 C 
ATOM     66  C   UNL A   1      43.309  28.551  33.188  1.00  0.00     0.034 A 
BRANCH  53  67
ATOM     67  C   UNL A   1      41.981  26.956  27.395  1.00  0.00     0.023 A 
ATOM     68  C   UNL A   1      41.645  25.591  27.376  1.00  0.00     0.031 A 
ATOM     69  C   UNL A   1      42.820  27.459  26.388  1.00  0.00     0.131 A 
ATOM     70  C   UNL A   1      42.205  24.756  26.404  1.00  0.00     0.055 A 
ATOM     71  C   UNL A   1      43.343  26.630  25.398  1.00  0.00     0.041 A 
ATOM     72  F   UNL A   1      43.153  28.760  26.365  1.00  0.00    -0.206 F 
ATOM     73  C   UNL A   1      43.051  25.268  25.414  1.00  0.00     0.022 A 
BRANCH  70  74
ATOM     74  S   UNL A   1      41.905  22.970  26.431  1.00  0.00     0.124 S 
ATOM     75  O   UNL A   1      42.397  22.558  25.118  1.00  0.00    -0.237 OA
ATOM     76  O   UNL A   1      42.719  22.543  27.565  1.00  0.00    -0.237 OA
ATOM     77  O   UNL A   1      40.460  22.861  26.609  1.00  0.00    -0.744 OA
ENDBRANCH  70  74
ENDBRANCH  53  67
BRANCH  54  78
ATOM     78  C   UNL A   1      39.176  32.541  35.191  1.00  0.00     0.023 A 
ATOM     79  C   UNL A   1      39.670  33.834  35.439  1.00  0.00     0.031 A 
ATOM     80  C   UNL A   1      38.297  31.978  36.129  1.00  0.00     0.131 A 
ATOM     81  C   UNL A   1      39.331  34.496  36.625  1.00  0.00     0.055 A 
ATOM     82  C   UNL A   1      37.910  32.667  37.280  1.00  0.00     0.041 A 
ATOM     83  F   UNL A   1      37.801  30.746  35.936  1.00  0.00    -0.206 F 
ATOM     84  C   UNL A   1      38.441  33.928  37.540  1.00  0.00     0.022 A 
BRANCH  81  85
ATOM     85  S   UNL A   1      40.115  36.071  37.064  1.00  0.00     0.124 S 
ATOM     86  O   UNL A   1      41.482  35.659  37.367  1.00  0.00    -0.237 OA
ATOM     87  O   UNL A   1      39.945  36.836  35.830  1.00  0.00    -0.237 OA
ATOM     88  O   UNL A   1      39.333  36.541  38.201  1.00  0.00    -0.744 OA
ENDBRANCH  81  85
ENDBRANCH  54  78
BRANCH  66  89
ATOM     89  C   UNL A   1      44.457  28.018  34.007  1.00  0.00     0.023 A 
ATOM     90  C   UNL A   1      44.259  26.880  34.815  1.00  0.00     0.031 A 
ATOM     91  C   UNL A   1      45.645  28.751  34.162  1.00  0.00     0.131 A 
ATOM     92  C   UNL A   1      45.207  26.547  35.790  1.00  0.00     0.055 A 
ATOM     93  C   UNL A   1      46.607  28.386  35.104  1.00  0.00     0.041 A 
ATOM     94  F   UNL A   1      45.869  29.849  33.423  1.00  0.00    -0.206 F 
ATOM     95  C   UNL A   1      46.382  27.291  35.935  1.00  0.00     0.022 A 
BRANCH  92  96
ATOM     96  S   UNL A   1      44.904  25.194  36.960  1.00  0.00     0.124 S 
ATOM     97  O   UNL A   1      45.930  24.226  36.579  1.00  0.00    -0.237 OA
ATOM     98  O   UNL A   1      45.113  25.850  38.247  1.00  0.00    -0.237 OA
ATOM     99  O   UNL A   1      43.532  24.785  36.676  1.00  0.00    -0.744 OA
ENDBRANCH  92  96
ENDBRANCH  66  89
ENDBRANCH  40  41
ENDBRANCH  33  35
ENDBRANCH  32  33
ENDBRANCH  31  32
ENDBRANCH  30  31
ENDBRANCH  29  30
ENDBRANCH  28  29
ENDBRANCH   1  28
TORSDOF 25
ENDMDL
MODEL 2
REMARK VINA RESULT:     -10.3      1.409      7.620
REMARK SMILES COc1cc(Cl)c2c(c1)C=C(C(=O)OCCOCCOCCOCCOC(=O)c1ccc(-c3c4nc(c(-c5cc(S(=O)(=O)[O-])ccc5F)c5ccc([nH]5)c(-c5cc(S(=O)(=O)[O-])ccc5F)c5nc(c(-c6cc(S(=O)(=O)[O-])ccc6F)c6ccc3[nH]6)C=C5)C=C4)cc1)[C@@H](C(F)(F)F)O2
REMARK SMILES IDX 21 1 20 2 19 3 18 4 17 5 16 6 15 7 14 8 12 9 13 10 11 11
REMARK SMILES IDX 3 12 4 13 9 14 5 15 8 16 6 17 7 18 10 19 97 20 92 21 2 22
REMARK SMILES IDX 1 23 93 24 94 25 95 26 96 27 22 28 23 29 24 30 25 31 26 32
REMARK SMILES IDX 27 33 28 34 29 35 30 36 91 37 31 38 90 39 32 40 33 41 34 42
REMARK SMILES IDX 84 43 35 44 89 45 83 46 85 47 36 48 88 49 82 50 81 51 37 53
REMARK SMILES IDX 69 54 49 55 68 56 50 57 53 58 67 59 86 60 51 61 52 62 66 64
REMARK SMILES IDX 87 65 54 66 38 67 39 68 47 69 40 70 46 71 48 72 45 73 41 74
REMARK SMILES IDX 42 75 43 76 44 77 70 78 71 79 79 80 72 81 78 82 80 83 77 84
REMARK SMILES IDX 73 85 74 86 75 87 76 88 55 89 56 90 64 91 57 92 63 93 65 94
REMARK SMILES IDX 62 95 58 96 59 97 60 98 61 99
REMARK H PARENT 85 52 53 63
REMARK Flexibility Score: inf
ROOT
ATOM      1  C   UNL A   1      32.813  28.342  25.604  1.00  0.00     0.188 C 
ENDROOT
BRANCH   1   2
ATOM      2  O   UNL A   1      33.094  28.907  24.327  1.00  0.00    -0.377 OA
BRANCH   2   3
ATOM      3  C   UNL A   1      34.005  28.203  23.507  1.00  0.00     0.188 C 
BRANCH   3   4
ATOM      4  C   UNL A   1      33.321  27.477  22.334  1.00  0.00     0.188 C 
BRANCH   4   5
ATOM      5  O   UNL A   1      32.587  26.291  22.577  1.00  0.00    -0.376 OA
BRANCH   5   6
ATOM      6  C   UNL A   1      31.209  26.265  22.918  1.00  0.00     0.202 C 
BRANCH   6   7
ATOM      7  C   UNL A   1      30.539  25.435  24.031  1.00  0.00     0.261 C 
BRANCH   7   8
ATOM      8  O   UNL A   1      30.777  24.033  24.050  1.00  0.00    -0.460 OA
BRANCH   8   9
ATOM      9  C   UNL A   1      31.056  23.490  25.247  1.00  0.00     0.338 C 
ATOM     10  O   UNL A   1      30.434  23.634  26.285  1.00  0.00    -0.246 OA
BRANCH   9  11
ATOM     11  C   UNL A   1      32.159  22.524  25.058  1.00  0.00     0.087 C 
ATOM     12  C   UNL A   1      33.509  17.950  24.561  1.00  0.00     0.121 A 
ATOM     13  C   UNL A   1      34.847  18.317  24.669  1.00  0.00     0.070 A 
ATOM     14  C   UNL A   1      32.512  18.921  24.533  1.00  0.00     0.058 A 
ATOM     15  C   UNL A   1      35.184  19.669  24.765  1.00  0.00     0.087 A 
ATOM     16  C   UNL A   1      32.849  20.270  24.688  1.00  0.00     0.022 A 
ATOM     17  Cl  UNL A   1      36.857  20.078  24.913  1.00  0.00    -0.080 Cl
ATOM     18  C   UNL A   1      34.189  20.655  24.777  1.00  0.00     0.146 A 
ATOM     19  C   UNL A   1      31.797  21.256  24.836  1.00  0.00     0.027 C 
ATOM     20  O   UNL A   1      34.579  21.962  24.877  1.00  0.00    -0.474 OA
ATOM     21  C   UNL A   1      33.585  23.006  25.064  1.00  0.00     0.316 C 
BRANCH  12  22
ATOM     22  O   UNL A   1      33.113  16.646  24.444  1.00  0.00    -0.497 OA
ATOM     23  C   UNL A   1      33.958  15.773  25.191  1.00  0.00     0.278 C 
ENDBRANCH  12  22
BRANCH  21  24
ATOM     24  C   UNL A   1      33.922  23.770  26.352  1.00  0.00     0.430 C 
ATOM     25  F   UNL A   1      33.408  25.019  26.340  1.00  0.00    -0.167 F 
ATOM     26  F   UNL A   1      33.437  23.147  27.450  1.00  0.00    -0.167 F 
ATOM     27  F   UNL A   1      35.262  23.883  26.516  1.00  0.00    -0.167 F 
ENDBRANCH  21  24
ENDBRANCH   9  11
ENDBRANCH   8   9
ENDBRANCH   7   8
ENDBRANCH   6   7
ENDBRANCH   5   6
ENDBRANCH   4   5
ENDBRANCH   3   4
ENDBRANCH   2   3
ENDBRANCH   1   2
BRANCH   1  28
ATOM     28  C   UNL A   1      31.799  29.045  26.535  1.00  0.00     0.188 C 
BRANCH  28  29
ATOM     29  O   UNL A   1      32.178  30.363  26.914  1.00  0.00    -0.376 OA
BRANCH  29  30
ATOM     30  C   UNL A   1      31.447  31.454  26.379  1.00  0.00     0.202 C 
BRANCH  30  31
ATOM     31  C   UNL A   1      31.872  32.859  26.826  1.00  0.00     0.261 C 
BRANCH  31  32
ATOM     32  O   UNL A   1      32.781  32.922  27.934  1.00  0.00    -0.460 OA
BRANCH  32  33
ATOM     33  C   UNL A   1      33.860  33.723  27.814  1.00  0.00     0.338 C 
ATOM     34  O   UNL A   1      33.862  34.926  27.615  1.00  0.00    -0.246 OA
BRANCH  33  35
ATOM     35  C   UNL A   1      35.046  32.918  28.159  1.00  0.00     0.060 A 
ATOM     36  C   UNL A   1      34.900  31.541  28.383  1.00  0.00     0.016 A 
ATOM     37  C   UNL A   1      36.299  33.526  28.265  1.00  0.00     0.016 A 
ATOM     38  C   UNL A   1      36.003  30.772  28.748  1.00  0.00     0.010 A 
ATOM     39  C   UNL A   1      37.395  32.763  28.673  1.00  0.00     0.010 A 
ATOM     40  C   UNL A   1      37.239  31.395  28.956  1.00  0.00    -0.014 A 
BRANCH  40  41
ATOM     41  C   UNL A   1      38.283  30.695  29.740  1.00  0.00     0.031 A 
ATOM     42  C   UNL A   1      38.473  31.122  31.169  1.00  0.00     0.074 A 
ATOM     43  C   UNL A   1      39.050  29.730  29.207  1.00  0.00     0.049 A 
ATOM     44  N   UNL A   1      39.388  30.756  32.024  1.00  0.00    -0.248 NA
ATOM     45  C   UNL A   1      37.499  32.091  31.706  1.00  0.00     0.031 C 
ATOM     46  C   UNL A   1      38.924  29.205  27.851  1.00  0.00     0.029 A 
ATOM     47  N   UNL A   1      40.109  29.039  29.745  1.00  0.00    -0.354 N 
ATOM     48  C   UNL A   1      39.109  31.456  33.191  1.00  0.00     0.074 A 
ATOM     49  C   UNL A   1      37.951  32.278  32.937  1.00  0.00     0.031 C 
ATOM     50  C   UNL A   1      39.900  28.304  27.645  1.00  0.00     0.029 A 
ATOM     51  C   UNL A   1      40.742  28.219  28.841  1.00  0.00     0.049 A 
ATOM     52  H   UNL A   1      40.387  29.124  30.685  1.00  0.00     0.167 HD
ATOM     53  C   UNL A   1      39.766  31.413  34.369  1.00  0.00     0.034 A 
ATOM     54  C   UNL A   1      41.893  27.519  28.950  1.00  0.00     0.034 A 
ATOM     55  C   UNL A   1      40.917  30.591  34.614  1.00  0.00     0.049 A 
ATOM     56  C   UNL A   1      42.646  27.529  30.260  1.00  0.00     0.074 A 
ATOM     57  C   UNL A   1      41.635  30.467  35.788  1.00  0.00     0.029 A 
ATOM     58  N   UNL A   1      41.520  29.765  33.680  1.00  0.00    -0.354 N 
ATOM     59  N   UNL A   1      42.349  28.158  31.372  1.00  0.00    -0.248 NA
ATOM     60  C   UNL A   1      43.881  26.736  30.338  1.00  0.00     0.031 C 
ATOM     61  C   UNL A   1      42.710  29.613  35.549  1.00  0.00     0.029 A 
ATOM     62  C   UNL A   1      42.617  29.145  34.247  1.00  0.00     0.049 A 
ATOM     63  H   UNL A   1      41.212  29.638  32.753  1.00  0.00     0.167 HD
ATOM     64  C   UNL A   1      43.342  27.816  32.286  1.00  0.00     0.074 A 
ATOM     65  C   UNL A   1      44.244  26.915  31.603  1.00  0.00     0.031 C 
ATOM     66  C   UNL A   1      43.490  28.216  33.573  1.00  0.00     0.034 A 
BRANCH  53  67
ATOM     67  C   UNL A   1      39.277  32.265  35.506  1.00  0.00     0.023 A 
ATOM     68  C   UNL A   1      39.701  33.602  35.599  1.00  0.00     0.031 A 
ATOM     69  C   UNL A   1      38.554  31.709  36.573  1.00  0.00     0.131 A 
ATOM     70  C   UNL A   1      39.456  34.322  36.771  1.00  0.00     0.055 A 
ATOM     71  C   UNL A   1      38.277  32.446  37.723  1.00  0.00     0.041 A 
ATOM     72  F   UNL A   1      38.120  30.439  36.515  1.00  0.00    -0.206 F 
ATOM     73  C   UNL A   1      38.745  33.753  37.834  1.00  0.00     0.022 A 
BRANCH  70  74
ATOM     74  S   UNL A   1      40.107  36.000  36.981  1.00  0.00     0.124 S 
ATOM     75  O   UNL A   1      39.784  36.616  35.695  1.00  0.00    -0.237 OA
ATOM     76  O   UNL A   1      39.332  36.486  38.119  1.00  0.00    -0.237 OA
ATOM     77  O   UNL A   1      41.531  35.794  37.224  1.00  0.00    -0.744 OA
ENDBRANCH  70  74
ENDBRANCH  53  67
BRANCH  54  78
ATOM     78  C   UNL A   1      42.398  26.768  27.766  1.00  0.00     0.023 A 
ATOM     79  C   UNL A   1      42.228  25.375  27.684  1.00  0.00     0.031 A 
ATOM     80  C   UNL A   1      43.123  27.408  26.748  1.00  0.00     0.131 A 
ATOM     81  C   UNL A   1      42.828  24.659  26.642  1.00  0.00     0.055 A 
ATOM     82  C   UNL A   1      43.666  26.698  25.675  1.00  0.00     0.041 A 
ATOM     83  F   UNL A   1      43.312  28.736  26.785  1.00  0.00    -0.206 F 
ATOM     84  C   UNL A   1      43.533  25.313  25.628  1.00  0.00     0.022 A 
BRANCH  81  85
ATOM     85  S   UNL A   1      42.799  22.845  26.627  1.00  0.00     0.124 S 
ATOM     86  O   UNL A   1      42.283  22.558  25.292  1.00  0.00    -0.237 OA
ATOM     87  O   UNL A   1      44.209  22.528  26.841  1.00  0.00    -0.237 OA
ATOM     88  O   UNL A   1      41.909  22.506  27.732  1.00  0.00    -0.744 OA
ENDBRANCH  81  85
ENDBRANCH  54  78
BRANCH  66  89
ATOM     89  C   UNL A   1      44.640  27.684  34.390  1.00  0.00     0.023 A 
ATOM     90  C   UNL A   1      44.444  26.551  35.204  1.00  0.00     0.031 A 
ATOM     91  C   UNL A   1      45.831  28.415  34.535  1.00  0.00     0.131 A 
ATOM     92  C   UNL A   1      45.395  26.220  36.176  1.00  0.00     0.055 A 
ATOM     93  C   UNL A   1      46.797  28.051  35.473  1.00  0.00     0.041 A 
ATOM     94  F   UNL A   1      46.054  29.508  33.789  1.00  0.00    -0.206 F 
ATOM     95  C   UNL A   1      46.573  26.962  36.311  1.00  0.00     0.022 A 
BRANCH  92  96
ATOM     96  S   UNL A   1      45.095  24.875  37.355  1.00  0.00     0.124 S 
ATOM     97  O   UNL A   1      43.876  25.323  38.025  1.00  0.00    -0.237 OA
ATOM     98  O   UNL A   1      44.934  23.723  36.471  1.00  0.00    -0.237 OA
ATOM     99  O   UNL A   1      46.291  24.866  38.191  1.00  0.00    -0.744 OA
ENDBRANCH  92  96
ENDBRANCH  66  89
ENDBRANCH  40  41
ENDBRANCH  33  35
ENDBRANCH  32  33
ENDBRANCH  31  32
ENDBRANCH  30  31
ENDBRANCH  29  30
ENDBRANCH  28  29
ENDBRANCH   1  28
TORSDOF 25
ENDMDL
MODEL 3
REMARK VINA RESULT:      -9.6      1.916      3.619
REMARK SMILES COc1cc(Cl)c2c(c1)C=C(C(=O)OCCOCCOCCOCCOC(=O)c1ccc(-c3c4nc(c(-c5cc(S(=O)(=O)[O-])ccc5F)c5ccc([nH]5)c(-c5cc(S(=O)(=O)[O-])ccc5F)c5nc(c(-c6cc(S(=O)(=O)[O-])ccc6F)c6ccc3[nH]6)C=C5)C=C4)cc1)[C@@H](C(F)(F)F)O2
REMARK SMILES IDX 21 1 20 2 19 3 18 4 17 5 16 6 15 7 14 8 12 9 13 10 11 11
REMARK SMILES IDX 3 12 4 13 9 14 5 15 8 16 6 17 7 18 10 19 97 20 92 21 2 22
REMARK SMILES IDX 1 23 93 24 94 25 95 26 96 27 22 28 23 29 24 30 25 31 26 32
REMARK SMILES IDX 27 33 28 34 29 35 30 36 91 37 31 38 90 39 32 40 33 41 34 42
REMARK SMILES IDX 84 43 35 44 89 45 83 46 85 47 36 48 88 49 82 50 81 51 37 53
REMARK SMILES IDX 69 54 49 55 68 56 50 57 53 58 67 59 86 60 51 61 52 62 66 64
REMARK SMILES IDX 87 65 54 66 38 67 39 68 47 69 40 70 46 71 48 72 45 73 41 74
REMARK SMILES IDX 42 75 43 76 44 77 70 78 71 79 79 80 72 81 78 82 80 83 77 84
REMARK SMILES IDX 73 85 74 86 75 87 76 88 55 89 56 90 64 91 57 92 63 93 65 94
REMARK SMILES IDX 62 95 58 96 59 97 60 98 61 99
REMARK H PARENT 85 52 53 63
REMARK Flexibility Score: inf
ROOT
ATOM      1  C   UNL A   1      32.869  26.799  26.831  1.00  0.00     0.188 C 
ENDROOT
BRANCH   1   2
ATOM      2  O   UNL A   1      33.533  26.523  25.601  1.00  0.00    -0.377 OA
BRANCH   2   3
ATOM      3  C   UNL A   1      34.787  25.874  25.687  1.00  0.00     0.188 C 
BRANCH   3   4
ATOM      4  C   UNL A   1      34.692  24.353  25.469  1.00  0.00     0.188 C 
BRANCH   4   5
ATOM      5  O   UNL A   1      35.102  23.472  26.497  1.00  0.00    -0.376 OA
BRANCH   5   6
ATOM      6  C   UNL A   1      34.223  22.917  27.465  1.00  0.00     0.202 C 
BRANCH   6   7
ATOM      7  C   UNL A   1      32.887  22.192  27.206  1.00  0.00     0.261 C 
BRANCH   7   8
ATOM      8  O   UNL A   1      31.704  22.978  27.153  1.00  0.00    -0.460 OA
BRANCH   8   9
ATOM      9  C   UNL A   1      30.859  22.720  26.141  1.00  0.00     0.338 C 
ATOM     10  O   UNL A   1      29.956  21.901  26.125  1.00  0.00    -0.246 OA
BRANCH   9  11
ATOM     11  C   UNL A   1      31.088  23.736  25.092  1.00  0.00     0.087 C 
ATOM     12  C   UNL A   1      29.809  27.930  23.154  1.00  0.00     0.121 A 
ATOM     13  C   UNL A   1      30.650  27.703  22.069  1.00  0.00     0.070 A 
ATOM     14  C   UNL A   1      29.784  27.041  24.224  1.00  0.00     0.058 A 
ATOM     15  C   UNL A   1      31.461  26.567  22.052  1.00  0.00     0.087 A 
ATOM     16  C   UNL A   1      30.554  25.875  24.178  1.00  0.00     0.022 A 
ATOM     17  Cl  UNL A   1      32.479  26.316  20.678  1.00  0.00    -0.080 Cl
ATOM     18  C   UNL A   1      31.419  25.643  23.105  1.00  0.00     0.146 A 
ATOM     19  C   UNL A   1      30.390  24.870  25.210  1.00  0.00     0.027 C 
ATOM     20  O   UNL A   1      32.233  24.547  23.033  1.00  0.00    -0.474 OA
ATOM     21  C   UNL A   1      32.104  23.479  24.011  1.00  0.00     0.316 C 
BRANCH  12  22
ATOM     22  O   UNL A   1      29.004  29.034  23.240  1.00  0.00    -0.497 OA
ATOM     23  C   UNL A   1      27.749  28.818  22.597  1.00  0.00     0.278 C 
ENDBRANCH  12  22
BRANCH  21  24
ATOM     24  C   UNL A   1      31.819  22.169  23.262  1.00  0.00     0.430 C 
ATOM     25  F   UNL A   1      32.627  22.022  22.190  1.00  0.00    -0.167 F 
ATOM     26  F   UNL A   1      32.000  21.086  24.051  1.00  0.00    -0.167 F 
ATOM     27  F   UNL A   1      30.540  22.130  22.817  1.00  0.00    -0.167 F 
ENDBRANCH  21  24
ENDBRANCH   9  11
ENDBRANCH   8   9
ENDBRANCH   7   8
ENDBRANCH   6   7
ENDBRANCH   5   6
ENDBRANCH   4   5
ENDBRANCH   3   4
ENDBRANCH   2   3
ENDBRANCH   1   2
BRANCH   1  28
ATOM     28  C   UNL A   1      31.777  27.892  26.872  1.00  0.00     0.188 C 
BRANCH  28  29
ATOM     29  O   UNL A   1      32.283  29.219  26.777  1.00  0.00    -0.376 OA
BRANCH  29  30
ATOM     30  C   UNL A   1      31.711  30.090  25.814  1.00  0.00     0.202 C 
BRANCH  30  31
ATOM     31  C   UNL A   1      31.580  31.568  26.208  1.00  0.00     0.261 C 
BRANCH  31  32
ATOM     32  O   UNL A   1      32.036  31.914  27.523  1.00  0.00    -0.460 OA
BRANCH  32  33
ATOM     33  C   UNL A   1      32.869  32.970  27.638  1.00  0.00     0.338 C 
ATOM     34  O   UNL A   1      32.564  34.151  27.612  1.00  0.00    -0.246 OA
BRANCH  33  35
ATOM     35  C   UNL A   1      34.199  32.444  27.997  1.00  0.00     0.060 A 
ATOM     36  C   UNL A   1      34.332  31.092  28.345  1.00  0.00     0.016 A 
ATOM     37  C   UNL A   1      35.311  33.289  27.993  1.00  0.00     0.016 A 
ATOM     38  C   UNL A   1      35.574  30.587  28.725  1.00  0.00     0.010 A 
ATOM     39  C   UNL A   1      36.546  32.793  28.415  1.00  0.00     0.010 A 
ATOM     40  C   UNL A   1      36.669  31.453  28.822  1.00  0.00    -0.014 A 
BRANCH  40  41
ATOM     41  C   UNL A   1      37.851  31.044  29.616  1.00  0.00     0.031 A 
ATOM     42  C   UNL A   1      38.757  30.005  29.016  1.00  0.00     0.074 A 
ATOM     43  C   UNL A   1      38.108  31.556  30.831  1.00  0.00     0.049 A 
ATOM     44  N   UNL A   1      39.778  29.395  29.551  1.00  0.00    -0.248 NA
ATOM     45  C   UNL A   1      38.471  29.600  27.627  1.00  0.00     0.031 C 
ATOM     46  C   UNL A   1      37.327  32.599  31.489  1.00  0.00     0.029 A 
ATOM     47  N   UNL A   1      39.091  31.241  31.737  1.00  0.00    -0.354 N 
ATOM     48  C   UNL A   1      40.249  28.529  28.572  1.00  0.00     0.074 A 
ATOM     49  C   UNL A   1      39.399  28.678  27.416  1.00  0.00     0.031 C 
ATOM     50  C   UNL A   1      37.834  32.808  32.716  1.00  0.00     0.029 A 
ATOM     51  C   UNL A   1      38.950  31.886  32.943  1.00  0.00     0.049 A 
ATOM     52  H   UNL A   1      39.825  30.615  31.542  1.00  0.00     0.167 HD
ATOM     53  C   UNL A   1      41.299  27.684  28.638  1.00  0.00     0.034 A 
ATOM     54  C   UNL A   1      39.611  31.717  34.109  1.00  0.00     0.034 A 
ATOM     55  C   UNL A   1      42.141  27.542  29.792  1.00  0.00     0.049 A 
ATOM     56  C   UNL A   1      40.748  30.725  34.180  1.00  0.00     0.074 A 
ATOM     57  C   UNL A   1      43.245  26.724  29.940  1.00  0.00     0.029 A 
ATOM     58  N   UNL A   1      41.975  28.221  30.988  1.00  0.00    -0.354 N 
ATOM     59  N   UNL A   1      41.215  29.943  33.235  1.00  0.00    -0.248 NA
ATOM     60  C   UNL A   1      41.453  30.590  35.463  1.00  0.00     0.031 C 
ATOM     61  C   UNL A   1      43.712  26.861  31.245  1.00  0.00     0.029 A 
ATOM     62  C   UNL A   1      42.945  27.821  31.887  1.00  0.00     0.049 A 
ATOM     63  H   UNL A   1      41.273  28.887  31.169  1.00  0.00     0.167 HD
ATOM     64  C   UNL A   1      42.281  29.248  33.800  1.00  0.00     0.074 A 
ATOM     65  C   UNL A   1      42.400  29.707  35.167  1.00  0.00     0.031 C 
ATOM     66  C   UNL A   1      43.084  28.313  33.235  1.00  0.00     0.034 A 
BRANCH  53  67
ATOM     67  C   UNL A   1      41.627  26.836  27.442  1.00  0.00     0.023 A 
ATOM     68  C   UNL A   1      41.338  25.461  27.471  1.00  0.00     0.031 A 
ATOM     69  C   UNL A   1      42.376  27.347  26.370  1.00  0.00     0.131 A 
ATOM     70  C   UNL A   1      41.857  24.626  26.477  1.00  0.00     0.055 A 
ATOM     71  C   UNL A   1      42.857  26.516  25.360  1.00  0.00     0.041 A 
ATOM     72  F   UNL A   1      42.660  28.658  26.301  1.00  0.00    -0.206 F 
ATOM     73  C   UNL A   1      42.614  25.146  25.420  1.00  0.00     0.022 A 
BRANCH  70  74
ATOM     74  S   UNL A   1      41.623  22.832  26.556  1.00  0.00     0.124 S 
ATOM     75  O   UNL A   1      40.284  22.674  25.991  1.00  0.00    -0.237 OA
ATOM     76  O   UNL A   1      42.716  22.345  25.720  1.00  0.00    -0.237 OA
ATOM     77  O   UNL A   1      41.728  22.529  27.980  1.00  0.00    -0.744 OA
ENDBRANCH  70  74
ENDBRANCH  53  67
BRANCH  54  78
ATOM     78  C   UNL A   1      39.189  32.505  35.301  1.00  0.00     0.023 A 
ATOM     79  C   UNL A   1      39.642  33.825  35.477  1.00  0.00     0.031 A 
ATOM     80  C   UNL A   1      38.403  31.935  36.315  1.00  0.00     0.131 A 
ATOM     81  C   UNL A   1      39.359  34.507  36.666  1.00  0.00     0.055 A 
ATOM     82  C   UNL A   1      38.069  32.642  37.472  1.00  0.00     0.041 A 
ATOM     83  F   UNL A   1      37.949  30.678  36.192  1.00  0.00    -0.206 F 
ATOM     84  C   UNL A   1      38.562  33.931  37.658  1.00  0.00     0.022 A 
BRANCH  81  85
ATOM     85  S   UNL A   1      40.104  36.126  37.004  1.00  0.00     0.124 S 
ATOM     86  O   UNL A   1      39.294  36.609  38.118  1.00  0.00    -0.237 OA
ATOM     87  O   UNL A   1      41.477  35.753  37.336  1.00  0.00    -0.237 OA
ATOM     88  O   UNL A   1      39.940  36.849  35.748  1.00  0.00    -0.744 OA
ENDBRANCH  81  85
ENDBRANCH  54  78
BRANCH  66  89
ATOM     89  C   UNL A   1      44.207  27.712  34.042  1.00  0.00     0.023 A 
ATOM     90  C   UNL A   1      43.985  26.515  34.752  1.00  0.00     0.031 A 
ATOM     91  C   UNL A   1      45.392  28.425  34.286  1.00  0.00     0.131 A 
ATOM     92  C   UNL A   1      44.904  26.102  35.724  1.00  0.00     0.055 A 
ATOM     93  C   UNL A   1      46.327  27.983  35.223  1.00  0.00     0.041 A 
ATOM     94  F   UNL A   1      45.639  29.576  33.642  1.00  0.00    -0.206 F 
ATOM     95  C   UNL A   1      46.076  26.828  35.959  1.00  0.00     0.022 A 
BRANCH  92  96
ATOM     96  S   UNL A   1      44.565  24.664  36.776  1.00  0.00     0.124 S 
ATOM     97  O   UNL A   1      43.456  24.025  36.070  1.00  0.00    -0.237 OA
ATOM     98  O   UNL A   1      45.834  23.943  36.727  1.00  0.00    -0.237 OA
ATOM     99  O   UNL A   1      44.220  25.248  38.068  1.00  0.00    -0.744 OA
ENDBRANCH  92  96
ENDBRANCH  66  89
ENDBRANCH  40  41
ENDBRANCH  33  35
ENDBRANCH  32  33
ENDBRANCH  31  32
ENDBRANCH  30  31
ENDBRANCH  29  30
ENDBRANCH  28  29
ENDBRANCH   1  28
TORSDOF 25
ENDMDL
