MODEL 1
REMARK VINA RESULT:      -9.5      0.000      0.000
REMARK SMILES C[C@@H](C(=O)OCCOCCOCCOCCOC(=O)c1ccc(-c2c3nc(c(-c4cc(S(=O)(=O)[O-])ccc4F)c4ccc([nH]4)c(-c4cc(S(=O)(=O)[O-])ccc4F)c4nc(c(-c5cc(S(=O)(=O)[O-])ccc5F)c5ccc2[nH]5)C=C4)C=C3)cc1)c1ccc2c3cc(Cl)ccc3n(C(=O)c3ccc(Cl)cc3)c2c1
REMARK SMILES IDX 11 1 10 2 9 3 8 4 7 5 6 6 5 7 3 8 4 9 2 10 1 11 83 12 84 13
REMARK SMILES IDX 105 14 85 15 104 16 86 17 94 18 87 19 93 20 88 21 92 22
REMARK SMILES IDX 89 23 91 24 90 25 95 26 96 27 97 28 98 29 103 30 99 31
REMARK SMILES IDX 102 32 100 33 101 34 12 35 13 36 14 37 15 38 16 39 17 40
REMARK SMILES IDX 18 41 19 42 20 43 21 44 82 45 22 46 81 47 23 48 24 49 25 50
REMARK SMILES IDX 75 51 26 52 80 53 74 54 76 55 27 56 79 57 73 58 72 59 28 61
REMARK SMILES IDX 60 62 40 63 59 64 41 65 44 66 58 67 77 68 42 69 43 70 57 72
REMARK SMILES IDX 78 73 45 74 29 75 30 76 38 77 31 78 37 79 39 80 36 81 32 82
REMARK SMILES IDX 33 83 34 84 35 85 61 86 62 87 70 88 63 89 69 90 71 91 68 92
REMARK SMILES IDX 64 93 65 94 66 95 67 96 46 97 47 98 55 99 48 100 54 101
REMARK SMILES IDX 56 102 53 103 49 104 50 105 51 106 52 107
REMARK H PARENT 76 60 44 71
REMARK Flexibility Score: inf
ROOT
ATOM      1  O   UNL A   1      40.661  21.259  27.614  1.00  0.00    -0.377 OA
ENDROOT
BRANCH   1   2
ATOM      2  C   UNL A   1      40.065  21.911  26.510  1.00  0.00     0.188 C 
BRANCH   2   3
ATOM      3  C   UNL A   1      38.992  21.113  25.753  1.00  0.00     0.188 C 
BRANCH   3   4
ATOM      4  O   UNL A   1      37.984  21.859  25.105  1.00  0.00    -0.376 OA
BRANCH   4   5
ATOM      5  C   UNL A   1      37.622  23.157  25.554  1.00  0.00     0.202 C 
BRANCH   5   6
ATOM      6  C   UNL A   1      36.186  23.682  25.772  1.00  0.00     0.261 C 
BRANCH   6   7
ATOM      7  O   UNL A   1      35.572  24.369  24.679  1.00  0.00    -0.463 OA
BRANCH   7   8
ATOM      8  C   UNL A   1      34.939  23.630  23.741  1.00  0.00     0.313 C 
ATOM      9  O   UNL A   1      35.490  23.150  22.755  1.00  0.00    -0.252 OA
BRANCH   8  10
ATOM     10  C   UNL A   1      33.467  23.351  24.095  1.00  0.00     0.126 C 
ATOM     11  C   UNL A   1      32.968  22.010  23.529  1.00  0.00     0.025 C 
BRANCH  10  12
ATOM     12  C   UNL A   1      32.568  24.582  23.886  1.00  0.00    -0.032 A 
ATOM     13  C   UNL A   1      31.913  24.736  22.658  1.00  0.00     0.005 A 
ATOM     14  C   UNL A   1      32.412  25.602  24.848  1.00  0.00     0.032 A 
ATOM     15  C   UNL A   1      31.058  25.809  22.408  1.00  0.00     0.011 A 
ATOM     16  C   UNL A   1      31.622  26.752  24.560  1.00  0.00     0.057 A 
ATOM     17  C   UNL A   1      30.915  26.828  23.365  1.00  0.00     0.008 A 
ATOM     18  N   UNL A   1      31.371  27.942  25.289  1.00  0.00    -0.276 N 
ATOM     19  C   UNL A   1      30.215  28.058  23.346  1.00  0.00     0.009 A 
ATOM     20  C   UNL A   1      30.649  28.809  24.445  1.00  0.00     0.057 A 
ATOM     21  C   UNL A   1      29.349  28.625  22.385  1.00  0.00     0.031 A 
ATOM     22  C   UNL A   1      30.379  30.194  24.483  1.00  0.00     0.029 A 
ATOM     23  C   UNL A   1      29.035  29.974  22.465  1.00  0.00     0.041 A 
ATOM     24  C   UNL A   1      29.575  30.758  23.476  1.00  0.00     0.023 A 
ATOM     25  Cl  UNL A   1      28.032  30.681  21.258  1.00  0.00    -0.084 Cl
BRANCH  18  26
ATOM     26  C   UNL A   1      31.873  28.175  26.605  1.00  0.00     0.262 C 
ATOM     27  O   UNL A   1      31.269  27.604  27.516  1.00  0.00    -0.268 OA
BRANCH  26  28
ATOM     28  C   UNL A   1      33.000  29.029  27.091  1.00  0.00     0.040 A 
ATOM     29  C   UNL A   1      32.661  30.354  27.456  1.00  0.00     0.015 A 
ATOM     30  C   UNL A   1      34.354  28.686  27.054  1.00  0.00     0.015 A 
ATOM     31  C   UNL A   1      33.633  31.306  27.767  1.00  0.00     0.021 A 
ATOM     32  C   UNL A   1      35.334  29.636  27.400  1.00  0.00     0.021 A 
ATOM     33  C   UNL A   1      34.971  30.941  27.740  1.00  0.00     0.041 A 
ATOM     34  Cl  UNL A   1      36.178  32.115  28.092  1.00  0.00    -0.084 Cl
ENDBRANCH  26  28
ENDBRANCH  18  26
ENDBRANCH  10  12
ENDBRANCH   8  10
ENDBRANCH   7   8
ENDBRANCH   6   7
ENDBRANCH   5   6
ENDBRANCH   4   5
ENDBRANCH   3   4
ENDBRANCH   2   3
ENDBRANCH   1   2
BRANCH   1  35
ATOM     35  C   UNL A   1      41.944  20.660  27.463  1.00  0.00     0.188 C 
BRANCH  35  36
ATOM     36  C   UNL A   1      42.193  19.519  26.454  1.00  0.00     0.188 C 
BRANCH  36  37
ATOM     37  O   UNL A   1      43.030  19.852  25.356  1.00  0.00    -0.376 OA
BRANCH  37  38
ATOM     38  C   UNL A   1      43.874  20.986  25.474  1.00  0.00     0.202 C 
BRANCH  38  39
ATOM     39  C   UNL A   1      43.974  21.927  24.262  1.00  0.00     0.261 C 
BRANCH  39  40
ATOM     40  O   UNL A   1      44.083  23.330  24.548  1.00  0.00    -0.460 OA
BRANCH  40  41
ATOM     41  C   UNL A   1      45.320  23.868  24.604  1.00  0.00     0.338 C 
ATOM     42  O   UNL A   1      46.255  23.626  23.856  1.00  0.00    -0.246 OA
BRANCH  41  43
ATOM     43  C   UNL A   1      45.297  24.956  25.603  1.00  0.00     0.060 A 
ATOM     44  C   UNL A   1      46.500  25.368  26.188  1.00  0.00     0.016 A 
ATOM     45  C   UNL A   1      44.092  25.567  25.958  1.00  0.00     0.016 A 
ATOM     46  C   UNL A   1      46.497  26.369  27.161  1.00  0.00     0.010 A 
ATOM     47  C   UNL A   1      44.088  26.554  26.948  1.00  0.00     0.010 A 
ATOM     48  C   UNL A   1      45.287  26.935  27.579  1.00  0.00    -0.014 A 
BRANCH  48  49
ATOM     49  C   UNL A   1      45.247  27.759  28.814  1.00  0.00     0.031 A 
ATOM     50  C   UNL A   1      45.138  27.049  30.138  1.00  0.00     0.074 A 
ATOM     51  C   UNL A   1      45.336  29.101  28.771  1.00  0.00     0.049 A 
ATOM     52  N   UNL A   1      45.016  27.543  31.342  1.00  0.00    -0.248 NA
ATOM     53  C   UNL A   1      45.166  25.579  30.089  1.00  0.00     0.031 C 
ATOM     54  C   UNL A   1      45.502  29.898  27.558  1.00  0.00     0.029 A 
ATOM     55  N   UNL A   1      45.288  30.031  29.782  1.00  0.00    -0.354 N 
ATOM     56  C   UNL A   1      44.948  26.446  32.194  1.00  0.00     0.074 A 
ATOM     57  C   UNL A   1      44.998  25.263  31.363  1.00  0.00     0.031 C 
ATOM     58  C   UNL A   1      45.530  31.200  27.893  1.00  0.00     0.029 A 
ATOM     59  C   UNL A   1      45.337  31.332  29.337  1.00  0.00     0.049 A 
ATOM     60  H   UNL A   1      45.225  29.789  30.734  1.00  0.00     0.167 HD
ATOM     61  C   UNL A   1      44.862  26.427  33.548  1.00  0.00     0.034 A 
ATOM     62  C   UNL A   1      45.205  32.492  30.015  1.00  0.00     0.034 A 
ATOM     63  C   UNL A   1      44.795  27.616  34.360  1.00  0.00     0.049 A 
ATOM     64  C   UNL A   1      45.001  32.448  31.513  1.00  0.00     0.074 A 
ATOM     65  C   UNL A   1      44.706  27.714  35.738  1.00  0.00     0.029 A 
ATOM     66  N   UNL A   1      44.795  28.916  33.872  1.00  0.00    -0.354 N 
ATOM     67  N   UNL A   1      44.934  31.405  32.310  1.00  0.00    -0.248 NA
ATOM     68  C   UNL A   1      44.860  33.737  32.203  1.00  0.00     0.031 C 
ATOM     69  C   UNL A   1      44.567  29.063  36.074  1.00  0.00     0.029 A 
ATOM     70  C   UNL A   1      44.669  29.819  34.917  1.00  0.00     0.049 A 
ATOM     71  H   UNL A   1      44.872  29.161  32.921  1.00  0.00     0.167 HD
ATOM     72  C   UNL A   1      44.782  31.917  33.597  1.00  0.00     0.074 A 
ATOM     73  C   UNL A   1      44.780  33.360  33.471  1.00  0.00     0.031 C 
ATOM     74  C   UNL A   1      44.661  31.257  34.778  1.00  0.00     0.034 A 
BRANCH  61  75
ATOM     75  C   UNL A   1      44.779  25.077  34.219  1.00  0.00     0.023 A 
ATOM     76  C   UNL A   1      45.929  24.328  34.526  1.00  0.00     0.031 A 
ATOM     77  C   UNL A   1      43.527  24.514  34.528  1.00  0.00     0.131 A 
ATOM     78  C   UNL A   1      45.802  23.034  35.052  1.00  0.00     0.055 A 
ATOM     79  C   UNL A   1      43.412  23.261  35.132  1.00  0.00     0.041 A 
ATOM     80  F   UNL A   1      42.392  25.168  34.233  1.00  0.00    -0.206 F 
ATOM     81  C   UNL A   1      44.552  22.506  35.384  1.00  0.00     0.022 A 
BRANCH  78  82
ATOM     82  S   UNL A   1      47.283  21.990  35.150  1.00  0.00     0.124 S 
ATOM     83  O   UNL A   1      47.525  21.959  36.590  1.00  0.00    -0.237 OA
ATOM     84  O   UNL A   1      46.828  20.740  34.551  1.00  0.00    -0.237 OA
ATOM     85  O   UNL A   1      48.276  22.730  34.375  1.00  0.00    -0.744 OA
ENDBRANCH  78  82
ENDBRANCH  61  75
BRANCH  62  86
ATOM     86  C   UNL A   1      45.207  33.798  29.289  1.00  0.00     0.023 A 
ATOM     87  C   UNL A   1      44.056  34.275  28.640  1.00  0.00     0.031 A 
ATOM     88  C   UNL A   1      46.387  34.556  29.176  1.00  0.00     0.131 A 
ATOM     89  C   UNL A   1      44.123  35.446  27.868  1.00  0.00     0.055 A 
ATOM     90  C   UNL A   1      46.431  35.754  28.460  1.00  0.00     0.041 A 
ATOM     91  F   UNL A   1      47.519  34.143  29.766  1.00  0.00    -0.206 F 
ATOM     92  C   UNL A   1      45.297  36.198  27.788  1.00  0.00     0.022 A 
BRANCH  89  93
ATOM     93  S   UNL A   1      42.676  35.922  26.882  1.00  0.00     0.124 S 
ATOM     94  O   UNL A   1      41.596  35.769  27.850  1.00  0.00    -0.237 OA
ATOM     95  O   UNL A   1      43.007  37.290  26.499  1.00  0.00    -0.237 OA
ATOM     96  O   UNL A   1      42.676  34.953  25.788  1.00  0.00    -0.744 OA
ENDBRANCH  89  93
ENDBRANCH  62  86
BRANCH  74  97
ATOM     97  C   UNL A   1      44.574  32.092  36.036  1.00  0.00     0.023 A 
ATOM     98  C   UNL A   1      43.343  32.478  36.592  1.00  0.00     0.031 A 
ATOM     99  C   UNL A   1      45.751  32.507  36.689  1.00  0.00     0.131 A 
ATOM    100  C   UNL A   1      43.316  33.304  37.728  1.00  0.00     0.055 A 
ATOM    101  C   UNL A   1      45.717  33.267  37.858  1.00  0.00     0.041 A 
ATOM    102  F   UNL A   1      46.957  32.172  36.202  1.00  0.00    -0.206 F 
ATOM    103  C   UNL A   1      44.494  33.682  38.376  1.00  0.00     0.022 A 
BRANCH 100 104
ATOM    104  S   UNL A   1      41.723  33.964  38.288  1.00  0.00     0.124 S 
ATOM    105  O   UNL A   1      41.147  32.819  38.985  1.00  0.00    -0.237 OA
ATOM    106  O   UNL A   1      42.128  35.085  39.131  1.00  0.00    -0.237 OA
ATOM    107  O   UNL A   1      41.049  34.337  37.046  1.00  0.00    -0.744 OA
ENDBRANCH 100 104
ENDBRANCH  74  97
ENDBRANCH  48  49
ENDBRANCH  41  43
ENDBRANCH  40  41
ENDBRANCH  39  40
ENDBRANCH  38  39
ENDBRANCH  37  38
ENDBRANCH  36  37
ENDBRANCH  35  36
ENDBRANCH   1  35
TORSDOF 26
ENDMDL
MODEL 2
REMARK VINA RESULT:      -9.3      4.524      6.478
REMARK SMILES C[C@@H](C(=O)OCCOCCOCCOCCOC(=O)c1ccc(-c2c3nc(c(-c4cc(S(=O)(=O)[O-])ccc4F)c4ccc([nH]4)c(-c4cc(S(=O)(=O)[O-])ccc4F)c4nc(c(-c5cc(S(=O)(=O)[O-])ccc5F)c5ccc2[nH]5)C=C4)C=C3)cc1)c1ccc2c3cc(Cl)ccc3n(C(=O)c3ccc(Cl)cc3)c2c1
REMARK SMILES IDX 11 1 10 2 9 3 8 4 7 5 6 6 5 7 3 8 4 9 2 10 1 11 83 12 84 13
REMARK SMILES IDX 105 14 85 15 104 16 86 17 94 18 87 19 93 20 88 21 92 22
REMARK SMILES IDX 89 23 91 24 90 25 95 26 96 27 97 28 98 29 103 30 99 31
REMARK SMILES IDX 102 32 100 33 101 34 12 35 13 36 14 37 15 38 16 39 17 40
REMARK SMILES IDX 18 41 19 42 20 43 21 44 82 45 22 46 81 47 23 48 24 49 25 50
REMARK SMILES IDX 75 51 26 52 80 53 74 54 76 55 27 56 79 57 73 58 72 59 28 61
REMARK SMILES IDX 60 62 40 63 59 64 41 65 44 66 58 67 77 68 42 69 43 70 57 72
REMARK SMILES IDX 78 73 45 74 29 75 30 76 38 77 31 78 37 79 39 80 36 81 32 82
REMARK SMILES IDX 33 83 34 84 35 85 61 86 62 87 70 88 63 89 69 90 71 91 68 92
REMARK SMILES IDX 64 93 65 94 66 95 67 96 46 97 47 98 55 99 48 100 54 101
REMARK SMILES IDX 56 102 53 103 49 104 50 105 51 106 52 107
REMARK H PARENT 76 60 44 71
REMARK Flexibility Score: inf
ROOT
ATOM      1  O   UNL A   1      41.931  20.803  27.166  1.00  0.00    -0.377 OA
ENDROOT
BRANCH   1   2
ATOM      2  C   UNL A   1      40.796  21.048  26.359  1.00  0.00     0.188 C 
BRANCH   2   3
ATOM      3  C   UNL A   1      40.027  22.345  26.651  1.00  0.00     0.188 C 
BRANCH   3   4
ATOM      4  O   UNL A   1      38.717  22.439  26.132  1.00  0.00    -0.376 OA
BRANCH   4   5
ATOM      5  C   UNL A   1      38.109  21.344  25.463  1.00  0.00     0.202 C 
BRANCH   5   6
ATOM      6  C   UNL A   1      36.627  21.238  25.041  1.00  0.00     0.261 C 
BRANCH   6   7
ATOM      7  O   UNL A   1      35.658  21.813  25.921  1.00  0.00    -0.463 OA
BRANCH   7   8
ATOM      8  C   UNL A   1      34.691  22.587  25.380  1.00  0.00     0.313 C 
ATOM      9  O   UNL A   1      33.502  22.284  25.350  1.00  0.00    -0.252 OA
BRANCH   8  10
ATOM     10  C   UNL A   1      35.218  23.953  24.903  1.00  0.00     0.126 C 
ATOM     11  C   UNL A   1      36.404  24.453  25.745  1.00  0.00     0.025 C 
BRANCH  10  12
ATOM     12  C   UNL A   1      34.085  24.953  24.615  1.00  0.00    -0.032 A 
ATOM     13  C   UNL A   1      33.360  24.824  23.423  1.00  0.00     0.005 A 
ATOM     14  C   UNL A   1      33.771  26.036  25.462  1.00  0.00     0.032 A 
ATOM     15  C   UNL A   1      32.300  25.674  23.111  1.00  0.00     0.011 A 
ATOM     16  C   UNL A   1      32.757  26.968  25.098  1.00  0.00     0.057 A 
ATOM     17  C   UNL A   1      31.999  26.758  23.952  1.00  0.00     0.008 A 
ATOM     18  N   UNL A   1      32.307  28.170  25.701  1.00  0.00    -0.276 N 
ATOM     19  C   UNL A   1      31.069  27.819  23.839  1.00  0.00     0.009 A 
ATOM     20  C   UNL A   1      31.392  28.770  24.814  1.00  0.00     0.057 A 
ATOM     21  C   UNL A   1      30.067  28.084  22.879  1.00  0.00     0.031 A 
ATOM     22  C   UNL A   1      30.855  30.071  24.711  1.00  0.00     0.029 A 
ATOM     23  C   UNL A   1      29.496  29.347  22.826  1.00  0.00     0.041 A 
ATOM     24  C   UNL A   1      29.912  30.341  23.702  1.00  0.00     0.023 A 
ATOM     25  Cl  UNL A   1      28.322  29.692  21.615  1.00  0.00    -0.084 Cl
BRANCH  18  26
ATOM     26  C   UNL A   1      32.809  28.657  26.946  1.00  0.00     0.262 C 
ATOM     27  O   UNL A   1      32.267  28.202  27.956  1.00  0.00    -0.268 OA
BRANCH  26  28
ATOM     28  C   UNL A   1      33.871  29.666  27.252  1.00  0.00     0.040 A 
ATOM     29  C   UNL A   1      35.193  29.169  27.329  1.00  0.00     0.015 A 
ATOM     30  C   UNL A   1      33.646  30.993  27.626  1.00  0.00     0.015 A 
ATOM     31  C   UNL A   1      36.255  29.961  27.769  1.00  0.00     0.021 A 
ATOM     32  C   UNL A   1      34.722  31.803  28.037  1.00  0.00     0.021 A 
ATOM     33  C   UNL A   1      36.015  31.282  28.120  1.00  0.00     0.041 A 
ATOM     34  Cl  UNL A   1      37.311  32.257  28.692  1.00  0.00    -0.084 Cl
ENDBRANCH  26  28
ENDBRANCH  18  26
ENDBRANCH  10  12
ENDBRANCH   8  10
ENDBRANCH   7   8
ENDBRANCH   6   7
ENDBRANCH   5   6
ENDBRANCH   4   5
ENDBRANCH   3   4
ENDBRANCH   2   3
ENDBRANCH   1   2
BRANCH   1  35
ATOM     35  C   UNL A   1      43.206  21.273  26.739  1.00  0.00     0.188 C 
BRANCH  35  36
ATOM     36  C   UNL A   1      43.688  21.103  25.283  1.00  0.00     0.188 C 
BRANCH  36  37
ATOM     37  O   UNL A   1      43.543  22.251  24.459  1.00  0.00    -0.376 OA
BRANCH  37  38
ATOM     38  C   UNL A   1      43.997  23.499  24.958  1.00  0.00     0.202 C 
BRANCH  38  39
ATOM     39  C   UNL A   1      42.981  24.652  25.018  1.00  0.00     0.261 C 
BRANCH  39  40
ATOM     40  O   UNL A   1      43.279  25.720  25.930  1.00  0.00    -0.460 OA
BRANCH  40  41
ATOM     41  C   UNL A   1      42.243  26.411  26.451  1.00  0.00     0.338 C 
ATOM     42  O   UNL A   1      41.115  25.990  26.657  1.00  0.00    -0.246 OA
BRANCH  41  43
ATOM     43  C   UNL A   1      42.758  27.713  26.922  1.00  0.00     0.060 A 
ATOM     44  C   UNL A   1      43.695  27.738  27.962  1.00  0.00     0.016 A 
ATOM     45  C   UNL A   1      42.320  28.903  26.337  1.00  0.00     0.016 A 
ATOM     46  C   UNL A   1      44.167  28.958  28.448  1.00  0.00     0.010 A 
ATOM     47  C   UNL A   1      42.777  30.125  26.839  1.00  0.00     0.010 A 
ATOM     48  C   UNL A   1      43.677  30.159  27.920  1.00  0.00    -0.014 A 
BRANCH  48  49
ATOM     49  C   UNL A   1      43.933  31.437  28.633  1.00  0.00     0.031 A 
ATOM     50  C   UNL A   1      43.058  31.782  29.808  1.00  0.00     0.074 A 
ATOM     51  C   UNL A   1      44.935  32.258  28.271  1.00  0.00     0.049 A 
ATOM     52  N   UNL A   1      43.036  32.862  30.544  1.00  0.00    -0.248 NA
ATOM     53  C   UNL A   1      42.067  30.766  30.199  1.00  0.00     0.031 C 
ATOM     54  C   UNL A   1      45.885  32.007  27.190  1.00  0.00     0.029 A 
ATOM     55  N   UNL A   1      45.313  33.480  28.774  1.00  0.00    -0.354 N 
ATOM     56  C   UNL A   1      42.030  32.659  31.482  1.00  0.00     0.074 A 
ATOM     57  C   UNL A   1      41.437  31.372  31.193  1.00  0.00     0.031 C 
ATOM     58  C   UNL A   1      46.730  33.050  27.101  1.00  0.00     0.029 A 
ATOM     59  C   UNL A   1      46.352  34.062  28.087  1.00  0.00     0.049 A 
ATOM     60  H   UNL A   1      44.880  33.899  29.553  1.00  0.00     0.167 HD
ATOM     61  C   UNL A   1      41.643  33.469  32.500  1.00  0.00     0.034 A 
ATOM     62  C   UNL A   1      46.911  35.285  28.217  1.00  0.00     0.034 A 
ATOM     63  C   UNL A   1      42.233  34.757  32.764  1.00  0.00     0.049 A 
ATOM     64  C   UNL A   1      46.392  36.217  29.289  1.00  0.00     0.074 A 
ATOM     65  C   UNL A   1      41.919  35.659  33.766  1.00  0.00     0.029 A 
ATOM     66  N   UNL A   1      43.249  35.337  32.016  1.00  0.00    -0.354 N 
ATOM     67  N   UNL A   1      45.436  36.017  30.170  1.00  0.00    -0.248 NA
ATOM     68  C   UNL A   1      47.030  37.537  29.389  1.00  0.00     0.031 C 
ATOM     69  C   UNL A   1      42.682  36.813  33.572  1.00  0.00     0.029 A 
ATOM     70  C   UNL A   1      43.546  36.598  32.510  1.00  0.00     0.049 A 
ATOM     71  H   UNL A   1      43.694  34.913  31.245  1.00  0.00     0.167 HD
ATOM     72  C   UNL A   1      45.388  37.172  30.948  1.00  0.00     0.074 A 
ATOM     73  C   UNL A   1      46.417  38.056  30.443  1.00  0.00     0.031 C 
ATOM     74  C   UNL A   1      44.572  37.474  31.992  1.00  0.00     0.034 A 
BRANCH  61  75
ATOM     75  C   UNL A   1      40.492  33.001  33.359  1.00  0.00     0.023 A 
ATOM     76  C   UNL A   1      39.154  33.262  33.014  1.00  0.00     0.031 A 
ATOM     77  C   UNL A   1      40.738  32.309  34.559  1.00  0.00     0.131 A 
ATOM     78  C   UNL A   1      38.121  32.903  33.891  1.00  0.00     0.055 A 
ATOM     79  C   UNL A   1      39.699  31.876  35.385  1.00  0.00     0.041 A 
ATOM     80  F   UNL A   1      41.994  32.055  34.957  1.00  0.00    -0.206 F 
ATOM     81  C   UNL A   1      38.382  32.186  35.062  1.00  0.00     0.022 A 
BRANCH  78  82
ATOM     82  S   UNL A   1      36.448  33.520  33.560  1.00  0.00     0.124 S 
ATOM     83  O   UNL A   1      35.728  33.075  34.750  1.00  0.00    -0.237 OA
ATOM     84  O   UNL A   1      36.660  34.959  33.442  1.00  0.00    -0.237 OA
ATOM     85  O   UNL A   1      36.071  32.841  32.323  1.00  0.00    -0.744 OA
ENDBRANCH  78  82
ENDBRANCH  61  75
BRANCH  62  86
ATOM     86  C   UNL A   1      47.987  35.730  27.283  1.00  0.00     0.023 A 
ATOM     87  C   UNL A   1      49.342  35.479  27.554  1.00  0.00     0.031 A 
ATOM     88  C   UNL A   1      47.676  36.479  26.133  1.00  0.00     0.131 A 
ATOM     89  C   UNL A   1      50.335  36.014  26.717  1.00  0.00     0.055 A 
ATOM     90  C   UNL A   1      48.665  36.953  25.268  1.00  0.00     0.041 A 
ATOM     91  F   UNL A   1      46.399  36.758  25.828  1.00  0.00    -0.206 F 
ATOM     92  C   UNL A   1      50.005  36.734  25.567  1.00  0.00     0.022 A 
BRANCH  89  93
ATOM     93  S   UNL A   1      52.072  35.842  27.210  1.00  0.00     0.124 S 
ATOM     94  O   UNL A   1      52.461  37.233  27.413  1.00  0.00    -0.237 OA
ATOM     95  O   UNL A   1      51.967  35.023  28.412  1.00  0.00    -0.237 OA
ATOM     96  O   UNL A   1      52.689  35.183  26.061  1.00  0.00    -0.744 OA
ENDBRANCH  89  93
ENDBRANCH  62  86
BRANCH  74  97
ATOM     97  C   UNL A   1      44.799  38.794  32.694  1.00  0.00     0.023 A 
ATOM     98  C   UNL A   1      44.021  39.931  32.415  1.00  0.00     0.031 A 
ATOM     99  C   UNL A   1      45.815  38.913  33.660  1.00  0.00     0.131 A 
ATOM    100  C   UNL A   1      44.309  41.150  33.051  1.00  0.00     0.055 A 
ATOM    101  C   UNL A   1      46.052  40.108  34.340  1.00  0.00     0.041 A 
ATOM    102  F   UNL A   1      46.594  37.862  33.965  1.00  0.00    -0.206 F 
ATOM    103  C   UNL A   1      45.306  41.239  34.026  1.00  0.00     0.022 A 
BRANCH 100 104
ATOM    104  S   UNL A   1      43.436  42.644  32.509  1.00  0.00     0.124 S 
ATOM    105  O   UNL A   1      44.377  43.216  31.552  1.00  0.00    -0.237 OA
ATOM    106  O   UNL A   1      42.205  42.099  31.945  1.00  0.00    -0.237 OA
ATOM    107  O   UNL A   1      43.265  43.408  33.743  1.00  0.00    -0.744 OA
ENDBRANCH 100 104
ENDBRANCH  74  97
ENDBRANCH  48  49
ENDBRANCH  41  43
ENDBRANCH  40  41
ENDBRANCH  39  40
ENDBRANCH  38  39
ENDBRANCH  37  38
ENDBRANCH  36  37
ENDBRANCH  35  36
ENDBRANCH   1  35
TORSDOF 26
ENDMDL
MODEL 3
REMARK VINA RESULT:      -8.9      5.493      8.840
REMARK SMILES C[C@@H](C(=O)OCCOCCOCCOCCOC(=O)c1ccc(-c2c3nc(c(-c4cc(S(=O)(=O)[O-])ccc4F)c4ccc([nH]4)c(-c4cc(S(=O)(=O)[O-])ccc4F)c4nc(c(-c5cc(S(=O)(=O)[O-])ccc5F)c5ccc2[nH]5)C=C4)C=C3)cc1)c1ccc2c3cc(Cl)ccc3n(C(=O)c3ccc(Cl)cc3)c2c1
REMARK SMILES IDX 11 1 10 2 9 3 8 4 7 5 6 6 5 7 3 8 4 9 2 10 1 11 83 12 84 13
REMARK SMILES IDX 105 14 85 15 104 16 86 17 94 18 87 19 93 20 88 21 92 22
REMARK SMILES IDX 89 23 91 24 90 25 95 26 96 27 97 28 98 29 103 30 99 31
REMARK SMILES IDX 102 32 100 33 101 34 12 35 13 36 14 37 15 38 16 39 17 40
REMARK SMILES IDX 18 41 19 42 20 43 21 44 82 45 22 46 81 47 23 48 24 49 25 50
REMARK SMILES IDX 75 51 26 52 80 53 74 54 76 55 27 56 79 57 73 58 72 59 28 61
REMARK SMILES IDX 60 62 40 63 59 64 41 65 44 66 58 67 77 68 42 69 43 70 57 72
REMARK SMILES IDX 78 73 45 74 29 75 30 76 38 77 31 78 37 79 39 80 36 81 32 82
REMARK SMILES IDX 33 83 34 84 35 85 61 86 62 87 70 88 63 89 69 90 71 91 68 92
REMARK SMILES IDX 64 93 65 94 66 95 67 96 46 97 47 98 55 99 48 100 54 101
REMARK SMILES IDX 56 102 53 103 49 104 50 105 51 106 52 107
REMARK H PARENT 76 60 44 71
REMARK Flexibility Score: inf
ROOT
ATOM      1  O   UNL A   1      38.089  24.155  26.172  1.00  0.00    -0.377 OA
ENDROOT
BRANCH   1   2
ATOM      2  C   UNL A   1      37.227  23.312  25.431  1.00  0.00     0.188 C 
BRANCH   2   3
ATOM      3  C   UNL A   1      35.749  23.325  25.846  1.00  0.00     0.188 C 
BRANCH   3   4
ATOM      4  O   UNL A   1      34.831  22.737  24.949  1.00  0.00    -0.376 OA
BRANCH   4   5
ATOM      5  C   UNL A   1      34.591  23.297  23.666  1.00  0.00     0.202 C 
BRANCH   5   6
ATOM      6  C   UNL A   1      33.970  24.680  23.373  1.00  0.00     0.261 C 
BRANCH   6   7
ATOM      7  O   UNL A   1      34.327  25.752  24.249  1.00  0.00    -0.463 OA
BRANCH   7   8
ATOM      8  C   UNL A   1      33.443  26.762  24.408  1.00  0.00     0.313 C 
ATOM      9  O   UNL A   1      33.000  27.441  23.487  1.00  0.00    -0.252 OA
BRANCH   8  10
ATOM     10  C   UNL A   1      32.953  26.902  25.862  1.00  0.00     0.126 C 
ATOM     11  C   UNL A   1      31.528  26.358  26.059  1.00  0.00     0.025 C 
BRANCH  10  12
ATOM     12  C   UNL A   1      33.269  28.285  26.458  1.00  0.00    -0.032 A 
ATOM     13  C   UNL A   1      32.495  29.382  26.060  1.00  0.00     0.005 A 
ATOM     14  C   UNL A   1      34.340  28.522  27.345  1.00  0.00     0.032 A 
ATOM     15  C   UNL A   1      32.702  30.658  26.582  1.00  0.00     0.011 A 
ATOM     16  C   UNL A   1      34.621  29.842  27.801  1.00  0.00     0.057 A 
ATOM     17  C   UNL A   1      33.777  30.891  27.456  1.00  0.00     0.008 A 
ATOM     18  N   UNL A   1      35.663  30.370  28.605  1.00  0.00    -0.276 N 
ATOM     19  C   UNL A   1      34.281  32.074  28.047  1.00  0.00     0.009 A 
ATOM     20  C   UNL A   1      35.535  31.773  28.593  1.00  0.00     0.057 A 
ATOM     21  C   UNL A   1      33.808  33.405  28.025  1.00  0.00     0.031 A 
ATOM     22  C   UNL A   1      36.407  32.828  28.939  1.00  0.00     0.029 A 
ATOM     23  C   UNL A   1      34.649  34.432  28.428  1.00  0.00     0.041 A 
ATOM     24  C   UNL A   1      35.945  34.153  28.841  1.00  0.00     0.023 A 
ATOM     25  Cl  UNL A   1      34.096  36.060  28.340  1.00  0.00    -0.084 Cl
BRANCH  18  26
ATOM     26  C   UNL A   1      36.673  29.561  29.208  1.00  0.00     0.262 C 
ATOM     27  O   UNL A   1      36.485  29.265  30.391  1.00  0.00    -0.268 OA
BRANCH  26  28
ATOM     28  C   UNL A   1      37.960  29.026  28.666  1.00  0.00     0.040 A 
ATOM     29  C   UNL A   1      38.556  29.780  27.627  1.00  0.00     0.015 A 
ATOM     30  C   UNL A   1      38.518  27.783  28.976  1.00  0.00     0.015 A 
ATOM     31  C   UNL A   1      39.664  29.313  26.918  1.00  0.00     0.021 A 
ATOM     32  C   UNL A   1      39.656  27.327  28.285  1.00  0.00     0.021 A 
ATOM     33  C   UNL A   1      40.214  28.084  27.253  1.00  0.00     0.041 A 
ATOM     34  Cl  UNL A   1      41.560  27.487  26.365  1.00  0.00    -0.084 Cl
ENDBRANCH  26  28
ENDBRANCH  18  26
ENDBRANCH  10  12
ENDBRANCH   8  10
ENDBRANCH   7   8
ENDBRANCH   6   7
ENDBRANCH   5   6
ENDBRANCH   4   5
ENDBRANCH   3   4
ENDBRANCH   2   3
ENDBRANCH   1   2
BRANCH   1  35
ATOM     35  C   UNL A   1      38.875  23.600  27.221  1.00  0.00     0.188 C 
BRANCH  35  36
ATOM     36  C   UNL A   1      40.388  23.346  27.054  1.00  0.00     0.188 C 
BRANCH  36  37
ATOM     37  O   UNL A   1      41.038  24.165  26.094  1.00  0.00    -0.376 OA
BRANCH  37  38
ATOM     38  C   UNL A   1      42.380  23.860  25.747  1.00  0.00     0.202 C 
BRANCH  38  39
ATOM     39  C   UNL A   1      43.058  22.695  26.488  1.00  0.00     0.261 C 
BRANCH  39  40
ATOM     40  O   UNL A   1      44.454  22.853  26.787  1.00  0.00    -0.460 OA
BRANCH  40  41
ATOM     41  C   UNL A   1      44.785  23.473  27.939  1.00  0.00     0.338 C 
ATOM     42  O   UNL A   1      44.522  23.099  29.071  1.00  0.00    -0.246 OA
BRANCH  41  43
ATOM     43  C   UNL A   1      45.701  24.585  27.608  1.00  0.00     0.060 A 
ATOM     44  C   UNL A   1      46.322  25.287  28.648  1.00  0.00     0.016 A 
ATOM     45  C   UNL A   1      45.947  24.928  26.277  1.00  0.00     0.016 A 
ATOM     46  C   UNL A   1      47.163  26.363  28.360  1.00  0.00     0.010 A 
ATOM     47  C   UNL A   1      46.772  26.020  25.991  1.00  0.00     0.010 A 
ATOM     48  C   UNL A   1      47.356  26.765  27.032  1.00  0.00    -0.014 A 
BRANCH  48  49
ATOM     49  C   UNL A   1      47.985  28.079  26.744  1.00  0.00     0.031 A 
ATOM     50  C   UNL A   1      49.460  28.109  26.443  1.00  0.00     0.074 A 
ATOM     51  C   UNL A   1      47.265  29.216  26.720  1.00  0.00     0.049 A 
ATOM     52  N   UNL A   1      50.247  29.131  26.231  1.00  0.00    -0.248 NA
ATOM     53  C   UNL A   1      50.135  26.803  26.378  1.00  0.00     0.031 C 
ATOM     54  C   UNL A   1      45.824  29.308  26.938  1.00  0.00     0.029 A 
ATOM     55  N   UNL A   1      47.658  30.515  26.508  1.00  0.00    -0.354 N 
ATOM     56  C   UNL A   1      51.511  28.593  26.012  1.00  0.00     0.074 A 
ATOM     57  C   UNL A   1      51.390  27.159  26.160  1.00  0.00     0.031 C 
ATOM     58  C   UNL A   1      45.454  30.599  26.861  1.00  0.00     0.029 A 
ATOM     59  C   UNL A   1      46.637  31.428  26.635  1.00  0.00     0.049 A 
ATOM     60  H   UNL A   1      48.583  30.769  26.285  1.00  0.00     0.167 HD
ATOM     61  C   UNL A   1      52.665  29.236  25.704  1.00  0.00     0.034 A 
ATOM     62  C   UNL A   1      46.663  32.778  26.608  1.00  0.00     0.034 A 
ATOM     63  C   UNL A   1      52.772  30.668  25.577  1.00  0.00     0.049 A 
ATOM     64  C   UNL A   1      47.981  33.482  26.371  1.00  0.00     0.074 A 
ATOM     65  C   UNL A   1      53.889  31.424  25.269  1.00  0.00     0.029 A 
ATOM     66  N   UNL A   1      51.727  31.565  25.764  1.00  0.00    -0.354 N 
ATOM     67  N   UNL A   1      49.172  32.964  26.168  1.00  0.00    -0.248 NA
ATOM     68  C   UNL A   1      47.956  34.951  26.353  1.00  0.00     0.031 C 
ATOM     69  C   UNL A   1      53.542  32.775  25.353  1.00  0.00     0.029 A 
ATOM     70  C   UNL A   1      52.183  32.866  25.616  1.00  0.00     0.049 A 
ATOM     71  H   UNL A   1      50.799  31.313  25.972  1.00  0.00     0.167 HD
ATOM     72  C   UNL A   1      50.027  34.045  25.962  1.00  0.00     0.074 A 
ATOM     73  C   UNL A   1      49.214  35.240  26.052  1.00  0.00     0.031 C 
ATOM     74  C   UNL A   1      51.363  34.051  25.714  1.00  0.00     0.034 A 
BRANCH  61  75
ATOM     75  C   UNL A   1      53.907  28.393  25.543  1.00  0.00     0.023 A 
ATOM     76  C   UNL A   1      54.713  28.040  26.641  1.00  0.00     0.031 A 
ATOM     77  C   UNL A   1      54.311  27.960  24.266  1.00  0.00     0.131 A 
ATOM     78  C   UNL A   1      55.913  27.346  26.434  1.00  0.00     0.055 A 
ATOM     79  C   UNL A   1      55.462  27.193  24.079  1.00  0.00     0.041 A 
ATOM     80  F   UNL A   1      53.599  28.288  23.177  1.00  0.00    -0.206 F 
ATOM     81  C   UNL A   1      56.280  26.894  25.164  1.00  0.00     0.022 A 
BRANCH  78  82
ATOM     82  S   UNL A   1      57.066  27.175  27.824  1.00  0.00     0.124 S 
ATOM     83  O   UNL A   1      57.491  28.558  28.025  1.00  0.00    -0.237 OA
ATOM     84  O   UNL A   1      56.220  26.608  28.868  1.00  0.00    -0.237 OA
ATOM     85  O   UNL A   1      58.100  26.284  27.305  1.00  0.00    -0.744 OA
ENDBRANCH  78  82
ENDBRANCH  61  75
BRANCH  62  86
ATOM     86  C   UNL A   1      45.419  33.565  26.862  1.00  0.00     0.023 A 
ATOM     87  C   UNL A   1      44.985  33.846  28.167  1.00  0.00     0.031 A 
ATOM     88  C   UNL A   1      44.607  33.990  25.794  1.00  0.00     0.131 A 
ATOM     89  C   UNL A   1      43.752  34.485  28.373  1.00  0.00     0.055 A 
ATOM     90  C   UNL A   1      43.412  34.682  26.003  1.00  0.00     0.041 A 
ATOM     91  F   UNL A   1      44.967  33.741  24.525  1.00  0.00    -0.206 F 
ATOM     92  C   UNL A   1      42.971  34.920  27.300  1.00  0.00     0.022 A 
BRANCH  89  93
ATOM     93  S   UNL A   1      43.129  34.648  30.069  1.00  0.00     0.124 S 
ATOM     94  O   UNL A   1      44.044  33.785  30.805  1.00  0.00    -0.237 OA
ATOM     95  O   UNL A   1      43.267  36.081  30.305  1.00  0.00    -0.237 OA
ATOM     96  O   UNL A   1      41.753  34.164  29.975  1.00  0.00    -0.744 OA
ENDBRANCH  89  93
ENDBRANCH  62  86
BRANCH  74  97
ATOM     97  C   UNL A   1      52.019  35.391  25.465  1.00  0.00     0.023 A 
ATOM     98  C   UNL A   1      52.351  36.266  26.513  1.00  0.00     0.031 A 
ATOM     99  C   UNL A   1      52.315  35.797  24.150  1.00  0.00     0.131 A 
ATOM    100  C   UNL A   1      52.904  37.525  26.226  1.00  0.00     0.055 A 
ATOM    101  C   UNL A   1      52.930  37.019  23.875  1.00  0.00     0.041 A 
ATOM    102  F   UNL A   1      52.017  35.005  23.107  1.00  0.00    -0.206 F 
ATOM    103  C   UNL A   1      53.214  37.897  24.916  1.00  0.00     0.022 A 
BRANCH 100 104
ATOM    104  S   UNL A   1      53.114  38.714  27.579  1.00  0.00     0.124 S 
ATOM    105  O   UNL A   1      54.082  38.033  28.434  1.00  0.00    -0.237 OA
ATOM    106  O   UNL A   1      53.605  39.899  26.881  1.00  0.00    -0.237 OA
ATOM    107  O   UNL A   1      51.771  38.839  28.140  1.00  0.00    -0.744 OA
ENDBRANCH 100 104
ENDBRANCH  74  97
ENDBRANCH  48  49
ENDBRANCH  41  43
ENDBRANCH  40  41
ENDBRANCH  39  40
ENDBRANCH  38  39
ENDBRANCH  37  38
ENDBRANCH  36  37
ENDBRANCH  35  36
ENDBRANCH   1  35
TORSDOF 26
ENDMDL
