MODEL 1
REMARK VINA RESULT:      -9.2      0.000      0.000
REMARK SMILES CCc1ccsc1CNC(=O)N1[C@H]2CC[C@@H]1[C@H](C(=O)OCCOCCOCCOCCOC(=O)c1ccc(-c3c4nc(c(-c5cc(S(=O)(=O)[O-])ccc5F)c5ccc([nH]5)c(-c5cc(S(=O)(=O)[O-])ccc5F)c5nc(c(-c6cc(S(=O)(=O)[O-])ccc6F)c6ccc3[nH]6)C=C5)C=C4)cc1)C2
REMARK SMILES IDX 25 1 24 2 23 3 22 4 21 5 20 6 18 7 19 8 17 9 12 10 13 11
REMARK SMILES IDX 16 12 14 13 98 14 15 15 10 16 9 17 11 19 8 20 7 21 3 22 4 23
REMARK SMILES IDX 5 24 6 25 2 26 1 27 26 28 27 29 28 30 29 31 30 32 31 33
REMARK SMILES IDX 32 34 33 35 34 36 35 37 36 38 97 39 37 40 96 41 38 42 39 43
REMARK SMILES IDX 40 44 90 45 41 46 95 47 89 48 91 49 42 50 94 51 88 52 87 53
REMARK SMILES IDX 43 55 75 56 55 57 74 58 56 59 59 60 73 61 92 62 57 63 58 64
REMARK SMILES IDX 72 66 93 67 60 68 44 69 45 70 53 71 46 72 52 73 54 74 51 75
REMARK SMILES IDX 47 76 48 77 49 78 50 79 76 80 77 81 85 82 78 83 84 84 86 85
REMARK SMILES IDX 83 86 79 87 80 88 81 89 82 90 61 91 62 92 70 93 63 94 69 95
REMARK SMILES IDX 71 96 68 97 64 98 65 99 66 100 67 101
REMARK H PARENT 9 18 91 54 59 65
REMARK Flexibility Score: inf
ROOT
ATOM      1  C   UNL A   1      42.269  20.956  26.965  1.00  0.00     0.188 C 
ENDROOT
BRANCH   1   2
ATOM      2  C   UNL A   1      41.032  21.459  26.212  1.00  0.00     0.188 C 
BRANCH   2   3
ATOM      3  O   UNL A   1      39.999  22.043  26.970  1.00  0.00    -0.376 OA
BRANCH   3   4
ATOM      4  C   UNL A   1      38.987  22.845  26.388  1.00  0.00     0.202 C 
BRANCH   4   5
ATOM      5  C   UNL A   1      37.581  22.393  25.947  1.00  0.00     0.261 C 
BRANCH   5   6
ATOM      6  O   UNL A   1      36.697  23.364  25.384  1.00  0.00    -0.463 OA
BRANCH   6   7
ATOM      7  C   UNL A   1      36.271  23.105  24.135  1.00  0.00     0.311 C 
ATOM      8  O   UNL A   1      36.770  22.259  23.395  1.00  0.00    -0.252 OA
BRANCH   7   9
ATOM      9  C   UNL A   1      35.126  23.957  23.665  1.00  0.00     0.124 C 
ATOM     10  N   UNL A   1      33.089  24.628  22.987  1.00  0.00    -0.318 N 
ATOM     11  C   UNL A   1      32.903  24.466  24.412  1.00  0.00     0.088 C 
ATOM     12  C   UNL A   1      33.982  23.511  22.726  1.00  0.00     0.101 C 
ATOM     13  C   UNL A   1      32.420  23.001  24.468  1.00  0.00     0.027 C 
ATOM     14  C   UNL A   1      34.359  24.488  24.903  1.00  0.00     0.042 C 
ATOM     15  C   UNL A   1      33.140  22.357  23.267  1.00  0.00     0.028 C 
BRANCH  10  16
ATOM     16  C   UNL A   1      32.718  25.532  22.057  1.00  0.00     0.318 C 
ATOM     17  N   UNL A   1      31.499  26.105  22.116  1.00  0.00    -0.333 N 
ATOM     18  H   UNL A   1      31.141  26.435  21.261  1.00  0.00     0.165 HD
ATOM     19  O   UNL A   1      33.482  25.910  21.168  1.00  0.00    -0.249 OA
BRANCH  17  20
ATOM     20  C   UNL A   1      30.651  26.300  23.264  1.00  0.00     0.165 C 
BRANCH  20  21
ATOM     21  C   UNL A   1      30.426  27.761  23.578  1.00  0.00     0.027 A 
ATOM     22  C   UNL A   1      31.199  28.547  24.432  1.00  0.00    -0.033 A 
ATOM     23  C   UNL A   1      30.736  29.906  24.440  1.00  0.00     0.016 A 
ATOM     24  C   UNL A   1      29.672  30.112  23.595  1.00  0.00     0.065 A 
ATOM     25  S   UNL A   1      29.217  28.685  22.784  1.00  0.00    -0.147 S 
BRANCH  22  26
ATOM     26  C   UNL A   1      32.375  27.997  25.198  1.00  0.00     0.033 C 
ATOM     27  C   UNL A   1      33.731  28.150  24.536  1.00  0.00     0.009 C 
ENDBRANCH  22  26
ENDBRANCH  20  21
ENDBRANCH  17  20
ENDBRANCH  10  16
ENDBRANCH   7   9
ENDBRANCH   6   7
ENDBRANCH   5   6
ENDBRANCH   4   5
ENDBRANCH   3   4
ENDBRANCH   2   3
ENDBRANCH   1   2
BRANCH   1  28
ATOM     28  O   UNL A   1      42.391  19.566  27.187  1.00  0.00    -0.377 OA
BRANCH  28  29
ATOM     29  C   UNL A   1      42.709  18.703  26.099  1.00  0.00     0.188 C 
BRANCH  29  30
ATOM     30  C   UNL A   1      43.664  19.144  24.969  1.00  0.00     0.188 C 
BRANCH  30  31
ATOM     31  O   UNL A   1      45.008  19.362  25.364  1.00  0.00    -0.376 OA
BRANCH  31  32
ATOM     32  C   UNL A   1      45.700  20.472  24.812  1.00  0.00     0.202 C 
BRANCH  32  33
ATOM     33  C   UNL A   1      45.728  21.778  25.624  1.00  0.00     0.261 C 
BRANCH  33  34
ATOM     34  O   UNL A   1      45.510  22.992  24.888  1.00  0.00    -0.460 OA
BRANCH  34  35
ATOM     35  C   UNL A   1      44.235  23.388  24.695  1.00  0.00     0.338 C 
ATOM     36  O   UNL A   1      43.365  22.789  24.083  1.00  0.00    -0.246 OA
BRANCH  35  37
ATOM     37  C   UNL A   1      44.006  24.589  25.523  1.00  0.00     0.060 A 
ATOM     38  C   UNL A   1      43.626  25.783  24.898  1.00  0.00     0.016 A 
ATOM     39  C   UNL A   1      44.170  24.535  26.909  1.00  0.00     0.016 A 
ATOM     40  C   UNL A   1      43.445  26.941  25.656  1.00  0.00     0.010 A 
ATOM     41  C   UNL A   1      44.010  25.700  27.663  1.00  0.00     0.010 A 
ATOM     42  C   UNL A   1      43.683  26.916  27.036  1.00  0.00    -0.014 A 
BRANCH  42  43
ATOM     43  C   UNL A   1      43.801  28.195  27.781  1.00  0.00     0.031 A 
ATOM     44  C   UNL A   1      42.554  28.782  28.384  1.00  0.00     0.074 A 
ATOM     45  C   UNL A   1      44.987  28.807  27.945  1.00  0.00     0.049 A 
ATOM     46  N   UNL A   1      42.389  29.906  29.029  1.00  0.00    -0.248 NA
ATOM     47  C   UNL A   1      41.324  27.988  28.229  1.00  0.00     0.031 C 
ATOM     48  C   UNL A   1      46.269  28.310  27.450  1.00  0.00     0.029 A 
ATOM     49  N   UNL A   1      45.301  29.991  28.567  1.00  0.00    -0.354 N 
ATOM     50  C   UNL A   1      41.036  29.963  29.348  1.00  0.00     0.074 A 
ATOM     51  C   UNL A   1      40.423  28.777  28.791  1.00  0.00     0.031 C 
ATOM     52  C   UNL A   1      47.231  29.191  27.775  1.00  0.00     0.029 A 
ATOM     53  C   UNL A   1      46.629  30.335  28.459  1.00  0.00     0.049 A 
ATOM     54  H   UNL A   1      44.640  30.540  29.046  1.00  0.00     0.167 HD
ATOM     55  C   UNL A   1      40.368  30.916  30.046  1.00  0.00     0.034 A 
ATOM     56  C   UNL A   1      47.273  31.459  28.838  1.00  0.00     0.034 A 
ATOM     57  C   UNL A   1      40.996  32.099  30.581  1.00  0.00     0.049 A 
ATOM     58  C   UNL A   1      46.495  32.551  29.534  1.00  0.00     0.074 A 
ATOM     59  C   UNL A   1      40.423  33.118  31.321  1.00  0.00     0.029 A 
ATOM     60  N   UNL A   1      42.334  32.437  30.414  1.00  0.00    -0.354 N 
ATOM     61  N   UNL A   1      45.219  32.588  29.847  1.00  0.00    -0.248 NA
ATOM     62  C   UNL A   1      47.245  33.748  29.937  1.00  0.00     0.031 C 
ATOM     63  C   UNL A   1      41.387  34.111  31.522  1.00  0.00     0.029 A 
ATOM     64  C   UNL A   1      42.592  33.669  30.998  1.00  0.00     0.049 A 
ATOM     65  H   UNL A   1      43.002  31.882  29.949  1.00  0.00     0.167 HD
ATOM     66  C   UNL A   1      45.023  33.799  30.511  1.00  0.00     0.074 A 
ATOM     67  C   UNL A   1      46.315  34.452  30.565  1.00  0.00     0.031 C 
ATOM     68  C   UNL A   1      43.882  34.319  31.035  1.00  0.00     0.034 A 
BRANCH  55  69
ATOM     69  C   UNL A   1      38.876  30.740  30.207  1.00  0.00     0.023 A 
ATOM     70  C   UNL A   1      37.958  31.285  29.291  1.00  0.00     0.031 A 
ATOM     71  C   UNL A   1      38.363  30.052  31.320  1.00  0.00     0.131 A 
ATOM     72  C   UNL A   1      36.581  31.202  29.547  1.00  0.00     0.055 A 
ATOM     73  C   UNL A   1      36.990  29.894  31.521  1.00  0.00     0.041 A 
ATOM     74  F   UNL A   1      39.187  29.533  32.244  1.00  0.00    -0.206 F 
ATOM     75  C   UNL A   1      36.090  30.486  30.641  1.00  0.00     0.022 A 
BRANCH  72  76
ATOM     76  S   UNL A   1      35.449  32.183  28.525  1.00  0.00     0.124 S 
ATOM     77  O   UNL A   1      35.046  31.208  27.513  1.00  0.00    -0.237 OA
ATOM     78  O   UNL A   1      34.418  32.573  29.481  1.00  0.00    -0.237 OA
ATOM     79  O   UNL A   1      36.287  33.272  28.032  1.00  0.00    -0.744 OA
ENDBRANCH  72  76
ENDBRANCH  55  69
BRANCH  56  80
ATOM     80  C   UNL A   1      48.720  31.641  28.518  1.00  0.00     0.023 A 
ATOM     81  C   UNL A   1      49.138  32.385  27.403  1.00  0.00     0.031 A 
ATOM     82  C   UNL A   1      49.710  31.023  29.304  1.00  0.00     0.131 A 
ATOM     83  C   UNL A   1      50.504  32.456  27.081  1.00  0.00     0.055 A 
ATOM     84  C   UNL A   1      51.070  31.146  29.013  1.00  0.00     0.041 A 
ATOM     85  F   UNL A   1      49.369  30.294  30.378  1.00  0.00    -0.206 F 
ATOM     86  C   UNL A   1      51.473  31.857  27.888  1.00  0.00     0.022 A 
BRANCH  83  87
ATOM     87  S   UNL A   1      50.995  33.273  25.537  1.00  0.00     0.124 S 
ATOM     88  O   UNL A   1      49.798  34.041  25.215  1.00  0.00    -0.237 OA
ATOM     89  O   UNL A   1      52.160  34.044  25.960  1.00  0.00    -0.237 OA
ATOM     90  O   UNL A   1      51.282  32.157  24.638  1.00  0.00    -0.744 OA
ENDBRANCH  83  87
ENDBRANCH  56  80
BRANCH  68  91
ATOM     91  C   UNL A   1      43.991  35.642  31.759  1.00  0.00     0.023 A 
ATOM     92  C   UNL A   1      43.807  36.871  31.102  1.00  0.00     0.031 A 
ATOM     93  C   UNL A   1      44.287  35.670  33.135  1.00  0.00     0.131 A 
ATOM     94  C   UNL A   1      43.980  38.074  31.805  1.00  0.00     0.055 A 
ATOM     95  C   UNL A   1      44.387  36.868  33.844  1.00  0.00     0.041 A 
ATOM     96  F   UNL A   1      44.481  34.529  33.816  1.00  0.00    -0.206 F 
ATOM     97  C   UNL A   1      44.247  38.080  33.176  1.00  0.00     0.022 A 
BRANCH  94  98
ATOM     98  S   UNL A   1      43.961  39.635  30.881  1.00  0.00     0.124 S 
ATOM     99  O   UNL A   1      43.434  39.214  29.586  1.00  0.00    -0.237 OA
ATOM    100  O   UNL A   1      43.075  40.467  31.690  1.00  0.00    -0.237 OA
ATOM    101  O   UNL A   1      45.363  40.048  30.875  1.00  0.00    -0.744 OA
ENDBRANCH  94  98
ENDBRANCH  68  91
ENDBRANCH  42  43
ENDBRANCH  35  37
ENDBRANCH  34  35
ENDBRANCH  33  34
ENDBRANCH  32  33
ENDBRANCH  31  32
ENDBRANCH  30  31
ENDBRANCH  29  30
ENDBRANCH  28  29
ENDBRANCH   1  28
TORSDOF 27
ENDMDL
MODEL 2
REMARK VINA RESULT:      -8.5      2.732      7.553
REMARK SMILES CCc1ccsc1CNC(=O)N1[C@H]2CC[C@@H]1[C@H](C(=O)OCCOCCOCCOCCOC(=O)c1ccc(-c3c4nc(c(-c5cc(S(=O)(=O)[O-])ccc5F)c5ccc([nH]5)c(-c5cc(S(=O)(=O)[O-])ccc5F)c5nc(c(-c6cc(S(=O)(=O)[O-])ccc6F)c6ccc3[nH]6)C=C5)C=C4)cc1)C2
REMARK SMILES IDX 25 1 24 2 23 3 22 4 21 5 20 6 18 7 19 8 17 9 12 10 13 11
REMARK SMILES IDX 16 12 14 13 98 14 15 15 10 16 9 17 11 19 8 20 7 21 3 22 4 23
REMARK SMILES IDX 5 24 6 25 2 26 1 27 26 28 27 29 28 30 29 31 30 32 31 33
REMARK SMILES IDX 32 34 33 35 34 36 35 37 36 38 97 39 37 40 96 41 38 42 39 43
REMARK SMILES IDX 40 44 90 45 41 46 95 47 89 48 91 49 42 50 94 51 88 52 87 53
REMARK SMILES IDX 43 55 75 56 55 57 74 58 56 59 59 60 73 61 92 62 57 63 58 64
REMARK SMILES IDX 72 66 93 67 60 68 44 69 45 70 53 71 46 72 52 73 54 74 51 75
REMARK SMILES IDX 47 76 48 77 49 78 50 79 76 80 77 81 85 82 78 83 84 84 86 85
REMARK SMILES IDX 83 86 79 87 80 88 81 89 82 90 61 91 62 92 70 93 63 94 69 95
REMARK SMILES IDX 71 96 68 97 64 98 65 99 66 100 67 101
REMARK H PARENT 9 18 91 54 59 65
REMARK Flexibility Score: inf
ROOT
ATOM      1  C   UNL A   1      42.194  21.523  27.068  1.00  0.00     0.188 C 
ENDROOT
BRANCH   1   2
ATOM      2  C   UNL A   1      40.973  22.016  26.283  1.00  0.00     0.188 C 
BRANCH   2   3
ATOM      3  O   UNL A   1      39.700  21.745  26.819  1.00  0.00    -0.376 OA
BRANCH   3   4
ATOM      4  C   UNL A   1      38.503  21.984  26.100  1.00  0.00     0.202 C 
BRANCH   4   5
ATOM      5  C   UNL A   1      37.821  21.040  25.090  1.00  0.00     0.261 C 
BRANCH   5   6
ATOM      6  O   UNL A   1      36.935  21.603  24.121  1.00  0.00    -0.463 OA
BRANCH   6   7
ATOM      7  C   UNL A   1      35.637  21.630  24.471  1.00  0.00     0.311 C 
ATOM      8  O   UNL A   1      35.080  20.755  25.131  1.00  0.00    -0.252 OA
BRANCH   7   9
ATOM      9  C   UNL A   1      34.869  22.820  23.969  1.00  0.00     0.124 C 
ATOM     10  N   UNL A   1      33.370  24.488  23.796  1.00  0.00    -0.318 N 
ATOM     11  C   UNL A   1      34.294  25.002  24.784  1.00  0.00     0.088 C 
ATOM     12  C   UNL A   1      33.360  23.085  24.175  1.00  0.00     0.101 C 
ATOM     13  C   UNL A   1      33.621  24.509  26.082  1.00  0.00     0.027 C 
ATOM     14  C   UNL A   1      35.519  24.108  24.535  1.00  0.00     0.042 C 
ATOM     15  C   UNL A   1      32.938  23.201  25.638  1.00  0.00     0.028 C 
BRANCH  10  16
ATOM     16  C   UNL A   1      32.719  24.987  22.726  1.00  0.00     0.318 C 
ATOM     17  N   UNL A   1      31.447  25.421  22.847  1.00  0.00    -0.333 N 
ATOM     18  H   UNL A   1      30.912  25.408  22.021  1.00  0.00     0.165 HD
ATOM     19  O   UNL A   1      33.264  25.122  21.630  1.00  0.00    -0.249 OA
BRANCH  17  20
ATOM     20  C   UNL A   1      30.768  25.901  24.022  1.00  0.00     0.165 C 
BRANCH  20  21
ATOM     21  C   UNL A   1      30.607  27.404  24.027  1.00  0.00     0.027 A 
ATOM     22  C   UNL A   1      31.246  28.297  24.885  1.00  0.00    -0.033 A 
ATOM     23  C   UNL A   1      30.909  29.654  24.559  1.00  0.00     0.016 A 
ATOM     24  C   UNL A   1      30.069  29.750  23.475  1.00  0.00     0.065 A 
ATOM     25  S   UNL A   1      29.676  28.220  22.838  1.00  0.00    -0.147 S 
BRANCH  22  26
ATOM     26  C   UNL A   1      32.182  27.845  25.976  1.00  0.00     0.033 C 
ATOM     27  C   UNL A   1      31.649  27.940  27.393  1.00  0.00     0.009 C 
ENDBRANCH  22  26
ENDBRANCH  20  21
ENDBRANCH  17  20
ENDBRANCH  10  16
ENDBRANCH   7   9
ENDBRANCH   6   7
ENDBRANCH   5   6
ENDBRANCH   4   5
ENDBRANCH   3   4
ENDBRANCH   2   3
ENDBRANCH   1   2
BRANCH   1  28
ATOM     28  O   UNL A   1      42.253  20.155  27.414  1.00  0.00    -0.377 OA
BRANCH  28  29
ATOM     29  C   UNL A   1      42.334  19.170  26.387  1.00  0.00     0.188 C 
BRANCH  29  30
ATOM     30  C   UNL A   1      43.289  19.333  25.184  1.00  0.00     0.188 C 
BRANCH  30  31
ATOM     31  O   UNL A   1      44.608  19.737  25.509  1.00  0.00    -0.376 OA
BRANCH  31  32
ATOM     32  C   UNL A   1      45.246  20.687  24.669  1.00  0.00     0.202 C 
BRANCH  32  33
ATOM     33  C   UNL A   1      45.760  21.987  25.311  1.00  0.00     0.261 C 
BRANCH  33  34
ATOM     34  O   UNL A   1      45.498  23.201  24.591  1.00  0.00    -0.460 OA
BRANCH  34  35
ATOM     35  C   UNL A   1      44.270  23.748  24.710  1.00  0.00     0.338 C 
ATOM     36  O   UNL A   1      43.217  23.283  24.304  1.00  0.00    -0.246 OA
BRANCH  35  37
ATOM     37  C   UNL A   1      44.385  24.925  25.594  1.00  0.00     0.060 A 
ATOM     38  C   UNL A   1      44.338  24.740  26.981  1.00  0.00     0.016 A 
ATOM     39  C   UNL A   1      44.535  26.205  25.054  1.00  0.00     0.016 A 
ATOM     40  C   UNL A   1      44.402  25.842  27.835  1.00  0.00     0.010 A 
ATOM     41  C   UNL A   1      44.576  27.308  25.909  1.00  0.00     0.010 A 
ATOM     42  C   UNL A   1      44.474  27.135  27.302  1.00  0.00    -0.014 A 
BRANCH  42  43
ATOM     43  C   UNL A   1      44.224  28.304  28.182  1.00  0.00     0.031 A 
ATOM     44  C   UNL A   1      45.411  29.007  28.783  1.00  0.00     0.074 A 
ATOM     45  C   UNL A   1      42.979  28.752  28.421  1.00  0.00     0.049 A 
ATOM     46  N   UNL A   1      45.452  30.009  29.620  1.00  0.00    -0.248 NA
ATOM     47  C   UNL A   1      46.734  28.498  28.385  1.00  0.00     0.031 C 
ATOM     48  C   UNL A   1      41.756  28.185  27.856  1.00  0.00     0.029 A 
ATOM     49  N   UNL A   1      42.538  29.783  29.214  1.00  0.00    -0.354 N 
ATOM     50  C   UNL A   1      46.802  30.246  29.860  1.00  0.00     0.074 A 
ATOM     51  C   UNL A   1      47.542  29.256  29.108  1.00  0.00     0.031 C 
ATOM     52  C   UNL A   1      40.700  28.868  28.335  1.00  0.00     0.029 A 
ATOM     53  C   UNL A   1      41.168  29.889  29.272  1.00  0.00     0.049 A 
ATOM     54  H   UNL A   1      43.146  30.391  29.694  1.00  0.00     0.167 HD
ATOM     55  C   UNL A   1      47.370  31.205  30.632  1.00  0.00     0.034 A 
ATOM     56  C   UNL A   1      40.385  30.692  30.022  1.00  0.00     0.034 A 
ATOM     57  C   UNL A   1      46.613  32.174  31.386  1.00  0.00     0.049 A 
ATOM     58  C   UNL A   1      41.035  31.694  30.947  1.00  0.00     0.074 A 
ATOM     59  C   UNL A   1      47.083  33.202  32.184  1.00  0.00     0.029 A 
ATOM     60  N   UNL A   1      45.226  32.222  31.456  1.00  0.00    -0.354 N 
ATOM     61  N   UNL A   1      42.313  31.922  31.154  1.00  0.00    -0.248 NA
ATOM     62  C   UNL A   1      40.138  32.553  31.732  1.00  0.00     0.031 C 
ATOM     63  C   UNL A   1      45.989  33.811  32.806  1.00  0.00     0.029 A 
ATOM     64  C   UNL A   1      44.826  33.233  32.319  1.00  0.00     0.049 A 
ATOM     65  H   UNL A   1      44.615  31.626  30.965  1.00  0.00     0.167 HD
ATOM     66  C   UNL A   1      42.370  32.973  32.070  1.00  0.00     0.074 A 
ATOM     67  C   UNL A   1      40.999  33.340  32.361  1.00  0.00     0.031 C 
ATOM     68  C   UNL A   1      43.455  33.583  32.614  1.00  0.00     0.034 A 
BRANCH  55  69
ATOM     69  C   UNL A   1      48.877  31.201  30.747  1.00  0.00     0.023 A 
ATOM     70  C   UNL A   1      49.548  30.470  31.743  1.00  0.00     0.031 A 
ATOM     71  C   UNL A   1      49.653  31.978  29.867  1.00  0.00     0.131 A 
ATOM     72  C   UNL A   1      50.938  30.595  31.886  1.00  0.00     0.055 A 
ATOM     73  C   UNL A   1      51.045  32.026  29.959  1.00  0.00     0.041 A 
ATOM     74  F   UNL A   1      49.069  32.720  28.913  1.00  0.00    -0.206 F 
ATOM     75  C   UNL A   1      51.695  31.345  30.983  1.00  0.00     0.022 A 
BRANCH  72  76
ATOM     76  S   UNL A   1      51.723  29.900  33.366  1.00  0.00     0.124 S 
ATOM     77  O   UNL A   1      52.510  28.808  32.797  1.00  0.00    -0.237 OA
ATOM     78  O   UNL A   1      52.484  31.032  33.882  1.00  0.00    -0.237 OA
ATOM     79  O   UNL A   1      50.591  29.480  34.190  1.00  0.00    -0.744 OA
ENDBRANCH  72  76
ENDBRANCH  55  69
BRANCH  56  80
ATOM     80  C   UNL A   1      38.899  30.547  29.979  1.00  0.00     0.023 A 
ATOM     81  C   UNL A   1      38.081  31.530  29.399  1.00  0.00     0.031 A 
ATOM     82  C   UNL A   1      38.271  29.435  30.572  1.00  0.00     0.131 A 
ATOM     83  C   UNL A   1      36.684  31.403  29.461  1.00  0.00     0.055 A 
ATOM     84  C   UNL A   1      36.883  29.285  30.578  1.00  0.00     0.041 A 
ATOM     85  F   UNL A   1      39.003  28.469  31.147  1.00  0.00    -0.206 F 
ATOM     86  C   UNL A   1      36.080  30.279  30.030  1.00  0.00     0.022 A 
BRANCH  83  87
ATOM     87  S   UNL A   1      35.656  32.773  28.862  1.00  0.00     0.124 S 
ATOM     88  O   UNL A   1      35.897  33.790  29.878  1.00  0.00    -0.237 OA
ATOM     89  O   UNL A   1      36.232  33.030  27.545  1.00  0.00    -0.237 OA
ATOM     90  O   UNL A   1      34.309  32.208  28.850  1.00  0.00    -0.744 OA
ENDBRANCH  83  87
ENDBRANCH  56  80
BRANCH  68  91
ATOM     91  C   UNL A   1      43.203  34.749  33.543  1.00  0.00     0.023 A 
ATOM     92  C   UNL A   1      43.009  34.574  34.925  1.00  0.00     0.031 A 
ATOM     93  C   UNL A   1      43.155  36.060  33.033  1.00  0.00     0.131 A 
ATOM     94  C   UNL A   1      42.716  35.682  35.737  1.00  0.00     0.055 A 
ATOM     95  C   UNL A   1      42.935  37.165  33.857  1.00  0.00     0.041 A 
ATOM     96  F   UNL A   1      43.327  36.289  31.722  1.00  0.00    -0.206 F 
ATOM     97  C   UNL A   1      42.700  36.978  35.215  1.00  0.00     0.022 A 
BRANCH  94  98
ATOM     98  S   UNL A   1      42.246  35.397  37.465  1.00  0.00     0.124 S 
ATOM     99  O   UNL A   1      41.665  36.685  37.836  1.00  0.00    -0.237 OA
ATOM    100  O   UNL A   1      41.310  34.283  37.356  1.00  0.00    -0.237 OA
ATOM    101  O   UNL A   1      43.515  35.079  38.118  1.00  0.00    -0.744 OA
ENDBRANCH  94  98
ENDBRANCH  68  91
ENDBRANCH  42  43
ENDBRANCH  35  37
ENDBRANCH  34  35
ENDBRANCH  33  34
ENDBRANCH  32  33
ENDBRANCH  31  32
ENDBRANCH  30  31
ENDBRANCH  29  30
ENDBRANCH  28  29
ENDBRANCH   1  28
TORSDOF 27
ENDMDL
MODEL 3
REMARK VINA RESULT:      -8.3      5.283      8.023
REMARK SMILES CCc1ccsc1CNC(=O)N1[C@H]2CC[C@@H]1[C@H](C(=O)OCCOCCOCCOCCOC(=O)c1ccc(-c3c4nc(c(-c5cc(S(=O)(=O)[O-])ccc5F)c5ccc([nH]5)c(-c5cc(S(=O)(=O)[O-])ccc5F)c5nc(c(-c6cc(S(=O)(=O)[O-])ccc6F)c6ccc3[nH]6)C=C5)C=C4)cc1)C2
REMARK SMILES IDX 25 1 24 2 23 3 22 4 21 5 20 6 18 7 19 8 17 9 12 10 13 11
REMARK SMILES IDX 16 12 14 13 98 14 15 15 10 16 9 17 11 19 8 20 7 21 3 22 4 23
REMARK SMILES IDX 5 24 6 25 2 26 1 27 26 28 27 29 28 30 29 31 30 32 31 33
REMARK SMILES IDX 32 34 33 35 34 36 35 37 36 38 97 39 37 40 96 41 38 42 39 43
REMARK SMILES IDX 40 44 90 45 41 46 95 47 89 48 91 49 42 50 94 51 88 52 87 53
REMARK SMILES IDX 43 55 75 56 55 57 74 58 56 59 59 60 73 61 92 62 57 63 58 64
REMARK SMILES IDX 72 66 93 67 60 68 44 69 45 70 53 71 46 72 52 73 54 74 51 75
REMARK SMILES IDX 47 76 48 77 49 78 50 79 76 80 77 81 85 82 78 83 84 84 86 85
REMARK SMILES IDX 83 86 79 87 80 88 81 89 82 90 61 91 62 92 70 93 63 94 69 95
REMARK SMILES IDX 71 96 68 97 64 98 65 99 66 100 67 101
REMARK H PARENT 9 18 91 54 59 65
REMARK Flexibility Score: inf
ROOT
ATOM      1  C   UNL A   1      41.151  22.460  27.372  1.00  0.00     0.188 C 
ENDROOT
BRANCH   1   2
ATOM      2  C   UNL A   1      40.026  22.884  26.421  1.00  0.00     0.188 C 
BRANCH   2   3
ATOM      3  O   UNL A   1      38.869  22.085  26.380  1.00  0.00    -0.376 OA
BRANCH   3   4
ATOM      4  C   UNL A   1      37.733  22.426  25.605  1.00  0.00     0.202 C 
BRANCH   4   5
ATOM      5  C   UNL A   1      37.202  21.688  24.360  1.00  0.00     0.261 C 
BRANCH   5   6
ATOM      6  O   UNL A   1      36.395  22.413  23.430  1.00  0.00    -0.463 OA
BRANCH   6   7
ATOM      7  C   UNL A   1      35.095  22.525  23.755  1.00  0.00     0.311 C 
ATOM      8  O   UNL A   1      34.431  21.627  24.268  1.00  0.00    -0.252 OA
BRANCH   7   9
ATOM      9  C   UNL A   1      34.468  23.849  23.419  1.00  0.00     0.124 C 
ATOM     10  N   UNL A   1      32.963  25.487  23.091  1.00  0.00    -0.318 N 
ATOM     11  C   UNL A   1      33.085  25.462  24.533  1.00  0.00     0.088 C 
ATOM     12  C   UNL A   1      33.064  24.065  22.811  1.00  0.00     0.101 C 
ATOM     13  C   UNL A   1      31.955  24.473  24.893  1.00  0.00     0.027 C 
ATOM     14  C   UNL A   1      34.417  24.716  24.702  1.00  0.00     0.042 C 
ATOM     15  C   UNL A   1      31.919  23.534  23.671  1.00  0.00     0.028 C 
BRANCH  10  16
ATOM     16  C   UNL A   1      32.884  26.441  22.141  1.00  0.00     0.318 C 
ATOM     17  N   UNL A   1      31.712  27.065  21.901  1.00  0.00    -0.333 N 
ATOM     18  H   UNL A   1      31.608  27.443  20.998  1.00  0.00     0.165 HD
ATOM     19  O   UNL A   1      33.870  26.820  21.509  1.00  0.00    -0.249 OA
BRANCH  17  20
ATOM     20  C   UNL A   1      30.593  27.252  22.788  1.00  0.00     0.165 C 
BRANCH  20  21
ATOM     21  C   UNL A   1      30.702  28.521  23.600  1.00  0.00     0.027 A 
ATOM     22  C   UNL A   1      29.937  29.674  23.430  1.00  0.00    -0.033 A 
ATOM     23  C   UNL A   1      30.263  30.659  24.422  1.00  0.00     0.016 A 
ATOM     24  C   UNL A   1      31.221  30.227  25.308  1.00  0.00     0.065 A 
ATOM     25  S   UNL A   1      31.738  28.641  24.963  1.00  0.00    -0.147 S 
BRANCH  22  26
ATOM     26  C   UNL A   1      28.895  29.804  22.349  1.00  0.00     0.033 C 
ATOM     27  C   UNL A   1      27.733  30.731  22.651  1.00  0.00     0.009 C 
ENDBRANCH  22  26
ENDBRANCH  20  21
ENDBRANCH  17  20
ENDBRANCH  10  16
ENDBRANCH   7   9
ENDBRANCH   6   7
ENDBRANCH   5   6
ENDBRANCH   4   5
ENDBRANCH   3   4
ENDBRANCH   2   3
ENDBRANCH   1   2
BRANCH   1  28
ATOM     28  O   UNL A   1      41.202  21.108  27.778  1.00  0.00    -0.377 OA
BRANCH  28  29
ATOM     29  C   UNL A   1      41.249  20.077  26.794  1.00  0.00     0.188 C 
BRANCH  29  30
ATOM     30  C   UNL A   1      42.350  20.042  25.713  1.00  0.00     0.188 C 
BRANCH  30  31
ATOM     31  O   UNL A   1      43.648  20.397  26.158  1.00  0.00    -0.376 OA
BRANCH  31  32
ATOM     32  C   UNL A   1      44.267  21.538  25.583  1.00  0.00     0.202 C 
BRANCH  32  33
ATOM     33  C   UNL A   1      44.657  22.695  26.519  1.00  0.00     0.261 C 
BRANCH  33  34
ATOM     34  O   UNL A   1      44.891  23.968  25.896  1.00  0.00    -0.460 OA
BRANCH  34  35
ATOM     35  C   UNL A   1      43.859  24.835  25.837  1.00  0.00     0.338 C 
ATOM     36  O   UNL A   1      43.006  24.902  24.966  1.00  0.00    -0.246 OA
BRANCH  35  37
ATOM     37  C   UNL A   1      43.818  25.574  27.114  1.00  0.00     0.060 A 
ATOM     38  C   UNL A   1      42.798  25.290  28.031  1.00  0.00     0.016 A 
ATOM     39  C   UNL A   1      44.781  26.545  27.402  1.00  0.00     0.016 A 
ATOM     40  C   UNL A   1      42.715  26.005  29.226  1.00  0.00     0.010 A 
ATOM     41  C   UNL A   1      44.682  27.276  28.589  1.00  0.00     0.010 A 
ATOM     42  C   UNL A   1      43.628  27.034  29.489  1.00  0.00    -0.014 A 
BRANCH  42  43
ATOM     43  C   UNL A   1      43.355  27.992  30.590  1.00  0.00     0.031 A 
ATOM     44  C   UNL A   1      44.078  27.798  31.896  1.00  0.00     0.074 A 
ATOM     45  C   UNL A   1      42.509  29.025  30.431  1.00  0.00     0.049 A 
ATOM     46  N   UNL A   1      43.970  28.463  33.015  1.00  0.00    -0.248 NA
ATOM     47  C   UNL A   1      45.051  26.695  31.938  1.00  0.00     0.031 C 
ATOM     48  C   UNL A   1      41.790  29.344  29.199  1.00  0.00     0.029 A 
ATOM     49  N   UNL A   1      42.104  29.992  31.317  1.00  0.00    -0.354 N 
ATOM     50  C   UNL A   1      44.852  27.853  33.902  1.00  0.00     0.074 A 
ATOM     51  C   UNL A   1      45.457  26.744  33.197  1.00  0.00     0.031 C 
ATOM     52  C   UNL A   1      41.018  30.424  29.414  1.00  0.00     0.029 A 
ATOM     53  C   UNL A   1      41.154  30.846  30.807  1.00  0.00     0.049 A 
ATOM     54  H   UNL A   1      42.462  30.069  32.232  1.00  0.00     0.167 HD
ATOM     55  C   UNL A   1      45.136  28.193  35.184  1.00  0.00     0.034 A 
ATOM     56  C   UNL A   1      40.451  31.830  31.408  1.00  0.00     0.034 A 
ATOM     57  C   UNL A   1      44.510  29.295  35.874  1.00  0.00     0.049 A 
ATOM     58  C   UNL A   1      40.714  32.135  32.865  1.00  0.00     0.074 A 
ATOM     59  C   UNL A   1      44.736  29.743  37.164  1.00  0.00     0.029 A 
ATOM     60  N   UNL A   1      43.520  30.110  35.340  1.00  0.00    -0.354 N 
ATOM     61  N   UNL A   1      41.563  31.564  33.690  1.00  0.00    -0.248 NA
ATOM     62  C   UNL A   1      39.932  33.222  33.467  1.00  0.00     0.031 C 
ATOM     63  C   UNL A   1      43.822  30.764  37.440  1.00  0.00     0.029 A 
ATOM     64  C   UNL A   1      43.093  31.027  36.290  1.00  0.00     0.049 A 
ATOM     65  H   UNL A   1      43.171  30.047  34.421  1.00  0.00     0.167 HD
ATOM     66  C   UNL A   1      41.437  32.246  34.900  1.00  0.00     0.074 A 
ATOM     67  C   UNL A   1      40.442  33.278  34.689  1.00  0.00     0.031 C 
ATOM     68  C   UNL A   1      42.089  32.044  36.075  1.00  0.00     0.034 A 
BRANCH  55  69
ATOM     69  C   UNL A   1      46.114  27.319  35.933  1.00  0.00     0.023 A 
ATOM     70  C   UNL A   1      45.691  26.247  36.740  1.00  0.00     0.031 A 
ATOM     71  C   UNL A   1      47.493  27.590  35.872  1.00  0.00     0.131 A 
ATOM     72  C   UNL A   1      46.625  25.541  37.513  1.00  0.00     0.055 A 
ATOM     73  C   UNL A   1      48.427  26.825  36.574  1.00  0.00     0.041 A 
ATOM     74  F   UNL A   1      47.957  28.616  35.142  1.00  0.00    -0.206 F 
ATOM     75  C   UNL A   1      47.993  25.804  37.414  1.00  0.00     0.022 A 
BRANCH  72  76
ATOM     76  S   UNL A   1      46.014  24.389  38.774  1.00  0.00     0.124 S 
ATOM     77  O   UNL A   1      47.210  24.180  39.587  1.00  0.00    -0.237 OA
ATOM     78  O   UNL A   1      44.940  25.150  39.403  1.00  0.00    -0.237 OA
ATOM     79  O   UNL A   1      45.585  23.228  37.998  1.00  0.00    -0.744 OA
ENDBRANCH  72  76
ENDBRANCH  55  69
BRANCH  56  80
ATOM     80  C   UNL A   1      39.388  32.561  30.657  1.00  0.00     0.023 A 
ATOM     81  C   UNL A   1      38.110  32.011  30.468  1.00  0.00     0.031 A 
ATOM     82  C   UNL A   1      39.658  33.811  30.069  1.00  0.00     0.131 A 
ATOM     83  C   UNL A   1      37.167  32.687  29.677  1.00  0.00     0.055 A 
ATOM     84  C   UNL A   1      38.697  34.507  29.333  1.00  0.00     0.041 A 
ATOM     85  F   UNL A   1      40.865  34.382  30.211  1.00  0.00    -0.206 F 
ATOM     86  C   UNL A   1      37.445  33.939  29.123  1.00  0.00     0.022 A 
BRANCH  83  87
ATOM     87  S   UNL A   1      35.591  31.867  29.306  1.00  0.00     0.124 S 
ATOM     88  O   UNL A   1      34.759  32.308  30.419  1.00  0.00    -0.237 OA
ATOM     89  O   UNL A   1      35.262  32.423  27.997  1.00  0.00    -0.237 OA
ATOM     90  O   UNL A   1      35.938  30.448  29.308  1.00  0.00    -0.744 OA
ENDBRANCH  83  87
ENDBRANCH  56  80
BRANCH  68  91
ATOM     91  C   UNL A   1      41.782  32.993  37.211  1.00  0.00     0.023 A 
ATOM     92  C   UNL A   1      40.862  32.672  38.225  1.00  0.00     0.031 A 
ATOM     93  C   UNL A   1      42.424  34.244  37.278  1.00  0.00     0.131 A 
ATOM     94  C   UNL A   1      40.565  33.612  39.225  1.00  0.00     0.055 A 
ATOM     95  C   UNL A   1      42.178  35.146  38.315  1.00  0.00     0.041 A 
ATOM     96  F   UNL A   1      43.308  34.610  36.336  1.00  0.00    -0.206 F 
ATOM     97  C   UNL A   1      41.233  34.838  39.288  1.00  0.00     0.022 A 
BRANCH  94  98
ATOM     98  S   UNL A   1      39.212  33.259  40.380  1.00  0.00     0.124 S 
ATOM     99  O   UNL A   1      39.936  32.806  41.564  1.00  0.00    -0.237 OA
ATOM    100  O   UNL A   1      38.552  34.556  40.494  1.00  0.00    -0.237 OA
ATOM    101  O   UNL A   1      38.436  32.227  39.695  1.00  0.00    -0.744 OA
ENDBRANCH  94  98
ENDBRANCH  68  91
ENDBRANCH  42  43
ENDBRANCH  35  37
ENDBRANCH  34  35
ENDBRANCH  33  34
ENDBRANCH  32  33
ENDBRANCH  31  32
ENDBRANCH  30  31
ENDBRANCH  29  30
ENDBRANCH  28  29
ENDBRANCH   1  28
TORSDOF 27
ENDMDL
