MODEL 1
REMARK VINA RESULT:     -10.9      0.000      0.000
REMARK SMILES C[C@H]1CCC[C@H](C)N1C(=O)[C@H]1[C@@H](C(=O)OCCOCCOCCOCCOC(=O)c2ccc(-c3c4nc(c(-c5cc(S(=O)(=O)[O-])ccc5F)c5ccc([nH]5)c(-c5cc(S(=O)(=O)[O-])ccc5F)c5nc(c(-c6cc(S(=O)(=O)[O-])ccc6F)c6ccc3[nH]6)C=C5)C=C4)cc2)[C@H]2CC[C@@H]1O2
REMARK SMILES IDX 22 1 21 2 20 3 19 4 18 5 17 6 16 7 15 8 13 9 14 10 12 11
REMARK SMILES IDX 11 12 96 13 93 14 95 15 97 16 94 17 9 18 1 19 2 20 3 21 8 22
REMARK SMILES IDX 4 23 6 24 5 25 7 26 10 27 23 28 24 29 25 30 26 31 27 32
REMARK SMILES IDX 28 33 29 34 30 35 31 36 92 37 32 38 91 39 33 40 34 41 35 42
REMARK SMILES IDX 85 43 36 44 90 45 84 46 86 47 37 48 89 49 83 50 82 51 38 53
REMARK SMILES IDX 70 54 50 55 69 56 51 57 54 58 68 59 87 60 52 61 53 62 67 64
REMARK SMILES IDX 88 65 55 66 39 67 40 68 48 69 41 70 47 71 49 72 46 73 42 74
REMARK SMILES IDX 43 75 44 76 45 77 71 78 72 79 80 80 73 81 79 82 81 83 78 84
REMARK SMILES IDX 74 85 75 86 76 87 77 88 56 89 57 90 65 91 58 92 64 93 66 94
REMARK SMILES IDX 63 95 59 96 60 97 61 98 62 99
REMARK H PARENT 86 52 54 63
REMARK Flexibility Score: inf
ROOT
ATOM      1  C   UNL A   1      31.931  28.906  24.909  1.00  0.00     0.188 C 
ENDROOT
BRANCH   1   2
ATOM      2  O   UNL A   1      32.470  27.594  24.797  1.00  0.00    -0.377 OA
BRANCH   2   3
ATOM      3  C   UNL A   1      32.428  26.783  25.947  1.00  0.00     0.188 C 
BRANCH   3   4
ATOM      4  C   UNL A   1      31.028  26.546  26.539  1.00  0.00     0.188 C 
BRANCH   4   5
ATOM      5  O   UNL A   1      30.213  25.417  26.242  1.00  0.00    -0.376 OA
BRANCH   5   6
ATOM      6  C   UNL A   1      30.662  24.089  26.040  1.00  0.00     0.202 C 
BRANCH   6   7
ATOM      7  C   UNL A   1      31.352  23.242  27.124  1.00  0.00     0.261 C 
BRANCH   7   8
ATOM      8  O   UNL A   1      32.166  22.129  26.729  1.00  0.00    -0.463 OA
BRANCH   8   9
ATOM      9  C   UNL A   1      33.479  22.365  26.873  1.00  0.00     0.312 C 
ATOM     10  O   UNL A   1      34.128  21.950  27.830  1.00  0.00    -0.252 OA
BRANCH   9  11
ATOM     11  C   UNL A   1      34.180  23.124  25.770  1.00  0.00     0.143 C 
ATOM     12  C   UNL A   1      34.395  22.421  24.429  1.00  0.00     0.124 C 
ATOM     13  C   UNL A   1      35.540  23.295  23.879  1.00  0.00     0.132 C 
ATOM     14  C   UNL A   1      35.520  23.904  26.061  1.00  0.00     0.133 C 
ATOM     15  C   UNL A   1      36.991  23.109  24.273  1.00  0.00     0.035 C 
ATOM     16  O   UNL A   1      35.318  24.477  24.705  1.00  0.00    -0.373 OA
ATOM     17  C   UNL A   1      37.026  23.791  25.636  1.00  0.00     0.036 C 
BRANCH  12  18
ATOM     18  C   UNL A   1      34.566  20.914  24.507  1.00  0.00     0.229 C 
ATOM     19  C   UNL A   1      32.243  21.561  22.253  1.00  0.00     0.031 C 
ATOM     20  C   UNL A   1      32.414  20.275  23.079  1.00  0.00     0.082 C 
ATOM     21  C   UNL A   1      32.117  19.137  22.080  1.00  0.00     0.025 C 
ATOM     22  N   UNL A   1      33.663  20.017  23.889  1.00  0.00    -0.337 N 
ATOM     23  C   UNL A   1      32.034  17.799  22.779  1.00  0.00     0.004 C 
ATOM     24  C   UNL A   1      33.780  18.624  24.427  1.00  0.00     0.082 C 
ATOM     25  C   UNL A   1      33.370  17.524  23.439  1.00  0.00     0.025 C 
ATOM     26  C   UNL A   1      33.007  18.462  25.746  1.00  0.00     0.031 C 
ATOM     27  O   UNL A   1      35.532  20.481  25.143  1.00  0.00    -0.274 OA
ENDBRANCH  12  18
ENDBRANCH   9  11
ENDBRANCH   8   9
ENDBRANCH   7   8
ENDBRANCH   6   7
ENDBRANCH   5   6
ENDBRANCH   4   5
ENDBRANCH   3   4
ENDBRANCH   2   3
ENDBRANCH   1   2
BRANCH   1  28
ATOM     28  C   UNL A   1      32.670  29.934  25.799  1.00  0.00     0.188 C 
BRANCH  28  29
ATOM     29  O   UNL A   1      31.847  30.579  26.757  1.00  0.00    -0.376 OA
BRANCH  29  30
ATOM     30  C   UNL A   1      31.246  31.826  26.457  1.00  0.00     0.202 C 
BRANCH  30  31
ATOM     31  C   UNL A   1      31.959  33.128  26.862  1.00  0.00     0.261 C 
BRANCH  31  32
ATOM     32  O   UNL A   1      32.396  33.248  28.223  1.00  0.00    -0.460 OA
BRANCH  32  33
ATOM     33  C   UNL A   1      33.443  34.059  28.478  1.00  0.00     0.338 C 
ATOM     34  O   UNL A   1      33.387  35.230  28.822  1.00  0.00    -0.246 OA
BRANCH  33  35
ATOM     35  C   UNL A   1      34.671  33.234  28.510  1.00  0.00     0.060 A 
ATOM     36  C   UNL A   1      34.562  31.881  28.864  1.00  0.00     0.016 A 
ATOM     37  C   UNL A   1      35.920  33.791  28.223  1.00  0.00     0.016 A 
ATOM     38  C   UNL A   1      35.706  31.108  29.028  1.00  0.00     0.010 A 
ATOM     39  C   UNL A   1      37.072  33.023  28.420  1.00  0.00     0.010 A 
ATOM     40  C   UNL A   1      36.965  31.704  28.895  1.00  0.00    -0.014 A 
BRANCH  40  41
ATOM     41  C   UNL A   1      38.108  31.062  29.588  1.00  0.00     0.031 A 
ATOM     42  C   UNL A   1      38.337  31.436  31.033  1.00  0.00     0.074 A 
ATOM     43  C   UNL A   1      38.852  30.111  29.000  1.00  0.00     0.049 A 
ATOM     44  N   UNL A   1      39.247  31.016  31.871  1.00  0.00    -0.248 NA
ATOM     45  C   UNL A   1      37.405  32.423  31.605  1.00  0.00     0.031 C 
ATOM     46  C   UNL A   1      38.673  29.622  27.635  1.00  0.00     0.029 A 
ATOM     47  N   UNL A   1      39.904  29.379  29.488  1.00  0.00    -0.354 N 
ATOM     48  C   UNL A   1      39.000  31.691  33.064  1.00  0.00     0.074 A 
ATOM     49  C   UNL A   1      37.889  32.582  32.824  1.00  0.00     0.031 C 
ATOM     50  C   UNL A   1      39.591  28.667  27.393  1.00  0.00     0.029 A 
ATOM     51  C   UNL A   1      40.440  28.505  28.572  1.00  0.00     0.049 A 
ATOM     52  H   UNL A   1      40.244  29.470  30.407  1.00  0.00     0.167 HD
ATOM     53  C   UNL A   1      39.631  31.566  34.256  1.00  0.00     0.034 A 
ATOM     54  C   UNL A   1      41.506  27.686  28.675  1.00  0.00     0.034 A 
ATOM     55  C   UNL A   1      40.744  30.677  34.473  1.00  0.00     0.049 A 
ATOM     56  C   UNL A   1      42.256  27.634  29.987  1.00  0.00     0.074 A 
ATOM     57  C   UNL A   1      41.468  30.470  35.633  1.00  0.00     0.029 A 
ATOM     58  N   UNL A   1      41.302  29.853  33.503  1.00  0.00    -0.354 N 
ATOM     59  N   UNL A   1      42.018  28.279  31.108  1.00  0.00    -0.248 NA
ATOM     60  C   UNL A   1      43.411  26.730  30.049  1.00  0.00     0.031 C 
ATOM     61  C   UNL A   1      42.512  29.584  35.344  1.00  0.00     0.029 A 
ATOM     62  C   UNL A   1      42.383  29.162  34.029  1.00  0.00     0.049 A 
ATOM     63  H   UNL A   1      40.977  29.772  32.577  1.00  0.00     0.167 HD
ATOM     64  C   UNL A   1      42.973  27.828  32.017  1.00  0.00     0.074 A 
ATOM     65  C   UNL A   1      43.771  26.841  31.318  1.00  0.00     0.031 C 
ATOM     66  C   UNL A   1      43.176  28.192  33.311  1.00  0.00     0.034 A 
BRANCH  53  67
ATOM     67  C   UNL A   1      39.167  32.459  35.383  1.00  0.00     0.023 A 
ATOM     68  C   UNL A   1      39.646  33.773  35.539  1.00  0.00     0.031 A 
ATOM     69  C   UNL A   1      38.265  31.972  36.346  1.00  0.00     0.131 A 
ATOM     70  C   UNL A   1      39.283  34.522  36.668  1.00  0.00     0.055 A 
ATOM     71  C   UNL A   1      37.838  32.755  37.420  1.00  0.00     0.041 A 
ATOM     72  F   UNL A   1      37.797  30.717  36.269  1.00  0.00    -0.206 F 
ATOM     73  C   UNL A   1      38.360  34.034  37.595  1.00  0.00     0.022 A 
BRANCH  70  74
ATOM     74  S   UNL A   1      40.154  36.080  36.995  1.00  0.00     0.124 S 
ATOM     75  O   UNL A   1      40.025  36.765  35.710  1.00  0.00    -0.237 OA
ATOM     76  O   UNL A   1      39.389  36.644  38.100  1.00  0.00    -0.237 OA
ATOM     77  O   UNL A   1      41.511  35.650  37.330  1.00  0.00    -0.744 OA
ENDBRANCH  70  74
ENDBRANCH  53  67
BRANCH  54  78
ATOM     78  C   UNL A   1      41.959  26.874  27.507  1.00  0.00     0.023 A 
ATOM     79  C   UNL A   1      41.666  25.504  27.414  1.00  0.00     0.031 A 
ATOM     80  C   UNL A   1      42.756  27.446  26.500  1.00  0.00     0.131 A 
ATOM     81  C   UNL A   1      42.211  24.741  26.368  1.00  0.00     0.055 A 
ATOM     82  C   UNL A   1      43.244  26.696  25.428  1.00  0.00     0.041 A 
ATOM     83  F   UNL A   1      43.073  28.750  26.541  1.00  0.00    -0.206 F 
ATOM     84  C   UNL A   1      42.985  25.330  25.367  1.00  0.00     0.022 A 
BRANCH  81  85
ATOM     85  S   UNL A   1      41.976  22.942  26.393  1.00  0.00     0.124 S 
ATOM     86  O   UNL A   1      40.537  22.833  26.598  1.00  0.00    -0.237 OA
ATOM     87  O   UNL A   1      42.468  22.556  25.075  1.00  0.00    -0.237 OA
ATOM     88  O   UNL A   1      42.803  22.507  27.516  1.00  0.00    -0.744 OA
ENDBRANCH  81  85
ENDBRANCH  54  78
BRANCH  66  89
ATOM     89  C   UNL A   1      44.278  27.475  34.061  1.00  0.00     0.023 A 
ATOM     90  C   UNL A   1      44.063  26.234  34.684  1.00  0.00     0.031 A 
ATOM     91  C   UNL A   1      45.550  28.063  34.186  1.00  0.00     0.131 A 
ATOM     92  C   UNL A   1      45.072  25.666  35.477  1.00  0.00     0.055 A 
ATOM     93  C   UNL A   1      46.577  27.451  34.905  1.00  0.00     0.041 A 
ATOM     94  F   UNL A   1      45.816  29.248  33.613  1.00  0.00    -0.206 F 
ATOM     95  C   UNL A   1      46.333  26.256  35.575  1.00  0.00     0.022 A 
BRANCH  92  96
ATOM     96  S   UNL A   1      44.660  24.225  36.499  1.00  0.00     0.124 S 
ATOM     97  O   UNL A   1      43.983  24.843  37.634  1.00  0.00    -0.237 OA
ATOM     98  O   UNL A   1      43.817  23.439  35.604  1.00  0.00    -0.237 OA
ATOM     99  O   UNL A   1      45.963  23.635  36.800  1.00  0.00    -0.744 OA
ENDBRANCH  92  96
ENDBRANCH  66  89
ENDBRANCH  40  41
ENDBRANCH  33  35
ENDBRANCH  32  33
ENDBRANCH  31  32
ENDBRANCH  30  31
ENDBRANCH  29  30
ENDBRANCH  28  29
ENDBRANCH   1  28
TORSDOF 24
ENDMDL
MODEL 2
REMARK VINA RESULT:     -10.4      1.310      7.709
REMARK SMILES C[C@H]1CCC[C@H](C)N1C(=O)[C@H]1[C@@H](C(=O)OCCOCCOCCOCCOC(=O)c2ccc(-c3c4nc(c(-c5cc(S(=O)(=O)[O-])ccc5F)c5ccc([nH]5)c(-c5cc(S(=O)(=O)[O-])ccc5F)c5nc(c(-c6cc(S(=O)(=O)[O-])ccc6F)c6ccc3[nH]6)C=C5)C=C4)cc2)[C@H]2CC[C@@H]1O2
REMARK SMILES IDX 22 1 21 2 20 3 19 4 18 5 17 6 16 7 15 8 13 9 14 10 12 11
REMARK SMILES IDX 11 12 96 13 93 14 95 15 97 16 94 17 9 18 1 19 2 20 3 21 8 22
REMARK SMILES IDX 4 23 6 24 5 25 7 26 10 27 23 28 24 29 25 30 26 31 27 32
REMARK SMILES IDX 28 33 29 34 30 35 31 36 92 37 32 38 91 39 33 40 34 41 35 42
REMARK SMILES IDX 85 43 36 44 90 45 84 46 86 47 37 48 89 49 83 50 82 51 38 53
REMARK SMILES IDX 70 54 50 55 69 56 51 57 54 58 68 59 87 60 52 61 53 62 67 64
REMARK SMILES IDX 88 65 55 66 39 67 40 68 48 69 41 70 47 71 49 72 46 73 42 74
REMARK SMILES IDX 43 75 44 76 45 77 71 78 72 79 80 80 73 81 79 82 81 83 78 84
REMARK SMILES IDX 74 85 75 86 76 87 77 88 56 89 57 90 65 91 58 92 64 93 66 94
REMARK SMILES IDX 63 95 59 96 60 97 61 98 62 99
REMARK H PARENT 86 52 54 63
REMARK Flexibility Score: inf
ROOT
ATOM      1  C   UNL A   1      31.760  28.701  24.665  1.00  0.00     0.188 C 
ENDROOT
BRANCH   1   2
ATOM      2  O   UNL A   1      31.785  28.891  23.255  1.00  0.00    -0.377 OA
BRANCH   2   3
ATOM      3  C   UNL A   1      33.015  28.685  22.601  1.00  0.00     0.188 C 
BRANCH   3   4
ATOM      4  C   UNL A   1      33.634  27.289  22.779  1.00  0.00     0.188 C 
BRANCH   4   5
ATOM      5  O   UNL A   1      33.643  26.281  21.773  1.00  0.00    -0.376 OA
BRANCH   5   6
ATOM      6  C   UNL A   1      32.648  25.293  21.569  1.00  0.00     0.202 C 
BRANCH   6   7
ATOM      7  C   UNL A   1      31.541  24.968  22.586  1.00  0.00     0.261 C 
BRANCH   7   8
ATOM      8  O   UNL A   1      31.379  23.615  23.034  1.00  0.00    -0.463 OA
BRANCH   8   9
ATOM      9  C   UNL A   1      32.547  22.967  23.174  1.00  0.00     0.312 C 
ATOM     10  O   UNL A   1      33.046  22.296  22.275  1.00  0.00    -0.252 OA
BRANCH   9  11
ATOM     11  C   UNL A   1      33.288  23.133  24.480  1.00  0.00     0.143 C 
ATOM     12  C   UNL A   1      33.782  21.878  25.199  1.00  0.00     0.124 C 
ATOM     13  C   UNL A   1      33.948  22.461  26.617  1.00  0.00     0.132 C 
ATOM     14  C   UNL A   1      32.717  24.074  25.610  1.00  0.00     0.133 C 
ATOM     15  C   UNL A   1      32.797  22.631  27.586  1.00  0.00     0.035 C 
ATOM     16  O   UNL A   1      34.040  23.871  26.254  1.00  0.00    -0.373 OA
ATOM     17  C   UNL A   1      32.142  23.903  27.060  1.00  0.00     0.036 C 
BRANCH  12  18
ATOM     18  C   UNL A   1      32.936  20.634  24.989  1.00  0.00     0.229 C 
ATOM     19  C   UNL A   1      36.106  19.713  25.039  1.00  0.00     0.031 C 
ATOM     20  C   UNL A   1      34.931  18.994  24.352  1.00  0.00     0.082 C 
ATOM     21  C   UNL A   1      35.188  17.497  24.626  1.00  0.00     0.025 C 
ATOM     22  N   UNL A   1      33.498  19.390  24.619  1.00  0.00    -0.337 N 
ATOM     23  C   UNL A   1      34.237  16.623  23.840  1.00  0.00     0.004 C 
ATOM     24  C   UNL A   1      32.478  18.438  24.075  1.00  0.00     0.082 C 
ATOM     25  C   UNL A   1      32.822  16.956  24.268  1.00  0.00     0.025 C 
ATOM     26  C   UNL A   1      32.179  18.721  22.593  1.00  0.00     0.031 C 
ATOM     27  O   UNL A   1      31.716  20.741  25.146  1.00  0.00    -0.274 OA
ENDBRANCH  12  18
ENDBRANCH   9  11
ENDBRANCH   8   9
ENDBRANCH   7   8
ENDBRANCH   6   7
ENDBRANCH   5   6
ENDBRANCH   4   5
ENDBRANCH   3   4
ENDBRANCH   2   3
ENDBRANCH   1   2
BRANCH   1  28
ATOM     28  C   UNL A   1      32.579  29.667  25.554  1.00  0.00     0.188 C 
BRANCH  28  29
ATOM     29  O   UNL A   1      31.810  30.381  26.509  1.00  0.00    -0.376 OA
BRANCH  29  30
ATOM     30  C   UNL A   1      31.140  31.572  26.139  1.00  0.00     0.202 C 
BRANCH  30  31
ATOM     31  C   UNL A   1      31.723  32.931  26.564  1.00  0.00     0.261 C 
BRANCH  31  32
ATOM     32  O   UNL A   1      32.312  33.021  27.870  1.00  0.00    -0.460 OA
BRANCH  32  33
ATOM     33  C   UNL A   1      33.331  33.887  28.042  1.00  0.00     0.338 C 
ATOM     34  O   UNL A   1      33.241  35.101  28.150  1.00  0.00    -0.246 OA
BRANCH  33  35
ATOM     35  C   UNL A   1      34.559  33.109  28.320  1.00  0.00     0.060 A 
ATOM     36  C   UNL A   1      34.428  31.802  28.811  1.00  0.00     0.016 A 
ATOM     37  C   UNL A   1      35.825  33.669  28.129  1.00  0.00     0.016 A 
ATOM     38  C   UNL A   1      35.555  31.088  29.204  1.00  0.00     0.010 A 
ATOM     39  C   UNL A   1      36.955  32.965  28.554  1.00  0.00     0.010 A 
ATOM     40  C   UNL A   1      36.811  31.704  29.161  1.00  0.00    -0.014 A 
BRANCH  40  41
ATOM     41  C   UNL A   1      37.867  31.179  30.060  1.00  0.00     0.031 A 
ATOM     42  C   UNL A   1      38.806  30.144  29.490  1.00  0.00     0.074 A 
ATOM     43  C   UNL A   1      38.055  31.669  31.296  1.00  0.00     0.049 A 
ATOM     44  N   UNL A   1      39.817  29.535  30.049  1.00  0.00    -0.248 NA
ATOM     45  C   UNL A   1      38.563  29.744  28.092  1.00  0.00     0.031 C 
ATOM     46  C   UNL A   1      37.253  32.719  31.920  1.00  0.00     0.029 A 
ATOM     47  N   UNL A   1      38.993  31.349  32.244  1.00  0.00    -0.354 N 
ATOM     48  C   UNL A   1      40.326  28.679  29.075  1.00  0.00     0.074 A 
ATOM     49  C   UNL A   1      39.481  28.811  27.911  1.00  0.00     0.031 C 
ATOM     50  C   UNL A   1      37.735  32.956  33.154  1.00  0.00     0.029 A 
ATOM     51  C   UNL A   1      38.854  32.052  33.417  1.00  0.00     0.049 A 
ATOM     52  H   UNL A   1      39.699  30.680  32.098  1.00  0.00     0.167 HD
ATOM     53  C   UNL A   1      41.409  27.868  29.140  1.00  0.00     0.034 A 
ATOM     54  C   UNL A   1      39.542  31.957  34.572  1.00  0.00     0.034 A 
ATOM     55  C   UNL A   1      42.235  27.742  30.314  1.00  0.00     0.049 A 
ATOM     56  C   UNL A   1      40.689  30.974  34.654  1.00  0.00     0.074 A 
ATOM     57  C   UNL A   1      43.353  26.950  30.501  1.00  0.00     0.029 A 
ATOM     58  N   UNL A   1      42.025  28.423  31.507  1.00  0.00    -0.354 N 
ATOM     59  N   UNL A   1      41.160  30.166  33.730  1.00  0.00    -0.248 NA
ATOM     60  C   UNL A   1      41.406  30.905  35.934  1.00  0.00     0.031 C 
ATOM     61  C   UNL A   1      43.769  27.089  31.830  1.00  0.00     0.029 A 
ATOM     62  C   UNL A   1      42.972  28.041  32.445  1.00  0.00     0.049 A 
ATOM     63  H   UNL A   1      41.309  29.080  31.663  1.00  0.00     0.167 HD
ATOM     64  C   UNL A   1      42.251  29.520  34.309  1.00  0.00     0.074 A 
ATOM     65  C   UNL A   1      42.379  30.054  35.650  1.00  0.00     0.031 C 
ATOM     66  C   UNL A   1      43.075  28.574  33.785  1.00  0.00     0.034 A 
BRANCH  53  67
ATOM     67  C   UNL A   1      41.711  27.016  27.929  1.00  0.00     0.023 A 
ATOM     68  C   UNL A   1      41.430  25.637  27.898  1.00  0.00     0.031 A 
ATOM     69  C   UNL A   1      42.334  27.583  26.803  1.00  0.00     0.131 A 
ATOM     70  C   UNL A   1      41.839  24.863  26.802  1.00  0.00     0.055 A 
ATOM     71  C   UNL A   1      42.659  26.822  25.678  1.00  0.00     0.041 A 
ATOM     72  F   UNL A   1      42.657  28.885  26.784  1.00  0.00    -0.206 F 
ATOM     73  C   UNL A   1      42.426  25.450  25.680  1.00  0.00     0.022 A 
BRANCH  70  74
ATOM     74  S   UNL A   1      41.741  23.056  26.930  1.00  0.00     0.124 S 
ATOM     75  O   UNL A   1      40.449  22.877  27.590  1.00  0.00    -0.237 OA
ATOM     76  O   UNL A   1      41.810  22.636  25.536  1.00  0.00    -0.237 OA
ATOM     77  O   UNL A   1      42.902  22.705  27.747  1.00  0.00    -0.744 OA
ENDBRANCH  70  74
ENDBRANCH  53  67
BRANCH  54  78
ATOM     78  C   UNL A   1      39.158  32.778  35.758  1.00  0.00     0.023 A 
ATOM     79  C   UNL A   1      39.700  34.056  35.967  1.00  0.00     0.031 A 
ATOM     80  C   UNL A   1      38.293  32.262  36.740  1.00  0.00     0.131 A 
ATOM     81  C   UNL A   1      39.416  34.752  37.154  1.00  0.00     0.055 A 
ATOM     82  C   UNL A   1      37.965  32.984  37.889  1.00  0.00     0.041 A 
ATOM     83  F   UNL A   1      37.750  31.043  36.596  1.00  0.00    -0.206 F 
ATOM     84  C   UNL A   1      38.541  34.231  38.109  1.00  0.00     0.022 A 
BRANCH  81  85
ATOM     85  S   UNL A   1      40.292  36.307  37.479  1.00  0.00     0.124 S 
ATOM     86  O   UNL A   1      40.444  36.848  36.133  1.00  0.00    -0.237 OA
ATOM     87  O   UNL A   1      39.353  37.005  38.350  1.00  0.00    -0.237 OA
ATOM     88  O   UNL A   1      41.530  35.872  38.122  1.00  0.00    -0.744 OA
ENDBRANCH  81  85
ENDBRANCH  54  78
BRANCH  66  89
ATOM     89  C   UNL A   1      44.215  28.098  34.657  1.00  0.00     0.023 A 
ATOM     90  C   UNL A   1      44.048  27.067  35.596  1.00  0.00     0.031 A 
ATOM     91  C   UNL A   1      45.477  28.716  34.575  1.00  0.00     0.131 A 
ATOM     92  C   UNL A   1      45.094  26.745  36.475  1.00  0.00     0.055 A 
ATOM     93  C   UNL A   1      46.539  28.332  35.394  1.00  0.00     0.041 A 
ATOM     94  F   UNL A   1      45.698  29.708  33.698  1.00  0.00    -0.206 F 
ATOM     95  C   UNL A   1      46.344  27.356  36.367  1.00  0.00     0.022 A 
BRANCH  92  96
ATOM     96  S   UNL A   1      44.747  25.623  37.858  1.00  0.00     0.124 S 
ATOM     97  O   UNL A   1      46.076  25.426  38.427  1.00  0.00    -0.237 OA
ATOM     98  O   UNL A   1      43.817  26.403  38.667  1.00  0.00    -0.237 OA
ATOM     99  O   UNL A   1      44.170  24.448  37.208  1.00  0.00    -0.744 OA
ENDBRANCH  92  96
ENDBRANCH  66  89
ENDBRANCH  40  41
ENDBRANCH  33  35
ENDBRANCH  32  33
ENDBRANCH  31  32
ENDBRANCH  30  31
ENDBRANCH  29  30
ENDBRANCH  28  29
ENDBRANCH   1  28
TORSDOF 24
ENDMDL
MODEL 3
REMARK VINA RESULT:     -10.2      2.199      7.689
REMARK SMILES C[C@H]1CCC[C@H](C)N1C(=O)[C@H]1[C@@H](C(=O)OCCOCCOCCOCCOC(=O)c2ccc(-c3c4nc(c(-c5cc(S(=O)(=O)[O-])ccc5F)c5ccc([nH]5)c(-c5cc(S(=O)(=O)[O-])ccc5F)c5nc(c(-c6cc(S(=O)(=O)[O-])ccc6F)c6ccc3[nH]6)C=C5)C=C4)cc2)[C@H]2CC[C@@H]1O2
REMARK SMILES IDX 22 1 21 2 20 3 19 4 18 5 17 6 16 7 15 8 13 9 14 10 12 11
REMARK SMILES IDX 11 12 96 13 93 14 95 15 97 16 94 17 9 18 1 19 2 20 3 21 8 22
REMARK SMILES IDX 4 23 6 24 5 25 7 26 10 27 23 28 24 29 25 30 26 31 27 32
REMARK SMILES IDX 28 33 29 34 30 35 31 36 92 37 32 38 91 39 33 40 34 41 35 42
REMARK SMILES IDX 85 43 36 44 90 45 84 46 86 47 37 48 89 49 83 50 82 51 38 53
REMARK SMILES IDX 70 54 50 55 69 56 51 57 54 58 68 59 87 60 52 61 53 62 67 64
REMARK SMILES IDX 88 65 55 66 39 67 40 68 48 69 41 70 47 71 49 72 46 73 42 74
REMARK SMILES IDX 43 75 44 76 45 77 71 78 72 79 80 80 73 81 79 82 81 83 78 84
REMARK SMILES IDX 74 85 75 86 76 87 77 88 56 89 57 90 65 91 58 92 64 93 66 94
REMARK SMILES IDX 63 95 59 96 60 97 61 98 62 99
REMARK H PARENT 86 52 54 63
REMARK Flexibility Score: inf
ROOT
ATOM      1  C   UNL A   1      32.364  28.503  25.023  1.00  0.00     0.188 C 
ENDROOT
BRANCH   1   2
ATOM      2  O   UNL A   1      32.398  28.623  23.606  1.00  0.00    -0.377 OA
BRANCH   2   3
ATOM      3  C   UNL A   1      33.641  28.431  22.974  1.00  0.00     0.188 C 
BRANCH   3   4
ATOM      4  C   UNL A   1      34.020  26.969  22.688  1.00  0.00     0.188 C 
BRANCH   4   5
ATOM      5  O   UNL A   1      33.484  26.197  21.618  1.00  0.00    -0.376 OA
BRANCH   5   6
ATOM      6  C   UNL A   1      32.207  25.585  21.584  1.00  0.00     0.202 C 
BRANCH   6   7
ATOM      7  C   UNL A   1      31.454  25.102  22.836  1.00  0.00     0.261 C 
BRANCH   7   8
ATOM      8  O   UNL A   1      31.319  23.694  23.070  1.00  0.00    -0.463 OA
BRANCH   8   9
ATOM      9  C   UNL A   1      32.500  23.061  23.153  1.00  0.00     0.312 C 
ATOM     10  O   UNL A   1      32.985  22.435  22.214  1.00  0.00    -0.252 OA
BRANCH   9  11
ATOM     11  C   UNL A   1      33.274  23.189  24.443  1.00  0.00     0.143 C 
ATOM     12  C   UNL A   1      33.793  21.914  25.108  1.00  0.00     0.124 C 
ATOM     13  C   UNL A   1      33.993  22.451  26.539  1.00  0.00     0.132 C 
ATOM     14  C   UNL A   1      32.728  24.089  25.619  1.00  0.00     0.133 C 
ATOM     15  C   UNL A   1      32.867  22.582  27.543  1.00  0.00     0.035 C 
ATOM     16  O   UNL A   1      34.068  23.873  26.222  1.00  0.00    -0.373 OA
ATOM     17  C   UNL A   1      32.192  23.867  27.077  1.00  0.00     0.036 C 
BRANCH  12  18
ATOM     18  C   UNL A   1      32.948  20.673  24.879  1.00  0.00     0.229 C 
ATOM     19  C   UNL A   1      36.110  19.736  25.041  1.00  0.00     0.031 C 
ATOM     20  C   UNL A   1      34.956  19.018  24.321  1.00  0.00     0.082 C 
ATOM     21  C   UNL A   1      35.195  17.522  24.614  1.00  0.00     0.025 C 
ATOM     22  N   UNL A   1      33.516  19.423  24.537  1.00  0.00    -0.337 N 
ATOM     23  C   UNL A   1      34.267  16.647  23.802  1.00  0.00     0.004 C 
ATOM     24  C   UNL A   1      32.510  18.472  23.965  1.00  0.00     0.082 C 
ATOM     25  C   UNL A   1      32.840  16.990  24.180  1.00  0.00     0.025 C 
ATOM     26  C   UNL A   1      32.261  18.745  22.473  1.00  0.00     0.031 C 
ATOM     27  O   UNL A   1      31.724  20.786  24.994  1.00  0.00    -0.274 OA
ENDBRANCH  12  18
ENDBRANCH   9  11
ENDBRANCH   8   9
ENDBRANCH   7   8
ENDBRANCH   6   7
ENDBRANCH   5   6
ENDBRANCH   4   5
ENDBRANCH   3   4
ENDBRANCH   2   3
ENDBRANCH   1   2
BRANCH   1  28
ATOM     28  C   UNL A   1      33.077  29.583  25.872  1.00  0.00     0.188 C 
BRANCH  28  29
ATOM     29  O   UNL A   1      32.255  30.197  26.851  1.00  0.00    -0.376 OA
BRANCH  29  30
ATOM     30  C   UNL A   1      31.401  31.269  26.494  1.00  0.00     0.202 C 
BRANCH  30  31
ATOM     31  C   UNL A   1      31.887  32.718  26.676  1.00  0.00     0.261 C 
BRANCH  31  32
ATOM     32  O   UNL A   1      32.405  33.086  27.962  1.00  0.00    -0.460 OA
BRANCH  32  33
ATOM     33  C   UNL A   1      33.481  33.898  27.999  1.00  0.00     0.338 C 
ATOM     34  O   UNL A   1      33.468  35.119  28.026  1.00  0.00    -0.246 OA
BRANCH  33  35
ATOM     35  C   UNL A   1      34.681  33.067  28.243  1.00  0.00     0.060 A 
ATOM     36  C   UNL A   1      34.507  31.767  28.740  1.00  0.00     0.016 A 
ATOM     37  C   UNL A   1      35.964  33.571  28.016  1.00  0.00     0.016 A 
ATOM     38  C   UNL A   1      35.612  31.003  29.101  1.00  0.00     0.010 A 
ATOM     39  C   UNL A   1      37.074  32.817  28.409  1.00  0.00     0.010 A 
ATOM     40  C   UNL A   1      36.892  31.565  29.022  1.00  0.00    -0.014 A 
BRANCH  40  41
ATOM     41  C   UNL A   1      37.949  30.994  29.891  1.00  0.00     0.031 A 
ATOM     42  C   UNL A   1      38.884  29.985  29.269  1.00  0.00     0.074 A 
ATOM     43  C   UNL A   1      38.141  31.422  31.149  1.00  0.00     0.049 A 
ATOM     44  N   UNL A   1      39.896  29.347  29.794  1.00  0.00    -0.248 NA
ATOM     45  C   UNL A   1      38.637  29.655  27.854  1.00  0.00     0.031 C 
ATOM     46  C   UNL A   1      37.342  32.441  31.827  1.00  0.00     0.029 A 
ATOM     47  N   UNL A   1      39.080  31.053  32.078  1.00  0.00    -0.354 N 
ATOM     48  C   UNL A   1      40.400  28.539  28.778  1.00  0.00     0.074 A 
ATOM     49  C   UNL A   1      39.553  28.731  27.624  1.00  0.00     0.031 C 
ATOM     50  C   UNL A   1      37.828  32.616  33.070  1.00  0.00     0.029 A 
ATOM     51  C   UNL A   1      38.946  31.698  33.285  1.00  0.00     0.049 A 
ATOM     52  H   UNL A   1      39.785  30.390  31.898  1.00  0.00     0.167 HD
ATOM     53  C   UNL A   1      41.481  27.724  28.801  1.00  0.00     0.034 A 
ATOM     54  C   UNL A   1      39.636  31.544  34.433  1.00  0.00     0.034 A 
ATOM     55  C   UNL A   1      42.310  27.539  29.965  1.00  0.00     0.049 A 
ATOM     56  C   UNL A   1      40.781  30.556  34.463  1.00  0.00     0.074 A 
ATOM     57  C   UNL A   1      43.426  26.736  30.110  1.00  0.00     0.029 A 
ATOM     58  N   UNL A   1      42.104  28.160  31.191  1.00  0.00    -0.354 N 
ATOM     59  N   UNL A   1      41.248  29.794  33.499  1.00  0.00    -0.248 NA
ATOM     60  C   UNL A   1      41.501  30.422  35.736  1.00  0.00     0.031 C 
ATOM     61  C   UNL A   1      43.846  26.808  31.443  1.00  0.00     0.029 A 
ATOM     62  C   UNL A   1      43.052  27.731  32.107  1.00  0.00     0.049 A 
ATOM     63  H   UNL A   1      41.390  28.810  31.381  1.00  0.00     0.167 HD
ATOM     64  C   UNL A   1      42.339  29.118  34.043  1.00  0.00     0.074 A 
ATOM     65  C   UNL A   1      42.471  29.584  35.408  1.00  0.00     0.031 C 
ATOM     66  C   UNL A   1      43.159  28.197  33.471  1.00  0.00     0.034 A 
BRANCH  53  67
ATOM     67  C   UNL A   1      41.779  26.932  27.548  1.00  0.00     0.023 A 
ATOM     68  C   UNL A   1      41.475  25.562  27.443  1.00  0.00     0.031 A 
ATOM     69  C   UNL A   1      42.420  27.547  26.458  1.00  0.00     0.131 A 
ATOM     70  C   UNL A   1      41.881  24.839  26.310  1.00  0.00     0.055 A 
ATOM     71  C   UNL A   1      42.740  26.841  25.297  1.00  0.00     0.041 A 
ATOM     72  F   UNL A   1      42.763  28.843  26.511  1.00  0.00    -0.206 F 
ATOM     73  C   UNL A   1      42.486  25.475  25.225  1.00  0.00     0.022 A 
BRANCH  70  74
ATOM     74  S   UNL A   1      41.752  23.030  26.343  1.00  0.00     0.124 S 
ATOM     75  O   UNL A   1      40.305  22.836  26.263  1.00  0.00    -0.237 OA
ATOM     76  O   UNL A   1      42.515  22.638  25.164  1.00  0.00    -0.237 OA
ATOM     77  O   UNL A   1      42.352  22.666  27.625  1.00  0.00    -0.744 OA
ENDBRANCH  70  74
ENDBRANCH  53  67
BRANCH  54  78
ATOM     78  C   UNL A   1      39.257  32.306  35.658  1.00  0.00     0.023 A 
ATOM     79  C   UNL A   1      38.549  31.696  36.707  1.00  0.00     0.031 A 
ATOM     80  C   UNL A   1      39.536  33.680  35.766  1.00  0.00     0.131 A 
ATOM     81  C   UNL A   1      38.097  32.469  37.790  1.00  0.00     0.055 A 
ATOM     82  C   UNL A   1      39.138  34.431  36.874  1.00  0.00     0.041 A 
ATOM     83  F   UNL A   1      40.204  34.317  34.791  1.00  0.00    -0.206 F 
ATOM     84  C   UNL A   1      38.400  33.828  37.888  1.00  0.00     0.022 A 
BRANCH  81  85
ATOM     85  S   UNL A   1      37.017  31.689  39.021  1.00  0.00     0.124 S 
ATOM     86  O   UNL A   1      35.875  32.596  39.031  1.00  0.00    -0.237 OA
ATOM     87  O   UNL A   1      36.789  30.374  38.433  1.00  0.00    -0.237 OA
ATOM     88  O   UNL A   1      37.829  31.693  40.236  1.00  0.00    -0.744 OA
ENDBRANCH  81  85
ENDBRANCH  54  78
BRANCH  66  89
ATOM     89  C   UNL A   1      44.301  27.676  34.316  1.00  0.00     0.023 A 
ATOM     90  C   UNL A   1      45.527  28.358  34.405  1.00  0.00     0.031 A 
ATOM     91  C   UNL A   1      44.173  26.459  35.010  1.00  0.00     0.131 A 
ATOM     92  C   UNL A   1      46.602  27.776  35.094  1.00  0.00     0.055 A 
ATOM     93  C   UNL A   1      45.219  25.928  35.764  1.00  0.00     0.041 A 
ATOM     94  F   UNL A   1      43.027  25.761  34.962  1.00  0.00    -0.206 F 
ATOM     95  C   UNL A   1      46.450  26.576  35.790  1.00  0.00     0.022 A 
BRANCH  92  96
ATOM     96  S   UNL A   1      48.241  28.537  34.939  1.00  0.00     0.124 S 
ATOM     97  O   UNL A   1      48.519  28.368  33.516  1.00  0.00    -0.237 OA
ATOM     98  O   UNL A   1      47.994  29.905  35.382  1.00  0.00    -0.237 OA
ATOM     99  O   UNL A   1      49.076  27.736  35.833  1.00  0.00    -0.744 OA
ENDBRANCH  92  96
ENDBRANCH  66  89
ENDBRANCH  40  41
ENDBRANCH  33  35
ENDBRANCH  32  33
ENDBRANCH  31  32
ENDBRANCH  30  31
ENDBRANCH  29  30
ENDBRANCH  28  29
ENDBRANCH   1  28
TORSDOF 24
ENDMDL
