MODEL 1
REMARK VINA RESULT:      -7.7      0.000      0.000
REMARK SMILES C[C@H]1Oc2ccccc2C=C1/C=C/C(=O)N[C@H](C(=O)OCCOCCOCCOCCOC(=O)c1ccc(-c2c3nc(c(-c4cc(S(=O)(=O)[O-])ccc4F)c4ccc([nH]4)c(-c4cc(S(=O)(=O)[O-])ccc4F)c4nc(c(-c5cc(S(=O)(=O)[O-])ccc5F)c5ccc2[nH]5)C=C4)C=C3)cc1)c1ccccc1
REMARK SMILES IDX 26 1 25 2 24 3 23 4 22 5 21 6 20 7 18 8 19 9 17 10 16 11
REMARK SMILES IDX 14 12 15 13 13 15 12 16 11 17 1 18 2 19 3 20 4 21 10 22 5 23
REMARK SMILES IDX 9 24 6 25 8 26 7 27 98 28 99 29 103 30 100 31 102 32 101 33
REMARK SMILES IDX 27 34 28 35 29 36 30 37 31 38 32 39 33 40 34 41 35 42 36 43
REMARK SMILES IDX 97 44 37 45 96 46 38 47 39 48 40 49 90 50 41 51 95 52 89 53
REMARK SMILES IDX 91 54 42 55 94 56 88 57 87 58 43 60 75 61 55 62 74 63 56 64
REMARK SMILES IDX 59 65 73 66 92 67 57 68 58 69 72 71 93 72 60 73 44 74 45 75
REMARK SMILES IDX 53 76 46 77 52 78 54 79 51 80 47 81 48 82 49 83 50 84 76 85
REMARK SMILES IDX 77 86 85 87 78 88 84 89 86 90 83 91 79 92 80 93 81 94 82 95
REMARK SMILES IDX 61 96 62 97 70 98 63 99 69 100 71 101 68 102 64 103 65 104
REMARK SMILES IDX 66 105 67 106
REMARK H PARENT 16 14 91 59 59 70
REMARK Flexibility Score: inf
ROOT
ATOM      1  O   UNL A   1      39.355  27.207  29.382  1.00  0.00    -0.377 OA
ENDROOT
BRANCH   1   2
ATOM      2  C   UNL A   1      38.765  27.039  30.661  1.00  0.00     0.188 C 
BRANCH   2   3
ATOM      3  C   UNL A   1      38.938  28.032  31.831  1.00  0.00     0.188 C 
BRANCH   3   4
ATOM      4  O   UNL A   1      40.168  28.703  32.089  1.00  0.00    -0.376 OA
BRANCH   4   5
ATOM      5  C   UNL A   1      40.563  29.054  33.410  1.00  0.00     0.202 C 
BRANCH   5   6
ATOM      6  C   UNL A   1      40.413  30.514  33.862  1.00  0.00     0.261 C 
BRANCH   6   7
ATOM      7  O   UNL A   1      39.824  31.299  32.820  1.00  0.00    -0.461 OA
BRANCH   7   8
ATOM      8  C   UNL A   1      38.517  31.645  32.964  1.00  0.00     0.333 C 
ATOM      9  O   UNL A   1      37.601  30.855  33.150  1.00  0.00    -0.249 OA
BRANCH   8  10
ATOM     10  C   UNL A   1      38.397  33.189  32.910  1.00  0.00     0.223 C 
BRANCH  10  11
ATOM     11  N   UNL A   1      39.272  33.748  31.886  1.00  0.00    -0.335 N 
ATOM     12  C   UNL A   1      39.375  33.428  30.566  1.00  0.00     0.244 C 
ATOM     13  O   UNL A   1      40.192  34.015  29.863  1.00  0.00    -0.270 OA
ATOM     14  H   UNL A   1      39.879  34.460  32.194  1.00  0.00     0.165 HD
BRANCH  12  15
ATOM     15  C   UNL A   1      38.438  32.454  29.958  1.00  0.00     0.071 C 
ATOM     16  C   UNL A   1      37.520  32.802  29.039  1.00  0.00     0.013 C 
BRANCH  16  17
ATOM     17  C   UNL A   1      36.576  31.851  28.454  1.00  0.00    -0.007 C 
ATOM     18  C   UNL A   1      36.340  29.885  29.894  1.00  0.00     0.058 C 
ATOM     19  C   UNL A   1      36.927  30.382  28.587  1.00  0.00     0.200 C 
ATOM     20  O   UNL A   1      36.391  29.560  27.543  1.00  0.00    -0.485 OA
ATOM     21  C   UNL A   1      35.038  29.758  27.419  1.00  0.00     0.127 A 
ATOM     22  C   UNL A   1      35.378  32.166  27.925  1.00  0.00     0.019 C 
ATOM     23  C   UNL A   1      34.257  28.643  27.133  1.00  0.00     0.047 A 
ATOM     24  C   UNL A   1      34.488  31.043  27.568  1.00  0.00     0.017 A 
ATOM     25  C   UNL A   1      32.892  28.803  26.951  1.00  0.00     0.004 A 
ATOM     26  C   UNL A   1      33.115  31.192  27.376  1.00  0.00     0.012 A 
ATOM     27  C   UNL A   1      32.326  30.075  27.060  1.00  0.00     0.001 A 
ENDBRANCH  16  17
ENDBRANCH  12  15
ENDBRANCH  10  11
BRANCH  10  28
ATOM     28  C   UNL A   1      36.916  33.532  32.709  1.00  0.00    -0.014 A 
ATOM     29  C   UNL A   1      36.491  34.869  32.816  1.00  0.00     0.006 A 
ATOM     30  C   UNL A   1      35.925  32.543  32.605  1.00  0.00     0.006 A 
ATOM     31  C   UNL A   1      35.136  35.203  32.898  1.00  0.00     0.000 A 
ATOM     32  C   UNL A   1      34.567  32.880  32.648  1.00  0.00     0.000 A 
ATOM     33  C   UNL A   1      34.173  34.204  32.822  1.00  0.00     0.000 A 
ENDBRANCH  10  28
ENDBRANCH   8  10
ENDBRANCH   7   8
ENDBRANCH   6   7
ENDBRANCH   5   6
ENDBRANCH   4   5
ENDBRANCH   3   4
ENDBRANCH   2   3
ENDBRANCH   1   2
BRANCH   1  34
ATOM     34  C   UNL A   1      39.687  26.074  28.612  1.00  0.00     0.188 C 
BRANCH  34  35
ATOM     35  C   UNL A   1      40.193  26.408  27.207  1.00  0.00     0.188 C 
BRANCH  35  36
ATOM     36  O   UNL A   1      41.489  25.945  26.851  1.00  0.00    -0.376 OA
BRANCH  36  37
ATOM     37  C   UNL A   1      42.035  26.383  25.606  1.00  0.00     0.202 C 
BRANCH  37  38
ATOM     38  C   UNL A   1      42.374  27.871  25.400  1.00  0.00     0.261 C 
BRANCH  38  39
ATOM     39  O   UNL A   1      42.133  28.726  26.540  1.00  0.00    -0.460 OA
BRANCH  39  40
ATOM     40  C   UNL A   1      43.211  29.437  26.967  1.00  0.00     0.338 C 
ATOM     41  O   UNL A   1      43.724  30.378  26.386  1.00  0.00    -0.246 OA
BRANCH  40  42
ATOM     42  C   UNL A   1      43.684  28.992  28.299  1.00  0.00     0.060 A 
ATOM     43  C   UNL A   1      44.989  29.242  28.735  1.00  0.00     0.016 A 
ATOM     44  C   UNL A   1      42.742  28.478  29.195  1.00  0.00     0.016 A 
ATOM     45  C   UNL A   1      45.341  28.996  30.076  1.00  0.00     0.010 A 
ATOM     46  C   UNL A   1      43.103  28.220  30.525  1.00  0.00     0.010 A 
ATOM     47  C   UNL A   1      44.405  28.478  30.988  1.00  0.00    -0.014 A 
BRANCH  47  48
ATOM     48  C   UNL A   1      44.709  28.375  32.449  1.00  0.00     0.031 A 
ATOM     49  C   UNL A   1      45.282  27.141  33.092  1.00  0.00     0.074 A 
ATOM     50  C   UNL A   1      44.471  29.444  33.230  1.00  0.00     0.049 A 
ATOM     51  N   UNL A   1      45.346  26.804  34.358  1.00  0.00    -0.248 NA
ATOM     52  C   UNL A   1      45.844  26.145  32.187  1.00  0.00     0.031 C 
ATOM     53  C   UNL A   1      43.995  30.736  32.749  1.00  0.00     0.029 A 
ATOM     54  N   UNL A   1      44.630  29.618  34.581  1.00  0.00    -0.354 N 
ATOM     55  C   UNL A   1      45.811  25.487  34.385  1.00  0.00     0.074 A 
ATOM     56  C   UNL A   1      46.082  25.135  33.015  1.00  0.00     0.031 C 
ATOM     57  C   UNL A   1      43.938  31.587  33.784  1.00  0.00     0.029 A 
ATOM     58  C   UNL A   1      44.342  30.891  35.005  1.00  0.00     0.049 A 
ATOM     59  H   UNL A   1      44.922  28.899  35.188  1.00  0.00     0.167 HD
ATOM     60  C   UNL A   1      45.979  24.664  35.455  1.00  0.00     0.034 A 
ATOM     61  C   UNL A   1      44.419  31.443  36.234  1.00  0.00     0.034 A 
ATOM     62  C   UNL A   1      45.988  25.154  36.817  1.00  0.00     0.049 A 
ATOM     63  C   UNL A   1      44.918  30.611  37.386  1.00  0.00     0.074 A 
ATOM     64  C   UNL A   1      46.284  24.461  37.980  1.00  0.00     0.029 A 
ATOM     65  N   UNL A   1      45.801  26.478  37.185  1.00  0.00    -0.354 N 
ATOM     66  N   UNL A   1      45.218  29.334  37.412  1.00  0.00    -0.248 NA
ATOM     67  C   UNL A   1      45.119  31.296  38.671  1.00  0.00     0.031 C 
ATOM     68  C   UNL A   1      46.275  25.362  39.046  1.00  0.00     0.029 A 
ATOM     69  C   UNL A   1      46.031  26.628  38.543  1.00  0.00     0.049 A 
ATOM     70  H   UNL A   1      45.543  27.204  36.572  1.00  0.00     0.167 HD
ATOM     71  C   UNL A   1      45.656  29.067  38.706  1.00  0.00     0.074 A 
ATOM     72  C   UNL A   1      45.620  30.323  39.423  1.00  0.00     0.031 C 
ATOM     73  C   UNL A   1      46.032  27.883  39.252  1.00  0.00     0.034 A 
BRANCH  60  74
ATOM     74  C   UNL A   1      46.207  23.169  35.266  1.00  0.00     0.023 A 
ATOM     75  C   UNL A   1      47.515  22.707  34.980  1.00  0.00     0.031 A 
ATOM     76  C   UNL A   1      45.167  22.227  35.192  1.00  0.00     0.131 A 
ATOM     77  C   UNL A   1      47.734  21.377  34.588  1.00  0.00     0.055 A 
ATOM     78  C   UNL A   1      45.403  20.881  34.891  1.00  0.00     0.041 A 
ATOM     79  F   UNL A   1      43.891  22.596  35.387  1.00  0.00    -0.206 F 
ATOM     80  C   UNL A   1      46.686  20.455  34.568  1.00  0.00     0.022 A 
BRANCH  77  81
ATOM     81  S   UNL A   1      49.348  20.824  33.962  1.00  0.00     0.124 S 
ATOM     82  O   UNL A   1      49.993  20.344  35.182  1.00  0.00    -0.237 OA
ATOM     83  O   UNL A   1      48.967  19.785  33.009  1.00  0.00    -0.237 OA
ATOM     84  O   UNL A   1      49.933  22.027  33.381  1.00  0.00    -0.744 OA
ENDBRANCH  77  81
ENDBRANCH  60  74
BRANCH  61  85
ATOM     85  C   UNL A   1      44.141  32.900  36.362  1.00  0.00     0.023 A 
ATOM     86  C   UNL A   1      42.835  33.369  36.590  1.00  0.00     0.031 A 
ATOM     87  C   UNL A   1      45.146  33.837  36.074  1.00  0.00     0.131 A 
ATOM     88  C   UNL A   1      42.555  34.733  36.437  1.00  0.00     0.055 A 
ATOM     89  C   UNL A   1      44.878  35.204  36.003  1.00  0.00     0.041 A 
ATOM     90  F   UNL A   1      46.400  33.429  35.827  1.00  0.00    -0.206 F 
ATOM     91  C   UNL A   1      43.571  35.655  36.161  1.00  0.00     0.022 A 
BRANCH  88  92
ATOM     92  S   UNL A   1      40.842  35.330  36.410  1.00  0.00     0.124 S 
ATOM     93  O   UNL A   1      40.099  34.136  36.800  1.00  0.00    -0.237 OA
ATOM     94  O   UNL A   1      40.883  36.401  37.403  1.00  0.00    -0.237 OA
ATOM     95  O   UNL A   1      40.652  35.771  35.032  1.00  0.00    -0.744 OA
ENDBRANCH  88  92
ENDBRANCH  61  85
BRANCH  73  96
ATOM     96  C   UNL A   1      46.459  27.845  40.700  1.00  0.00     0.023 A 
ATOM     97  C   UNL A   1      45.504  28.002  41.724  1.00  0.00     0.031 A 
ATOM     98  C   UNL A   1      47.818  27.815  41.057  1.00  0.00     0.131 A 
ATOM     99  C   UNL A   1      45.924  28.147  43.053  1.00  0.00     0.055 A 
ATOM    100  C   UNL A   1      48.228  27.920  42.387  1.00  0.00     0.041 A 
ATOM    101  F   UNL A   1      48.768  27.691  40.117  1.00  0.00    -0.206 F 
ATOM    102  C   UNL A   1      47.280  28.099  43.390  1.00  0.00     0.022 A 
BRANCH  99 103
ATOM    103  S   UNL A   1      44.738  28.482  44.385  1.00  0.00     0.124 S 
ATOM    104  O   UNL A   1      43.481  28.029  43.791  1.00  0.00    -0.237 OA
ATOM    105  O   UNL A   1      45.248  27.647  45.470  1.00  0.00    -0.237 OA
ATOM    106  O   UNL A   1      44.841  29.922  44.598  1.00  0.00    -0.744 OA
ENDBRANCH  99 103
ENDBRANCH  73  96
ENDBRANCH  47  48
ENDBRANCH  40  42
ENDBRANCH  39  40
ENDBRANCH  38  39
ENDBRANCH  37  38
ENDBRANCH  36  37
ENDBRANCH  35  36
ENDBRANCH  34  35
ENDBRANCH   1  34
TORSDOF 27
ENDMDL
MODEL 2
REMARK VINA RESULT:      -7.6      7.440     13.429
REMARK SMILES C[C@H]1Oc2ccccc2C=C1/C=C/C(=O)N[C@H](C(=O)OCCOCCOCCOCCOC(=O)c1ccc(-c2c3nc(c(-c4cc(S(=O)(=O)[O-])ccc4F)c4ccc([nH]4)c(-c4cc(S(=O)(=O)[O-])ccc4F)c4nc(c(-c5cc(S(=O)(=O)[O-])ccc5F)c5ccc2[nH]5)C=C4)C=C3)cc1)c1ccccc1
REMARK SMILES IDX 26 1 25 2 24 3 23 4 22 5 21 6 20 7 18 8 19 9 17 10 16 11
REMARK SMILES IDX 14 12 15 13 13 15 12 16 11 17 1 18 2 19 3 20 4 21 10 22 5 23
REMARK SMILES IDX 9 24 6 25 8 26 7 27 98 28 99 29 103 30 100 31 102 32 101 33
REMARK SMILES IDX 27 34 28 35 29 36 30 37 31 38 32 39 33 40 34 41 35 42 36 43
REMARK SMILES IDX 97 44 37 45 96 46 38 47 39 48 40 49 90 50 41 51 95 52 89 53
REMARK SMILES IDX 91 54 42 55 94 56 88 57 87 58 43 60 75 61 55 62 74 63 56 64
REMARK SMILES IDX 59 65 73 66 92 67 57 68 58 69 72 71 93 72 60 73 44 74 45 75
REMARK SMILES IDX 53 76 46 77 52 78 54 79 51 80 47 81 48 82 49 83 50 84 76 85
REMARK SMILES IDX 77 86 85 87 78 88 84 89 86 90 83 91 79 92 80 93 81 94 82 95
REMARK SMILES IDX 61 96 62 97 70 98 63 99 69 100 71 101 68 102 64 103 65 104
REMARK SMILES IDX 66 105 67 106
REMARK H PARENT 16 14 91 59 59 70
REMARK Flexibility Score: inf
ROOT
ATOM      1  O   UNL A   1      51.855  42.822  29.220  1.00  0.00    -0.377 OA
ENDROOT
BRANCH   1   2
ATOM      2  C   UNL A   1      51.202  43.991  28.753  1.00  0.00     0.188 C 
BRANCH   2   3
ATOM      3  C   UNL A   1      49.669  44.171  28.720  1.00  0.00     0.188 C 
BRANCH   3   4
ATOM      4  O   UNL A   1      49.003  44.866  27.670  1.00  0.00    -0.376 OA
BRANCH   4   5
ATOM      5  C   UNL A   1      48.819  44.280  26.386  1.00  0.00     0.202 C 
BRANCH   5   6
ATOM      6  C   UNL A   1      47.401  44.213  25.802  1.00  0.00     0.261 C 
BRANCH   6   7
ATOM      7  O   UNL A   1      46.684  43.109  26.361  1.00  0.00    -0.461 OA
BRANCH   7   8
ATOM      8  C   UNL A   1      45.602  43.395  27.134  1.00  0.00     0.333 C 
ATOM      9  O   UNL A   1      45.380  44.482  27.650  1.00  0.00    -0.249 OA
BRANCH   8  10
ATOM     10  C   UNL A   1      44.687  42.146  27.199  1.00  0.00     0.223 C 
BRANCH  10  11
ATOM     11  N   UNL A   1      44.058  42.024  28.509  1.00  0.00    -0.335 N 
ATOM     12  C   UNL A   1      43.707  40.903  29.199  1.00  0.00     0.244 C 
ATOM     13  O   UNL A   1      43.172  41.013  30.298  1.00  0.00    -0.270 OA
ATOM     14  H   UNL A   1      43.856  42.876  28.960  1.00  0.00     0.165 HD
BRANCH  12  15
ATOM     15  C   UNL A   1      44.062  39.563  28.678  1.00  0.00     0.071 C 
ATOM     16  C   UNL A   1      43.438  38.439  29.069  1.00  0.00     0.013 C 
BRANCH  16  17
ATOM     17  C   UNL A   1      43.801  37.111  28.578  1.00  0.00    -0.007 C 
ATOM     18  C   UNL A   1      41.931  36.113  27.353  1.00  0.00     0.058 C 
ATOM     19  C   UNL A   1      42.722  36.047  28.645  1.00  0.00     0.200 C 
ATOM     20  O   UNL A   1      43.229  34.713  28.763  1.00  0.00    -0.485 OA
ATOM     21  C   UNL A   1      44.147  34.454  27.775  1.00  0.00     0.127 A 
ATOM     22  C   UNL A   1      44.958  36.795  27.964  1.00  0.00     0.019 C 
ATOM     23  C   UNL A   1      44.140  33.179  27.220  1.00  0.00     0.047 A 
ATOM     24  C   UNL A   1      45.051  35.448  27.364  1.00  0.00     0.017 A 
ATOM     25  C   UNL A   1      45.080  32.858  26.253  1.00  0.00     0.004 A 
ATOM     26  C   UNL A   1      45.996  35.111  26.395  1.00  0.00     0.012 A 
ATOM     27  C   UNL A   1      46.012  33.817  25.852  1.00  0.00     0.001 A 
ENDBRANCH  16  17
ENDBRANCH  12  15
ENDBRANCH  10  11
BRANCH  10  28
ATOM     28  C   UNL A   1      43.686  42.245  26.041  1.00  0.00    -0.014 A 
ATOM     29  C   UNL A   1      42.630  41.320  25.955  1.00  0.00     0.006 A 
ATOM     30  C   UNL A   1      43.882  43.108  24.952  1.00  0.00     0.006 A 
ATOM     31  C   UNL A   1      41.851  41.203  24.800  1.00  0.00     0.000 A 
ATOM     32  C   UNL A   1      43.078  43.018  23.809  1.00  0.00     0.000 A 
ATOM     33  C   UNL A   1      42.082  42.049  23.722  1.00  0.00     0.000 A 
ENDBRANCH  10  28
ENDBRANCH   8  10
ENDBRANCH   7   8
ENDBRANCH   6   7
ENDBRANCH   5   6
ENDBRANCH   4   5
ENDBRANCH   3   4
ENDBRANCH   2   3
ENDBRANCH   1   2
BRANCH   1  34
ATOM     34  C   UNL A   1      51.844  42.518  30.598  1.00  0.00     0.188 C 
BRANCH  34  35
ATOM     35  C   UNL A   1      52.889  41.479  31.010  1.00  0.00     0.188 C 
BRANCH  35  36
ATOM     36  O   UNL A   1      53.455  40.677  29.982  1.00  0.00    -0.376 OA
BRANCH  36  37
ATOM     37  C   UNL A   1      52.737  39.512  29.574  1.00  0.00     0.202 C 
BRANCH  37  38
ATOM     38  C   UNL A   1      53.488  38.341  28.914  1.00  0.00     0.261 C 
BRANCH  38  39
ATOM     39  O   UNL A   1      52.774  37.664  27.855  1.00  0.00    -0.460 OA
BRANCH  39  40
ATOM     40  C   UNL A   1      52.364  36.401  28.150  1.00  0.00     0.338 C 
ATOM     41  O   UNL A   1      53.010  35.381  27.981  1.00  0.00    -0.246 OA
BRANCH  40  42
ATOM     42  C   UNL A   1      51.029  36.380  28.793  1.00  0.00     0.060 A 
ATOM     43  C   UNL A   1      49.859  36.611  28.063  1.00  0.00     0.016 A 
ATOM     44  C   UNL A   1      50.942  35.939  30.116  1.00  0.00     0.016 A 
ATOM     45  C   UNL A   1      48.604  36.377  28.655  1.00  0.00     0.010 A 
ATOM     46  C   UNL A   1      49.689  35.723  30.706  1.00  0.00     0.010 A 
ATOM     47  C   UNL A   1      48.500  35.933  29.985  1.00  0.00    -0.014 A 
BRANCH  47  48
ATOM     48  C   UNL A   1      47.190  35.515  30.572  1.00  0.00     0.031 A 
ATOM     49  C   UNL A   1      46.301  36.439  31.359  1.00  0.00     0.074 A 
ATOM     50  C   UNL A   1      46.776  34.250  30.378  1.00  0.00     0.049 A 
ATOM     51  N   UNL A   1      45.289  36.164  32.147  1.00  0.00    -0.248 NA
ATOM     52  C   UNL A   1      46.600  37.862  31.258  1.00  0.00     0.031 C 
ATOM     53  C   UNL A   1      47.481  33.258  29.573  1.00  0.00     0.029 A 
ATOM     54  N   UNL A   1      45.650  33.601  30.814  1.00  0.00    -0.354 N 
ATOM     55  C   UNL A   1      44.935  37.370  32.758  1.00  0.00     0.074 A 
ATOM     56  C   UNL A   1      45.793  38.372  32.180  1.00  0.00     0.031 C 
ATOM     57  C   UNL A   1      46.751  32.133  29.539  1.00  0.00     0.029 A 
ATOM     58  C   UNL A   1      45.544  32.315  30.345  1.00  0.00     0.049 A 
ATOM     59  H   UNL A   1      44.982  34.015  31.407  1.00  0.00     0.167 HD
ATOM     60  C   UNL A   1      43.993  37.598  33.713  1.00  0.00     0.034 A 
ATOM     61  C   UNL A   1      44.573  31.396  30.521  1.00  0.00     0.034 A 
ATOM     62  C   UNL A   1      42.964  36.633  34.033  1.00  0.00     0.049 A 
ATOM     63  C   UNL A   1      43.354  31.756  31.328  1.00  0.00     0.074 A 
ATOM     64  C   UNL A   1      41.871  36.785  34.872  1.00  0.00     0.029 A 
ATOM     65  N   UNL A   1      42.836  35.384  33.444  1.00  0.00    -0.354 N 
ATOM     66  N   UNL A   1      43.109  32.851  32.008  1.00  0.00    -0.248 NA
ATOM     67  C   UNL A   1      42.263  30.772  31.372  1.00  0.00     0.031 C 
ATOM     68  C   UNL A   1      41.087  35.632  34.791  1.00  0.00     0.029 A 
ATOM     69  C   UNL A   1      41.659  34.783  33.858  1.00  0.00     0.049 A 
ATOM     70  H   UNL A   1      43.487  34.983  32.823  1.00  0.00     0.167 HD
ATOM     71  C   UNL A   1      41.835  32.695  32.546  1.00  0.00     0.074 A 
ATOM     72  C   UNL A   1      41.342  31.417  32.080  1.00  0.00     0.031 C 
ATOM     73  C   UNL A   1      41.148  33.528  33.368  1.00  0.00     0.034 A 
BRANCH  60  74
ATOM     74  C   UNL A   1      43.954  38.916  34.476  1.00  0.00     0.023 A 
ATOM     75  C   UNL A   1      43.509  40.082  33.805  1.00  0.00     0.031 A 
ATOM     76  C   UNL A   1      44.492  39.087  35.762  1.00  0.00     0.131 A 
ATOM     77  C   UNL A   1      43.657  41.347  34.395  1.00  0.00     0.055 A 
ATOM     78  C   UNL A   1      44.553  40.339  36.383  1.00  0.00     0.041 A 
ATOM     79  F   UNL A   1      44.994  38.043  36.441  1.00  0.00    -0.206 F 
ATOM     80  C   UNL A   1      44.154  41.478  35.692  1.00  0.00     0.022 A 
BRANCH  77  81
ATOM     81  S   UNL A   1      43.344  42.874  33.460  1.00  0.00     0.124 S 
ATOM     82  O   UNL A   1      42.039  42.597  32.863  1.00  0.00    -0.237 OA
ATOM     83  O   UNL A   1      43.343  43.884  34.515  1.00  0.00    -0.237 OA
ATOM     84  O   UNL A   1      44.456  42.947  32.520  1.00  0.00    -0.744 OA
ENDBRANCH  77  81
ENDBRANCH  60  74
BRANCH  61  85
ATOM     85  C   UNL A   1      44.690  30.108  29.783  1.00  0.00     0.023 A 
ATOM     86  C   UNL A   1      44.095  29.942  28.520  1.00  0.00     0.031 A 
ATOM     87  C   UNL A   1      45.236  28.980  30.417  1.00  0.00     0.131 A 
ATOM     88  C   UNL A   1      43.985  28.657  27.972  1.00  0.00     0.055 A 
ATOM     89  C   UNL A   1      45.195  27.715  29.830  1.00  0.00     0.041 A 
ATOM     90  F   UNL A   1      45.791  29.090  31.634  1.00  0.00    -0.206 F 
ATOM     91  C   UNL A   1      44.545  27.546  28.612  1.00  0.00     0.022 A 
BRANCH  88  92
ATOM     92  S   UNL A   1      42.955  28.360  26.508  1.00  0.00     0.124 S 
ATOM     93  O   UNL A   1      43.958  28.119  25.476  1.00  0.00    -0.237 OA
ATOM     94  O   UNL A   1      42.181  27.192  26.920  1.00  0.00    -0.237 OA
ATOM     95  O   UNL A   1      42.188  29.593  26.370  1.00  0.00    -0.744 OA
ENDBRANCH  88  92
ENDBRANCH  61  85
BRANCH  73  96
ATOM     96  C   UNL A   1      39.769  33.126  33.834  1.00  0.00     0.023 A 
ATOM     97  C   UNL A   1      38.627  33.600  33.158  1.00  0.00     0.031 A 
ATOM     98  C   UNL A   1      39.584  32.412  35.030  1.00  0.00     0.131 A 
ATOM     99  C   UNL A   1      37.353  33.375  33.697  1.00  0.00     0.055 A 
ATOM    100  C   UNL A   1      38.312  32.157  35.542  1.00  0.00     0.041 A 
ATOM    101  F   UNL A   1      40.640  31.959  35.724  1.00  0.00    -0.206 F 
ATOM    102  C   UNL A   1      37.189  32.649  34.881  1.00  0.00     0.022 A 
BRANCH  99 103
ATOM    103  S   UNL A   1      35.866  34.079  32.931  1.00  0.00     0.124 S 
ATOM    104  O   UNL A   1      36.213  34.042  31.511  1.00  0.00    -0.237 OA
ATOM    105  O   UNL A   1      34.831  33.135  33.342  1.00  0.00    -0.237 OA
ATOM    106  O   UNL A   1      35.767  35.414  33.511  1.00  0.00    -0.744 OA
ENDBRANCH  99 103
ENDBRANCH  73  96
ENDBRANCH  47  48
ENDBRANCH  40  42
ENDBRANCH  39  40
ENDBRANCH  38  39
ENDBRANCH  37  38
ENDBRANCH  36  37
ENDBRANCH  35  36
ENDBRANCH  34  35
ENDBRANCH   1  34
TORSDOF 27
ENDMDL
MODEL 3
REMARK VINA RESULT:      -7.5      7.075     13.746
REMARK SMILES C[C@H]1Oc2ccccc2C=C1/C=C/C(=O)N[C@H](C(=O)OCCOCCOCCOCCOC(=O)c1ccc(-c2c3nc(c(-c4cc(S(=O)(=O)[O-])ccc4F)c4ccc([nH]4)c(-c4cc(S(=O)(=O)[O-])ccc4F)c4nc(c(-c5cc(S(=O)(=O)[O-])ccc5F)c5ccc2[nH]5)C=C4)C=C3)cc1)c1ccccc1
REMARK SMILES IDX 26 1 25 2 24 3 23 4 22 5 21 6 20 7 18 8 19 9 17 10 16 11
REMARK SMILES IDX 14 12 15 13 13 15 12 16 11 17 1 18 2 19 3 20 4 21 10 22 5 23
REMARK SMILES IDX 9 24 6 25 8 26 7 27 98 28 99 29 103 30 100 31 102 32 101 33
REMARK SMILES IDX 27 34 28 35 29 36 30 37 31 38 32 39 33 40 34 41 35 42 36 43
REMARK SMILES IDX 97 44 37 45 96 46 38 47 39 48 40 49 90 50 41 51 95 52 89 53
REMARK SMILES IDX 91 54 42 55 94 56 88 57 87 58 43 60 75 61 55 62 74 63 56 64
REMARK SMILES IDX 59 65 73 66 92 67 57 68 58 69 72 71 93 72 60 73 44 74 45 75
REMARK SMILES IDX 53 76 46 77 52 78 54 79 51 80 47 81 48 82 49 83 50 84 76 85
REMARK SMILES IDX 77 86 85 87 78 88 84 89 86 90 83 91 79 92 80 93 81 94 82 95
REMARK SMILES IDX 61 96 62 97 70 98 63 99 69 100 71 101 68 102 64 103 65 104
REMARK SMILES IDX 66 105 67 106
REMARK H PARENT 16 14 91 59 59 70
REMARK Flexibility Score: inf
ROOT
ATOM      1  O   UNL A   1      51.798  37.409  26.816  1.00  0.00    -0.377 OA
ENDROOT
BRANCH   1   2
ATOM      2  C   UNL A   1      50.432  37.432  26.436  1.00  0.00     0.188 C 
BRANCH   2   3
ATOM      3  C   UNL A   1      49.403  38.452  26.970  1.00  0.00     0.188 C 
BRANCH   3   4
ATOM      4  O   UNL A   1      49.337  38.825  28.343  1.00  0.00    -0.376 OA
BRANCH   4   5
ATOM      5  C   UNL A   1      48.860  40.104  28.746  1.00  0.00     0.202 C 
BRANCH   5   6
ATOM      6  C   UNL A   1      48.456  41.115  27.664  1.00  0.00     0.261 C 
BRANCH   6   7
ATOM      7  O   UNL A   1      47.044  41.064  27.438  1.00  0.00    -0.461 OA
BRANCH   7   8
ATOM      8  C   UNL A   1      46.559  41.748  26.368  1.00  0.00     0.333 C 
ATOM      9  O   UNL A   1      47.021  41.696  25.236  1.00  0.00    -0.249 OA
BRANCH   8  10
ATOM     10  C   UNL A   1      45.305  42.545  26.808  1.00  0.00     0.223 C 
BRANCH  10  11
ATOM     11  N   UNL A   1      45.568  43.980  26.809  1.00  0.00    -0.335 N 
ATOM     12  C   UNL A   1      45.523  44.868  27.841  1.00  0.00     0.244 C 
ATOM     13  O   UNL A   1      45.771  46.051  27.632  1.00  0.00    -0.270 OA
ATOM     14  H   UNL A   1      45.812  44.363  25.935  1.00  0.00     0.165 HD
BRANCH  12  15
ATOM     15  C   UNL A   1      45.280  44.395  29.224  1.00  0.00     0.071 C 
ATOM     16  C   UNL A   1      44.190  44.737  29.931  1.00  0.00     0.013 C 
BRANCH  16  17
ATOM     17  C   UNL A   1      43.957  44.293  31.304  1.00  0.00    -0.007 C 
ATOM     18  C   UNL A   1      42.391  42.412  31.341  1.00  0.00     0.058 C 
ATOM     19  C   UNL A   1      42.538  43.889  31.653  1.00  0.00     0.200 C 
ATOM     20  O   UNL A   1      42.207  44.065  33.035  1.00  0.00    -0.485 OA
ATOM     21  C   UNL A   1      43.131  43.442  33.837  1.00  0.00     0.127 A 
ATOM     22  C   UNL A   1      44.912  44.100  32.234  1.00  0.00     0.019 C 
ATOM     23  C   UNL A   1      42.657  42.815  34.985  1.00  0.00     0.047 A 
ATOM     24  C   UNL A   1      44.495  43.459  33.499  1.00  0.00     0.017 A 
ATOM     25  C   UNL A   1      43.560  42.215  35.849  1.00  0.00     0.004 A 
ATOM     26  C   UNL A   1      45.394  42.857  34.379  1.00  0.00     0.012 A 
ATOM     27  C   UNL A   1      44.924  42.247  35.552  1.00  0.00     0.001 A 
ENDBRANCH  16  17
ENDBRANCH  12  15
ENDBRANCH  10  11
BRANCH  10  28
ATOM     28  C   UNL A   1      44.147  42.131  25.893  1.00  0.00    -0.014 A 
ATOM     29  C   UNL A   1      43.948  42.806  24.674  1.00  0.00     0.006 A 
ATOM     30  C   UNL A   1      43.155  41.225  26.301  1.00  0.00     0.006 A 
ATOM     31  C   UNL A   1      42.774  42.647  23.932  1.00  0.00     0.000 A 
ATOM     32  C   UNL A   1      41.996  41.036  25.539  1.00  0.00     0.000 A 
ATOM     33  C   UNL A   1      41.793  41.766  24.370  1.00  0.00     0.000 A 
ENDBRANCH  10  28
ENDBRANCH   8  10
ENDBRANCH   7   8
ENDBRANCH   6   7
ENDBRANCH   5   6
ENDBRANCH   4   5
ENDBRANCH   3   4
ENDBRANCH   2   3
ENDBRANCH   1   2
BRANCH   1  34
ATOM     34  C   UNL A   1      52.276  36.373  27.646  1.00  0.00     0.188 C 
BRANCH  34  35
ATOM     35  C   UNL A   1      51.439  36.156  28.907  1.00  0.00     0.188 C 
BRANCH  35  36
ATOM     36  O   UNL A   1      51.493  34.874  29.516  1.00  0.00    -0.376 OA
BRANCH  36  37
ATOM     37  C   UNL A   1      51.479  33.729  28.663  1.00  0.00     0.202 C 
BRANCH  37  38
ATOM     38  C   UNL A   1      52.611  32.690  28.755  1.00  0.00     0.261 C 
BRANCH  38  39
ATOM     39  O   UNL A   1      52.184  31.324  28.962  1.00  0.00    -0.460 OA
BRANCH  39  40
ATOM     40  C   UNL A   1      51.575  30.741  27.895  1.00  0.00     0.338 C 
ATOM     41  O   UNL A   1      52.125  30.365  26.874  1.00  0.00    -0.246 OA
BRANCH  40  42
ATOM     42  C   UNL A   1      50.126  30.525  28.124  1.00  0.00     0.060 A 
ATOM     43  C   UNL A   1      49.638  30.067  29.352  1.00  0.00     0.016 A 
ATOM     44  C   UNL A   1      49.232  30.968  27.145  1.00  0.00     0.016 A 
ATOM     45  C   UNL A   1      48.253  30.074  29.603  1.00  0.00     0.010 A 
ATOM     46  C   UNL A   1      47.853  30.958  27.396  1.00  0.00     0.010 A 
ATOM     47  C   UNL A   1      47.341  30.516  28.629  1.00  0.00    -0.014 A 
BRANCH  47  48
ATOM     48  C   UNL A   1      45.889  30.694  28.939  1.00  0.00     0.031 A 
ATOM     49  C   UNL A   1      45.309  31.966  29.495  1.00  0.00     0.074 A 
ATOM     50  C   UNL A   1      45.052  29.669  28.698  1.00  0.00     0.049 A 
ATOM     51  N   UNL A   1      44.146  32.184  30.060  1.00  0.00    -0.248 NA
ATOM     52  C   UNL A   1      46.159  33.149  29.420  1.00  0.00     0.031 C 
ATOM     53  C   UNL A   1      45.442  28.402  28.087  1.00  0.00     0.029 A 
ATOM     54  N   UNL A   1      43.702  29.548  28.905  1.00  0.00    -0.354 N 
ATOM     55  C   UNL A   1      44.191  33.492  30.549  1.00  0.00     0.074 A 
ATOM     56  C   UNL A   1      45.465  34.024  30.136  1.00  0.00     0.031 C 
ATOM     57  C   UNL A   1      44.347  27.644  27.931  1.00  0.00     0.029 A 
ATOM     58  C   UNL A   1      43.185  28.357  28.460  1.00  0.00     0.049 A 
ATOM     59  H   UNL A   1      43.156  30.248  29.333  1.00  0.00     0.167 HD
ATOM     60  C   UNL A   1      43.259  34.163  31.278  1.00  0.00     0.034 A 
ATOM     61  C   UNL A   1      41.916  27.901  28.454  1.00  0.00     0.034 A 
ATOM     62  C   UNL A   1      41.893  33.703  31.401  1.00  0.00     0.049 A 
ATOM     63  C   UNL A   1      40.812  28.783  28.976  1.00  0.00     0.074 A 
ATOM     64  C   UNL A   1      40.815  34.349  31.987  1.00  0.00     0.029 A 
ATOM     65  N   UNL A   1      41.392  32.541  30.834  1.00  0.00    -0.354 N 
ATOM     66  N   UNL A   1      40.900  29.956  29.558  1.00  0.00    -0.248 NA
ATOM     67  C   UNL A   1      39.434  28.300  28.817  1.00  0.00     0.031 C 
ATOM     68  C   UNL A   1      39.669  33.581  31.775  1.00  0.00     0.029 A 
ATOM     69  C   UNL A   1      40.019  32.483  31.008  1.00  0.00     0.049 A 
ATOM     70  H   UNL A   1      41.933  31.858  30.375  1.00  0.00     0.167 HD
ATOM     71  C   UNL A   1      39.593  30.356  29.821  1.00  0.00     0.074 A 
ATOM     72  C   UNL A   1      38.730  29.319  29.297  1.00  0.00     0.031 C 
ATOM     73  C   UNL A   1      39.153  31.471  30.456  1.00  0.00     0.034 A 
BRANCH  60  74
ATOM     74  C   UNL A   1      43.605  35.472  31.978  1.00  0.00     0.023 A 
ATOM     75  C   UNL A   1      43.767  36.643  31.199  1.00  0.00     0.031 A 
ATOM     76  C   UNL A   1      43.940  35.560  33.340  1.00  0.00     0.131 A 
ATOM     77  C   UNL A   1      44.291  37.814  31.768  1.00  0.00     0.055 A 
ATOM     78  C   UNL A   1      44.376  36.755  33.922  1.00  0.00     0.041 A 
ATOM     79  F   UNL A   1      43.875  34.480  34.134  1.00  0.00    -0.206 F 
ATOM     80  C   UNL A   1      44.573  37.883  33.133  1.00  0.00     0.022 A 
BRANCH  77  81
ATOM     81  S   UNL A   1      44.757  39.242  30.745  1.00  0.00     0.124 S 
ATOM     82  O   UNL A   1      45.969  38.756  30.088  1.00  0.00    -0.237 OA
ATOM     83  O   UNL A   1      43.594  39.388  29.874  1.00  0.00    -0.237 OA
ATOM     84  O   UNL A   1      44.961  40.316  31.709  1.00  0.00    -0.744 OA
ENDBRANCH  77  81
ENDBRANCH  60  74
BRANCH  61  85
ATOM     85  C   UNL A   1      41.647  26.594  27.793  1.00  0.00     0.023 A 
ATOM     86  C   UNL A   1      42.000  25.384  28.416  1.00  0.00     0.031 A 
ATOM     87  C   UNL A   1      41.208  26.555  26.460  1.00  0.00     0.131 A 
ATOM     88  C   UNL A   1      41.989  24.196  27.673  1.00  0.00     0.055 A 
ATOM     89  C   UNL A   1      41.123  25.359  25.749  1.00  0.00     0.041 A 
ATOM     90  F   UNL A   1      40.885  27.690  25.821  1.00  0.00    -0.206 F 
ATOM     91  C   UNL A   1      41.538  24.174  26.349  1.00  0.00     0.022 A 
BRANCH  88  92
ATOM     92  S   UNL A   1      42.732  22.680  28.340  1.00  0.00     0.124 S 
ATOM     93  O   UNL A   1      44.014  22.641  27.645  1.00  0.00    -0.237 OA
ATOM     94  O   UNL A   1      42.796  22.983  29.767  1.00  0.00    -0.237 OA
ATOM     95  O   UNL A   1      41.779  21.639  27.970  1.00  0.00    -0.744 OA
ENDBRANCH  88  92
ENDBRANCH  61  85
BRANCH  73  96
ATOM     96  C   UNL A   1      37.668  31.677  30.633  1.00  0.00     0.023 A 
ATOM     97  C   UNL A   1      36.891  32.178  29.569  1.00  0.00     0.031 A 
ATOM     98  C   UNL A   1      37.057  31.532  31.890  1.00  0.00     0.131 A 
ATOM     99  C   UNL A   1      35.555  32.537  29.790  1.00  0.00     0.055 A 
ATOM    100  C   UNL A   1      35.715  31.854  32.095  1.00  0.00     0.041 A 
ATOM    101  F   UNL A   1      37.760  31.080  32.941  1.00  0.00    -0.206 F 
ATOM    102  C   UNL A   1      34.961  32.371  31.045  1.00  0.00     0.022 A 
BRANCH  99 103
ATOM    103  S   UNL A   1      34.557  33.308  28.484  1.00  0.00     0.124 S 
ATOM    104  O   UNL A   1      33.726  32.190  28.040  1.00  0.00    -0.237 OA
ATOM    105  O   UNL A   1      33.849  34.356  29.215  1.00  0.00    -0.237 OA
ATOM    106  O   UNL A   1      35.542  33.773  27.514  1.00  0.00    -0.744 OA
ENDBRANCH  99 103
ENDBRANCH  73  96
ENDBRANCH  47  48
ENDBRANCH  40  42
ENDBRANCH  39  40
ENDBRANCH  38  39
ENDBRANCH  37  38
ENDBRANCH  36  37
ENDBRANCH  35  36
ENDBRANCH  34  35
ENDBRANCH   1  34
TORSDOF 27
ENDMDL
