MODEL 1
REMARK VINA RESULT:      -9.8      0.000      0.000
REMARK SMILES Cc1ccc(C(=O)N[C@@H]2C=C[C@H](C(=O)OCCOCCOCCOCCOC(=O)c3ccc(-c4c5nc(c(-c6cc(S(=O)(=O)[O-])ccc6F)c6ccc([nH]6)c(-c6cc(S(=O)(=O)[O-])ccc6F)c6nc(c(-c7cc(S(=O)(=O)[O-])ccc7F)c7ccc4[nH]7)C=C6)C=C5)cc3)C2)c(F)c1
REMARK SMILES IDX 22 1 21 2 20 3 19 4 18 5 17 6 16 7 15 8 13 9 14 10 12 11
REMARK SMILES IDX 9 12 10 13 93 14 11 15 8 16 6 17 7 18 5 20 1 21 2 22 3 23
REMARK SMILES IDX 96 24 4 25 94 26 95 27 23 28 24 29 25 30 26 31 27 32 28 33
REMARK SMILES IDX 29 34 30 35 31 36 92 37 32 38 91 39 33 40 34 41 35 42 85 43
REMARK SMILES IDX 36 44 90 45 84 46 86 47 37 48 89 49 83 50 82 51 38 53 70 54
REMARK SMILES IDX 50 55 69 56 51 57 54 58 68 59 87 60 52 61 53 62 67 64 88 65
REMARK SMILES IDX 55 66 39 67 40 68 48 69 41 70 47 71 49 72 46 73 42 74 43 75
REMARK SMILES IDX 44 76 45 77 71 78 72 79 80 80 73 81 79 82 81 83 78 84 74 85
REMARK SMILES IDX 75 86 76 87 77 88 56 89 57 90 65 91 58 92 64 93 66 94 63 95
REMARK SMILES IDX 59 96 60 97 61 98 62 99
REMARK H PARENT 8 19 86 52 54 63
REMARK Flexibility Score: inf
ROOT
ATOM      1  C   UNL A   1      34.787  33.667  28.040  1.00  0.00     0.188 C 
ENDROOT
BRANCH   1   2
ATOM      2  O   UNL A   1      35.294  33.076  29.227  1.00  0.00    -0.377 OA
BRANCH   2   3
ATOM      3  C   UNL A   1      34.990  31.702  29.340  1.00  0.00     0.188 C 
BRANCH   3   4
ATOM      4  C   UNL A   1      35.605  30.814  28.245  1.00  0.00     0.188 C 
BRANCH   4   5
ATOM      5  O   UNL A   1      35.062  29.541  27.961  1.00  0.00    -0.376 OA
BRANCH   5   6
ATOM      6  C   UNL A   1      34.360  29.287  26.757  1.00  0.00     0.202 C 
BRANCH   6   7
ATOM      7  C   UNL A   1      32.954  29.841  26.464  1.00  0.00     0.261 C 
BRANCH   7   8
ATOM      8  O   UNL A   1      31.879  28.908  26.311  1.00  0.00    -0.463 OA
BRANCH   8   9
ATOM      9  C   UNL A   1      32.119  27.855  25.486  1.00  0.00     0.312 C 
ATOM     10  O   UNL A   1      32.755  27.923  24.443  1.00  0.00    -0.252 OA
BRANCH   9  11
ATOM     11  C   UNL A   1      31.398  26.609  26.008  1.00  0.00     0.124 C 
ATOM     12  C   UNL A   1      31.681  24.449  24.814  1.00  0.00     0.106 C 
ATOM     13  C   UNL A   1      30.429  25.157  24.421  1.00  0.00    -0.006 C 
ATOM     14  C   UNL A   1      32.208  25.307  25.970  1.00  0.00     0.048 C 
ATOM     15  C   UNL A   1      30.240  26.284  25.116  1.00  0.00    -0.014 C 
BRANCH  12  16
ATOM     16  N   UNL A   1      32.573  24.315  23.678  1.00  0.00    -0.346 N 
ATOM     17  C   UNL A   1      33.089  23.203  23.035  1.00  0.00     0.254 C 
ATOM     18  O   UNL A   1      33.648  23.378  21.954  1.00  0.00    -0.269 OA
ATOM     19  H   UNL A   1      32.865  25.173  23.292  1.00  0.00     0.164 HD
BRANCH  17  20
ATOM     20  C   UNL A   1      33.082  21.845  23.654  1.00  0.00     0.075 A 
ATOM     21  C   UNL A   1      34.082  17.729  24.284  1.00  0.00     0.044 C 
ATOM     22  C   UNL A   1      33.563  19.137  24.255  1.00  0.00    -0.048 A 
ATOM     23  C   UNL A   1      34.184  20.144  24.990  1.00  0.00     0.004 A 
ATOM     24  C   UNL A   1      32.537  19.494  23.382  1.00  0.00     0.043 A 
ATOM     25  C   UNL A   1      33.889  21.488  24.735  1.00  0.00     0.017 A 
ATOM     26  C   UNL A   1      32.329  20.835  23.050  1.00  0.00     0.136 A 
ATOM     27  F   UNL A   1      31.457  21.091  22.065  1.00  0.00    -0.206 F 
ENDBRANCH  17  20
ENDBRANCH  12  16
ENDBRANCH   9  11
ENDBRANCH   8   9
ENDBRANCH   7   8
ENDBRANCH   6   7
ENDBRANCH   5   6
ENDBRANCH   4   5
ENDBRANCH   3   4
ENDBRANCH   2   3
ENDBRANCH   1   2
BRANCH   1  28
ATOM     28  C   UNL A   1      33.252  33.725  27.953  1.00  0.00     0.188 C 
BRANCH  28  29
ATOM     29  O   UNL A   1      32.524  34.861  28.386  1.00  0.00    -0.376 OA
BRANCH  29  30
ATOM     30  C   UNL A   1      33.107  35.998  28.990  1.00  0.00     0.202 C 
BRANCH  30  31
ATOM     31  C   UNL A   1      32.662  36.571  30.340  1.00  0.00     0.261 C 
BRANCH  31  32
ATOM     32  O   UNL A   1      32.481  35.593  31.360  1.00  0.00    -0.460 OA
BRANCH  32  33
ATOM     33  C   UNL A   1      33.160  35.870  32.497  1.00  0.00     0.338 C 
ATOM     34  O   UNL A   1      32.786  36.568  33.430  1.00  0.00    -0.246 OA
BRANCH  33  35
ATOM     35  C   UNL A   1      34.334  34.995  32.573  1.00  0.00     0.060 A 
ATOM     36  C   UNL A   1      34.172  33.786  33.258  1.00  0.00     0.016 A 
ATOM     37  C   UNL A   1      35.559  35.348  32.002  1.00  0.00     0.016 A 
ATOM     38  C   UNL A   1      35.251  32.937  33.419  1.00  0.00     0.010 A 
ATOM     39  C   UNL A   1      36.657  34.510  32.196  1.00  0.00     0.010 A 
ATOM     40  C   UNL A   1      36.507  33.330  32.946  1.00  0.00    -0.014 A 
BRANCH  40  41
ATOM     41  C   UNL A   1      37.675  32.621  33.499  1.00  0.00     0.031 A 
ATOM     42  C   UNL A   1      38.273  31.519  32.670  1.00  0.00     0.074 A 
ATOM     43  C   UNL A   1      38.252  33.048  34.634  1.00  0.00     0.049 A 
ATOM     44  N   UNL A   1      39.333  30.793  32.897  1.00  0.00    -0.248 NA
ATOM     45  C   UNL A   1      37.584  31.199  31.407  1.00  0.00     0.031 C 
ATOM     46  C   UNL A   1      37.775  34.163  35.453  1.00  0.00     0.029 A 
ATOM     47  N   UNL A   1      39.373  32.607  35.282  1.00  0.00    -0.354 N 
ATOM     48  C   UNL A   1      39.434  29.928  31.813  1.00  0.00     0.074 A 
ATOM     49  C   UNL A   1      38.312  30.196  30.943  1.00  0.00     0.031 C 
ATOM     50  C   UNL A   1      38.599  34.315  36.502  1.00  0.00     0.029 A 
ATOM     51  C   UNL A   1      39.635  33.285  36.448  1.00  0.00     0.049 A 
ATOM     52  H   UNL A   1      39.938  31.875  34.946  1.00  0.00     0.167 HD
ATOM     53  C   UNL A   1      40.385  28.997  31.572  1.00  0.00     0.034 A 
ATOM     54  C   UNL A   1      40.590  33.070  37.374  1.00  0.00     0.034 A 
ATOM     55  C   UNL A   1      41.490  28.755  32.464  1.00  0.00     0.049 A 
ATOM     56  C   UNL A   1      41.592  31.969  37.119  1.00  0.00     0.074 A 
ATOM     57  C   UNL A   1      42.525  27.850  32.327  1.00  0.00     0.029 A 
ATOM     58  N   UNL A   1      41.692  29.414  33.672  1.00  0.00    -0.354 N 
ATOM     59  N   UNL A   1      41.687  31.160  36.086  1.00  0.00    -0.248 NA
ATOM     60  C   UNL A   1      42.622  31.761  38.142  1.00  0.00     0.031 C 
ATOM     61  C   UNL A   1      43.298  27.896  33.491  1.00  0.00     0.029 A 
ATOM     62  C   UNL A   1      42.808  28.902  34.311  1.00  0.00     0.049 A 
ATOM     63  H   UNL A   1      41.124  30.138  34.021  1.00  0.00     0.167 HD
ATOM     64  C   UNL A   1      42.806  30.367  36.325  1.00  0.00     0.074 A 
ATOM     65  C   UNL A   1      43.363  30.814  37.586  1.00  0.00     0.031 C 
ATOM     66  C   UNL A   1      43.331  29.361  35.576  1.00  0.00     0.034 A 
BRANCH  53  67
ATOM     67  C   UNL A   1      40.225  28.129  30.348  1.00  0.00     0.023 A 
ATOM     68  C   UNL A   1      40.987  28.321  29.182  1.00  0.00     0.031 A 
ATOM     69  C   UNL A   1      39.271  27.095  30.348  1.00  0.00     0.131 A 
ATOM     70  C   UNL A   1      40.745  27.527  28.050  1.00  0.00     0.055 A 
ATOM     71  C   UNL A   1      39.090  26.257  29.247  1.00  0.00     0.041 A 
ATOM     72  F   UNL A   1      38.489  26.887  31.419  1.00  0.00    -0.206 F 
ATOM     73  C   UNL A   1      39.822  26.478  28.084  1.00  0.00     0.022 A 
BRANCH  70  74
ATOM     74  S   UNL A   1      41.557  27.962  26.488  1.00  0.00     0.124 S 
ATOM     75  O   UNL A   1      40.784  29.129  26.069  1.00  0.00    -0.237 OA
ATOM     76  O   UNL A   1      42.930  28.221  26.907  1.00  0.00    -0.237 OA
ATOM     77  O   UNL A   1      41.371  26.772  25.660  1.00  0.00    -0.744 OA
ENDBRANCH  70  74
ENDBRANCH  53  67
BRANCH  54  78
ATOM     78  C   UNL A   1      40.612  33.860  38.640  1.00  0.00     0.023 A 
ATOM     79  C   UNL A   1      39.740  33.574  39.700  1.00  0.00     0.031 A 
ATOM     80  C   UNL A   1      41.473  34.966  38.776  1.00  0.00     0.131 A 
ATOM     81  C   UNL A   1      39.705  34.417  40.823  1.00  0.00     0.055 A 
ATOM     82  C   UNL A   1      41.481  35.761  39.923  1.00  0.00     0.041 A 
ATOM     83  F   UNL A   1      42.326  35.291  37.791  1.00  0.00    -0.206 F 
ATOM     84  C   UNL A   1      40.581  35.498  40.949  1.00  0.00     0.022 A 
BRANCH  81  85
ATOM     85  S   UNL A   1      38.413  34.152  42.068  1.00  0.00     0.124 S 
ATOM     86  O   UNL A   1      39.178  33.586  43.172  1.00  0.00    -0.237 OA
ATOM     87  O   UNL A   1      37.904  35.505  42.266  1.00  0.00    -0.237 OA
ATOM     88  O   UNL A   1      37.490  33.231  41.409  1.00  0.00    -0.744 OA
ENDBRANCH  81  85
ENDBRANCH  54  78
BRANCH  66  89
ATOM     89  C   UNL A   1      44.594  28.713  36.092  1.00  0.00     0.023 A 
ATOM     90  C   UNL A   1      44.564  27.728  37.093  1.00  0.00     0.031 A 
ATOM     91  C   UNL A   1      45.846  29.100  35.580  1.00  0.00     0.131 A 
ATOM     92  C   UNL A   1      45.765  27.214  37.601  1.00  0.00     0.055 A 
ATOM     93  C   UNL A   1      47.033  28.526  36.034  1.00  0.00     0.041 A 
ATOM     94  F   UNL A   1      45.935  30.038  34.624  1.00  0.00    -0.206 F 
ATOM     95  C   UNL A   1      46.999  27.590  37.063  1.00  0.00     0.022 A 
BRANCH  92  96
ATOM     96  S   UNL A   1      45.699  26.141  39.061  1.00  0.00     0.124 S 
ATOM     97  O   UNL A   1      47.102  26.083  39.457  1.00  0.00    -0.237 OA
ATOM     98  O   UNL A   1      44.816  26.883  39.954  1.00  0.00    -0.237 OA
ATOM     99  O   UNL A   1      45.148  24.891  38.542  1.00  0.00    -0.744 OA
ENDBRANCH  92  96
ENDBRANCH  66  89
ENDBRANCH  40  41
ENDBRANCH  33  35
ENDBRANCH  32  33
ENDBRANCH  31  32
ENDBRANCH  30  31
ENDBRANCH  29  30
ENDBRANCH  28  29
ENDBRANCH   1  28
TORSDOF 25
ENDMDL
MODEL 2
REMARK VINA RESULT:      -9.8      2.283      7.822
REMARK SMILES Cc1ccc(C(=O)N[C@@H]2C=C[C@H](C(=O)OCCOCCOCCOCCOC(=O)c3ccc(-c4c5nc(c(-c6cc(S(=O)(=O)[O-])ccc6F)c6ccc([nH]6)c(-c6cc(S(=O)(=O)[O-])ccc6F)c6nc(c(-c7cc(S(=O)(=O)[O-])ccc7F)c7ccc4[nH]7)C=C6)C=C5)cc3)C2)c(F)c1
REMARK SMILES IDX 22 1 21 2 20 3 19 4 18 5 17 6 16 7 15 8 13 9 14 10 12 11
REMARK SMILES IDX 9 12 10 13 93 14 11 15 8 16 6 17 7 18 5 20 1 21 2 22 3 23
REMARK SMILES IDX 96 24 4 25 94 26 95 27 23 28 24 29 25 30 26 31 27 32 28 33
REMARK SMILES IDX 29 34 30 35 31 36 92 37 32 38 91 39 33 40 34 41 35 42 85 43
REMARK SMILES IDX 36 44 90 45 84 46 86 47 37 48 89 49 83 50 82 51 38 53 70 54
REMARK SMILES IDX 50 55 69 56 51 57 54 58 68 59 87 60 52 61 53 62 67 64 88 65
REMARK SMILES IDX 55 66 39 67 40 68 48 69 41 70 47 71 49 72 46 73 42 74 43 75
REMARK SMILES IDX 44 76 45 77 71 78 72 79 80 80 73 81 79 82 81 83 78 84 74 85
REMARK SMILES IDX 75 86 76 87 77 88 56 89 57 90 65 91 58 92 64 93 66 94 63 95
REMARK SMILES IDX 59 96 60 97 61 98 62 99
REMARK H PARENT 8 19 86 52 54 63
REMARK Flexibility Score: inf
ROOT
ATOM      1  C   UNL A   1      35.016  33.572  27.995  1.00  0.00     0.188 C 
ENDROOT
BRANCH   1   2
ATOM      2  O   UNL A   1      35.665  32.314  28.102  1.00  0.00    -0.377 OA
BRANCH   2   3
ATOM      3  C   UNL A   1      34.771  31.221  28.071  1.00  0.00     0.188 C 
BRANCH   3   4
ATOM      4  C   UNL A   1      35.274  30.001  27.283  1.00  0.00     0.188 C 
BRANCH   4   5
ATOM      5  O   UNL A   1      34.683  28.731  27.467  1.00  0.00    -0.376 OA
BRANCH   5   6
ATOM      6  C   UNL A   1      33.988  28.077  26.420  1.00  0.00     0.202 C 
BRANCH   6   7
ATOM      7  C   UNL A   1      32.865  28.744  25.605  1.00  0.00     0.261 C 
BRANCH   7   8
ATOM      8  O   UNL A   1      31.537  28.224  25.733  1.00  0.00    -0.463 OA
BRANCH   8   9
ATOM      9  C   UNL A   1      30.904  27.920  24.570  1.00  0.00     0.312 C 
ATOM     10  O   UNL A   1      30.975  28.587  23.546  1.00  0.00    -0.252 OA
BRANCH   9  11
ATOM     11  C   UNL A   1      30.022  26.683  24.764  1.00  0.00     0.124 C 
ATOM     12  C   UNL A   1      31.087  24.447  24.961  1.00  0.00     0.106 C 
ATOM     13  C   UNL A   1      30.601  24.727  23.580  1.00  0.00    -0.006 C 
ATOM     14  C   UNL A   1      30.548  25.641  25.758  1.00  0.00     0.048 C 
ATOM     15  C   UNL A   1      29.963  25.899  23.490  1.00  0.00    -0.014 C 
BRANCH  12  16
ATOM     16  N   UNL A   1      32.529  24.286  24.975  1.00  0.00    -0.346 N 
ATOM     17  C   UNL A   1      33.344  23.237  24.586  1.00  0.00     0.254 C 
ATOM     18  O   UNL A   1      34.551  23.455  24.499  1.00  0.00    -0.269 OA
ATOM     19  H   UNL A   1      33.018  25.066  25.325  1.00  0.00     0.164 HD
BRANCH  17  20
ATOM     20  C   UNL A   1      32.825  21.853  24.380  1.00  0.00     0.075 A 
ATOM     21  C   UNL A   1      32.781  17.722  23.252  1.00  0.00     0.044 C 
ATOM     22  C   UNL A   1      32.547  19.134  23.702  1.00  0.00    -0.048 A 
ATOM     23  C   UNL A   1      32.780  19.513  25.023  1.00  0.00     0.004 A 
ATOM     24  C   UNL A   1      32.229  20.127  22.778  1.00  0.00     0.043 A 
ATOM     25  C   UNL A   1      32.848  20.867  25.367  1.00  0.00     0.017 A 
ATOM     26  C   UNL A   1      32.410  21.474  23.100  1.00  0.00     0.136 A 
ATOM     27  F   UNL A   1      32.268  22.364  22.108  1.00  0.00    -0.206 F 
ENDBRANCH  17  20
ENDBRANCH  12  16
ENDBRANCH   9  11
ENDBRANCH   8   9
ENDBRANCH   7   8
ENDBRANCH   6   7
ENDBRANCH   5   6
ENDBRANCH   4   5
ENDBRANCH   3   4
ENDBRANCH   2   3
ENDBRANCH   1   2
BRANCH   1  28
ATOM     28  C   UNL A   1      33.480  33.505  27.966  1.00  0.00     0.188 C 
BRANCH  28  29
ATOM     29  O   UNL A   1      32.679  34.601  28.376  1.00  0.00    -0.376 OA
BRANCH  29  30
ATOM     30  C   UNL A   1      33.140  35.666  29.183  1.00  0.00     0.202 C 
BRANCH  30  31
ATOM     31  C   UNL A   1      32.993  35.708  30.707  1.00  0.00     0.261 C 
BRANCH  31  32
ATOM     32  O   UNL A   1      33.353  34.496  31.364  1.00  0.00    -0.460 OA
BRANCH  32  33
ATOM     33  C   UNL A   1      34.307  34.659  32.309  1.00  0.00     0.338 C 
ATOM     34  O   UNL A   1      34.201  35.258  33.371  1.00  0.00    -0.246 OA
BRANCH  33  35
ATOM     35  C   UNL A   1      35.440  33.784  31.994  1.00  0.00     0.060 A 
ATOM     36  C   UNL A   1      35.435  32.514  32.582  1.00  0.00     0.016 A 
ATOM     37  C   UNL A   1      36.482  34.193  31.158  1.00  0.00     0.016 A 
ATOM     38  C   UNL A   1      36.498  31.656  32.375  1.00  0.00     0.010 A 
ATOM     39  C   UNL A   1      37.573  33.342  30.980  1.00  0.00     0.010 A 
ATOM     40  C   UNL A   1      37.597  32.096  31.630  1.00  0.00    -0.014 A 
BRANCH  40  41
ATOM     41  C   UNL A   1      38.852  31.340  31.789  1.00  0.00     0.031 A 
ATOM     42  C   UNL A   1      39.674  31.612  33.018  1.00  0.00     0.074 A 
ATOM     43  C   UNL A   1      39.161  30.353  30.933  1.00  0.00     0.049 A 
ATOM     44  N   UNL A   1      40.774  31.039  33.423  1.00  0.00    -0.248 NA
ATOM     45  C   UNL A   1      39.181  32.672  33.916  1.00  0.00     0.031 C 
ATOM     46  C   UNL A   1      38.371  29.976  29.761  1.00  0.00     0.029 A 
ATOM     47  N   UNL A   1      40.212  29.477  30.928  1.00  0.00    -0.354 N 
ATOM     48  C   UNL A   1      41.108  31.671  34.616  1.00  0.00     0.074 A 
ATOM     49  C   UNL A   1      40.114  32.692  34.855  1.00  0.00     0.031 C 
ATOM     50  C   UNL A   1      38.971  28.944  29.145  1.00  0.00     0.029 A 
ATOM     51  C   UNL A   1      40.205  28.617  29.857  1.00  0.00     0.049 A 
ATOM     52  H   UNL A   1      40.907  29.463  31.626  1.00  0.00     0.167 HD
ATOM     53  C   UNL A   1      42.153  31.413  35.435  1.00  0.00     0.034 A 
ATOM     54  C   UNL A   1      41.113  27.692  29.487  1.00  0.00     0.034 A 
ATOM     55  C   UNL A   1      43.127  30.386  35.163  1.00  0.00     0.049 A 
ATOM     56  C   UNL A   1      42.315  27.480  30.379  1.00  0.00     0.074 A 
ATOM     57  C   UNL A   1      44.223  30.019  35.920  1.00  0.00     0.029 A 
ATOM     58  N   UNL A   1      43.129  29.575  34.034  1.00  0.00    -0.354 N 
ATOM     59  N   UNL A   1      42.619  28.076  31.511  1.00  0.00    -0.248 NA
ATOM     60  C   UNL A   1      43.283  26.465  29.953  1.00  0.00     0.031 C 
ATOM     61  C   UNL A   1      44.938  29.052  35.206  1.00  0.00     0.029 A 
ATOM     62  C   UNL A   1      44.234  28.741  34.052  1.00  0.00     0.049 A 
ATOM     63  H   UNL A   1      42.445  29.591  33.327  1.00  0.00     0.167 HD
ATOM     64  C   UNL A   1      43.802  27.485  31.945  1.00  0.00     0.074 A 
ATOM     65  C   UNL A   1      44.137  26.471  30.965  1.00  0.00     0.031 C 
ATOM     66  C   UNL A   1      44.548  27.748  33.051  1.00  0.00     0.034 A 
BRANCH  53  67
ATOM     67  C   UNL A   1      42.335  32.298  36.643  1.00  0.00     0.023 A 
ATOM     68  C   UNL A   1      41.713  32.030  37.875  1.00  0.00     0.031 A 
ATOM     69  C   UNL A   1      43.139  33.449  36.547  1.00  0.00     0.131 A 
ATOM     70  C   UNL A   1      41.865  32.928  38.944  1.00  0.00     0.055 A 
ATOM     71  C   UNL A   1      43.348  34.296  37.636  1.00  0.00     0.041 A 
ATOM     72  F   UNL A   1      43.728  33.776  35.386  1.00  0.00    -0.206 F 
ATOM     73  C   UNL A   1      42.700  34.043  38.841  1.00  0.00     0.022 A 
BRANCH  70  74
ATOM     74  S   UNL A   1      40.852  32.695  40.431  1.00  0.00     0.124 S 
ATOM     75  O   UNL A   1      41.542  31.586  41.086  1.00  0.00    -0.237 OA
ATOM     76  O   UNL A   1      40.956  33.991  41.090  1.00  0.00    -0.237 OA
ATOM     77  O   UNL A   1      39.530  32.369  39.899  1.00  0.00    -0.744 OA
ENDBRANCH  70  74
ENDBRANCH  53  67
BRANCH  54  78
ATOM     78  C   UNL A   1      40.960  26.948  28.203  1.00  0.00     0.023 A 
ATOM     79  C   UNL A   1      40.606  25.592  28.175  1.00  0.00     0.031 A 
ATOM     80  C   UNL A   1      41.236  27.580  26.975  1.00  0.00     0.131 A 
ATOM     81  C   UNL A   1      40.595  24.897  26.955  1.00  0.00     0.055 A 
ATOM     82  C   UNL A   1      41.159  26.902  25.759  1.00  0.00     0.041 A 
ATOM     83  F   UNL A   1      41.586  28.877  26.940  1.00  0.00    -0.206 F 
ATOM     84  C   UNL A   1      40.852  25.546  25.745  1.00  0.00     0.022 A 
BRANCH  81  85
ATOM     85  S   UNL A   1      40.356  23.098  26.982  1.00  0.00     0.124 S 
ATOM     86  O   UNL A   1      40.770  22.766  28.340  1.00  0.00    -0.237 OA
ATOM     87  O   UNL A   1      38.931  22.979  26.697  1.00  0.00    -0.237 OA
ATOM     88  O   UNL A   1      41.244  22.622  25.923  1.00  0.00    -0.744 OA
ENDBRANCH  81  85
ENDBRANCH  54  78
BRANCH  66  89
ATOM     89  C   UNL A   1      45.773  26.893  33.269  1.00  0.00     0.023 A 
ATOM     90  C   UNL A   1      45.696  25.634  33.888  1.00  0.00     0.031 A 
ATOM     91  C   UNL A   1      47.037  27.353  32.859  1.00  0.00     0.131 A 
ATOM     92  C   UNL A   1      46.869  24.911  34.145  1.00  0.00     0.055 A 
ATOM     93  C   UNL A   1      48.191  26.592  33.046  1.00  0.00     0.041 A 
ATOM     94  F   UNL A   1      47.172  28.548  32.263  1.00  0.00    -0.206 F 
ATOM     95  C   UNL A   1      48.114  25.371  33.709  1.00  0.00     0.022 A 
BRANCH  92  96
ATOM     96  S   UNL A   1      46.759  23.419  35.171  1.00  0.00     0.124 S 
ATOM     97  O   UNL A   1      45.788  22.617  34.434  1.00  0.00    -0.237 OA
ATOM     98  O   UNL A   1      48.133  22.929  35.155  1.00  0.00    -0.237 OA
ATOM     99  O   UNL A   1      46.296  23.924  36.462  1.00  0.00    -0.744 OA
ENDBRANCH  92  96
ENDBRANCH  66  89
ENDBRANCH  40  41
ENDBRANCH  33  35
ENDBRANCH  32  33
ENDBRANCH  31  32
ENDBRANCH  30  31
ENDBRANCH  29  30
ENDBRANCH  28  29
ENDBRANCH   1  28
TORSDOF 25
ENDMDL
MODEL 3
REMARK VINA RESULT:      -9.6      2.084      3.534
REMARK SMILES Cc1ccc(C(=O)N[C@@H]2C=C[C@H](C(=O)OCCOCCOCCOCCOC(=O)c3ccc(-c4c5nc(c(-c6cc(S(=O)(=O)[O-])ccc6F)c6ccc([nH]6)c(-c6cc(S(=O)(=O)[O-])ccc6F)c6nc(c(-c7cc(S(=O)(=O)[O-])ccc7F)c7ccc4[nH]7)C=C6)C=C5)cc3)C2)c(F)c1
REMARK SMILES IDX 22 1 21 2 20 3 19 4 18 5 17 6 16 7 15 8 13 9 14 10 12 11
REMARK SMILES IDX 9 12 10 13 93 14 11 15 8 16 6 17 7 18 5 20 1 21 2 22 3 23
REMARK SMILES IDX 96 24 4 25 94 26 95 27 23 28 24 29 25 30 26 31 27 32 28 33
REMARK SMILES IDX 29 34 30 35 31 36 92 37 32 38 91 39 33 40 34 41 35 42 85 43
REMARK SMILES IDX 36 44 90 45 84 46 86 47 37 48 89 49 83 50 82 51 38 53 70 54
REMARK SMILES IDX 50 55 69 56 51 57 54 58 68 59 87 60 52 61 53 62 67 64 88 65
REMARK SMILES IDX 55 66 39 67 40 68 48 69 41 70 47 71 49 72 46 73 42 74 43 75
REMARK SMILES IDX 44 76 45 77 71 78 72 79 80 80 73 81 79 82 81 83 78 84 74 85
REMARK SMILES IDX 75 86 76 87 77 88 56 89 57 90 65 91 58 92 64 93 66 94 63 95
REMARK SMILES IDX 59 96 60 97 61 98 62 99
REMARK H PARENT 8 19 86 52 54 63
REMARK Flexibility Score: inf
ROOT
ATOM      1  C   UNL A   1      31.241  29.621  24.816  1.00  0.00     0.188 C 
ENDROOT
BRANCH   1   2
ATOM      2  O   UNL A   1      32.092  29.318  23.723  1.00  0.00    -0.377 OA
BRANCH   2   3
ATOM      3  C   UNL A   1      31.684  28.178  22.996  1.00  0.00     0.188 C 
BRANCH   3   4
ATOM      4  C   UNL A   1      30.163  28.040  22.817  1.00  0.00     0.188 C 
BRANCH   4   5
ATOM      5  O   UNL A   1      29.509  26.827  23.129  1.00  0.00    -0.376 OA
BRANCH   5   6
ATOM      6  C   UNL A   1      29.510  26.300  24.443  1.00  0.00     0.202 C 
BRANCH   6   7
ATOM      7  C   UNL A   1      30.714  25.564  25.059  1.00  0.00     0.261 C 
BRANCH   7   8
ATOM      8  O   UNL A   1      30.509  24.241  25.566  1.00  0.00    -0.463 OA
BRANCH   8   9
ATOM      9  C   UNL A   1      31.499  23.346  25.309  1.00  0.00     0.312 C 
ATOM     10  O   UNL A   1      31.614  22.721  24.263  1.00  0.00    -0.252 OA
BRANCH   9  11
ATOM     11  C   UNL A   1      32.380  23.172  26.549  1.00  0.00     0.124 C 
ATOM     12  C   UNL A   1      34.851  23.122  26.291  1.00  0.00     0.106 C 
ATOM     13  C   UNL A   1      34.258  21.756  26.371  1.00  0.00    -0.006 C 
ATOM     14  C   UNL A   1      33.651  24.029  26.589  1.00  0.00     0.048 C 
ATOM     15  C   UNL A   1      32.938  21.782  26.582  1.00  0.00    -0.014 C 
BRANCH  12  16
ATOM     16  N   UNL A   1      35.489  23.331  25.005  1.00  0.00    -0.346 N 
ATOM     17  C   UNL A   1      36.697  22.891  24.493  1.00  0.00     0.254 C 
ATOM     18  O   UNL A   1      36.890  23.035  23.287  1.00  0.00    -0.269 OA
ATOM     19  H   UNL A   1      34.966  23.887  24.382  1.00  0.00     0.164 HD
BRANCH  17  20
ATOM     20  C   UNL A   1      37.790  22.362  25.360  1.00  0.00     0.075 A 
ATOM     21  C   UNL A   1      41.679  20.977  26.500  1.00  0.00     0.044 C 
ATOM     22  C   UNL A   1      40.248  21.400  26.341  1.00  0.00    -0.048 A 
ATOM     23  C   UNL A   1      39.860  22.717  26.577  1.00  0.00     0.004 A 
ATOM     24  C   UNL A   1      39.305  20.519  25.816  1.00  0.00     0.043 A 
ATOM     25  C   UNL A   1      38.608  23.172  26.149  1.00  0.00     0.017 A 
ATOM     26  C   UNL A   1      38.105  21.002  25.289  1.00  0.00     0.136 A 
ATOM     27  F   UNL A   1      37.330  20.127  24.632  1.00  0.00    -0.206 F 
ENDBRANCH  17  20
ENDBRANCH  12  16
ENDBRANCH   9  11
ENDBRANCH   8   9
ENDBRANCH   7   8
ENDBRANCH   6   7
ENDBRANCH   5   6
ENDBRANCH   4   5
ENDBRANCH   3   4
ENDBRANCH   2   3
ENDBRANCH   1   2
BRANCH   1  28
ATOM     28  C   UNL A   1      31.967  29.878  26.148  1.00  0.00     0.188 C 
BRANCH  28  29
ATOM     29  O   UNL A   1      33.274  30.426  26.191  1.00  0.00    -0.376 OA
BRANCH  29  30
ATOM     30  C   UNL A   1      34.009  30.638  27.378  1.00  0.00     0.202 C 
BRANCH  30  31
ATOM     31  C   UNL A   1      34.356  32.023  27.932  1.00  0.00     0.261 C 
BRANCH  31  32
ATOM     32  O   UNL A   1      33.270  32.944  27.931  1.00  0.00    -0.460 OA
BRANCH  32  33
ATOM     33  C   UNL A   1      33.520  34.074  28.632  1.00  0.00     0.338 C 
ATOM     34  O   UNL A   1      32.911  35.133  28.567  1.00  0.00    -0.246 OA
BRANCH  33  35
ATOM     35  C   UNL A   1      34.487  33.770  29.690  1.00  0.00     0.060 A 
ATOM     36  C   UNL A   1      35.807  34.177  29.469  1.00  0.00     0.016 A 
ATOM     37  C   UNL A   1      34.120  33.099  30.859  1.00  0.00     0.016 A 
ATOM     38  C   UNL A   1      36.785  33.874  30.397  1.00  0.00     0.010 A 
ATOM     39  C   UNL A   1      35.113  32.760  31.779  1.00  0.00     0.010 A 
ATOM     40  C   UNL A   1      36.450  33.109  31.519  1.00  0.00    -0.014 A 
BRANCH  40  41
ATOM     41  C   UNL A   1      37.563  32.462  32.236  1.00  0.00     0.031 A 
ATOM     42  C   UNL A   1      38.306  31.368  31.522  1.00  0.00     0.074 A 
ATOM     43  C   UNL A   1      37.970  32.938  33.424  1.00  0.00     0.049 A 
ATOM     44  N   UNL A   1      39.355  30.693  31.904  1.00  0.00    -0.248 NA
ATOM     45  C   UNL A   1      37.801  30.992  30.189  1.00  0.00     0.031 C 
ATOM     46  C   UNL A   1      37.347  34.049  34.144  1.00  0.00     0.029 A 
ATOM     47  N   UNL A   1      39.014  32.559  34.224  1.00  0.00    -0.354 N 
ATOM     48  C   UNL A   1      39.631  29.809  30.865  1.00  0.00     0.074 A 
ATOM     49  C   UNL A   1      38.622  30.011  29.851  1.00  0.00     0.031 C 
ATOM     50  C   UNL A   1      38.022  34.258  35.287  1.00  0.00     0.029 A 
ATOM     51  C   UNL A   1      39.095  33.272  35.395  1.00  0.00     0.049 A 
ATOM     52  H   UNL A   1      39.646  31.844  33.983  1.00  0.00     0.167 HD
ATOM     53  C   UNL A   1      40.641  28.914  30.774  1.00  0.00     0.034 A 
ATOM     54  C   UNL A   1      39.930  33.119  36.442  1.00  0.00     0.034 A 
ATOM     55  C   UNL A   1      41.629  28.739  31.808  1.00  0.00     0.049 A 
ATOM     56  C   UNL A   1      40.999  32.055  36.348  1.00  0.00     0.074 A 
ATOM     57  C   UNL A   1      42.707  27.876  31.830  1.00  0.00     0.029 A 
ATOM     58  N   UNL A   1      41.645  29.432  33.013  1.00  0.00    -0.354 N 
ATOM     59  N   UNL A   1      41.259  31.229  35.358  1.00  0.00    -0.248 NA
ATOM     60  C   UNL A   1      41.894  31.914  37.501  1.00  0.00     0.031 C 
ATOM     61  C   UNL A   1      43.320  27.979  33.082  1.00  0.00     0.029 A 
ATOM     62  C   UNL A   1      42.688  28.981  33.805  1.00  0.00     0.049 A 
ATOM     63  H   UNL A   1      41.010  30.139  33.266  1.00  0.00     0.167 HD
ATOM     64  C   UNL A   1      42.367  30.489  35.761  1.00  0.00     0.074 A 
ATOM     65  C   UNL A   1      42.738  30.987  37.071  1.00  0.00     0.031 C 
ATOM     66  C   UNL A   1      43.025  29.490  35.114  1.00  0.00     0.034 A 
BRANCH  53  67
ATOM     67  C   UNL A   1      40.675  28.014  29.564  1.00  0.00     0.023 A 
ATOM     68  C   UNL A   1      41.593  28.195  28.515  1.00  0.00     0.031 A 
ATOM     69  C   UNL A   1      39.751  26.959  29.455  1.00  0.00     0.131 A 
ATOM     70  C   UNL A   1      41.532  27.369  27.382  1.00  0.00     0.055 A 
ATOM     71  C   UNL A   1      39.746  26.092  28.362  1.00  0.00     0.041 A 
ATOM     72  F   UNL A   1      38.826  26.760  30.408  1.00  0.00    -0.206 F 
ATOM     73  C   UNL A   1      40.634  26.301  27.311  1.00  0.00     0.022 A 
BRANCH  70  74
ATOM     74  S   UNL A   1      42.553  27.784  25.941  1.00  0.00     0.124 S 
ATOM     75  O   UNL A   1      42.197  29.184  25.722  1.00  0.00    -0.237 OA
ATOM     76  O   UNL A   1      43.904  27.537  26.430  1.00  0.00    -0.237 OA
ATOM     77  O   UNL A   1      42.084  26.861  24.909  1.00  0.00    -0.744 OA
ENDBRANCH  70  74
ENDBRANCH  53  67
BRANCH  54  78
ATOM     78  C   UNL A   1      39.756  33.936  37.678  1.00  0.00     0.023 A 
ATOM     79  C   UNL A   1      39.046  33.452  38.786  1.00  0.00     0.031 A 
ATOM     80  C   UNL A   1      40.249  35.253  37.737  1.00  0.00     0.131 A 
ATOM     81  C   UNL A   1      38.798  34.296  39.880  1.00  0.00     0.055 A 
ATOM     82  C   UNL A   1      40.057  36.067  38.855  1.00  0.00     0.041 A 
ATOM     83  F   UNL A   1      40.932  35.773  36.704  1.00  0.00    -0.206 F 
ATOM     84  C   UNL A   1      39.312  35.594  39.929  1.00  0.00     0.022 A 
BRANCH  81  85
ATOM     85  S   UNL A   1      37.686  33.715  41.192  1.00  0.00     0.124 S 
ATOM     86  O   UNL A   1      38.554  32.807  41.933  1.00  0.00    -0.237 OA
ATOM     87  O   UNL A   1      37.336  34.961  41.863  1.00  0.00    -0.237 OA
ATOM     88  O   UNL A   1      36.597  33.077  40.455  1.00  0.00    -0.744 OA
ENDBRANCH  81  85
ENDBRANCH  54  78
BRANCH  66  89
ATOM     89  C   UNL A   1      44.234  28.908  35.806  1.00  0.00     0.023 A 
ATOM     90  C   UNL A   1      44.124  27.843  36.715  1.00  0.00     0.031 A 
ATOM     91  C   UNL A   1      45.513  29.438  35.557  1.00  0.00     0.131 A 
ATOM     92  C   UNL A   1      45.261  27.389  37.397  1.00  0.00     0.055 A 
ATOM     93  C   UNL A   1      46.652  28.927  36.180  1.00  0.00     0.041 A 
ATOM     94  F   UNL A   1      45.678  30.457  34.699  1.00  0.00    -0.206 F 
ATOM     95  C   UNL A   1      46.528  27.909  37.120  1.00  0.00     0.022 A 
BRANCH  92  96
ATOM     96  S   UNL A   1      45.044  26.195  38.745  1.00  0.00     0.124 S 
ATOM     97  O   UNL A   1      45.965  26.708  39.754  1.00  0.00    -0.237 OA
ATOM     98  O   UNL A   1      43.624  26.328  39.053  1.00  0.00    -0.237 OA
ATOM     99  O   UNL A   1      45.431  24.922  38.141  1.00  0.00    -0.744 OA
ENDBRANCH  92  96
ENDBRANCH  66  89
ENDBRANCH  40  41
ENDBRANCH  33  35
ENDBRANCH  32  33
ENDBRANCH  31  32
ENDBRANCH  30  31
ENDBRANCH  29  30
ENDBRANCH  28  29
ENDBRANCH   1  28
TORSDOF 25
ENDMDL
