MODEL 1
REMARK VINA RESULT:     -10.7      0.000      0.000
REMARK SMILES O=C(OCCOCCOCCOCCOC(=O)c1ccc(-c2ccn(C(F)F)c(=O)c2)cc1O)c1ccc(-c2c3nc(c(-c4cc(S(=O)(=O)[O-])ccc4F)c4ccc([nH]4)c(-c4cc(S(=O)(=O)[O-])ccc4F)c4nc(c(-c5cc(S(=O)(=O)[O-])ccc5F)c5ccc2[nH]5)C=C4)C=C3)cc1
REMARK SMILES IDX 8 1 7 2 6 3 5 4 4 5 3 6 2 7 1 8 35 9 36 10 97 11 37 12 96 13
REMARK SMILES IDX 38 14 39 15 40 16 90 17 41 18 95 19 89 20 91 21 42 22 94 23
REMARK SMILES IDX 88 24 87 25 43 27 75 28 55 29 74 30 56 31 59 32 73 33 92 34
REMARK SMILES IDX 57 35 58 36 72 38 93 39 60 40 44 41 45 42 53 43 46 44 52 45
REMARK SMILES IDX 54 46 51 47 47 48 48 49 49 50 50 51 76 52 77 53 85 54 78 55
REMARK SMILES IDX 84 56 86 57 83 58 79 59 80 60 81 61 82 62 61 63 62 64 70 65
REMARK SMILES IDX 63 66 69 67 71 68 68 69 64 70 65 71 66 72 67 73 9 74 10 75
REMARK SMILES IDX 11 76 12 77 13 78 14 79 15 80 16 81 17 82 18 83 19 84 33 85
REMARK SMILES IDX 20 86 32 87 21 88 34 89 22 91 23 92 31 93 24 94 29 95 25 96
REMARK SMILES IDX 30 97 26 98 27 99 28 100
REMARK H PARENT 91 26 59 37 34 90
REMARK Flexibility Score: inf
ROOT
ATOM      1  C   UNL A   1      36.586  23.302  24.500  1.00  0.00     0.188 C 
ENDROOT
BRANCH   1   2
ATOM      2  C   UNL A   1      37.045  22.424  25.654  1.00  0.00     0.188 C 
BRANCH   2   3
ATOM      3  O   UNL A   1      37.716  21.206  25.372  1.00  0.00    -0.376 OA
BRANCH   3   4
ATOM      4  C   UNL A   1      39.069  20.991  25.741  1.00  0.00     0.202 C 
BRANCH   4   5
ATOM      5  C   UNL A   1      39.675  19.583  25.741  1.00  0.00     0.261 C 
BRANCH   5   6
ATOM      6  O   UNL A   1      41.071  19.439  25.440  1.00  0.00    -0.460 OA
BRANCH   6   7
ATOM      7  C   UNL A   1      42.071  19.749  26.310  1.00  0.00     0.338 C 
ATOM      8  O   UNL A   1      42.578  18.895  27.026  1.00  0.00    -0.246 OA
BRANCH   7   9
ATOM      9  C   UNL A   1      42.225  21.189  26.631  1.00  0.00     0.060 A 
ATOM     10  C   UNL A   1      42.067  21.572  27.974  1.00  0.00     0.016 A 
ATOM     11  C   UNL A   1      42.391  22.158  25.645  1.00  0.00     0.016 A 
ATOM     12  C   UNL A   1      41.983  22.924  28.312  1.00  0.00     0.010 A 
ATOM     13  C   UNL A   1      42.208  23.501  25.963  1.00  0.00     0.010 A 
ATOM     14  C   UNL A   1      42.035  23.896  27.302  1.00  0.00    -0.014 A 
BRANCH  14  15
ATOM     15  C   UNL A   1      42.337  25.304  27.634  1.00  0.00     0.031 A 
ATOM     16  C   UNL A   1      41.328  26.292  28.121  1.00  0.00     0.074 A 
ATOM     17  C   UNL A   1      43.602  25.674  27.360  1.00  0.00     0.049 A 
ATOM     18  N   UNL A   1      41.533  27.529  28.500  1.00  0.00    -0.248 NA
ATOM     19  C   UNL A   1      39.925  25.864  28.187  1.00  0.00     0.031 C 
ATOM     20  C   UNL A   1      44.623  24.772  26.813  1.00  0.00     0.029 A 
ATOM     21  N   UNL A   1      44.231  26.882  27.437  1.00  0.00    -0.354 N 
ATOM     22  C   UNL A   1      40.296  28.021  28.901  1.00  0.00     0.074 A 
ATOM     23  C   UNL A   1      39.335  26.963  28.654  1.00  0.00     0.031 C 
ATOM     24  C   UNL A   1      45.723  25.473  26.533  1.00  0.00     0.029 A 
ATOM     25  C   UNL A   1      45.504  26.858  26.927  1.00  0.00     0.049 A 
ATOM     26  H   UNL A   1      43.814  27.688  27.820  1.00  0.00     0.167 HD
ATOM     27  C   UNL A   1      40.022  29.236  29.442  1.00  0.00     0.034 A 
ATOM     28  C   UNL A   1      46.419  27.834  26.804  1.00  0.00     0.034 A 
ATOM     29  C   UNL A   1      41.021  30.275  29.603  1.00  0.00     0.049 A 
ATOM     30  C   UNL A   1      46.107  29.155  27.432  1.00  0.00     0.074 A 
ATOM     31  C   UNL A   1      40.884  31.515  30.206  1.00  0.00     0.029 A 
ATOM     32  N   UNL A   1      42.331  30.213  29.137  1.00  0.00    -0.354 N 
ATOM     33  N   UNL A   1      44.983  29.554  27.981  1.00  0.00    -0.248 NA
ATOM     34  C   UNL A   1      47.194  30.133  27.489  1.00  0.00     0.031 C 
ATOM     35  C   UNL A   1      42.075  32.225  30.034  1.00  0.00     0.029 A 
ATOM     36  C   UNL A   1      42.995  31.403  29.402  1.00  0.00     0.049 A 
ATOM     37  H   UNL A   1      42.730  29.435  28.684  1.00  0.00     0.167 HD
ATOM     38  C   UNL A   1      45.227  30.833  28.460  1.00  0.00     0.074 A 
ATOM     39  C   UNL A   1      46.624  31.114  28.176  1.00  0.00     0.031 C 
ATOM     40  C   UNL A   1      44.374  31.696  29.070  1.00  0.00     0.034 A 
BRANCH  27  41
ATOM     41  C   UNL A   1      38.623  29.520  29.955  1.00  0.00     0.023 A 
ATOM     42  C   UNL A   1      37.757  30.388  29.258  1.00  0.00     0.031 A 
ATOM     43  C   UNL A   1      38.218  29.077  31.230  1.00  0.00     0.131 A 
ATOM     44  C   UNL A   1      36.560  30.815  29.855  1.00  0.00     0.055 A 
ATOM     45  C   UNL A   1      37.004  29.470  31.800  1.00  0.00     0.041 A 
ATOM     46  F   UNL A   1      39.007  28.266  31.954  1.00  0.00    -0.206 F 
ATOM     47  C   UNL A   1      36.176  30.355  31.119  1.00  0.00     0.022 A 
BRANCH  44  48
ATOM     48  S   UNL A   1      35.493  32.055  29.064  1.00  0.00     0.124 S 
ATOM     49  O   UNL A   1      36.369  32.581  28.018  1.00  0.00    -0.237 OA
ATOM     50  O   UNL A   1      34.379  31.240  28.589  1.00  0.00    -0.237 OA
ATOM     51  O   UNL A   1      35.180  32.988  30.140  1.00  0.00    -0.744 OA
ENDBRANCH  44  48
ENDBRANCH  27  41
BRANCH  28  52
ATOM     52  C   UNL A   1      47.733  27.475  26.206  1.00  0.00     0.023 A 
ATOM     53  C   UNL A   1      47.987  27.737  24.845  1.00  0.00     0.031 A 
ATOM     54  C   UNL A   1      48.627  26.653  26.907  1.00  0.00     0.131 A 
ATOM     55  C   UNL A   1      49.062  27.105  24.210  1.00  0.00     0.055 A 
ATOM     56  C   UNL A   1      49.740  26.086  26.286  1.00  0.00     0.041 A 
ATOM     57  F   UNL A   1      48.395  26.343  28.192  1.00  0.00    -0.206 F 
ATOM     58  C   UNL A   1      49.948  26.293  24.925  1.00  0.00     0.022 A 
BRANCH  55  59
ATOM     59  S   UNL A   1      49.233  27.155  22.403  1.00  0.00     0.124 S 
ATOM     60  O   UNL A   1      48.556  28.405  22.068  1.00  0.00    -0.237 OA
ATOM     61  O   UNL A   1      50.684  27.161  22.238  1.00  0.00    -0.237 OA
ATOM     62  O   UNL A   1      48.565  25.937  21.957  1.00  0.00    -0.744 OA
ENDBRANCH  55  59
ENDBRANCH  28  52
BRANCH  40  63
ATOM     63  C   UNL A   1      44.909  33.066  29.417  1.00  0.00     0.023 A 
ATOM     64  C   UNL A   1      44.772  34.139  28.516  1.00  0.00     0.031 A 
ATOM     65  C   UNL A   1      45.629  33.287  30.606  1.00  0.00     0.131 A 
ATOM     66  C   UNL A   1      45.362  35.375  28.811  1.00  0.00     0.055 A 
ATOM     67  C   UNL A   1      46.164  34.536  30.921  1.00  0.00     0.041 A 
ATOM     68  F   UNL A   1      45.801  32.295  31.494  1.00  0.00    -0.206 F 
ATOM     69  C   UNL A   1      46.042  35.584  30.016  1.00  0.00     0.022 A 
BRANCH  66  70
ATOM     70  S   UNL A   1      45.342  36.735  27.610  1.00  0.00     0.124 S 
ATOM     71  O   UNL A   1      46.762  37.061  27.500  1.00  0.00    -0.237 OA
ATOM     72  O   UNL A   1      44.757  36.097  26.435  1.00  0.00    -0.237 OA
ATOM     73  O   UNL A   1      44.516  37.756  28.247  1.00  0.00    -0.744 OA
ENDBRANCH  66  70
ENDBRANCH  40  63
ENDBRANCH  14  15
ENDBRANCH   7   9
ENDBRANCH   6   7
ENDBRANCH   5   6
ENDBRANCH   4   5
ENDBRANCH   3   4
ENDBRANCH   2   3
ENDBRANCH   1   2
BRANCH   1  74
ATOM     74  O   UNL A   1      35.182  23.319  24.339  1.00  0.00    -0.377 OA
BRANCH  74  75
ATOM     75  C   UNL A   1      34.507  24.054  25.357  1.00  0.00     0.188 C 
BRANCH  75  76
ATOM     76  C   UNL A   1      34.465  25.599  25.263  1.00  0.00     0.188 C 
BRANCH  76  77
ATOM     77  O   UNL A   1      33.346  26.277  25.790  1.00  0.00    -0.376 OA
BRANCH  77  78
ATOM     78  C   UNL A   1      32.778  27.439  25.223  1.00  0.00     0.202 C 
BRANCH  78  79
ATOM     79  C   UNL A   1      33.084  28.006  23.827  1.00  0.00     0.261 C 
BRANCH  79  80
ATOM     80  O   UNL A   1      32.919  27.125  22.721  1.00  0.00    -0.460 OA
BRANCH  80  81
ATOM     81  C   UNL A   1      31.687  26.566  22.572  1.00  0.00     0.341 C 
ATOM     82  O   UNL A   1      30.680  27.093  22.165  1.00  0.00    -0.246 OA
BRANCH  81  83
ATOM     83  C   UNL A   1      31.834  25.106  22.764  1.00  0.00     0.101 A 
ATOM     84  C   UNL A   1      31.124  24.491  23.809  1.00  0.00     0.020 A 
ATOM     85  C   UNL A   1      32.625  24.341  21.911  1.00  0.00     0.130 A 
ATOM     86  C   UNL A   1      31.195  23.107  23.989  1.00  0.00     0.010 A 
ATOM     87  C   UNL A   1      32.721  22.967  22.106  1.00  0.00     0.055 A 
ATOM     88  C   UNL A   1      32.018  22.349  23.155  1.00  0.00    -0.014 A 
BRANCH  85  89
ATOM     89  O   UNL A   1      33.343  24.939  20.915  1.00  0.00    -0.507 OA
ATOM     90  H   UNL A   1      34.228  24.675  20.752  1.00  0.00     0.293 HD
ENDBRANCH  85  89
BRANCH  88  91
ATOM     91  C   UNL A   1      32.342  20.950  23.463  1.00  0.00    -0.011 A 
ATOM     92  C   UNL A   1      33.183  20.648  24.603  1.00  0.00     0.027 A 
ATOM     93  C   UNL A   1      31.979  19.964  22.625  1.00  0.00     0.080 A 
ATOM     94  C   UNL A   1      33.716  19.433  24.749  1.00  0.00     0.095 A 
ATOM     95  C   UNL A   1      32.524  18.585  22.810  1.00  0.00     0.255 A 
ATOM     96  N   UNL A   1      33.428  18.424  23.850  1.00  0.00    -0.258 N 
ATOM     97  O   UNL A   1      32.191  17.708  22.019  1.00  0.00    -0.269 OA
BRANCH  96  98
ATOM     98  C   UNL A   1      34.110  17.160  23.947  1.00  0.00     0.451 C 
ATOM     99  F   UNL A   1      34.407  16.656  22.727  1.00  0.00    -0.185 F 
ATOM    100  F   UNL A   1      35.266  17.292  24.644  1.00  0.00    -0.185 F 
ENDBRANCH  96  98
ENDBRANCH  88  91
ENDBRANCH  81  83
ENDBRANCH  80  81
ENDBRANCH  79  80
ENDBRANCH  78  79
ENDBRANCH  77  78
ENDBRANCH  76  77
ENDBRANCH  75  76
ENDBRANCH  74  75
ENDBRANCH   1  74
TORSDOF 26
ENDMDL
MODEL 2
REMARK VINA RESULT:     -10.1      1.441      7.390
REMARK SMILES O=C(OCCOCCOCCOCCOC(=O)c1ccc(-c2ccn(C(F)F)c(=O)c2)cc1O)c1ccc(-c2c3nc(c(-c4cc(S(=O)(=O)[O-])ccc4F)c4ccc([nH]4)c(-c4cc(S(=O)(=O)[O-])ccc4F)c4nc(c(-c5cc(S(=O)(=O)[O-])ccc5F)c5ccc2[nH]5)C=C4)C=C3)cc1
REMARK SMILES IDX 8 1 7 2 6 3 5 4 4 5 3 6 2 7 1 8 35 9 36 10 97 11 37 12 96 13
REMARK SMILES IDX 38 14 39 15 40 16 90 17 41 18 95 19 89 20 91 21 42 22 94 23
REMARK SMILES IDX 88 24 87 25 43 27 75 28 55 29 74 30 56 31 59 32 73 33 92 34
REMARK SMILES IDX 57 35 58 36 72 38 93 39 60 40 44 41 45 42 53 43 46 44 52 45
REMARK SMILES IDX 54 46 51 47 47 48 48 49 49 50 50 51 76 52 77 53 85 54 78 55
REMARK SMILES IDX 84 56 86 57 83 58 79 59 80 60 81 61 82 62 61 63 62 64 70 65
REMARK SMILES IDX 63 66 69 67 71 68 68 69 64 70 65 71 66 72 67 73 9 74 10 75
REMARK SMILES IDX 11 76 12 77 13 78 14 79 15 80 16 81 17 82 18 83 19 84 33 85
REMARK SMILES IDX 20 86 32 87 21 88 34 89 22 91 23 92 31 93 24 94 29 95 25 96
REMARK SMILES IDX 30 97 26 98 27 99 28 100
REMARK H PARENT 91 26 59 37 34 90
REMARK Flexibility Score: inf
ROOT
ATOM      1  C   UNL A   1      36.755  23.438  24.814  1.00  0.00     0.188 C 
ENDROOT
BRANCH   1   2
ATOM      2  C   UNL A   1      37.003  22.071  25.433  1.00  0.00     0.188 C 
BRANCH   2   3
ATOM      3  O   UNL A   1      38.323  21.548  25.450  1.00  0.00    -0.376 OA
BRANCH   3   4
ATOM      4  C   UNL A   1      38.580  20.156  25.368  1.00  0.00     0.202 C 
BRANCH   4   5
ATOM      5  C   UNL A   1      39.962  19.585  25.705  1.00  0.00     0.261 C 
BRANCH   5   6
ATOM      6  O   UNL A   1      41.058  20.499  25.869  1.00  0.00    -0.460 OA
BRANCH   6   7
ATOM      7  C   UNL A   1      41.658  20.756  27.063  1.00  0.00     0.338 C 
ATOM      8  O   UNL A   1      41.663  19.926  27.964  1.00  0.00    -0.246 OA
BRANCH   7   9
ATOM      9  C   UNL A   1      41.934  22.184  27.354  1.00  0.00     0.060 A 
ATOM     10  C   UNL A   1      42.381  22.506  28.646  1.00  0.00     0.016 A 
ATOM     11  C   UNL A   1      41.650  23.197  26.442  1.00  0.00     0.016 A 
ATOM     12  C   UNL A   1      42.451  23.841  29.052  1.00  0.00     0.010 A 
ATOM     13  C   UNL A   1      41.622  24.521  26.872  1.00  0.00     0.010 A 
ATOM     14  C   UNL A   1      42.053  24.855  28.169  1.00  0.00    -0.014 A 
BRANCH  14  15
ATOM     15  C   UNL A   1      42.467  26.255  28.402  1.00  0.00     0.031 A 
ATOM     16  C   UNL A   1      43.873  26.748  28.296  1.00  0.00     0.074 A 
ATOM     17  C   UNL A   1      41.475  27.057  28.831  1.00  0.00     0.049 A 
ATOM     18  N   UNL A   1      44.304  27.979  28.417  1.00  0.00    -0.248 NA
ATOM     19  C   UNL A   1      44.929  25.761  28.033  1.00  0.00     0.031 C 
ATOM     20  C   UNL A   1      40.088  26.618  29.025  1.00  0.00     0.029 A 
ATOM     21  N   UNL A   1      41.473  28.361  29.233  1.00  0.00    -0.354 N 
ATOM     22  C   UNL A   1      45.676  27.933  28.197  1.00  0.00     0.074 A 
ATOM     23  C   UNL A   1      46.012  26.536  28.000  1.00  0.00     0.031 C 
ATOM     24  C   UNL A   1      39.388  27.609  29.579  1.00  0.00     0.029 A 
ATOM     25  C   UNL A   1      40.260  28.765  29.731  1.00  0.00     0.049 A 
ATOM     26  H   UNL A   1      42.259  28.950  29.171  1.00  0.00     0.167 HD
ATOM     27  C   UNL A   1      46.544  28.976  28.147  1.00  0.00     0.034 A 
ATOM     28  C   UNL A   1      39.870  29.947  30.239  1.00  0.00     0.034 A 
ATOM     29  C   UNL A   1      46.153  30.346  28.419  1.00  0.00     0.049 A 
ATOM     30  C   UNL A   1      40.833  31.088  30.148  1.00  0.00     0.074 A 
ATOM     31  C   UNL A   1      46.920  31.495  28.324  1.00  0.00     0.029 A 
ATOM     32  N   UNL A   1      44.898  30.753  28.863  1.00  0.00    -0.354 N 
ATOM     33  N   UNL A   1      42.087  31.071  29.758  1.00  0.00    -0.248 NA
ATOM     34  C   UNL A   1      40.321  32.414  30.494  1.00  0.00     0.031 C 
ATOM     35  C   UNL A   1      46.160  32.574  28.785  1.00  0.00     0.029 A 
ATOM     36  C   UNL A   1      44.885  32.124  29.085  1.00  0.00     0.049 A 
ATOM     37  H   UNL A   1      44.128  30.154  29.000  1.00  0.00     0.167 HD
ATOM     38  C   UNL A   1      42.517  32.389  29.804  1.00  0.00     0.074 A 
ATOM     39  C   UNL A   1      41.368  33.178  30.212  1.00  0.00     0.031 C 
ATOM     40  C   UNL A   1      43.748  32.897  29.542  1.00  0.00     0.034 A 
BRANCH  27  41
ATOM     41  C   UNL A   1      47.983  28.723  27.740  1.00  0.00     0.023 A 
ATOM     42  C   UNL A   1      48.332  28.536  26.386  1.00  0.00     0.031 A 
ATOM     43  C   UNL A   1      48.976  28.483  28.710  1.00  0.00     0.131 A 
ATOM     44  C   UNL A   1      49.617  28.084  26.047  1.00  0.00     0.055 A 
ATOM     45  C   UNL A   1      50.267  28.076  28.363  1.00  0.00     0.041 A 
ATOM     46  F   UNL A   1      48.702  28.621  30.017  1.00  0.00    -0.206 F 
ATOM     47  C   UNL A   1      50.588  27.860  27.028  1.00  0.00     0.022 A 
BRANCH  44  48
ATOM     48  S   UNL A   1      50.060  27.678  24.332  1.00  0.00     0.124 S 
ATOM     49  O   UNL A   1      50.472  26.280  24.453  1.00  0.00    -0.237 OA
ATOM     50  O   UNL A   1      48.798  27.896  23.631  1.00  0.00    -0.237 OA
ATOM     51  O   UNL A   1      51.130  28.616  24.014  1.00  0.00    -0.744 OA
ENDBRANCH  44  48
ENDBRANCH  27  41
BRANCH  28  52
ATOM     52  C   UNL A   1      38.460  30.070  30.694  1.00  0.00     0.023 A 
ATOM     53  C   UNL A   1      37.508  30.718  29.882  1.00  0.00     0.031 A 
ATOM     54  C   UNL A   1      38.118  29.777  32.023  1.00  0.00     0.131 A 
ATOM     55  C   UNL A   1      36.292  31.131  30.441  1.00  0.00     0.055 A 
ATOM     56  C   UNL A   1      36.875  30.124  32.552  1.00  0.00     0.041 A 
ATOM     57  F   UNL A   1      39.014  29.202  32.840  1.00  0.00    -0.206 F 
ATOM     58  C   UNL A   1      35.964  30.825  31.765  1.00  0.00     0.022 A 
BRANCH  55  59
ATOM     59  S   UNL A   1      35.183  32.244  29.530  1.00  0.00     0.124 S 
ATOM     60  O   UNL A   1      34.281  32.701  30.583  1.00  0.00    -0.237 OA
ATOM     61  O   UNL A   1      36.116  33.246  29.021  1.00  0.00    -0.237 OA
ATOM     62  O   UNL A   1      34.584  31.384  28.515  1.00  0.00    -0.744 OA
ENDBRANCH  55  59
ENDBRANCH  28  52
BRANCH  40  63
ATOM     63  C   UNL A   1      43.943  34.381  29.752  1.00  0.00     0.023 A 
ATOM     64  C   UNL A   1      43.822  35.280  28.677  1.00  0.00     0.031 A 
ATOM     65  C   UNL A   1      44.332  34.894  31.005  1.00  0.00     0.131 A 
ATOM     66  C   UNL A   1      44.106  36.639  28.870  1.00  0.00     0.055 A 
ATOM     67  C   UNL A   1      44.555  36.255  31.205  1.00  0.00     0.041 A 
ATOM     68  F   UNL A   1      44.475  34.078  32.062  1.00  0.00    -0.206 F 
ATOM     69  C   UNL A   1      44.454  37.133  30.132  1.00  0.00     0.022 A 
BRANCH  66  70
ATOM     70  S   UNL A   1      44.112  37.804  27.479  1.00  0.00     0.124 S 
ATOM     71  O   UNL A   1      44.227  39.090  28.164  1.00  0.00    -0.237 OA
ATOM     72  O   UNL A   1      45.298  37.387  26.737  1.00  0.00    -0.237 OA
ATOM     73  O   UNL A   1      42.837  37.565  26.813  1.00  0.00    -0.744 OA
ENDBRANCH  66  70
ENDBRANCH  40  63
ENDBRANCH  14  15
ENDBRANCH   7   9
ENDBRANCH   6   7
ENDBRANCH   5   6
ENDBRANCH   4   5
ENDBRANCH   3   4
ENDBRANCH   2   3
ENDBRANCH   1   2
BRANCH   1  74
ATOM     74  O   UNL A   1      35.462  23.568  24.257  1.00  0.00    -0.377 OA
BRANCH  74  75
ATOM     75  C   UNL A   1      34.640  24.500  24.953  1.00  0.00     0.188 C 
BRANCH  75  76
ATOM     76  C   UNL A   1      34.223  25.810  24.239  1.00  0.00     0.188 C 
BRANCH  76  77
ATOM     77  O   UNL A   1      33.290  26.657  24.874  1.00  0.00    -0.376 OA
BRANCH  77  78
ATOM     78  C   UNL A   1      32.570  27.682  24.221  1.00  0.00     0.202 C 
BRANCH  78  79
ATOM     79  C   UNL A   1      31.063  27.674  23.915  1.00  0.00     0.261 C 
BRANCH  79  80
ATOM     80  O   UNL A   1      30.455  26.406  23.693  1.00  0.00    -0.460 OA
BRANCH  80  81
ATOM     81  C   UNL A   1      30.107  25.701  24.803  1.00  0.00     0.341 C 
ATOM     82  O   UNL A   1      29.285  25.994  25.638  1.00  0.00    -0.246 OA
BRANCH  81  83
ATOM     83  C   UNL A   1      30.736  24.365  24.699  1.00  0.00     0.101 A 
ATOM     84  C   UNL A   1      31.140  23.911  23.432  1.00  0.00     0.020 A 
ATOM     85  C   UNL A   1      30.963  23.583  25.828  1.00  0.00     0.130 A 
ATOM     86  C   UNL A   1      31.786  22.679  23.299  1.00  0.00     0.010 A 
ATOM     87  C   UNL A   1      31.578  22.342  25.695  1.00  0.00     0.055 A 
ATOM     88  C   UNL A   1      31.978  21.881  24.428  1.00  0.00    -0.014 A 
BRANCH  85  89
ATOM     89  O   UNL A   1      30.540  24.005  27.056  1.00  0.00    -0.507 OA
ATOM     90  H   UNL A   1      30.090  23.413  27.626  1.00  0.00     0.293 HD
ENDBRANCH  85  89
BRANCH  88  91
ATOM     91  C   UNL A   1      32.397  20.478  24.314  1.00  0.00    -0.011 A 
ATOM     92  C   UNL A   1      33.284  19.917  25.313  1.00  0.00     0.027 A 
ATOM     93  C   UNL A   1      32.076  19.754  23.229  1.00  0.00     0.080 A 
ATOM     94  C   UNL A   1      33.896  18.750  25.097  1.00  0.00     0.095 A 
ATOM     95  C   UNL A   1      32.712  18.421  23.002  1.00  0.00     0.255 A 
ATOM     96  N   UNL A   1      33.649  18.027  23.946  1.00  0.00    -0.258 N 
ATOM     97  O   UNL A   1      32.414  17.790  21.992  1.00  0.00    -0.269 OA
BRANCH  96  98
ATOM     98  C   UNL A   1      34.412  16.839  23.667  1.00  0.00     0.451 C 
ATOM     99  F   UNL A   1      33.877  15.748  24.261  1.00  0.00    -0.185 F 
ATOM    100  F   UNL A   1      34.469  16.609  22.332  1.00  0.00    -0.185 F 
ENDBRANCH  96  98
ENDBRANCH  88  91
ENDBRANCH  81  83
ENDBRANCH  80  81
ENDBRANCH  79  80
ENDBRANCH  78  79
ENDBRANCH  77  78
ENDBRANCH  76  77
ENDBRANCH  75  76
ENDBRANCH  74  75
ENDBRANCH   1  74
TORSDOF 26
ENDMDL
MODEL 3
REMARK VINA RESULT:     -10.1      2.010      7.580
REMARK SMILES O=C(OCCOCCOCCOCCOC(=O)c1ccc(-c2ccn(C(F)F)c(=O)c2)cc1O)c1ccc(-c2c3nc(c(-c4cc(S(=O)(=O)[O-])ccc4F)c4ccc([nH]4)c(-c4cc(S(=O)(=O)[O-])ccc4F)c4nc(c(-c5cc(S(=O)(=O)[O-])ccc5F)c5ccc2[nH]5)C=C4)C=C3)cc1
REMARK SMILES IDX 8 1 7 2 6 3 5 4 4 5 3 6 2 7 1 8 35 9 36 10 97 11 37 12 96 13
REMARK SMILES IDX 38 14 39 15 40 16 90 17 41 18 95 19 89 20 91 21 42 22 94 23
REMARK SMILES IDX 88 24 87 25 43 27 75 28 55 29 74 30 56 31 59 32 73 33 92 34
REMARK SMILES IDX 57 35 58 36 72 38 93 39 60 40 44 41 45 42 53 43 46 44 52 45
REMARK SMILES IDX 54 46 51 47 47 48 48 49 49 50 50 51 76 52 77 53 85 54 78 55
REMARK SMILES IDX 84 56 86 57 83 58 79 59 80 60 81 61 82 62 61 63 62 64 70 65
REMARK SMILES IDX 63 66 69 67 71 68 68 69 64 70 65 71 66 72 67 73 9 74 10 75
REMARK SMILES IDX 11 76 12 77 13 78 14 79 15 80 16 81 17 82 18 83 19 84 33 85
REMARK SMILES IDX 20 86 32 87 21 88 34 89 22 91 23 92 31 93 24 94 29 95 25 96
REMARK SMILES IDX 30 97 26 98 27 99 28 100
REMARK H PARENT 91 26 59 37 34 90
REMARK Flexibility Score: inf
ROOT
ATOM      1  C   UNL A   1      36.910  23.350  23.921  1.00  0.00     0.188 C 
ENDROOT
BRANCH   1   2
ATOM      2  C   UNL A   1      36.874  22.192  24.907  1.00  0.00     0.188 C 
BRANCH   2   3
ATOM      3  O   UNL A   1      38.051  21.428  25.121  1.00  0.00    -0.376 OA
BRANCH   3   4
ATOM      4  C   UNL A   1      38.060  20.015  25.006  1.00  0.00     0.202 C 
BRANCH   4   5
ATOM      5  C   UNL A   1      39.184  19.177  25.626  1.00  0.00     0.261 C 
BRANCH   5   6
ATOM      6  O   UNL A   1      40.474  19.784  25.796  1.00  0.00    -0.460 OA
BRANCH   6   7
ATOM      7  C   UNL A   1      41.003  20.117  27.005  1.00  0.00     0.338 C 
ATOM      8  O   UNL A   1      40.785  19.440  28.003  1.00  0.00    -0.246 OA
BRANCH   7   9
ATOM      9  C   UNL A   1      41.495  21.510  27.134  1.00  0.00     0.060 A 
ATOM     10  C   UNL A   1      41.994  21.905  28.387  1.00  0.00     0.016 A 
ATOM     11  C   UNL A   1      41.362  22.444  26.111  1.00  0.00     0.016 A 
ATOM     12  C   UNL A   1      42.270  23.251  28.638  1.00  0.00     0.010 A 
ATOM     13  C   UNL A   1      41.539  23.797  26.387  1.00  0.00     0.010 A 
ATOM     14  C   UNL A   1      42.025  24.207  27.642  1.00  0.00    -0.014 A 
BRANCH  14  15
ATOM     15  C   UNL A   1      42.649  25.545  27.718  1.00  0.00     0.031 A 
ATOM     16  C   UNL A   1      44.053  25.846  27.310  1.00  0.00     0.074 A 
ATOM     17  C   UNL A   1      41.872  26.481  28.297  1.00  0.00     0.049 A 
ATOM     18  N   UNL A   1      44.650  27.011  27.283  1.00  0.00    -0.248 NA
ATOM     19  C   UNL A   1      44.902  24.723  26.891  1.00  0.00     0.031 C 
ATOM     20  C   UNL A   1      40.511  26.233  28.785  1.00  0.00     0.029 A 
ATOM     21  N   UNL A   1      42.115  27.782  28.627  1.00  0.00    -0.354 N 
ATOM     22  C   UNL A   1      45.931  26.780  26.796  1.00  0.00     0.074 A 
ATOM     23  C   UNL A   1      46.043  25.347  26.604  1.00  0.00     0.031 C 
ATOM     24  C   UNL A   1      40.068  27.320  29.418  1.00  0.00     0.029 A 
ATOM     25  C   UNL A   1      41.089  28.354  29.337  1.00  0.00     0.049 A 
ATOM     26  H   UNL A   1      42.939  28.261  28.380  1.00  0.00     0.167 HD
ATOM     27  C   UNL A   1      46.894  27.698  26.523  1.00  0.00     0.034 A 
ATOM     28  C   UNL A   1      40.962  29.588  29.853  1.00  0.00     0.034 A 
ATOM     29  C   UNL A   1      46.740  29.114  26.799  1.00  0.00     0.049 A 
ATOM     30  C   UNL A   1      42.020  30.590  29.516  1.00  0.00     0.074 A 
ATOM     31  C   UNL A   1      47.609  30.149  26.497  1.00  0.00     0.029 A 
ATOM     32  N   UNL A   1      45.663  29.692  27.464  1.00  0.00    -0.354 N 
ATOM     33  N   UNL A   1      43.156  30.399  28.886  1.00  0.00    -0.248 NA
ATOM     34  C   UNL A   1      41.758  31.980  29.892  1.00  0.00     0.031 C 
ATOM     35  C   UNL A   1      47.099  31.329  27.046  1.00  0.00     0.029 A 
ATOM     36  C   UNL A   1      45.866  31.058  27.617  1.00  0.00     0.049 A 
ATOM     37  H   UNL A   1      44.869  29.203  27.781  1.00  0.00     0.167 HD
ATOM     38  C   UNL A   1      43.747  31.650  28.780  1.00  0.00     0.074 A 
ATOM     39  C   UNL A   1      42.813  32.593  29.370  1.00  0.00     0.031 C 
ATOM     40  C   UNL A   1      44.952  31.985  28.252  1.00  0.00     0.034 A 
BRANCH  27  41
ATOM     41  C   UNL A   1      48.177  27.249  25.849  1.00  0.00     0.023 A 
ATOM     42  C   UNL A   1      49.278  26.806  26.611  1.00  0.00     0.031 A 
ATOM     43  C   UNL A   1      48.370  27.436  24.467  1.00  0.00     0.131 A 
ATOM     44  C   UNL A   1      50.525  26.609  25.995  1.00  0.00     0.055 A 
ATOM     45  C   UNL A   1      49.602  27.195  23.852  1.00  0.00     0.041 A 
ATOM     46  F   UNL A   1      47.367  27.877  23.690  1.00  0.00    -0.206 F 
ATOM     47  C   UNL A   1      50.690  26.795  24.618  1.00  0.00     0.022 A 
BRANCH  44  48
ATOM     48  S   UNL A   1      52.007  26.194  26.960  1.00  0.00     0.124 S 
ATOM     49  O   UNL A   1      52.290  24.834  26.504  1.00  0.00    -0.237 OA
ATOM     50  O   UNL A   1      52.956  27.209  26.514  1.00  0.00    -0.237 OA
ATOM     51  O   UNL A   1      51.567  26.306  28.346  1.00  0.00    -0.744 OA
ENDBRANCH  44  48
ENDBRANCH  27  41
BRANCH  28  52
ATOM     52  C   UNL A   1      39.701  29.906  30.574  1.00  0.00     0.023 A 
ATOM     53  C   UNL A   1      38.685  30.644  29.933  1.00  0.00     0.031 A 
ATOM     54  C   UNL A   1      39.608  29.704  31.959  1.00  0.00     0.131 A 
ATOM     55  C   UNL A   1      37.669  31.228  30.698  1.00  0.00     0.055 A 
ATOM     56  C   UNL A   1      38.551  30.226  32.705  1.00  0.00     0.041 A 
ATOM     57  F   UNL A   1      40.579  29.048  32.613  1.00  0.00    -0.206 F 
ATOM     58  C   UNL A   1      37.588  31.011  32.078  1.00  0.00     0.022 A 
BRANCH  55  59
ATOM     59  S   UNL A   1      36.536  32.443  29.965  1.00  0.00     0.124 S 
ATOM     60  O   UNL A   1      37.250  32.829  28.751  1.00  0.00    -0.237 OA
ATOM     61  O   UNL A   1      35.331  31.645  29.761  1.00  0.00    -0.237 OA
ATOM     62  O   UNL A   1      36.427  33.477  30.989  1.00  0.00    -0.744 OA
ENDBRANCH  55  59
ENDBRANCH  28  52
BRANCH  40  63
ATOM     63  C   UNL A   1      45.369  33.434  28.347  1.00  0.00     0.023 A 
ATOM     64  C   UNL A   1      46.046  33.913  29.484  1.00  0.00     0.031 A 
ATOM     65  C   UNL A   1      45.020  34.359  27.345  1.00  0.00     0.131 A 
ATOM     66  C   UNL A   1      46.333  35.280  29.599  1.00  0.00     0.055 A 
ATOM     67  C   UNL A   1      45.362  35.708  27.437  1.00  0.00     0.041 A 
ATOM     68  F   UNL A   1      44.362  33.958  26.245  1.00  0.00    -0.206 F 
ATOM     69  C   UNL A   1      46.011  36.176  28.574  1.00  0.00     0.022 A 
BRANCH  66  70
ATOM     70  S   UNL A   1      47.065  35.962  31.113  1.00  0.00     0.124 S 
ATOM     71  O   UNL A   1      45.901  36.058  31.992  1.00  0.00    -0.237 OA
ATOM     72  O   UNL A   1      48.035  34.933  31.474  1.00  0.00    -0.237 OA
ATOM     73  O   UNL A   1      47.631  37.237  30.688  1.00  0.00    -0.744 OA
ENDBRANCH  66  70
ENDBRANCH  40  63
ENDBRANCH  14  15
ENDBRANCH   7   9
ENDBRANCH   6   7
ENDBRANCH   5   6
ENDBRANCH   4   5
ENDBRANCH   3   4
ENDBRANCH   2   3
ENDBRANCH   1   2
BRANCH   1  74
ATOM     74  O   UNL A   1      35.912  23.261  22.924  1.00  0.00    -0.377 OA
BRANCH  74  75
ATOM     75  C   UNL A   1      34.617  23.630  23.388  1.00  0.00     0.188 C 
BRANCH  75  76
ATOM     76  C   UNL A   1      34.115  25.073  23.141  1.00  0.00     0.188 C 
BRANCH  76  77
ATOM     77  O   UNL A   1      33.945  25.929  24.250  1.00  0.00    -0.376 OA
BRANCH  77  78
ATOM     78  C   UNL A   1      33.291  27.180  24.199  1.00  0.00     0.202 C 
BRANCH  78  79
ATOM     79  C   UNL A   1      31.786  27.422  24.408  1.00  0.00     0.261 C 
BRANCH  79  80
ATOM     80  O   UNL A   1      30.926  26.296  24.275  1.00  0.00    -0.460 OA
BRANCH  80  81
ATOM     81  C   UNL A   1      30.668  25.595  25.413  1.00  0.00     0.341 C 
ATOM     82  O   UNL A   1      30.029  25.953  26.373  1.00  0.00    -0.246 OA
BRANCH  81  83
ATOM     83  C   UNL A   1      31.099  24.198  25.184  1.00  0.00     0.101 A 
ATOM     84  C   UNL A   1      30.968  23.658  23.893  1.00  0.00     0.020 A 
ATOM     85  C   UNL A   1      31.659  23.438  26.207  1.00  0.00     0.130 A 
ATOM     86  C   UNL A   1      31.412  22.361  23.624  1.00  0.00     0.010 A 
ATOM     87  C   UNL A   1      32.075  22.136  25.949  1.00  0.00     0.055 A 
ATOM     88  C   UNL A   1      31.939  21.589  24.661  1.00  0.00    -0.014 A 
BRANCH  85  89
ATOM     89  O   UNL A   1      31.757  23.947  27.470  1.00  0.00    -0.507 OA
ATOM     90  H   UNL A   1      31.568  23.404  28.210  1.00  0.00     0.293 HD
ENDBRANCH  85  89
BRANCH  88  91
ATOM     91  C   UNL A   1      32.168  20.146  24.504  1.00  0.00    -0.011 A 
ATOM     92  C   UNL A   1      32.537  19.354  25.660  1.00  0.00     0.027 A 
ATOM     93  C   UNL A   1      32.167  19.583  23.285  1.00  0.00     0.080 A 
ATOM     94  C   UNL A   1      33.013  18.117  25.509  1.00  0.00     0.095 A 
ATOM     95  C   UNL A   1      32.645  18.178  23.109  1.00  0.00     0.255 A 
ATOM     96  N   UNL A   1      33.105  17.545  24.255  1.00  0.00    -0.258 N 
ATOM     97  O   UNL A   1      32.653  17.694  21.981  1.00  0.00    -0.269 OA
BRANCH  96  98
ATOM     98  C   UNL A   1      33.740  16.263  24.095  1.00  0.00     0.451 C 
ATOM     99  F   UNL A   1      35.078  16.339  24.278  1.00  0.00    -0.185 F 
ATOM    100  F   UNL A   1      33.241  15.368  24.984  1.00  0.00    -0.185 F 
ENDBRANCH  96  98
ENDBRANCH  88  91
ENDBRANCH  81  83
ENDBRANCH  80  81
ENDBRANCH  79  80
ENDBRANCH  78  79
ENDBRANCH  77  78
ENDBRANCH  76  77
ENDBRANCH  75  76
ENDBRANCH  74  75
ENDBRANCH   1  74
TORSDOF 26
ENDMDL
