MODEL 1
REMARK VINA RESULT:      -9.0      0.000      0.000
REMARK SMILES C[C@@]1(C(=O)OCCOCCOCCOCCOC(=O)c2ccc(-c3c4nc(c(-c5cc(S(=O)(=O)[O-])ccc5F)c5ccc([nH]5)c(-c5cc(S(=O)(=O)[O-])ccc5F)c5nc(c(-c6cc(S(=O)(=O)[O-])ccc6F)c6ccc3[nH]6)C=C5)C=C4)cc2)COC[C@H]1NC(=O)C[C@@H]1C[NH2+]CCO1
REMARK SMILES IDX 11 1 10 2 9 3 8 4 7 5 6 6 5 7 3 8 4 9 2 10 1 11 83 12 86 13
REMARK SMILES IDX 84 14 85 15 87 16 88 17 89 19 90 20 91 21 92 22 96 23 93 24
REMARK SMILES IDX 95 25 94 26 12 29 13 30 14 31 15 32 16 33 17 34 18 35 19 36
REMARK SMILES IDX 20 37 21 38 82 39 22 40 81 41 23 42 24 43 25 44 75 45 26 46
REMARK SMILES IDX 80 47 74 48 76 49 27 50 79 51 73 52 72 53 28 55 60 56 40 57
REMARK SMILES IDX 59 58 41 59 44 60 58 61 77 62 42 63 43 64 57 66 78 67 45 68
REMARK SMILES IDX 29 69 30 70 38 71 31 72 37 73 39 74 36 75 32 76 33 77 34 78
REMARK SMILES IDX 35 79 61 80 62 81 70 82 63 83 69 84 71 85 68 86 64 87 65 88
REMARK SMILES IDX 66 89 67 90 46 91 47 92 55 93 48 94 54 95 56 96 53 97 49 98
REMARK SMILES IDX 50 99 51 100 52 101
REMARK H PARENT 87 18 93 27 93 28 76 54 44 65
REMARK Flexibility Score: inf
ROOT
ATOM      1  O   UNL A   1      34.375  31.248  28.228  1.00  0.00    -0.377 OA
ENDROOT
BRANCH   1   2
ATOM      2  C   UNL A   1      34.838  30.058  27.628  1.00  0.00     0.188 C 
BRANCH   2   3
ATOM      3  C   UNL A   1      33.764  29.043  27.231  1.00  0.00     0.188 C 
BRANCH   3   4
ATOM      4  O   UNL A   1      33.402  28.995  25.866  1.00  0.00    -0.376 OA
BRANCH   4   5
ATOM      5  C   UNL A   1      32.520  30.014  25.389  1.00  0.00     0.202 C 
BRANCH   5   6
ATOM      6  C   UNL A   1      31.504  29.650  24.288  1.00  0.00     0.261 C 
BRANCH   6   7
ATOM      7  O   UNL A   1      30.643  28.513  24.593  1.00  0.00    -0.463 OA
BRANCH   7   8
ATOM      8  C   UNL A   1      30.808  27.433  23.791  1.00  0.00     0.316 C 
ATOM      9  O   UNL A   1      30.765  27.496  22.563  1.00  0.00    -0.251 OA
BRANCH   8  10
ATOM     10  C   UNL A   1      31.122  26.102  24.492  1.00  0.00     0.111 C 
ATOM     11  C   UNL A   1      30.650  26.311  25.942  1.00  0.00     0.028 C 
ATOM     12  C   UNL A   1      32.643  25.972  24.442  1.00  0.00     0.181 C 
ATOM     13  C   UNL A   1      30.678  24.770  23.843  1.00  0.00     0.127 C 
ATOM     14  O   UNL A   1      32.972  25.183  23.293  1.00  0.00    -0.378 OA
ATOM     15  C   UNL A   1      31.780  24.549  22.800  1.00  0.00     0.186 C 
BRANCH  13  16
ATOM     16  N   UNL A   1      30.724  23.631  24.814  1.00  0.00    -0.350 N 
ATOM     17  C   UNL A   1      31.379  22.439  24.869  1.00  0.00     0.223 C 
ATOM     18  H   UNL A   1      30.144  23.779  25.595  1.00  0.00     0.163 HD
ATOM     19  O   UNL A   1      31.182  21.737  25.864  1.00  0.00    -0.275 OA
BRANCH  17  20
ATOM     20  C   UNL A   1      32.295  21.954  23.768  1.00  0.00     0.138 C 
BRANCH  20  21
ATOM     21  C   UNL A   1      33.762  21.735  24.157  1.00  0.00     0.182 C 
ATOM     22  C   UNL A   1      34.077  20.415  24.870  1.00  0.00     0.293 C 
ATOM     23  O   UNL A   1      34.268  22.823  24.958  1.00  0.00    -0.366 OA
ATOM     24  N   UNL A   1      35.528  20.192  25.003  1.00  0.00    -0.342 N 
ATOM     25  C   UNL A   1      35.688  22.690  25.178  1.00  0.00     0.222 C 
ATOM     26  C   UNL A   1      36.095  21.322  25.752  1.00  0.00     0.289 C 
ATOM     27  H   UNL A   1      35.956  20.140  24.078  1.00  0.00     0.346 HD
ATOM     28  H   UNL A   1      35.708  19.316  25.493  1.00  0.00     0.346 HD
ENDBRANCH  20  21
ENDBRANCH  17  20
ENDBRANCH  13  16
ENDBRANCH   8  10
ENDBRANCH   7   8
ENDBRANCH   6   7
ENDBRANCH   5   6
ENDBRANCH   4   5
ENDBRANCH   3   4
ENDBRANCH   2   3
ENDBRANCH   1   2
BRANCH   1  29
ATOM     29  C   UNL A   1      35.092  32.460  28.001  1.00  0.00     0.188 C 
BRANCH  29  30
ATOM     30  C   UNL A   1      34.298  33.739  27.692  1.00  0.00     0.188 C 
BRANCH  30  31
ATOM     31  O   UNL A   1      34.777  35.019  28.116  1.00  0.00    -0.376 OA
BRANCH  31  32
ATOM     32  C   UNL A   1      33.891  36.093  28.376  1.00  0.00     0.202 C 
BRANCH  32  33
ATOM     33  C   UNL A   1      32.995  36.068  29.617  1.00  0.00     0.261 C 
BRANCH  33  34
ATOM     34  O   UNL A   1      33.034  34.844  30.337  1.00  0.00    -0.460 OA
BRANCH  34  35
ATOM     35  C   UNL A   1      33.618  34.938  31.556  1.00  0.00     0.338 C 
ATOM     36  O   UNL A   1      33.200  35.524  32.537  1.00  0.00    -0.246 OA
BRANCH  35  37
ATOM     37  C   UNL A   1      34.783  34.045  31.535  1.00  0.00     0.060 A 
ATOM     38  C   UNL A   1      34.613  32.719  31.943  1.00  0.00     0.016 A 
ATOM     39  C   UNL A   1      36.025  34.517  31.095  1.00  0.00     0.016 A 
ATOM     40  C   UNL A   1      35.695  31.851  31.922  1.00  0.00     0.010 A 
ATOM     41  C   UNL A   1      37.116  33.657  31.105  1.00  0.00     0.010 A 
ATOM     42  C   UNL A   1      36.955  32.335  31.548  1.00  0.00    -0.014 A 
BRANCH  42  43
ATOM     43  C   UNL A   1      38.147  31.534  31.871  1.00  0.00     0.031 A 
ATOM     44  C   UNL A   1      38.842  31.830  33.167  1.00  0.00     0.074 A 
ATOM     45  C   UNL A   1      38.571  30.573  31.036  1.00  0.00     0.049 A 
ATOM     46  N   UNL A   1      39.939  31.323  33.656  1.00  0.00    -0.248 NA
ATOM     47  C   UNL A   1      38.210  32.848  34.025  1.00  0.00     0.031 C 
ATOM     48  C   UNL A   1      37.915  30.193  29.785  1.00  0.00     0.029 A 
ATOM     49  N   UNL A   1      39.660  29.749  31.114  1.00  0.00    -0.354 N 
ATOM     50  C   UNL A   1      40.131  31.958  34.877  1.00  0.00     0.074 A 
ATOM     51  C   UNL A   1      39.059  32.915  35.037  1.00  0.00     0.031 C 
ATOM     52  C   UNL A   1      38.630  29.214  29.202  1.00  0.00     0.029 A 
ATOM     53  C   UNL A   1      39.810  28.935  30.016  1.00  0.00     0.049 A 
ATOM     54  H   UNL A   1      40.277  29.739  31.881  1.00  0.00     0.167 HD
ATOM     55  C   UNL A   1      41.116  31.752  35.783  1.00  0.00     0.034 A 
ATOM     56  C   UNL A   1      40.813  28.090  29.704  1.00  0.00     0.034 A 
ATOM     57  C   UNL A   1      42.184  30.809  35.571  1.00  0.00     0.049 A 
ATOM     58  C   UNL A   1      41.954  27.948  30.683  1.00  0.00     0.074 A 
ATOM     59  C   UNL A   1      43.244  30.503  36.403  1.00  0.00     0.029 A 
ATOM     60  N   UNL A   1      42.332  30.028  34.430  1.00  0.00    -0.354 N 
ATOM     61  N   UNL A   1      42.128  28.545  31.842  1.00  0.00    -0.248 NA
ATOM     62  C   UNL A   1      43.030  27.021  30.316  1.00  0.00     0.031 C 
ATOM     63  C   UNL A   1      44.075  29.600  35.732  1.00  0.00     0.029 A 
ATOM     64  C   UNL A   1      43.488  29.272  34.518  1.00  0.00     0.049 A 
ATOM     65  H   UNL A   1      41.707  30.016  33.669  1.00  0.00     0.167 HD
ATOM     66  C   UNL A   1      43.318  28.039  32.357  1.00  0.00     0.074 A 
ATOM     67  C   UNL A   1      43.811  27.081  31.386  1.00  0.00     0.031 C 
ATOM     68  C   UNL A   1      43.951  28.330  33.523  1.00  0.00     0.034 A 
BRANCH  55  69
ATOM     69  C   UNL A   1      41.106  32.608  37.024  1.00  0.00     0.023 A 
ATOM     70  C   UNL A   1      40.258  32.330  38.112  1.00  0.00     0.031 A 
ATOM     71  C   UNL A   1      41.918  33.753  37.100  1.00  0.00     0.131 A 
ATOM     72  C   UNL A   1      40.189  33.223  39.192  1.00  0.00     0.055 A 
ATOM     73  C   UNL A   1      41.905  34.593  38.214  1.00  0.00     0.041 A 
ATOM     74  F   UNL A   1      42.722  34.089  36.079  1.00  0.00    -0.206 F 
ATOM     75  C   UNL A   1      41.026  34.339  39.263  1.00  0.00     0.022 A 
BRANCH  72  76
ATOM     76  S   UNL A   1      38.884  32.988  40.430  1.00  0.00     0.124 S 
ATOM     77  O   UNL A   1      39.000  34.214  41.216  1.00  0.00    -0.237 OA
ATOM     78  O   UNL A   1      37.686  32.868  39.606  1.00  0.00    -0.237 OA
ATOM     79  O   UNL A   1      39.288  31.769  41.127  1.00  0.00    -0.744 OA
ENDBRANCH  72  76
ENDBRANCH  55  69
BRANCH  56  80
ATOM     80  C   UNL A   1      40.808  27.354  28.408  1.00  0.00     0.023 A 
ATOM     81  C   UNL A   1      40.538  25.979  28.354  1.00  0.00     0.031 A 
ATOM     82  C   UNL A   1      41.119  28.011  27.202  1.00  0.00     0.131 A 
ATOM     83  C   UNL A   1      40.627  25.295  27.131  1.00  0.00     0.055 A 
ATOM     84  C   UNL A   1      41.153  27.338  25.980  1.00  0.00     0.041 A 
ATOM     85  F   UNL A   1      41.386  29.328  27.195  1.00  0.00    -0.206 F 
ATOM     86  C   UNL A   1      40.919  25.968  25.942  1.00  0.00     0.022 A 
BRANCH  83  87
ATOM     87  S   UNL A   1      40.445  23.491  27.131  1.00  0.00     0.124 S 
ATOM     88  O   UNL A   1      40.826  23.154  28.498  1.00  0.00    -0.237 OA
ATOM     89  O   UNL A   1      39.033  23.331  26.799  1.00  0.00    -0.237 OA
ATOM     90  O   UNL A   1      41.380  23.054  26.097  1.00  0.00    -0.744 OA
ENDBRANCH  83  87
ENDBRANCH  56  80
BRANCH  68  91
ATOM     91  C   UNL A   1      45.216  27.569  33.824  1.00  0.00     0.023 A 
ATOM     92  C   UNL A   1      45.189  26.302  34.431  1.00  0.00     0.031 A 
ATOM     93  C   UNL A   1      46.467  28.116  33.486  1.00  0.00     0.131 A 
ATOM     94  C   UNL A   1      46.393  25.646  34.726  1.00  0.00     0.055 A 
ATOM     95  C   UNL A   1      47.657  27.431  33.722  1.00  0.00     0.041 A 
ATOM     96  F   UNL A   1      46.548  29.325  32.906  1.00  0.00    -0.206 F 
ATOM     97  C   UNL A   1      47.625  26.193  34.357  1.00  0.00     0.022 A 
BRANCH  94  98
ATOM     98  S   UNL A   1      46.331  24.106  35.681  1.00  0.00     0.124 S 
ATOM     99  O   UNL A   1      46.181  24.602  37.045  1.00  0.00    -0.237 OA
ATOM    100  O   UNL A   1      45.166  23.434  35.116  1.00  0.00    -0.237 OA
ATOM    101  O   UNL A   1      47.614  23.470  35.389  1.00  0.00    -0.744 OA
ENDBRANCH  94  98
ENDBRANCH  68  91
ENDBRANCH  42  43
ENDBRANCH  35  37
ENDBRANCH  34  35
ENDBRANCH  33  34
ENDBRANCH  32  33
ENDBRANCH  31  32
ENDBRANCH  30  31
ENDBRANCH  29  30
ENDBRANCH   1  29
TORSDOF 26
ENDMDL
MODEL 2
REMARK VINA RESULT:      -9.0      1.747      2.256
REMARK SMILES C[C@@]1(C(=O)OCCOCCOCCOCCOC(=O)c2ccc(-c3c4nc(c(-c5cc(S(=O)(=O)[O-])ccc5F)c5ccc([nH]5)c(-c5cc(S(=O)(=O)[O-])ccc5F)c5nc(c(-c6cc(S(=O)(=O)[O-])ccc6F)c6ccc3[nH]6)C=C5)C=C4)cc2)COC[C@H]1NC(=O)C[C@@H]1C[NH2+]CCO1
REMARK SMILES IDX 11 1 10 2 9 3 8 4 7 5 6 6 5 7 3 8 4 9 2 10 1 11 83 12 86 13
REMARK SMILES IDX 84 14 85 15 87 16 88 17 89 19 90 20 91 21 92 22 96 23 93 24
REMARK SMILES IDX 95 25 94 26 12 29 13 30 14 31 15 32 16 33 17 34 18 35 19 36
REMARK SMILES IDX 20 37 21 38 82 39 22 40 81 41 23 42 24 43 25 44 75 45 26 46
REMARK SMILES IDX 80 47 74 48 76 49 27 50 79 51 73 52 72 53 28 55 60 56 40 57
REMARK SMILES IDX 59 58 41 59 44 60 58 61 77 62 42 63 43 64 57 66 78 67 45 68
REMARK SMILES IDX 29 69 30 70 38 71 31 72 37 73 39 74 36 75 32 76 33 77 34 78
REMARK SMILES IDX 35 79 61 80 62 81 70 82 63 83 69 84 71 85 68 86 64 87 65 88
REMARK SMILES IDX 66 89 67 90 46 91 47 92 55 93 48 94 54 95 56 96 53 97 49 98
REMARK SMILES IDX 50 99 51 100 52 101
REMARK H PARENT 87 18 93 27 93 28 76 54 44 65
REMARK Flexibility Score: inf
ROOT
ATOM      1  O   UNL A   1      35.019  32.307  28.783  1.00  0.00    -0.377 OA
ENDROOT
BRANCH   1   2
ATOM      2  C   UNL A   1      35.731  31.298  28.102  1.00  0.00     0.188 C 
BRANCH   2   3
ATOM      3  C   UNL A   1      34.922  30.070  27.684  1.00  0.00     0.188 C 
BRANCH   3   4
ATOM      4  O   UNL A   1      33.942  30.259  26.683  1.00  0.00    -0.376 OA
BRANCH   4   5
ATOM      5  C   UNL A   1      32.575  30.268  27.103  1.00  0.00     0.202 C 
BRANCH   5   6
ATOM      6  C   UNL A   1      31.884  28.919  27.388  1.00  0.00     0.261 C 
BRANCH   6   7
ATOM      7  O   UNL A   1      32.579  27.748  26.870  1.00  0.00    -0.463 OA
BRANCH   7   8
ATOM      8  C   UNL A   1      31.791  26.834  26.254  1.00  0.00     0.316 C 
ATOM      9  O   UNL A   1      30.969  26.143  26.856  1.00  0.00    -0.251 OA
BRANCH   8  10
ATOM     10  C   UNL A   1      31.919  26.737  24.726  1.00  0.00     0.111 C 
ATOM     11  C   UNL A   1      33.195  27.534  24.397  1.00  0.00     0.028 C 
ATOM     12  C   UNL A   1      30.689  27.452  24.174  1.00  0.00     0.181 C 
ATOM     13  C   UNL A   1      31.810  25.359  24.033  1.00  0.00     0.127 C 
ATOM     14  O   UNL A   1      29.687  26.460  23.925  1.00  0.00    -0.378 OA
ATOM     15  C   UNL A   1      30.291  25.157  23.978  1.00  0.00     0.186 C 
BRANCH  13  16
ATOM     16  N   UNL A   1      32.325  25.395  22.628  1.00  0.00    -0.350 N 
ATOM     17  C   UNL A   1      33.107  24.581  21.868  1.00  0.00     0.223 C 
ATOM     18  H   UNL A   1      32.028  26.196  22.139  1.00  0.00     0.163 HD
ATOM     19  O   UNL A   1      33.316  24.931  20.703  1.00  0.00    -0.275 OA
BRANCH  17  20
ATOM     20  C   UNL A   1      33.729  23.309  22.400  1.00  0.00     0.138 C 
BRANCH  20  21
ATOM     21  C   UNL A   1      34.786  23.481  23.498  1.00  0.00     0.182 C 
ATOM     22  C   UNL A   1      36.136  22.801  23.242  1.00  0.00     0.293 C 
ATOM     23  O   UNL A   1      34.292  23.053  24.784  1.00  0.00    -0.366 OA
ATOM     24  N   UNL A   1      37.152  23.203  24.231  1.00  0.00    -0.342 N 
ATOM     25  C   UNL A   1      35.229  23.372  25.833  1.00  0.00     0.222 C 
ATOM     26  C   UNL A   1      36.652  22.850  25.566  1.00  0.00     0.289 C 
ATOM     27  H   UNL A   1      37.310  24.210  24.175  1.00  0.00     0.346 HD
ATOM     28  H   UNL A   1      38.035  22.726  24.046  1.00  0.00     0.346 HD
ENDBRANCH  20  21
ENDBRANCH  17  20
ENDBRANCH  13  16
ENDBRANCH   8  10
ENDBRANCH   7   8
ENDBRANCH   6   7
ENDBRANCH   5   6
ENDBRANCH   4   5
ENDBRANCH   3   4
ENDBRANCH   2   3
ENDBRANCH   1   2
BRANCH   1  29
ATOM     29  C   UNL A   1      34.759  33.541  28.114  1.00  0.00     0.188 C 
BRANCH  29  30
ATOM     30  C   UNL A   1      33.481  34.315  28.470  1.00  0.00     0.188 C 
BRANCH  30  31
ATOM     31  O   UNL A   1      33.552  35.644  28.999  1.00  0.00    -0.376 OA
BRANCH  31  32
ATOM     32  C   UNL A   1      32.727  36.060  30.072  1.00  0.00     0.202 C 
BRANCH  32  33
ATOM     33  C   UNL A   1      33.217  35.924  31.516  1.00  0.00     0.261 C 
BRANCH  33  34
ATOM     34  O   UNL A   1      34.433  35.203  31.652  1.00  0.00    -0.460 OA
BRANCH  34  35
ATOM     35  C   UNL A   1      34.325  34.067  32.383  1.00  0.00     0.338 C 
ATOM     36  O   UNL A   1      33.349  33.666  32.992  1.00  0.00    -0.246 OA
BRANCH  35  37
ATOM     37  C   UNL A   1      35.560  33.305  32.165  1.00  0.00     0.060 A 
ATOM     38  C   UNL A   1      35.657  32.024  32.714  1.00  0.00     0.016 A 
ATOM     39  C   UNL A   1      36.601  33.851  31.406  1.00  0.00     0.016 A 
ATOM     40  C   UNL A   1      36.809  31.276  32.514  1.00  0.00     0.010 A 
ATOM     41  C   UNL A   1      37.767  33.117  31.232  1.00  0.00     0.010 A 
ATOM     42  C   UNL A   1      37.880  31.844  31.814  1.00  0.00    -0.014 A 
BRANCH  42  43
ATOM     43  C   UNL A   1      39.207  31.215  31.914  1.00  0.00     0.031 A 
ATOM     44  C   UNL A   1      40.112  31.693  33.011  1.00  0.00     0.074 A 
ATOM     45  C   UNL A   1      39.569  30.243  31.062  1.00  0.00     0.049 A 
ATOM     46  N   UNL A   1      41.343  31.356  33.278  1.00  0.00    -0.248 NA
ATOM     47  C   UNL A   1      39.546  32.698  33.928  1.00  0.00     0.031 C 
ATOM     48  C   UNL A   1      38.722  29.690  30.006  1.00  0.00     0.029 A 
ATOM     49  N   UNL A   1      40.748  29.559  30.947  1.00  0.00    -0.354 N 
ATOM     50  C   UNL A   1      41.701  32.107  34.392  1.00  0.00     0.074 A 
ATOM     51  C   UNL A   1      40.571  32.944  34.726  1.00  0.00     0.031 C 
ATOM     52  C   UNL A   1      39.421  28.756  29.336  1.00  0.00     0.029 A 
ATOM     53  C   UNL A   1      40.770  28.681  29.890  1.00  0.00     0.049 A 
ATOM     54  H   UNL A   1      41.506  29.683  31.562  1.00  0.00     0.167 HD
ATOM     55  C   UNL A   1      42.871  32.089  35.072  1.00  0.00     0.034 A 
ATOM     56  C   UNL A   1      41.786  27.935  29.415  1.00  0.00     0.034 A 
ATOM     57  C   UNL A   1      43.984  31.261  34.687  1.00  0.00     0.049 A 
ATOM     58  C   UNL A   1      43.115  28.005  30.130  1.00  0.00     0.074 A 
ATOM     59  C   UNL A   1      45.225  31.148  35.285  1.00  0.00     0.029 A 
ATOM     60  N   UNL A   1      43.992  30.412  33.585  1.00  0.00    -0.354 N 
ATOM     61  N   UNL A   1      43.448  28.710  31.189  1.00  0.00    -0.248 NA
ATOM     62  C   UNL A   1      44.202  27.180  29.590  1.00  0.00     0.031 C 
ATOM     63  C   UNL A   1      46.007  30.294  34.501  1.00  0.00     0.029 A 
ATOM     64  C   UNL A   1      45.228  29.803  33.463  1.00  0.00     0.049 A 
ATOM     65  H   UNL A   1      43.229  30.267  32.980  1.00  0.00     0.167 HD
ATOM     66  C   UNL A   1      44.774  28.387  31.461  1.00  0.00     0.074 A 
ATOM     67  C   UNL A   1      45.174  27.416  30.461  1.00  0.00     0.031 C 
ATOM     68  C   UNL A   1      45.593  28.843  32.445  1.00  0.00     0.034 A 
BRANCH  55  69
ATOM     69  C   UNL A   1      43.009  33.036  36.237  1.00  0.00     0.023 A 
ATOM     70  C   UNL A   1      42.622  32.673  37.541  1.00  0.00     0.031 A 
ATOM     71  C   UNL A   1      43.483  34.345  36.033  1.00  0.00     0.131 A 
ATOM     72  C   UNL A   1      42.649  33.626  38.570  1.00  0.00     0.055 A 
ATOM     73  C   UNL A   1      43.583  35.263  37.079  1.00  0.00     0.041 A 
ATOM     74  F   UNL A   1      43.833  34.760  34.806  1.00  0.00    -0.206 F 
ATOM     75  C   UNL A   1      43.151  34.911  38.355  1.00  0.00     0.022 A 
BRANCH  72  76
ATOM     76  S   UNL A   1      41.875  33.210  40.158  1.00  0.00     0.124 S 
ATOM     77  O   UNL A   1      40.542  33.785  39.995  1.00  0.00    -0.237 OA
ATOM     78  O   UNL A   1      41.945  31.753  40.170  1.00  0.00    -0.237 OA
ATOM     79  O   UNL A   1      42.722  33.885  41.139  1.00  0.00    -0.744 OA
ENDBRANCH  72  76
ENDBRANCH  55  69
BRANCH  56  80
ATOM     80  C   UNL A   1      41.608  27.100  28.193  1.00  0.00     0.023 A 
ATOM     81  C   UNL A   1      41.404  25.715  28.282  1.00  0.00     0.031 A 
ATOM     82  C   UNL A   1      41.682  27.672  26.909  1.00  0.00     0.131 A 
ATOM     83  C   UNL A   1      41.327  24.942  27.112  1.00  0.00     0.055 A 
ATOM     84  C   UNL A   1      41.550  26.907  25.749  1.00  0.00     0.041 A 
ATOM     85  F   UNL A   1      41.876  28.993  26.764  1.00  0.00    -0.206 F 
ATOM     86  C   UNL A   1      41.385  25.530  25.847  1.00  0.00     0.022 A 
BRANCH  83  87
ATOM     87  S   UNL A   1      41.240  23.137  27.271  1.00  0.00     0.124 S 
ATOM     88  O   UNL A   1      41.933  22.916  28.535  1.00  0.00    -0.237 OA
ATOM     89  O   UNL A   1      39.800  22.904  27.277  1.00  0.00    -0.237 OA
ATOM     90  O   UNL A   1      41.942  22.657  26.082  1.00  0.00    -0.744 OA
ENDBRANCH  83  87
ENDBRANCH  56  80
BRANCH  68  91
ATOM     91  C   UNL A   1      46.981  28.259  32.506  1.00  0.00     0.023 A 
ATOM     92  C   UNL A   1      47.260  27.096  33.242  1.00  0.00     0.031 A 
ATOM     93  C   UNL A   1      48.035  28.871  31.805  1.00  0.00     0.131 A 
ATOM     94  C   UNL A   1      48.574  26.608  33.302  1.00  0.00     0.055 A 
ATOM     95  C   UNL A   1      49.326  28.345  31.814  1.00  0.00     0.041 A 
ATOM     96  F   UNL A   1      47.821  29.986  31.087  1.00  0.00    -0.206 F 
ATOM     97  C   UNL A   1      49.604  27.213  32.576  1.00  0.00     0.022 A 
BRANCH  94  98
ATOM     98  S   UNL A   1      48.937  25.223  34.413  1.00  0.00     0.124 S 
ATOM     99  O   UNL A   1      47.712  24.434  34.321  1.00  0.00    -0.237 OA
ATOM    100  O   UNL A   1      50.122  24.633  33.801  1.00  0.00    -0.237 OA
ATOM    101  O   UNL A   1      49.163  25.869  35.704  1.00  0.00    -0.744 OA
ENDBRANCH  94  98
ENDBRANCH  68  91
ENDBRANCH  42  43
ENDBRANCH  35  37
ENDBRANCH  34  35
ENDBRANCH  33  34
ENDBRANCH  32  33
ENDBRANCH  31  32
ENDBRANCH  30  31
ENDBRANCH  29  30
ENDBRANCH   1  29
TORSDOF 26
ENDMDL
MODEL 3
REMARK VINA RESULT:      -8.9      2.515      8.036
REMARK SMILES C[C@@]1(C(=O)OCCOCCOCCOCCOC(=O)c2ccc(-c3c4nc(c(-c5cc(S(=O)(=O)[O-])ccc5F)c5ccc([nH]5)c(-c5cc(S(=O)(=O)[O-])ccc5F)c5nc(c(-c6cc(S(=O)(=O)[O-])ccc6F)c6ccc3[nH]6)C=C5)C=C4)cc2)COC[C@H]1NC(=O)C[C@@H]1C[NH2+]CCO1
REMARK SMILES IDX 11 1 10 2 9 3 8 4 7 5 6 6 5 7 3 8 4 9 2 10 1 11 83 12 86 13
REMARK SMILES IDX 84 14 85 15 87 16 88 17 89 19 90 20 91 21 92 22 96 23 93 24
REMARK SMILES IDX 95 25 94 26 12 29 13 30 14 31 15 32 16 33 17 34 18 35 19 36
REMARK SMILES IDX 20 37 21 38 82 39 22 40 81 41 23 42 24 43 25 44 75 45 26 46
REMARK SMILES IDX 80 47 74 48 76 49 27 50 79 51 73 52 72 53 28 55 60 56 40 57
REMARK SMILES IDX 59 58 41 59 44 60 58 61 77 62 42 63 43 64 57 66 78 67 45 68
REMARK SMILES IDX 29 69 30 70 38 71 31 72 37 73 39 74 36 75 32 76 33 77 34 78
REMARK SMILES IDX 35 79 61 80 62 81 70 82 63 83 69 84 71 85 68 86 64 87 65 88
REMARK SMILES IDX 66 89 67 90 46 91 47 92 55 93 48 94 54 95 56 96 53 97 49 98
REMARK SMILES IDX 50 99 51 100 52 101
REMARK H PARENT 87 18 93 27 93 28 76 54 44 65
REMARK Flexibility Score: inf
ROOT
ATOM      1  O   UNL A   1      35.794  32.285  29.071  1.00  0.00    -0.377 OA
ENDROOT
BRANCH   1   2
ATOM      2  C   UNL A   1      35.556  31.709  27.806  1.00  0.00     0.188 C 
BRANCH   2   3
ATOM      3  C   UNL A   1      35.404  30.188  27.777  1.00  0.00     0.188 C 
BRANCH   3   4
ATOM      4  O   UNL A   1      34.494  29.652  26.838  1.00  0.00    -0.376 OA
BRANCH   4   5
ATOM      5  C   UNL A   1      33.194  29.300  27.317  1.00  0.00     0.202 C 
BRANCH   5   6
ATOM      6  C   UNL A   1      32.580  27.962  26.860  1.00  0.00     0.261 C 
BRANCH   6   7
ATOM      7  O   UNL A   1      31.381  28.081  26.040  1.00  0.00    -0.463 OA
BRANCH   7   8
ATOM      8  C   UNL A   1      31.428  29.043  25.086  1.00  0.00     0.316 C 
ATOM      9  O   UNL A   1      31.348  30.244  25.341  1.00  0.00    -0.251 OA
BRANCH   8  10
ATOM     10  C   UNL A   1      31.654  28.566  23.643  1.00  0.00     0.111 C 
ATOM     11  C   UNL A   1      33.105  28.973  23.328  1.00  0.00     0.028 C 
ATOM     12  C   UNL A   1      30.678  29.379  22.795  1.00  0.00     0.181 C 
ATOM     13  C   UNL A   1      31.277  27.120  23.245  1.00  0.00     0.127 C 
ATOM     14  O   UNL A   1      29.492  28.594  22.627  1.00  0.00    -0.378 OA
ATOM     15  C   UNL A   1      29.763  27.241  23.030  1.00  0.00     0.186 C 
BRANCH  13  16
ATOM     16  N   UNL A   1      31.898  26.717  21.944  1.00  0.00    -0.350 N 
ATOM     17  C   UNL A   1      32.861  25.829  21.571  1.00  0.00     0.223 C 
ATOM     18  H   UNL A   1      31.524  27.210  21.178  1.00  0.00     0.163 HD
ATOM     19  O   UNL A   1      33.112  25.747  20.366  1.00  0.00    -0.275 OA
BRANCH  17  20
ATOM     20  C   UNL A   1      33.625  24.982  22.563  1.00  0.00     0.138 C 
BRANCH  20  21
ATOM     21  C   UNL A   1      32.902  23.734  23.084  1.00  0.00     0.182 C 
ATOM     22  C   UNL A   1      33.371  23.206  24.445  1.00  0.00     0.293 C 
ATOM     23  O   UNL A   1      32.952  22.652  22.129  1.00  0.00    -0.366 OA
ATOM     24  N   UNL A   1      32.480  22.151  24.964  1.00  0.00    -0.342 N 
ATOM     25  C   UNL A   1      32.132  21.545  22.555  1.00  0.00     0.222 C 
ATOM     26  C   UNL A   1      32.445  21.060  23.981  1.00  0.00     0.289 C 
ATOM     27  H   UNL A   1      31.541  22.528  25.098  1.00  0.00     0.346 HD
ATOM     28  H   UNL A   1      32.823  21.809  25.862  1.00  0.00     0.346 HD
ENDBRANCH  20  21
ENDBRANCH  17  20
ENDBRANCH  13  16
ENDBRANCH   8  10
ENDBRANCH   7   8
ENDBRANCH   6   7
ENDBRANCH   5   6
ENDBRANCH   4   5
ENDBRANCH   3   4
ENDBRANCH   2   3
ENDBRANCH   1   2
BRANCH   1  29
ATOM     29  C   UNL A   1      35.529  33.675  29.258  1.00  0.00     0.188 C 
BRANCH  29  30
ATOM     30  C   UNL A   1      34.756  34.430  28.166  1.00  0.00     0.188 C 
BRANCH  30  31
ATOM     31  O   UNL A   1      34.148  35.697  28.442  1.00  0.00    -0.376 OA
BRANCH  31  32
ATOM     32  C   UNL A   1      32.932  35.795  29.161  1.00  0.00     0.202 C 
BRANCH  32  33
ATOM     33  C   UNL A   1      32.913  36.423  30.558  1.00  0.00     0.261 C 
BRANCH  33  34
ATOM     34  O   UNL A   1      33.984  36.010  31.395  1.00  0.00    -0.460 OA
BRANCH  34  35
ATOM     35  C   UNL A   1      33.624  35.138  32.366  1.00  0.00     0.338 C 
ATOM     36  O   UNL A   1      32.510  34.706  32.601  1.00  0.00    -0.246 OA
BRANCH  35  37
ATOM     37  C   UNL A   1      34.866  34.662  32.988  1.00  0.00     0.060 A 
ATOM     38  C   UNL A   1      36.083  35.128  32.482  1.00  0.00     0.016 A 
ATOM     39  C   UNL A   1      34.819  33.781  34.073  1.00  0.00     0.016 A 
ATOM     40  C   UNL A   1      37.272  34.704  33.058  1.00  0.00     0.010 A 
ATOM     41  C   UNL A   1      36.009  33.331  34.630  1.00  0.00     0.010 A 
ATOM     42  C   UNL A   1      37.233  33.769  34.100  1.00  0.00    -0.014 A 
BRANCH  42  43
ATOM     43  C   UNL A   1      38.469  33.053  34.458  1.00  0.00     0.031 A 
ATOM     44  C   UNL A   1      38.891  31.923  33.566  1.00  0.00     0.074 A 
ATOM     45  C   UNL A   1      39.185  33.421  35.532  1.00  0.00     0.049 A 
ATOM     46  N   UNL A   1      39.891  31.096  33.690  1.00  0.00    -0.248 NA
ATOM     47  C   UNL A   1      38.059  31.694  32.371  1.00  0.00     0.031 C 
ATOM     48  C   UNL A   1      38.865  34.543  36.414  1.00  0.00     0.029 A 
ATOM     49  N   UNL A   1      40.322  32.880  36.066  1.00  0.00    -0.354 N 
ATOM     50  C   UNL A   1      39.810  30.248  32.591  1.00  0.00     0.074 A 
ATOM     51  C   UNL A   1      38.641  30.635  31.834  1.00  0.00     0.031 C 
ATOM     52  C   UNL A   1      39.784  34.596  37.396  1.00  0.00     0.029 A 
ATOM     53  C   UNL A   1      40.723  33.490  37.231  1.00  0.00     0.049 A 
ATOM     54  H   UNL A   1      40.807  32.128  35.656  1.00  0.00     0.167 HD
ATOM     55  C   UNL A   1      40.645  29.239  32.250  1.00  0.00     0.034 A 
ATOM     56  C   UNL A   1      41.718  33.157  38.076  1.00  0.00     0.034 A 
ATOM     57  C   UNL A   1      41.783  28.865  33.049  1.00  0.00     0.049 A 
ATOM     58  C   UNL A   1      42.578  31.965  37.728  1.00  0.00     0.074 A 
ATOM     59  C   UNL A   1      42.708  27.863  32.822  1.00  0.00     0.029 A 
ATOM     60  N   UNL A   1      42.141  29.474  34.247  1.00  0.00    -0.354 N 
ATOM     61  N   UNL A   1      42.504  31.169  36.683  1.00  0.00    -0.248 NA
ATOM     62  C   UNL A   1      43.655  31.628  38.666  1.00  0.00     0.031 C 
ATOM     63  C   UNL A   1      43.574  27.816  33.919  1.00  0.00     0.029 A 
ATOM     64  C   UNL A   1      43.246  28.845  34.790  1.00  0.00     0.049 A 
ATOM     65  H   UNL A   1      41.673  30.242  34.651  1.00  0.00     0.167 HD
ATOM     66  C   UNL A   1      43.545  30.256  36.824  1.00  0.00     0.074 A 
ATOM     67  C   UNL A   1      44.238  30.610  38.048  1.00  0.00     0.031 C 
ATOM     68  C   UNL A   1      43.906  29.222  36.020  1.00  0.00     0.034 A 
BRANCH  55  69
ATOM     69  C   UNL A   1      40.306  28.447  31.012  1.00  0.00     0.023 A 
ATOM     70  C   UNL A   1      40.981  28.648  29.794  1.00  0.00     0.031 A 
ATOM     71  C   UNL A   1      39.253  27.516  31.034  1.00  0.00     0.131 A 
ATOM     72  C   UNL A   1      40.549  27.982  28.636  1.00  0.00     0.055 A 
ATOM     73  C   UNL A   1      38.882  26.796  29.898  1.00  0.00     0.041 A 
ATOM     74  F   UNL A   1      38.549  27.308  32.159  1.00  0.00    -0.206 F 
ATOM     75  C   UNL A   1      39.521  27.038  28.685  1.00  0.00     0.022 A 
BRANCH  72  76
ATOM     76  S   UNL A   1      41.248  28.479  27.038  1.00  0.00     0.124 S 
ATOM     77  O   UNL A   1      42.293  29.413  27.452  1.00  0.00    -0.237 OA
ATOM     78  O   UNL A   1      41.708  27.210  26.486  1.00  0.00    -0.237 OA
ATOM     79  O   UNL A   1      40.116  29.090  26.344  1.00  0.00    -0.744 OA
ENDBRANCH  72  76
ENDBRANCH  55  69
BRANCH  56  80
ATOM     80  C   UNL A   1      41.930  33.922  39.337  1.00  0.00     0.023 A 
ATOM     81  C   UNL A   1      41.203  33.626  40.499  1.00  0.00     0.031 A 
ATOM     82  C   UNL A   1      42.838  34.997  39.386  1.00  0.00     0.131 A 
ATOM     83  C   UNL A   1      41.361  34.420  41.646  1.00  0.00     0.055 A 
ATOM     84  C   UNL A   1      43.032  35.750  40.546  1.00  0.00     0.041 A 
ATOM     85  F   UNL A   1      43.562  35.326  38.303  1.00  0.00    -0.206 F 
ATOM     86  C   UNL A   1      42.280  35.472  41.682  1.00  0.00     0.022 A 
BRANCH  83  87
ATOM     87  S   UNL A   1      40.277  34.115  43.068  1.00  0.00     0.124 S 
ATOM     88  O   UNL A   1      39.227  33.296  42.471  1.00  0.00    -0.237 OA
ATOM     89  O   UNL A   1      41.177  33.434  43.992  1.00  0.00    -0.237 OA
ATOM     90  O   UNL A   1      39.865  35.457  43.476  1.00  0.00    -0.744 OA
ENDBRANCH  83  87
ENDBRANCH  56  80
BRANCH  68  91
ATOM     91  C   UNL A   1      45.127  28.435  36.423  1.00  0.00     0.023 A 
ATOM     92  C   UNL A   1      46.413  28.792  35.986  1.00  0.00     0.031 A 
ATOM     93  C   UNL A   1      44.999  27.319  37.270  1.00  0.00     0.131 A 
ATOM     94  C   UNL A   1      47.516  28.009  36.356  1.00  0.00     0.055 A 
ATOM     95  C   UNL A   1      46.106  26.583  37.687  1.00  0.00     0.041 A 
ATOM     96  F   UNL A   1      43.791  26.935  37.715  1.00  0.00    -0.206 F 
ATOM     97  C   UNL A   1      47.374  26.920  37.220  1.00  0.00     0.022 A 
BRANCH  94  98
ATOM     98  S   UNL A   1      49.130  28.381  35.619  1.00  0.00     0.124 S 
ATOM     99  O   UNL A   1      48.819  29.527  34.771  1.00  0.00    -0.237 OA
ATOM    100  O   UNL A   1      49.952  28.661  36.792  1.00  0.00    -0.237 OA
ATOM    101  O   UNL A   1      49.471  27.153  34.903  1.00  0.00    -0.744 OA
ENDBRANCH  94  98
ENDBRANCH  68  91
ENDBRANCH  42  43
ENDBRANCH  35  37
ENDBRANCH  34  35
ENDBRANCH  33  34
ENDBRANCH  32  33
ENDBRANCH  31  32
ENDBRANCH  30  31
ENDBRANCH  29  30
ENDBRANCH   1  29
TORSDOF 26
ENDMDL
