MODEL 1
REMARK VINA RESULT:      -8.4      0.000      0.000
REMARK SMILES CC(C)c1cc(O)cc(C(C)C)c1O[C@@H]1O[C@@H](C(=O)OCCOCCOCCOCCOC(=O)c2ccc(-c3c4nc(c(-c5cc(S(=O)(=O)[O-])ccc5F)c5ccc([nH]5)c(-c5cc(S(=O)(=O)[O-])ccc5F)c5nc(c(-c6cc(S(=O)(=O)[O-])ccc6F)c6ccc3[nH]6)C=C5)C=C4)cc2)[C@@H](O)[C@H](O)[C@@H]1O
REMARK SMILES IDX 26 1 25 2 24 3 23 4 22 5 21 6 20 7 18 8 19 9 17 10 15 11
REMARK SMILES IDX 16 12 102 13 100 14 98 15 14 16 13 17 4 18 5 19 6 20 9 21
REMARK SMILES IDX 8 22 2 23 1 24 3 25 7 26 10 28 11 29 12 30 103 31 101 33
REMARK SMILES IDX 99 35 27 37 28 38 29 39 30 40 31 41 32 42 33 43 34 44 35 45
REMARK SMILES IDX 36 46 97 47 37 48 96 49 38 50 39 51 40 52 90 53 41 54 95 55
REMARK SMILES IDX 89 56 91 57 42 58 94 59 88 60 87 61 43 63 75 64 55 65 74 66
REMARK SMILES IDX 56 67 59 68 73 69 92 70 57 71 58 72 72 74 93 75 60 76 44 77
REMARK SMILES IDX 45 78 53 79 46 80 52 81 54 82 51 83 47 84 48 85 49 86 50 87
REMARK SMILES IDX 76 88 77 89 85 90 78 91 84 92 86 93 83 94 79 95 80 96 81 97
REMARK SMILES IDX 82 98 61 99 62 100 70 101 63 102 69 103 71 104 68 105 64 106
REMARK SMILES IDX 65 107 66 108 67 109
REMARK H PARENT 7 27 103 32 101 34 99 36 91 62 59 73
REMARK Flexibility Score: inf
ROOT
ATOM      1  O   UNL A   1      40.192  27.953  28.514  1.00  0.00    -0.377 OA
ENDROOT
BRANCH   1   2
ATOM      2  C   UNL A   1      40.514  26.819  27.738  1.00  0.00     0.188 C 
BRANCH   2   3
ATOM      3  C   UNL A   1      39.325  25.850  27.589  1.00  0.00     0.188 C 
BRANCH   3   4
ATOM      4  O   UNL A   1      39.389  24.742  26.705  1.00  0.00    -0.376 OA
BRANCH   4   5
ATOM      5  C   UNL A   1      38.392  23.749  26.504  1.00  0.00     0.202 C 
BRANCH   5   6
ATOM      6  C   UNL A   1      37.307  23.716  25.417  1.00  0.00     0.261 C 
BRANCH   6   7
ATOM      7  O   UNL A   1      36.023  24.179  25.791  1.00  0.00    -0.461 OA
BRANCH   7   8
ATOM      8  C   UNL A   1      35.071  23.229  25.870  1.00  0.00     0.338 C 
ATOM      9  O   UNL A   1      35.063  22.318  26.686  1.00  0.00    -0.249 OA
BRANCH   8  10
ATOM     10  C   UNL A   1      33.973  23.494  24.827  1.00  0.00     0.263 C 
ATOM     11  C   UNL A   1      32.804  25.012  26.205  1.00  0.00     0.339 C 
ATOM     12  O   UNL A   1      33.451  24.806  24.963  1.00  0.00    -0.322 OA
ATOM     13  C   UNL A   1      31.849  23.885  26.708  1.00  0.00     0.214 C 
ATOM     14  C   UNL A   1      32.189  22.457  26.225  1.00  0.00     0.181 C 
ATOM     15  C   UNL A   1      32.849  22.449  24.840  1.00  0.00     0.186 C 
BRANCH  11  16
ATOM     16  O   UNL A   1      32.125  26.267  26.285  1.00  0.00    -0.461 OA
BRANCH  16  17
ATOM     17  C   UNL A   1      31.924  27.146  25.253  1.00  0.00     0.130 A 
ATOM     18  C   UNL A   1      32.109  28.491  25.672  1.00  0.00     0.001 A 
ATOM     19  C   UNL A   1      31.543  29.531  24.917  1.00  0.00     0.054 A 
ATOM     20  C   UNL A   1      30.867  29.252  23.742  1.00  0.00     0.116 A 
ATOM     21  C   UNL A   1      31.344  26.876  23.982  1.00  0.00     0.001 A 
ATOM     22  C   UNL A   1      30.815  27.959  23.253  1.00  0.00     0.054 A 
BRANCH  18  23
ATOM     23  C   UNL A   1      32.896  28.889  26.924  1.00  0.00     0.017 C 
ATOM     24  C   UNL A   1      34.380  28.544  26.810  1.00  0.00     0.012 C 
ATOM     25  C   UNL A   1      32.694  30.349  27.357  1.00  0.00     0.012 C 
ENDBRANCH  18  23
BRANCH  20  26
ATOM     26  O   UNL A   1      30.241  30.229  23.028  1.00  0.00    -0.508 OA
ATOM     27  H   UNL A   1      30.355  31.128  23.266  1.00  0.00     0.293 HD
ENDBRANCH  20  26
BRANCH  21  28
ATOM     28  C   UNL A   1      31.269  25.530  23.287  1.00  0.00     0.017 C 
ATOM     29  C   UNL A   1      29.891  24.863  23.275  1.00  0.00     0.012 C 
ATOM     30  C   UNL A   1      31.850  25.592  21.864  1.00  0.00     0.012 C 
ENDBRANCH  21  28
ENDBRANCH  16  17
ENDBRANCH  11  16
BRANCH  13  31
ATOM     31  O   UNL A   1      30.477  24.161  26.350  1.00  0.00    -0.384 OA
ATOM     32  H   UNL A   1      29.910  24.046  27.129  1.00  0.00     0.211 HD
ENDBRANCH  13  31
BRANCH  14  33
ATOM     33  O   UNL A   1      30.989  21.671  26.207  1.00  0.00    -0.387 OA
ATOM     34  H   UNL A   1      30.494  21.818  27.028  1.00  0.00     0.211 HD
ENDBRANCH  14  33
BRANCH  15  35
ATOM     35  O   UNL A   1      33.259  21.150  24.406  1.00  0.00    -0.387 OA
ATOM     36  H   UNL A   1      34.019  20.857  24.933  1.00  0.00     0.211 HD
ENDBRANCH  15  35
ENDBRANCH   8  10
ENDBRANCH   7   8
ENDBRANCH   6   7
ENDBRANCH   5   6
ENDBRANCH   4   5
ENDBRANCH   3   4
ENDBRANCH   2   3
ENDBRANCH   1   2
BRANCH   1  37
ATOM     37  C   UNL A   1      39.353  27.704  29.637  1.00  0.00     0.188 C 
BRANCH  37  38
ATOM     38  C   UNL A   1      38.174  28.673  29.904  1.00  0.00     0.188 C 
BRANCH  38  39
ATOM     39  O   UNL A   1      38.521  29.826  30.660  1.00  0.00    -0.376 OA
BRANCH  39  40
ATOM     40  C   UNL A   1      37.548  30.839  30.848  1.00  0.00     0.202 C 
BRANCH  40  41
ATOM     41  C   UNL A   1      37.478  31.507  32.231  1.00  0.00     0.261 C 
BRANCH  41  42
ATOM     42  O   UNL A   1      37.476  32.941  32.246  1.00  0.00    -0.460 OA
BRANCH  42  43
ATOM     43  C   UNL A   1      37.318  33.571  31.062  1.00  0.00     0.338 C 
ATOM     44  O   UNL A   1      36.259  33.875  30.536  1.00  0.00    -0.246 OA
BRANCH  43  45
ATOM     45  C   UNL A   1      38.651  34.034  30.616  1.00  0.00     0.060 A 
ATOM     46  C   UNL A   1      38.846  34.343  29.262  1.00  0.00     0.016 A 
ATOM     47  C   UNL A   1      39.693  34.182  31.533  1.00  0.00     0.016 A 
ATOM     48  C   UNL A   1      40.097  34.767  28.816  1.00  0.00     0.010 A 
ATOM     49  C   UNL A   1      40.955  34.575  31.078  1.00  0.00     0.010 A 
ATOM     50  C   UNL A   1      41.171  34.835  29.712  1.00  0.00    -0.014 A 
BRANCH  50  51
ATOM     51  C   UNL A   1      42.555  34.940  29.188  1.00  0.00     0.031 A 
ATOM     52  C   UNL A   1      43.411  33.703  29.214  1.00  0.00     0.074 A 
ATOM     53  C   UNL A   1      43.033  36.088  28.675  1.00  0.00     0.049 A 
ATOM     54  N   UNL A   1      44.667  33.552  28.886  1.00  0.00    -0.248 NA
ATOM     55  C   UNL A   1      42.758  32.472  29.684  1.00  0.00     0.031 C 
ATOM     56  C   UNL A   1      42.278  37.332  28.542  1.00  0.00     0.029 A 
ATOM     57  N   UNL A   1      44.275  36.392  28.179  1.00  0.00    -0.354 N 
ATOM     58  C   UNL A   1      44.956  32.209  29.113  1.00  0.00     0.074 A 
ATOM     59  C   UNL A   1      43.755  31.603  29.646  1.00  0.00     0.031 C 
ATOM     60  C   UNL A   1      43.081  38.272  28.013  1.00  0.00     0.029 A 
ATOM     61  C   UNL A   1      44.416  37.710  27.813  1.00  0.00     0.049 A 
ATOM     62  H   UNL A   1      44.998  35.729  28.093  1.00  0.00     0.167 HD
ATOM     63  C   UNL A   1      46.114  31.542  28.888  1.00  0.00     0.034 A 
ATOM     64  C   UNL A   1      45.507  38.390  27.400  1.00  0.00     0.034 A 
ATOM     65  C   UNL A   1      47.308  32.167  28.374  1.00  0.00     0.049 A 
ATOM     66  C   UNL A   1      46.820  37.651  27.260  1.00  0.00     0.074 A 
ATOM     67  C   UNL A   1      48.537  31.590  28.110  1.00  0.00     0.029 A 
ATOM     68  N   UNL A   1      47.428  33.516  28.063  1.00  0.00    -0.354 N 
ATOM     69  N   UNL A   1      47.084  36.382  27.479  1.00  0.00    -0.248 NA
ATOM     70  C   UNL A   1      47.978  38.435  26.811  1.00  0.00     0.031 C 
ATOM     71  C   UNL A   1      49.420  32.601  27.719  1.00  0.00     0.029 A 
ATOM     72  C   UNL A   1      48.719  33.795  27.644  1.00  0.00     0.049 A 
ATOM     73  H   UNL A   1      46.701  34.178  28.130  1.00  0.00     0.167 HD
ATOM     74  C   UNL A   1      48.431  36.212  27.157  1.00  0.00     0.074 A 
ATOM     75  C   UNL A   1      48.916  37.504  26.719  1.00  0.00     0.031 C 
ATOM     76  C   UNL A   1      49.194  35.090  27.214  1.00  0.00     0.034 A 
BRANCH  63  77
ATOM     77  C   UNL A   1      46.152  30.078  29.252  1.00  0.00     0.023 A 
ATOM     78  C   UNL A   1      45.872  29.072  28.310  1.00  0.00     0.031 A 
ATOM     79  C   UNL A   1      46.436  29.682  30.571  1.00  0.00     0.131 A 
ATOM     80  C   UNL A   1      45.811  27.730  28.715  1.00  0.00     0.055 A 
ATOM     81  C   UNL A   1      46.460  28.339  30.948  1.00  0.00     0.041 A 
ATOM     82  F   UNL A   1      46.681  30.597  31.522  1.00  0.00    -0.206 F 
ATOM     83  C   UNL A   1      46.131  27.353  30.021  1.00  0.00     0.022 A 
BRANCH  80  84
ATOM     84  S   UNL A   1      45.157  26.502  27.550  1.00  0.00     0.124 S 
ATOM     85  O   UNL A   1      43.875  27.099  27.184  1.00  0.00    -0.237 OA
ATOM     86  O   UNL A   1      46.176  26.484  26.507  1.00  0.00    -0.237 OA
ATOM     87  O   UNL A   1      45.063  25.285  28.353  1.00  0.00    -0.744 OA
ENDBRANCH  80  84
ENDBRANCH  63  77
BRANCH  64  88
ATOM     88  C   UNL A   1      45.433  39.858  27.139  1.00  0.00     0.023 A 
ATOM     89  C   UNL A   1      45.291  40.362  25.838  1.00  0.00     0.031 A 
ATOM     90  C   UNL A   1      45.572  40.783  28.190  1.00  0.00     0.131 A 
ATOM     91  C   UNL A   1      45.341  41.748  25.613  1.00  0.00     0.055 A 
ATOM     92  C   UNL A   1      45.559  42.162  27.970  1.00  0.00     0.041 A 
ATOM     93  F   UNL A   1      45.723  40.358  29.455  1.00  0.00    -0.206 F 
ATOM     94  C   UNL A   1      45.457  42.651  26.672  1.00  0.00     0.022 A 
BRANCH  91  95
ATOM     95  S   UNL A   1      45.354  42.351  23.902  1.00  0.00     0.124 S 
ATOM     96  O   UNL A   1      45.771  43.737  24.080  1.00  0.00    -0.237 OA
ATOM     97  O   UNL A   1      46.328  41.463  23.276  1.00  0.00    -0.237 OA
ATOM     98  O   UNL A   1      43.972  42.166  23.464  1.00  0.00    -0.744 OA
ENDBRANCH  91  95
ENDBRANCH  64  88
BRANCH  76  99
ATOM     99  C   UNL A   1      50.623  35.198  26.732  1.00  0.00     0.023 A 
ATOM    100  C   UNL A   1      51.039  34.659  25.503  1.00  0.00     0.031 A 
ATOM    101  C   UNL A   1      51.585  35.852  27.524  1.00  0.00     0.131 A 
ATOM    102  C   UNL A   1      52.390  34.735  25.128  1.00  0.00     0.055 A 
ATOM    103  C   UNL A   1      52.911  35.987  27.114  1.00  0.00     0.041 A 
ATOM    104  F   UNL A   1      51.248  36.384  28.711  1.00  0.00    -0.206 F 
ATOM    105  C   UNL A   1      53.324  35.414  25.915  1.00  0.00     0.022 A 
BRANCH 102 106
ATOM    106  S   UNL A   1      52.935  33.843  23.645  1.00  0.00     0.124 S 
ATOM    107  O   UNL A   1      54.179  33.231  24.100  1.00  0.00    -0.237 OA
ATOM    108  O   UNL A   1      51.824  32.928  23.405  1.00  0.00    -0.237 OA
ATOM    109  O   UNL A   1      53.093  34.900  22.648  1.00  0.00    -0.744 OA
ENDBRANCH 102 106
ENDBRANCH  76  99
ENDBRANCH  50  51
ENDBRANCH  43  45
ENDBRANCH  42  43
ENDBRANCH  41  42
ENDBRANCH  40  41
ENDBRANCH  39  40
ENDBRANCH  38  39
ENDBRANCH  37  38
ENDBRANCH   1  37
TORSDOF 31
ENDMDL
MODEL 2
REMARK VINA RESULT:      -8.0      6.367     11.791
REMARK SMILES CC(C)c1cc(O)cc(C(C)C)c1O[C@@H]1O[C@@H](C(=O)OCCOCCOCCOCCOC(=O)c2ccc(-c3c4nc(c(-c5cc(S(=O)(=O)[O-])ccc5F)c5ccc([nH]5)c(-c5cc(S(=O)(=O)[O-])ccc5F)c5nc(c(-c6cc(S(=O)(=O)[O-])ccc6F)c6ccc3[nH]6)C=C5)C=C4)cc2)[C@@H](O)[C@H](O)[C@@H]1O
REMARK SMILES IDX 26 1 25 2 24 3 23 4 22 5 21 6 20 7 18 8 19 9 17 10 15 11
REMARK SMILES IDX 16 12 102 13 100 14 98 15 14 16 13 17 4 18 5 19 6 20 9 21
REMARK SMILES IDX 8 22 2 23 1 24 3 25 7 26 10 28 11 29 12 30 103 31 101 33
REMARK SMILES IDX 99 35 27 37 28 38 29 39 30 40 31 41 32 42 33 43 34 44 35 45
REMARK SMILES IDX 36 46 97 47 37 48 96 49 38 50 39 51 40 52 90 53 41 54 95 55
REMARK SMILES IDX 89 56 91 57 42 58 94 59 88 60 87 61 43 63 75 64 55 65 74 66
REMARK SMILES IDX 56 67 59 68 73 69 92 70 57 71 58 72 72 74 93 75 60 76 44 77
REMARK SMILES IDX 45 78 53 79 46 80 52 81 54 82 51 83 47 84 48 85 49 86 50 87
REMARK SMILES IDX 76 88 77 89 85 90 78 91 84 92 86 93 83 94 79 95 80 96 81 97
REMARK SMILES IDX 82 98 61 99 62 100 70 101 63 102 69 103 71 104 68 105 64 106
REMARK SMILES IDX 65 107 66 108 67 109
REMARK H PARENT 7 27 103 32 101 34 99 36 91 62 59 73
REMARK Flexibility Score: inf
ROOT
ATOM      1  O   UNL A   1      43.661  36.124  28.223  1.00  0.00    -0.377 OA
ENDROOT
BRANCH   1   2
ATOM      2  C   UNL A   1      44.094  34.822  27.892  1.00  0.00     0.188 C 
BRANCH   2   3
ATOM      3  C   UNL A   1      45.626  34.671  27.980  1.00  0.00     0.188 C 
BRANCH   3   4
ATOM      4  O   UNL A   1      46.240  34.106  29.128  1.00  0.00    -0.376 OA
BRANCH   4   5
ATOM      5  C   UNL A   1      46.472  32.727  29.383  1.00  0.00     0.202 C 
BRANCH   5   6
ATOM      6  C   UNL A   1      45.563  31.542  29.025  1.00  0.00     0.261 C 
BRANCH   6   7
ATOM      7  O   UNL A   1      44.917  30.891  30.104  1.00  0.00    -0.461 OA
BRANCH   7   8
ATOM      8  C   UNL A   1      45.702  30.074  30.833  1.00  0.00     0.338 C 
ATOM      9  O   UNL A   1      45.979  30.245  32.012  1.00  0.00    -0.249 OA
BRANCH   8  10
ATOM     10  C   UNL A   1      46.145  28.872  29.984  1.00  0.00     0.263 C 
ATOM     11  C   UNL A   1      44.117  27.703  30.286  1.00  0.00     0.339 C 
ATOM     12  O   UNL A   1      45.031  28.255  29.358  1.00  0.00    -0.322 OA
ATOM     13  C   UNL A   1      44.713  26.894  31.480  1.00  0.00     0.214 C 
ATOM     14  C   UNL A   1      46.133  27.309  31.927  1.00  0.00     0.181 C 
ATOM     15  C   UNL A   1      46.978  27.844  30.763  1.00  0.00     0.186 C 
BRANCH  11  16
ATOM     16  O   UNL A   1      43.085  26.931  29.670  1.00  0.00    -0.461 OA
BRANCH  16  17
ATOM     17  C   UNL A   1      42.603  27.094  28.398  1.00  0.00     0.130 A 
ATOM     18  C   UNL A   1      43.239  26.211  27.484  1.00  0.00     0.001 A 
ATOM     19  C   UNL A   1      43.214  26.507  26.110  1.00  0.00     0.054 A 
ATOM     20  C   UNL A   1      42.522  27.612  25.648  1.00  0.00     0.116 A 
ATOM     21  C   UNL A   1      41.788  28.151  27.906  1.00  0.00     0.001 A 
ATOM     22  C   UNL A   1      41.777  28.388  26.518  1.00  0.00     0.054 A 
BRANCH  18  23
ATOM     23  C   UNL A   1      43.972  24.935  27.907  1.00  0.00     0.017 C 
ATOM     24  C   UNL A   1      43.020  23.877  28.462  1.00  0.00     0.012 C 
ATOM     25  C   UNL A   1      44.890  24.347  26.824  1.00  0.00     0.012 C 
ENDBRANCH  18  23
BRANCH  20  26
ATOM     26  O   UNL A   1      42.542  27.969  24.333  1.00  0.00    -0.508 OA
ATOM     27  H   UNL A   1      42.671  28.865  24.094  1.00  0.00     0.293 HD
ENDBRANCH  20  26
BRANCH  21  28
ATOM     28  C   UNL A   1      40.871  29.044  28.722  1.00  0.00     0.017 C 
ATOM     29  C   UNL A   1      39.950  28.325  29.711  1.00  0.00     0.012 C 
ATOM     30  C   UNL A   1      41.652  30.164  29.430  1.00  0.00     0.012 C 
ENDBRANCH  21  28
ENDBRANCH  16  17
ENDBRANCH  11  16
BRANCH  13  31
ATOM     31  O   UNL A   1      44.731  25.477  31.196  1.00  0.00    -0.384 OA
ATOM     32  H   UNL A   1      45.650  25.177  31.108  1.00  0.00     0.211 HD
ENDBRANCH  13  31
BRANCH  14  33
ATOM     33  O   UNL A   1      46.781  26.181  32.532  1.00  0.00    -0.387 OA
ATOM     34  H   UNL A   1      46.285  25.908  33.320  1.00  0.00     0.211 HD
ENDBRANCH  14  33
BRANCH  15  35
ATOM     35  O   UNL A   1      48.266  28.322  31.161  1.00  0.00    -0.387 OA
ATOM     36  H   UNL A   1      48.276  29.292  31.126  1.00  0.00     0.211 HD
ENDBRANCH  15  35
ENDBRANCH   8  10
ENDBRANCH   7   8
ENDBRANCH   6   7
ENDBRANCH   5   6
ENDBRANCH   4   5
ENDBRANCH   3   4
ENDBRANCH   2   3
ENDBRANCH   1   2
BRANCH   1  37
ATOM     37  C   UNL A   1      43.585  37.037  27.133  1.00  0.00     0.188 C 
BRANCH  37  38
ATOM     38  C   UNL A   1      42.384  38.013  27.073  1.00  0.00     0.188 C 
BRANCH  38  39
ATOM     39  O   UNL A   1      42.057  38.620  28.317  1.00  0.00    -0.376 OA
BRANCH  39  40
ATOM     40  C   UNL A   1      41.853  40.021  28.361  1.00  0.00     0.202 C 
BRANCH  40  41
ATOM     41  C   UNL A   1      42.249  40.754  29.653  1.00  0.00     0.261 C 
BRANCH  41  42
ATOM     42  O   UNL A   1      43.469  40.329  30.277  1.00  0.00    -0.460 OA
BRANCH  42  43
ATOM     43  C   UNL A   1      43.525  40.381  31.625  1.00  0.00     0.338 C 
ATOM     44  O   UNL A   1      43.314  41.359  32.324  1.00  0.00    -0.246 OA
BRANCH  43  45
ATOM     45  C   UNL A   1      43.664  38.995  32.124  1.00  0.00     0.060 A 
ATOM     46  C   UNL A   1      44.110  37.997  31.245  1.00  0.00     0.016 A 
ATOM     47  C   UNL A   1      43.377  38.687  33.455  1.00  0.00     0.016 A 
ATOM     48  C   UNL A   1      44.235  36.681  31.687  1.00  0.00     0.010 A 
ATOM     49  C   UNL A   1      43.471  37.362  33.888  1.00  0.00     0.010 A 
ATOM     50  C   UNL A   1      43.866  36.348  32.997  1.00  0.00    -0.014 A 
BRANCH  50  51
ATOM     51  C   UNL A   1      43.664  34.923  33.358  1.00  0.00     0.031 A 
ATOM     52  C   UNL A   1      44.820  34.186  33.979  1.00  0.00     0.074 A 
ATOM     53  C   UNL A   1      42.484  34.305  33.172  1.00  0.00     0.049 A 
ATOM     54  N   UNL A   1      44.924  32.927  34.313  1.00  0.00    -0.248 NA
ATOM     55  C   UNL A   1      46.027  34.983  34.249  1.00  0.00     0.031 C 
ATOM     56  C   UNL A   1      41.278  34.932  32.636  1.00  0.00     0.029 A 
ATOM     57  N   UNL A   1      42.114  33.005  33.406  1.00  0.00    -0.354 N 
ATOM     58  C   UNL A   1      46.207  32.779  34.831  1.00  0.00     0.074 A 
ATOM     59  C   UNL A   1      46.856  34.068  34.725  1.00  0.00     0.031 C 
ATOM     60  C   UNL A   1      40.303  34.008  32.567  1.00  0.00     0.029 A 
ATOM     61  C   UNL A   1      40.828  32.717  33.011  1.00  0.00     0.049 A 
ATOM     62  H   UNL A   1      42.712  32.340  33.819  1.00  0.00     0.167 HD
ATOM     63  C   UNL A   1      46.787  31.672  35.355  1.00  0.00     0.034 A 
ATOM     64  C   UNL A   1      40.168  31.540  32.977  1.00  0.00     0.034 A 
ATOM     65  C   UNL A   1      46.131  30.390  35.434  1.00  0.00     0.049 A 
ATOM     66  C   UNL A   1      40.872  30.292  33.465  1.00  0.00     0.074 A 
ATOM     67  C   UNL A   1      46.623  29.201  35.942  1.00  0.00     0.029 A 
ATOM     68  N   UNL A   1      44.846  30.125  34.976  1.00  0.00    -0.354 N 
ATOM     69  N   UNL A   1      42.086  30.162  33.951  1.00  0.00    -0.248 NA
ATOM     70  C   UNL A   1      40.112  29.036  33.406  1.00  0.00     0.031 C 
ATOM     71  C   UNL A   1      45.671  28.202  35.718  1.00  0.00     0.029 A 
ATOM     72  C   UNL A   1      44.544  28.784  35.159  1.00  0.00     0.049 A 
ATOM     73  H   UNL A   1      44.239  30.791  34.581  1.00  0.00     0.167 HD
ATOM     74  C   UNL A   1      42.219  28.815  34.288  1.00  0.00     0.074 A 
ATOM     75  C   UNL A   1      40.958  28.182  33.962  1.00  0.00     0.031 C 
ATOM     76  C   UNL A   1      43.283  28.162  34.824  1.00  0.00     0.034 A 
BRANCH  63  77
ATOM     77  C   UNL A   1      48.215  31.795  35.826  1.00  0.00     0.023 A 
ATOM     78  C   UNL A   1      49.302  31.555  34.967  1.00  0.00     0.031 A 
ATOM     79  C   UNL A   1      48.495  32.121  37.165  1.00  0.00     0.131 A 
ATOM     80  C   UNL A   1      50.612  31.573  35.472  1.00  0.00     0.055 A 
ATOM     81  C   UNL A   1      49.803  32.223  37.640  1.00  0.00     0.041 A 
ATOM     82  F   UNL A   1      47.499  32.332  38.040  1.00  0.00    -0.206 F 
ATOM     83  C   UNL A   1      50.871  31.934  36.796  1.00  0.00     0.022 A 
BRANCH  80  84
ATOM     84  S   UNL A   1      51.956  30.967  34.415  1.00  0.00     0.124 S 
ATOM     85  O   UNL A   1      53.106  31.079  35.309  1.00  0.00    -0.237 OA
ATOM     86  O   UNL A   1      51.521  29.612  34.099  1.00  0.00    -0.237 OA
ATOM     87  O   UNL A   1      51.956  31.902  33.292  1.00  0.00    -0.744 OA
ENDBRANCH  80  84
ENDBRANCH  63  77
BRANCH  64  88
ATOM     88  C   UNL A   1      38.786  31.460  32.418  1.00  0.00     0.023 A 
ATOM     89  C   UNL A   1      38.557  31.481  31.033  1.00  0.00     0.031 A 
ATOM     90  C   UNL A   1      37.666  31.430  33.269  1.00  0.00     0.131 A 
ATOM     91  C   UNL A   1      37.242  31.522  30.541  1.00  0.00     0.055 A 
ATOM     92  C   UNL A   1      36.361  31.408  32.774  1.00  0.00     0.041 A 
ATOM     93  F   UNL A   1      37.826  31.421  34.602  1.00  0.00    -0.206 F 
ATOM     94  C   UNL A   1      36.143  31.468  31.401  1.00  0.00     0.022 A 
BRANCH  91  95
ATOM     95  S   UNL A   1      36.987  31.749  28.759  1.00  0.00     0.124 S 
ATOM     96  O   UNL A   1      35.533  31.766  28.668  1.00  0.00    -0.237 OA
ATOM     97  O   UNL A   1      37.662  33.020  28.517  1.00  0.00    -0.237 OA
ATOM     98  O   UNL A   1      37.637  30.579  28.170  1.00  0.00    -0.744 OA
ENDBRANCH  91  95
ENDBRANCH  64  88
BRANCH  76  99
ATOM     99  C   UNL A   1      43.108  26.696  35.147  1.00  0.00     0.023 A 
ATOM    100  C   UNL A   1      43.820  25.692  34.468  1.00  0.00     0.031 A 
ATOM    101  C   UNL A   1      42.209  26.299  36.154  1.00  0.00     0.131 A 
ATOM    102  C   UNL A   1      43.578  24.341  34.765  1.00  0.00     0.055 A 
ATOM    103  C   UNL A   1      42.026  24.959  36.494  1.00  0.00     0.041 A 
ATOM    104  F   UNL A   1      41.498  27.213  36.835  1.00  0.00    -0.206 F 
ATOM    105  C   UNL A   1      42.702  23.969  35.788  1.00  0.00     0.022 A 
BRANCH 102 106
ATOM    106  S   UNL A   1      44.347  23.068  33.726  1.00  0.00     0.124 S 
ATOM    107  O   UNL A   1      44.354  21.914  34.618  1.00  0.00    -0.237 OA
ATOM    108  O   UNL A   1      43.429  22.993  32.593  1.00  0.00    -0.237 OA
ATOM    109  O   UNL A   1      45.664  23.625  33.420  1.00  0.00    -0.744 OA
ENDBRANCH 102 106
ENDBRANCH  76  99
ENDBRANCH  50  51
ENDBRANCH  43  45
ENDBRANCH  42  43
ENDBRANCH  41  42
ENDBRANCH  40  41
ENDBRANCH  39  40
ENDBRANCH  38  39
ENDBRANCH  37  38
ENDBRANCH   1  37
TORSDOF 31
ENDMDL
MODEL 3
REMARK VINA RESULT:      -7.9      1.828      2.145
REMARK SMILES CC(C)c1cc(O)cc(C(C)C)c1O[C@@H]1O[C@@H](C(=O)OCCOCCOCCOCCOC(=O)c2ccc(-c3c4nc(c(-c5cc(S(=O)(=O)[O-])ccc5F)c5ccc([nH]5)c(-c5cc(S(=O)(=O)[O-])ccc5F)c5nc(c(-c6cc(S(=O)(=O)[O-])ccc6F)c6ccc3[nH]6)C=C5)C=C4)cc2)[C@@H](O)[C@H](O)[C@@H]1O
REMARK SMILES IDX 26 1 25 2 24 3 23 4 22 5 21 6 20 7 18 8 19 9 17 10 15 11
REMARK SMILES IDX 16 12 102 13 100 14 98 15 14 16 13 17 4 18 5 19 6 20 9 21
REMARK SMILES IDX 8 22 2 23 1 24 3 25 7 26 10 28 11 29 12 30 103 31 101 33
REMARK SMILES IDX 99 35 27 37 28 38 29 39 30 40 31 41 32 42 33 43 34 44 35 45
REMARK SMILES IDX 36 46 97 47 37 48 96 49 38 50 39 51 40 52 90 53 41 54 95 55
REMARK SMILES IDX 89 56 91 57 42 58 94 59 88 60 87 61 43 63 75 64 55 65 74 66
REMARK SMILES IDX 56 67 59 68 73 69 92 70 57 71 58 72 72 74 93 75 60 76 44 77
REMARK SMILES IDX 45 78 53 79 46 80 52 81 54 82 51 83 47 84 48 85 49 86 50 87
REMARK SMILES IDX 76 88 77 89 85 90 78 91 84 92 86 93 83 94 79 95 80 96 81 97
REMARK SMILES IDX 82 98 61 99 62 100 70 101 63 102 69 103 71 104 68 105 64 106
REMARK SMILES IDX 65 107 66 108 67 109
REMARK H PARENT 7 27 103 32 101 34 99 36 91 62 59 73
REMARK Flexibility Score: inf
ROOT
ATOM      1  O   UNL A   1      40.564  28.132  28.587  1.00  0.00    -0.377 OA
ENDROOT
BRANCH   1   2
ATOM      2  C   UNL A   1      40.707  27.039  27.706  1.00  0.00     0.188 C 
BRANCH   2   3
ATOM      3  C   UNL A   1      39.409  26.220  27.566  1.00  0.00     0.188 C 
BRANCH   3   4
ATOM      4  O   UNL A   1      39.367  25.044  26.774  1.00  0.00    -0.376 OA
BRANCH   4   5
ATOM      5  C   UNL A   1      38.330  24.072  26.740  1.00  0.00     0.202 C 
BRANCH   5   6
ATOM      6  C   UNL A   1      37.387  23.747  25.572  1.00  0.00     0.261 C 
BRANCH   6   7
ATOM      7  O   UNL A   1      36.054  24.210  25.689  1.00  0.00    -0.461 OA
BRANCH   7   8
ATOM      8  C   UNL A   1      35.117  23.245  25.771  1.00  0.00     0.338 C 
ATOM      9  O   UNL A   1      35.126  22.335  26.589  1.00  0.00    -0.249 OA
BRANCH   8  10
ATOM     10  C   UNL A   1      34.013  23.490  24.730  1.00  0.00     0.263 C 
ATOM     11  C   UNL A   1      32.824  24.993  26.107  1.00  0.00     0.339 C 
ATOM     12  O   UNL A   1      33.471  24.795  24.864  1.00  0.00    -0.322 OA
ATOM     13  C   UNL A   1      31.888  23.852  26.614  1.00  0.00     0.214 C 
ATOM     14  C   UNL A   1      32.249  22.429  26.135  1.00  0.00     0.181 C 
ATOM     15  C   UNL A   1      32.905  22.428  24.748  1.00  0.00     0.186 C 
BRANCH  11  16
ATOM     16  O   UNL A   1      32.125  26.237  26.185  1.00  0.00    -0.461 OA
BRANCH  16  17
ATOM     17  C   UNL A   1      31.917  27.115  25.154  1.00  0.00     0.130 A 
ATOM     18  C   UNL A   1      32.001  28.463  25.593  1.00  0.00     0.001 A 
ATOM     19  C   UNL A   1      31.406  29.477  24.823  1.00  0.00     0.054 A 
ATOM     20  C   UNL A   1      30.800  29.171  23.618  1.00  0.00     0.116 A 
ATOM     21  C   UNL A   1      31.409  26.826  23.856  1.00  0.00     0.001 A 
ATOM     22  C   UNL A   1      30.848  27.884  23.115  1.00  0.00     0.054 A 
BRANCH  18  23
ATOM     23  C   UNL A   1      32.707  28.894  26.882  1.00  0.00     0.017 C 
ATOM     24  C   UNL A   1      34.170  28.455  26.915  1.00  0.00     0.012 C 
ATOM     25  C   UNL A   1      32.565  30.387  27.211  1.00  0.00     0.012 C 
ENDBRANCH  18  23
BRANCH  20  26
ATOM     26  O   UNL A   1      30.148  30.118  22.886  1.00  0.00    -0.508 OA
ATOM     27  H   UNL A   1      30.451  30.336  22.026  1.00  0.00     0.293 HD
ENDBRANCH  20  26
BRANCH  21  28
ATOM     28  C   UNL A   1      31.446  25.486  23.146  1.00  0.00     0.017 C 
ATOM     29  C   UNL A   1      30.147  24.678  23.180  1.00  0.00     0.012 C 
ATOM     30  C   UNL A   1      31.957  25.623  21.702  1.00  0.00     0.012 C 
ENDBRANCH  21  28
ENDBRANCH  16  17
ENDBRANCH  11  16
BRANCH  13  31
ATOM     31  O   UNL A   1      30.510  24.107  26.259  1.00  0.00    -0.384 OA
ATOM     32  H   UNL A   1      29.974  24.166  27.066  1.00  0.00     0.211 HD
ENDBRANCH  13  31
BRANCH  14  33
ATOM     33  O   UNL A   1      31.060  21.624  26.121  1.00  0.00    -0.387 OA
ATOM     34  H   UNL A   1      31.305  20.688  26.053  1.00  0.00     0.211 HD
ENDBRANCH  14  33
BRANCH  15  35
ATOM     35  O   UNL A   1      33.334  21.134  24.316  1.00  0.00    -0.387 OA
ATOM     36  H   UNL A   1      34.303  21.088  24.346  1.00  0.00     0.211 HD
ENDBRANCH  15  35
ENDBRANCH   8  10
ENDBRANCH   7   8
ENDBRANCH   6   7
ENDBRANCH   5   6
ENDBRANCH   4   5
ENDBRANCH   3   4
ENDBRANCH   2   3
ENDBRANCH   1   2
BRANCH   1  37
ATOM     37  C   UNL A   1      39.864  27.852  29.795  1.00  0.00     0.188 C 
BRANCH  37  38
ATOM     38  C   UNL A   1      38.710  28.797  30.213  1.00  0.00     0.188 C 
BRANCH  38  39
ATOM     39  O   UNL A   1      39.125  29.945  30.942  1.00  0.00    -0.376 OA
BRANCH  39  40
ATOM     40  C   UNL A   1      38.308  31.103  30.917  1.00  0.00     0.202 C 
BRANCH  40  41
ATOM     41  C   UNL A   1      38.088  31.842  32.248  1.00  0.00     0.261 C 
BRANCH  41  42
ATOM     42  O   UNL A   1      38.388  33.245  32.252  1.00  0.00    -0.460 OA
BRANCH  42  43
ATOM     43  C   UNL A   1      38.226  33.916  31.092  1.00  0.00     0.338 C 
ATOM     44  O   UNL A   1      37.175  34.338  30.637  1.00  0.00    -0.246 OA
BRANCH  43  45
ATOM     45  C   UNL A   1      39.571  34.252  30.574  1.00  0.00     0.060 A 
ATOM     46  C   UNL A   1      39.716  34.578  29.218  1.00  0.00     0.016 A 
ATOM     47  C   UNL A   1      40.677  34.265  31.426  1.00  0.00     0.016 A 
ATOM     48  C   UNL A   1      40.976  34.883  28.703  1.00  0.00     0.010 A 
ATOM     49  C   UNL A   1      41.943  34.540  30.903  1.00  0.00     0.010 A 
ATOM     50  C   UNL A   1      42.103  34.814  29.532  1.00  0.00    -0.014 A 
BRANCH  50  51
ATOM     51  C   UNL A   1      43.456  34.792  28.925  1.00  0.00     0.031 A 
ATOM     52  C   UNL A   1      44.169  33.469  28.849  1.00  0.00     0.074 A 
ATOM     53  C   UNL A   1      44.028  35.903  28.427  1.00  0.00     0.049 A 
ATOM     54  N   UNL A   1      45.378  33.196  28.436  1.00  0.00    -0.248 NA
ATOM     55  C   UNL A   1      43.411  32.296  29.312  1.00  0.00     0.031 C 
ATOM     56  C   UNL A   1      43.410  37.226  28.390  1.00  0.00     0.029 A 
ATOM     57  N   UNL A   1      45.264  36.091  27.864  1.00  0.00    -0.354 N 
ATOM     58  C   UNL A   1      45.528  31.821  28.592  1.00  0.00     0.074 A 
ATOM     59  C   UNL A   1      44.301  31.327  29.178  1.00  0.00     0.031 C 
ATOM     60  C   UNL A   1      44.280  38.096  27.847  1.00  0.00     0.029 A 
ATOM     61  C   UNL A   1      45.530  37.402  27.541  1.00  0.00     0.049 A 
ATOM     62  H   UNL A   1      45.902  35.358  27.707  1.00  0.00     0.167 HD
ATOM     63  C   UNL A   1      46.589  31.043  28.268  1.00  0.00     0.034 A 
ATOM     64  C   UNL A   1      46.664  37.976  27.086  1.00  0.00     0.034 A 
ATOM     65  C   UNL A   1      47.813  31.556  27.704  1.00  0.00     0.049 A 
ATOM     66  C   UNL A   1      47.875  37.105  26.834  1.00  0.00     0.074 A 
ATOM     67  C   UNL A   1      48.952  30.861  27.339  1.00  0.00     0.029 A 
ATOM     68  N   UNL A   1      48.064  32.897  27.438  1.00  0.00    -0.354 N 
ATOM     69  N   UNL A   1      48.008  35.806  26.986  1.00  0.00    -0.248 NA
ATOM     70  C   UNL A   1      49.085  37.778  26.341  1.00  0.00     0.031 C 
ATOM     71  C   UNL A   1      49.918  31.786  26.932  1.00  0.00     0.029 A 
ATOM     72  C   UNL A   1      49.352  33.051  26.947  1.00  0.00     0.049 A 
ATOM     73  H   UNL A   1      47.421  33.630  27.576  1.00  0.00     0.167 HD
ATOM     74  C   UNL A   1      49.306  35.505  26.573  1.00  0.00     0.074 A 
ATOM     75  C   UNL A   1      49.906  36.755  26.154  1.00  0.00     0.031 C 
ATOM     76  C   UNL A   1      49.941  34.305  26.538  1.00  0.00     0.034 A 
BRANCH  63  77
ATOM     77  C   UNL A   1      46.485  29.568  28.573  1.00  0.00     0.023 A 
ATOM     78  C   UNL A   1      47.034  29.012  29.742  1.00  0.00     0.031 A 
ATOM     79  C   UNL A   1      45.860  28.698  27.662  1.00  0.00     0.131 A 
ATOM     80  C   UNL A   1      47.011  27.622  29.934  1.00  0.00     0.055 A 
ATOM     81  C   UNL A   1      45.764  27.326  27.901  1.00  0.00     0.041 A 
ATOM     82  F   UNL A   1      45.345  29.165  26.514  1.00  0.00    -0.206 F 
ATOM     83  C   UNL A   1      46.354  26.778  29.036  1.00  0.00     0.022 A 
BRANCH  80  84
ATOM     84  S   UNL A   1      47.985  26.920  31.294  1.00  0.00     0.124 S 
ATOM     85  O   UNL A   1      49.066  27.894  31.415  1.00  0.00    -0.237 OA
ATOM     86  O   UNL A   1      47.023  26.893  32.390  1.00  0.00    -0.237 OA
ATOM     87  O   UNL A   1      48.389  25.611  30.785  1.00  0.00    -0.744 OA
ENDBRANCH  80  84
ENDBRANCH  63  77
BRANCH  64  88
ATOM     88  C   UNL A   1      46.739  39.454  26.886  1.00  0.00     0.023 A 
ATOM     89  C   UNL A   1      46.766  40.337  27.976  1.00  0.00     0.031 A 
ATOM     90  C   UNL A   1      46.716  40.007  25.593  1.00  0.00     0.131 A 
ATOM     91  C   UNL A   1      46.720  41.724  27.757  1.00  0.00     0.055 A 
ATOM     92  C   UNL A   1      46.733  41.386  25.378  1.00  0.00     0.041 A 
ATOM     93  F   UNL A   1      46.678  39.210  24.513  1.00  0.00    -0.206 F 
ATOM     94  C   UNL A   1      46.721  42.254  26.464  1.00  0.00     0.022 A 
BRANCH  91  95
ATOM     95  S   UNL A   1      46.556  42.826  29.188  1.00  0.00     0.124 S 
ATOM     96  O   UNL A   1      45.112  43.013  29.254  1.00  0.00    -0.237 OA
ATOM     97  O   UNL A   1      47.150  42.027  30.255  1.00  0.00    -0.237 OA
ATOM     98  O   UNL A   1      47.322  44.008  28.798  1.00  0.00    -0.744 OA
ENDBRANCH  91  95
ENDBRANCH  64  88
BRANCH  76  99
ATOM     99  C   UNL A   1      51.343  34.278  25.970  1.00  0.00     0.023 A 
ATOM    100  C   UNL A   1      51.602  33.912  24.638  1.00  0.00     0.031 A 
ATOM    101  C   UNL A   1      52.438  34.625  26.783  1.00  0.00     0.131 A 
ATOM    102  C   UNL A   1      52.926  33.846  24.177  1.00  0.00     0.055 A 
ATOM    103  C   UNL A   1      53.746  34.627  26.298  1.00  0.00     0.041 A 
ATOM    104  F   UNL A   1      52.253  34.979  28.066  1.00  0.00    -0.206 F 
ATOM    105  C   UNL A   1      53.998  34.222  24.991  1.00  0.00     0.022 A 
BRANCH 102 106
ATOM    106  S   UNL A   1      53.241  33.163  22.526  1.00  0.00     0.124 S 
ATOM    107  O   UNL A   1      52.107  32.263  22.350  1.00  0.00    -0.237 OA
ATOM    108  O   UNL A   1      53.243  34.358  21.688  1.00  0.00    -0.237 OA
ATOM    109  O   UNL A   1      54.539  32.506  22.669  1.00  0.00    -0.744 OA
ENDBRANCH 102 106
ENDBRANCH  76  99
ENDBRANCH  50  51
ENDBRANCH  43  45
ENDBRANCH  42  43
ENDBRANCH  41  42
ENDBRANCH  40  41
ENDBRANCH  39  40
ENDBRANCH  38  39
ENDBRANCH  37  38
ENDBRANCH   1  37
TORSDOF 31
ENDMDL
