MODEL 1
REMARK VINA RESULT:      -8.1      0.000      0.000
REMARK SMILES CC(C)c1cc2c(cc1Cl)C=C(C(=O)OCCOCCOCCOCCOC(=O)c1ccc(-c3c4nc(c(-c5cc(S(=O)(=O)[O-])ccc5F)c5ccc([nH]5)c(-c5cc(S(=O)(=O)[O-])ccc5F)c5nc(c(-c6cc(S(=O)(=O)[O-])ccc6F)c6ccc3[nH]6)C=C5)C=C4)cc1)[C@@H](C(F)(F)F)O2
REMARK SMILES IDX 22 1 21 2 20 3 19 4 18 5 17 6 16 7 15 8 13 9 14 10 12 11
REMARK SMILES IDX 4 12 5 13 9 14 6 15 8 16 10 17 7 18 98 19 11 20 93 21 2 22
REMARK SMILES IDX 1 23 3 24 94 25 95 26 96 27 97 28 23 29 24 30 25 31 26 32
REMARK SMILES IDX 27 33 28 34 29 35 30 36 31 37 92 38 32 39 91 40 33 41 34 42
REMARK SMILES IDX 35 43 85 44 36 45 90 46 84 47 86 48 37 49 89 50 83 51 82 52
REMARK SMILES IDX 38 54 70 55 50 56 69 57 51 58 54 59 68 60 87 61 52 62 53 63
REMARK SMILES IDX 67 65 88 66 55 67 39 68 40 69 48 70 41 71 47 72 49 73 46 74
REMARK SMILES IDX 42 75 43 76 44 77 45 78 71 79 72 80 80 81 73 82 79 83 81 84
REMARK SMILES IDX 78 85 74 86 75 87 76 88 77 89 56 90 57 91 65 92 58 93 64 94
REMARK SMILES IDX 66 95 63 96 59 97 60 98 61 99 62 100
REMARK H PARENT 86 53 54 64
REMARK Flexibility Score: inf
ROOT
ATOM      1  C   UNL A   1      32.749  35.626  30.201  1.00  0.00     0.188 C 
ENDROOT
BRANCH   1   2
ATOM      2  O   UNL A   1      33.562  34.551  30.673  1.00  0.00    -0.377 OA
BRANCH   2   3
ATOM      3  C   UNL A   1      34.181  33.732  29.695  1.00  0.00     0.188 C 
BRANCH   3   4
ATOM      4  C   UNL A   1      35.258  34.489  28.895  1.00  0.00     0.188 C 
BRANCH   4   5
ATOM      5  O   UNL A   1      36.579  34.047  29.183  1.00  0.00    -0.376 OA
BRANCH   5   6
ATOM      6  C   UNL A   1      37.057  32.885  28.512  1.00  0.00     0.202 C 
BRANCH   6   7
ATOM      7  C   UNL A   1      37.740  31.776  29.331  1.00  0.00     0.261 C 
BRANCH   7   8
ATOM      8  O   UNL A   1      38.702  30.981  28.620  1.00  0.00    -0.460 OA
BRANCH   8   9
ATOM      9  C   UNL A   1      38.308  29.794  28.127  1.00  0.00     0.338 C 
ATOM     10  O   UNL A   1      37.299  29.560  27.485  1.00  0.00    -0.246 OA
BRANCH   9  11
ATOM     11  C   UNL A   1      39.415  28.836  28.341  1.00  0.00     0.087 C 
ATOM     12  C   UNL A   1      42.943  25.284  27.811  1.00  0.00    -0.023 A 
ATOM     13  C   UNL A   1      42.349  25.946  28.901  1.00  0.00     0.052 A 
ATOM     14  C   UNL A   1      42.684  25.803  26.526  1.00  0.00     0.045 A 
ATOM     15  C   UNL A   1      41.442  26.992  28.714  1.00  0.00     0.128 A 
ATOM     16  C   UNL A   1      41.754  26.833  26.338  1.00  0.00     0.032 A 
ATOM     17  Cl  UNL A   1      43.473  25.200  25.108  1.00  0.00    -0.084 Cl
ATOM     18  C   UNL A   1      41.090  27.391  27.431  1.00  0.00     0.019 A 
ATOM     19  O   UNL A   1      40.923  27.537  29.850  1.00  0.00    -0.475 OA
ATOM     20  C   UNL A   1      39.991  28.323  27.245  1.00  0.00     0.027 C 
ATOM     21  C   UNL A   1      39.895  28.563  29.746  1.00  0.00     0.316 C 
BRANCH  12  22
ATOM     22  C   UNL A   1      43.759  24.007  28.011  1.00  0.00     0.014 C 
ATOM     23  C   UNL A   1      45.142  24.202  28.653  1.00  0.00     0.012 C 
ATOM     24  C   UNL A   1      42.970  23.015  28.882  1.00  0.00     0.012 C 
ENDBRANCH  12  22
BRANCH  21  25
ATOM     25  C   UNL A   1      38.758  28.161  30.697  1.00  0.00     0.430 C 
ATOM     26  F   UNL A   1      38.945  28.690  31.930  1.00  0.00    -0.167 F 
ATOM     27  F   UNL A   1      37.549  28.584  30.266  1.00  0.00    -0.167 F 
ATOM     28  F   UNL A   1      38.688  26.817  30.841  1.00  0.00    -0.167 F 
ENDBRANCH  21  25
ENDBRANCH   9  11
ENDBRANCH   8   9
ENDBRANCH   7   8
ENDBRANCH   6   7
ENDBRANCH   5   6
ENDBRANCH   4   5
ENDBRANCH   3   4
ENDBRANCH   2   3
ENDBRANCH   1   2
BRANCH   1  29
ATOM     29  C   UNL A   1      33.138  37.095  30.485  1.00  0.00     0.188 C 
BRANCH  29  30
ATOM     30  O   UNL A   1      32.867  37.509  31.825  1.00  0.00    -0.376 OA
BRANCH  30  31
ATOM     31  C   UNL A   1      33.987  37.608  32.697  1.00  0.00     0.202 C 
BRANCH  31  32
ATOM     32  C   UNL A   1      34.161  36.398  33.623  1.00  0.00     0.261 C 
BRANCH  32  33
ATOM     33  O   UNL A   1      35.267  35.538  33.305  1.00  0.00    -0.460 OA
BRANCH  33  34
ATOM     34  C   UNL A   1      35.145  34.221  33.590  1.00  0.00     0.338 C 
ATOM     35  O   UNL A   1      34.110  33.603  33.759  1.00  0.00    -0.246 OA
BRANCH  34  36
ATOM     36  C   UNL A   1      36.487  33.617  33.448  1.00  0.00     0.060 A 
ATOM     37  C   UNL A   1      36.635  32.355  32.867  1.00  0.00     0.016 A 
ATOM     38  C   UNL A   1      37.601  34.306  33.944  1.00  0.00     0.016 A 
ATOM     39  C   UNL A   1      37.907  31.790  32.761  1.00  0.00     0.010 A 
ATOM     40  C   UNL A   1      38.873  33.735  33.844  1.00  0.00     0.010 A 
ATOM     41  C   UNL A   1      39.037  32.482  33.233  1.00  0.00    -0.014 A 
BRANCH  41  42
ATOM     42  C   UNL A   1      40.393  31.974  32.916  1.00  0.00     0.031 A 
ATOM     43  C   UNL A   1      41.039  30.879  33.707  1.00  0.00     0.074 A 
ATOM     44  C   UNL A   1      41.045  32.543  31.884  1.00  0.00     0.049 A 
ATOM     45  N   UNL A   1      42.185  30.285  33.491  1.00  0.00    -0.248 NA
ATOM     46  C   UNL A   1      40.318  30.387  34.889  1.00  0.00     0.031 C 
ATOM     47  C   UNL A   1      40.514  33.638  31.071  1.00  0.00     0.029 A 
ATOM     48  N   UNL A   1      42.279  32.290  31.342  1.00  0.00    -0.354 N 
ATOM     49  C   UNL A   1      42.319  29.334  34.493  1.00  0.00     0.074 A 
ATOM     50  C   UNL A   1      41.155  29.462  35.347  1.00  0.00     0.031 C 
ATOM     51  C   UNL A   1      41.410  33.956  30.127  1.00  0.00     0.029 A 
ATOM     52  C   UNL A   1      42.591  33.108  30.280  1.00  0.00     0.049 A 
ATOM     53  H   UNL A   1      42.884  31.590  31.679  1.00  0.00     0.167 HD
ATOM     54  C   UNL A   1      43.313  28.430  34.665  1.00  0.00     0.034 A 
ATOM     55  C   UNL A   1      43.699  33.174  29.514  1.00  0.00     0.034 A 
ATOM     56  C   UNL A   1      44.470  28.331  33.806  1.00  0.00     0.049 A 
ATOM     57  C   UNL A   1      44.804  32.176  29.748  1.00  0.00     0.074 A 
ATOM     58  C   UNL A   1      45.501  27.410  33.868  1.00  0.00     0.029 A 
ATOM     59  N   UNL A   1      44.761  29.179  32.745  1.00  0.00    -0.354 N 
ATOM     60  N   UNL A   1      44.861  31.201  30.624  1.00  0.00    -0.248 NA
ATOM     61  C   UNL A   1      45.987  32.270  28.881  1.00  0.00     0.031 C 
ATOM     62  C   UNL A   1      46.447  27.743  32.900  1.00  0.00     0.029 A 
ATOM     63  C   UNL A   1      45.973  28.823  32.173  1.00  0.00     0.049 A 
ATOM     64  H   UNL A   1      44.190  29.923  32.444  1.00  0.00     0.167 HD
ATOM     65  C   UNL A   1      46.068  30.548  30.395  1.00  0.00     0.074 A 
ATOM     66  C   UNL A   1      46.701  31.226  29.285  1.00  0.00     0.031 C 
ATOM     67  C   UNL A   1      46.598  29.485  31.052  1.00  0.00     0.034 A 
BRANCH  54  68
ATOM     68  C   UNL A   1      43.213  27.435  35.796  1.00  0.00     0.023 A 
ATOM     69  C   UNL A   1      43.999  27.596  36.954  1.00  0.00     0.031 A 
ATOM     70  C   UNL A   1      42.484  26.241  35.649  1.00  0.00     0.131 A 
ATOM     71  C   UNL A   1      44.073  26.562  37.896  1.00  0.00     0.055 A 
ATOM     72  C   UNL A   1      42.530  25.231  36.611  1.00  0.00     0.041 A 
ATOM     73  F   UNL A   1      41.728  26.035  34.559  1.00  0.00    -0.206 F 
ATOM     74  C   UNL A   1      43.340  25.382  37.733  1.00  0.00     0.022 A 
BRANCH  71  75
ATOM     75  S   UNL A   1      45.184  26.671  39.327  1.00  0.00     0.124 S 
ATOM     76  O   UNL A   1      45.943  25.427  39.211  1.00  0.00    -0.237 OA
ATOM     77  O   UNL A   1      45.937  27.889  39.038  1.00  0.00    -0.237 OA
ATOM     78  O   UNL A   1      44.280  26.742  40.469  1.00  0.00    -0.744 OA
ENDBRANCH  71  75
ENDBRANCH  54  68
BRANCH  55  79
ATOM     79  C   UNL A   1      43.759  34.182  28.417  1.00  0.00     0.023 A 
ATOM     80  C   UNL A   1      43.770  35.560  28.704  1.00  0.00     0.031 A 
ATOM     81  C   UNL A   1      43.684  33.787  27.071  1.00  0.00     0.131 A 
ATOM     82  C   UNL A   1      43.638  36.489  27.664  1.00  0.00     0.055 A 
ATOM     83  C   UNL A   1      43.627  34.718  26.034  1.00  0.00     0.041 A 
ATOM     84  F   UNL A   1      43.652  32.485  26.750  1.00  0.00    -0.206 F 
ATOM     85  C   UNL A   1      43.584  36.078  26.329  1.00  0.00     0.022 A 
BRANCH  82  86
ATOM     86  S   UNL A   1      43.386  38.251  28.020  1.00  0.00     0.124 S 
ATOM     87  O   UNL A   1      43.953  38.883  26.833  1.00  0.00    -0.237 OA
ATOM     88  O   UNL A   1      41.931  38.325  28.142  1.00  0.00    -0.237 OA
ATOM     89  O   UNL A   1      44.122  38.461  29.261  1.00  0.00    -0.744 OA
ENDBRANCH  82  86
ENDBRANCH  55  79
BRANCH  67  90
ATOM     90  C   UNL A   1      47.939  28.948  30.606  1.00  0.00     0.023 A 
ATOM     91  C   UNL A   1      49.123  29.465  31.167  1.00  0.00     0.031 A 
ATOM     92  C   UNL A   1      48.051  28.065  29.519  1.00  0.00     0.131 A 
ATOM     93  C   UNL A   1      50.364  29.137  30.606  1.00  0.00     0.055 A 
ATOM     94  C   UNL A   1      49.293  27.699  28.996  1.00  0.00     0.041 A 
ATOM     95  F   UNL A   1      46.953  27.552  28.941  1.00  0.00    -0.206 F 
ATOM     96  C   UNL A   1      50.455  28.250  29.529  1.00  0.00     0.022 A 
BRANCH  93  97
ATOM     97  S   UNL A   1      51.893  29.922  31.186  1.00  0.00     0.124 S 
ATOM     98  O   UNL A   1      51.417  31.238  31.604  1.00  0.00    -0.237 OA
ATOM     99  O   UNL A   1      52.302  29.034  32.270  1.00  0.00    -0.237 OA
ATOM    100  O   UNL A   1      52.758  29.920  30.012  1.00  0.00    -0.744 OA
ENDBRANCH  93  97
ENDBRANCH  67  90
ENDBRANCH  41  42
ENDBRANCH  34  36
ENDBRANCH  33  34
ENDBRANCH  32  33
ENDBRANCH  31  32
ENDBRANCH  30  31
ENDBRANCH  29  30
ENDBRANCH   1  29
TORSDOF 25
ENDMDL
MODEL 2
REMARK VINA RESULT:      -7.9      3.551      9.296
REMARK SMILES CC(C)c1cc2c(cc1Cl)C=C(C(=O)OCCOCCOCCOCCOC(=O)c1ccc(-c3c4nc(c(-c5cc(S(=O)(=O)[O-])ccc5F)c5ccc([nH]5)c(-c5cc(S(=O)(=O)[O-])ccc5F)c5nc(c(-c6cc(S(=O)(=O)[O-])ccc6F)c6ccc3[nH]6)C=C5)C=C4)cc1)[C@@H](C(F)(F)F)O2
REMARK SMILES IDX 22 1 21 2 20 3 19 4 18 5 17 6 16 7 15 8 13 9 14 10 12 11
REMARK SMILES IDX 4 12 5 13 9 14 6 15 8 16 10 17 7 18 98 19 11 20 93 21 2 22
REMARK SMILES IDX 1 23 3 24 94 25 95 26 96 27 97 28 23 29 24 30 25 31 26 32
REMARK SMILES IDX 27 33 28 34 29 35 30 36 31 37 92 38 32 39 91 40 33 41 34 42
REMARK SMILES IDX 35 43 85 44 36 45 90 46 84 47 86 48 37 49 89 50 83 51 82 52
REMARK SMILES IDX 38 54 70 55 50 56 69 57 51 58 54 59 68 60 87 61 52 62 53 63
REMARK SMILES IDX 67 65 88 66 55 67 39 68 40 69 48 70 41 71 47 72 49 73 46 74
REMARK SMILES IDX 42 75 43 76 44 77 45 78 71 79 72 80 80 81 73 82 79 83 81 84
REMARK SMILES IDX 78 85 74 86 75 87 76 88 77 89 56 90 57 91 65 92 58 93 64 94
REMARK SMILES IDX 66 95 63 96 59 97 60 98 61 99 62 100
REMARK H PARENT 86 53 54 64
REMARK Flexibility Score: inf
ROOT
ATOM      1  C   UNL A   1      42.515  22.651  26.503  1.00  0.00     0.188 C 
ENDROOT
BRANCH   1   2
ATOM      2  O   UNL A   1      41.562  23.705  26.646  1.00  0.00    -0.377 OA
BRANCH   2   3
ATOM      3  C   UNL A   1      40.915  23.825  27.902  1.00  0.00     0.188 C 
BRANCH   3   4
ATOM      4  C   UNL A   1      41.025  25.247  28.483  1.00  0.00     0.188 C 
BRANCH   4   5
ATOM      5  O   UNL A   1      40.037  26.135  27.973  1.00  0.00    -0.376 OA
BRANCH   5   6
ATOM      6  C   UNL A   1      39.269  26.890  28.906  1.00  0.00     0.202 C 
BRANCH   6   7
ATOM      7  C   UNL A   1      39.846  28.204  29.459  1.00  0.00     0.261 C 
BRANCH   7   8
ATOM      8  O   UNL A   1      39.074  29.384  29.188  1.00  0.00    -0.460 OA
BRANCH   8   9
ATOM      9  C   UNL A   1      39.446  30.537  29.771  1.00  0.00     0.338 C 
ATOM     10  O   UNL A   1      40.561  31.025  29.796  1.00  0.00    -0.246 OA
BRANCH   9  11
ATOM     11  C   UNL A   1      38.214  31.218  30.230  1.00  0.00     0.087 C 
ATOM     12  C   UNL A   1      34.349  34.384  30.846  1.00  0.00    -0.023 A 
ATOM     13  C   UNL A   1      34.910  33.336  31.598  1.00  0.00     0.052 A 
ATOM     14  C   UNL A   1      34.794  34.529  29.516  1.00  0.00     0.045 A 
ATOM     15  C   UNL A   1      35.951  32.552  31.094  1.00  0.00     0.128 A 
ATOM     16  C   UNL A   1      35.856  33.762  29.022  1.00  0.00     0.032 A 
ATOM     17  Cl  UNL A   1      34.080  35.664  28.420  1.00  0.00    -0.084 Cl
ATOM     18  C   UNL A   1      36.473  32.808  29.833  1.00  0.00     0.019 A 
ATOM     19  O   UNL A   1      36.419  31.581  31.929  1.00  0.00    -0.475 OA
ATOM     20  C   UNL A   1      37.690  32.138  29.409  1.00  0.00     0.027 C 
ATOM     21  C   UNL A   1      37.570  30.785  31.526  1.00  0.00     0.316 C 
BRANCH  12  22
ATOM     22  C   UNL A   1      33.369  35.372  31.477  1.00  0.00     0.014 C 
ATOM     23  C   UNL A   1      32.585  34.841  32.688  1.00  0.00     0.012 C 
ATOM     24  C   UNL A   1      34.117  36.641  31.919  1.00  0.00     0.012 C 
ENDBRANCH  12  22
BRANCH  21  25
ATOM     25  C   UNL A   1      38.551  30.778  32.706  1.00  0.00     0.430 C 
ATOM     26  F   UNL A   1      39.396  31.835  32.644  1.00  0.00    -0.167 F 
ATOM     27  F   UNL A   1      37.924  30.845  33.901  1.00  0.00    -0.167 F 
ATOM     28  F   UNL A   1      39.309  29.656  32.710  1.00  0.00    -0.167 F 
ENDBRANCH  21  25
ENDBRANCH   9  11
ENDBRANCH   8   9
ENDBRANCH   7   8
ENDBRANCH   6   7
ENDBRANCH   5   6
ENDBRANCH   4   5
ENDBRANCH   3   4
ENDBRANCH   2   3
ENDBRANCH   1   2
BRANCH   1  29
ATOM     29  C   UNL A   1      43.242  22.418  25.160  1.00  0.00     0.188 C 
BRANCH  29  30
ATOM     30  O   UNL A   1      44.281  21.440  25.234  1.00  0.00    -0.376 OA
BRANCH  30  31
ATOM     31  C   UNL A   1      45.509  21.862  25.817  1.00  0.00     0.202 C 
BRANCH  31  32
ATOM     32  C   UNL A   1      46.153  23.061  25.110  1.00  0.00     0.261 C 
BRANCH  32  33
ATOM     33  O   UNL A   1      46.473  24.173  25.960  1.00  0.00    -0.460 OA
BRANCH  33  34
ATOM     34  C   UNL A   1      46.540  25.400  25.395  1.00  0.00     0.338 C 
ATOM     35  O   UNL A   1      46.853  25.661  24.248  1.00  0.00    -0.246 OA
BRANCH  34  36
ATOM     36  C   UNL A   1      45.957  26.358  26.360  1.00  0.00     0.060 A 
ATOM     37  C   UNL A   1      44.595  26.663  26.316  1.00  0.00     0.016 A 
ATOM     38  C   UNL A   1      46.797  26.988  27.286  1.00  0.00     0.016 A 
ATOM     39  C   UNL A   1      44.065  27.586  27.220  1.00  0.00     0.010 A 
ATOM     40  C   UNL A   1      46.266  27.917  28.186  1.00  0.00     0.010 A 
ATOM     41  C   UNL A   1      44.893  28.207  28.172  1.00  0.00    -0.014 A 
BRANCH  41  42
ATOM     42  C   UNL A   1      44.284  29.009  29.260  1.00  0.00     0.031 A 
ATOM     43  C   UNL A   1      43.892  28.403  30.572  1.00  0.00     0.074 A 
ATOM     44  C   UNL A   1      44.079  30.320  29.028  1.00  0.00     0.049 A 
ATOM     45  N   UNL A   1      43.423  29.001  31.638  1.00  0.00    -0.248 NA
ATOM     46  C   UNL A   1      44.036  26.947  30.711  1.00  0.00     0.031 C 
ATOM     47  C   UNL A   1      44.398  30.998  27.771  1.00  0.00     0.029 A 
ATOM     48  N   UNL A   1      43.561  31.310  29.823  1.00  0.00    -0.354 N 
ATOM     49  C   UNL A   1      43.236  28.003  32.585  1.00  0.00     0.074 A 
ATOM     50  C   UNL A   1      43.598  26.752  31.951  1.00  0.00     0.031 C 
ATOM     51  C   UNL A   1      44.080  32.296  27.882  1.00  0.00     0.029 A 
ATOM     52  C   UNL A   1      43.510  32.539  29.206  1.00  0.00     0.049 A 
ATOM     53  H   UNL A   1      43.255  31.157  30.746  1.00  0.00     0.167 HD
ATOM     54  C   UNL A   1      42.818  28.132  33.868  1.00  0.00     0.034 A 
ATOM     55  C   UNL A   1      43.058  33.730  29.650  1.00  0.00     0.034 A 
ATOM     56  C   UNL A   1      42.451  29.391  34.473  1.00  0.00     0.049 A 
ATOM     57  C   UNL A   1      42.570  33.838  31.071  1.00  0.00     0.074 A 
ATOM     58  C   UNL A   1      42.071  29.627  35.783  1.00  0.00     0.029 A 
ATOM     59  N   UNL A   1      42.402  30.615  33.821  1.00  0.00    -0.354 N 
ATOM     60  N   UNL A   1      42.513  32.907  31.994  1.00  0.00    -0.248 NA
ATOM     61  C   UNL A   1      42.101  35.155  31.521  1.00  0.00     0.031 C 
ATOM     62  C   UNL A   1      41.721  30.971  35.904  1.00  0.00     0.029 A 
ATOM     63  C   UNL A   1      41.961  31.599  34.693  1.00  0.00     0.049 A 
ATOM     64  H   UNL A   1      42.644  30.763  32.878  1.00  0.00     0.167 HD
ATOM     65  C   UNL A   1      42.033  33.532  33.141  1.00  0.00     0.074 A 
ATOM     66  C   UNL A   1      41.834  34.925  32.802  1.00  0.00     0.031 C 
ATOM     67  C   UNL A   1      41.781  32.994  34.362  1.00  0.00     0.034 A 
BRANCH  54  68
ATOM     68  C   UNL A   1      42.757  26.906  34.746  1.00  0.00     0.023 A 
ATOM     69  C   UNL A   1      43.937  26.370  35.299  1.00  0.00     0.031 A 
ATOM     70  C   UNL A   1      41.567  26.169  34.880  1.00  0.00     0.131 A 
ATOM     71  C   UNL A   1      43.909  25.115  35.921  1.00  0.00     0.055 A 
ATOM     72  C   UNL A   1      41.536  24.938  35.537  1.00  0.00     0.041 A 
ATOM     73  F   UNL A   1      40.418  26.632  34.363  1.00  0.00    -0.206 F 
ATOM     74  C   UNL A   1      42.713  24.398  36.046  1.00  0.00     0.022 A 
BRANCH  71  75
ATOM     75  S   UNL A   1      45.429  24.326  36.518  1.00  0.00     0.124 S 
ATOM     76  O   UNL A   1      45.579  24.929  37.841  1.00  0.00    -0.237 OA
ATOM     77  O   UNL A   1      45.062  22.912  36.515  1.00  0.00    -0.237 OA
ATOM     78  O   UNL A   1      46.437  24.719  35.539  1.00  0.00    -0.744 OA
ENDBRANCH  71  75
ENDBRANCH  54  68
BRANCH  55  79
ATOM     79  C   UNL A   1      43.126  34.911  28.742  1.00  0.00     0.023 A 
ATOM     80  C   UNL A   1      44.349  35.564  28.498  1.00  0.00     0.031 A 
ATOM     81  C   UNL A   1      41.956  35.474  28.205  1.00  0.00     0.131 A 
ATOM     82  C   UNL A   1      44.363  36.775  27.796  1.00  0.00     0.055 A 
ATOM     83  C   UNL A   1      41.986  36.643  27.444  1.00  0.00     0.041 A 
ATOM     84  F   UNL A   1      40.765  34.898  28.426  1.00  0.00    -0.206 F 
ATOM     85  C   UNL A   1      43.192  37.311  27.252  1.00  0.00     0.022 A 
BRANCH  82  86
ATOM     86  S   UNL A   1      45.879  37.769  27.691  1.00  0.00     0.124 S 
ATOM     87  O   UNL A   1      45.889  38.444  28.985  1.00  0.00    -0.237 OA
ATOM     88  O   UNL A   1      46.899  36.738  27.507  1.00  0.00    -0.237 OA
ATOM     89  O   UNL A   1      45.649  38.626  26.533  1.00  0.00    -0.744 OA
ENDBRANCH  82  86
ENDBRANCH  55  79
BRANCH  67  90
ATOM     90  C   UNL A   1      41.261  33.892  35.460  1.00  0.00     0.023 A 
ATOM     91  C   UNL A   1      42.165  34.523  36.338  1.00  0.00     0.031 A 
ATOM     92  C   UNL A   1      39.888  33.985  35.744  1.00  0.00     0.131 A 
ATOM     93  C   UNL A   1      41.689  35.172  37.485  1.00  0.00     0.055 A 
ATOM     94  C   UNL A   1      39.415  34.677  36.861  1.00  0.00     0.041 A 
ATOM     95  F   UNL A   1      38.985  33.393  34.946  1.00  0.00    -0.206 F 
ATOM     96  C   UNL A   1      40.318  35.259  37.746  1.00  0.00     0.022 A 
BRANCH  93  97
ATOM     97  S   UNL A   1      42.832  35.837  38.728  1.00  0.00     0.124 S 
ATOM     98  O   UNL A   1      42.214  35.391  39.974  1.00  0.00    -0.237 OA
ATOM     99  O   UNL A   1      44.084  35.173  38.380  1.00  0.00    -0.237 OA
ATOM    100  O   UNL A   1      42.799  37.278  38.500  1.00  0.00    -0.744 OA
ENDBRANCH  93  97
ENDBRANCH  67  90
ENDBRANCH  41  42
ENDBRANCH  34  36
ENDBRANCH  33  34
ENDBRANCH  32  33
ENDBRANCH  31  32
ENDBRANCH  30  31
ENDBRANCH  29  30
ENDBRANCH   1  29
TORSDOF 25
ENDMDL
MODEL 3
REMARK VINA RESULT:      -7.7      6.651     12.791
REMARK SMILES CC(C)c1cc2c(cc1Cl)C=C(C(=O)OCCOCCOCCOCCOC(=O)c1ccc(-c3c4nc(c(-c5cc(S(=O)(=O)[O-])ccc5F)c5ccc([nH]5)c(-c5cc(S(=O)(=O)[O-])ccc5F)c5nc(c(-c6cc(S(=O)(=O)[O-])ccc6F)c6ccc3[nH]6)C=C5)C=C4)cc1)[C@@H](C(F)(F)F)O2
REMARK SMILES IDX 22 1 21 2 20 3 19 4 18 5 17 6 16 7 15 8 13 9 14 10 12 11
REMARK SMILES IDX 4 12 5 13 9 14 6 15 8 16 10 17 7 18 98 19 11 20 93 21 2 22
REMARK SMILES IDX 1 23 3 24 94 25 95 26 96 27 97 28 23 29 24 30 25 31 26 32
REMARK SMILES IDX 27 33 28 34 29 35 30 36 31 37 92 38 32 39 91 40 33 41 34 42
REMARK SMILES IDX 35 43 85 44 36 45 90 46 84 47 86 48 37 49 89 50 83 51 82 52
REMARK SMILES IDX 38 54 70 55 50 56 69 57 51 58 54 59 68 60 87 61 52 62 53 63
REMARK SMILES IDX 67 65 88 66 55 67 39 68 40 69 48 70 41 71 47 72 49 73 46 74
REMARK SMILES IDX 42 75 43 76 44 77 45 78 71 79 72 80 80 81 73 82 79 83 81 84
REMARK SMILES IDX 78 85 74 86 75 87 76 88 77 89 56 90 57 91 65 92 58 93 64 94
REMARK SMILES IDX 66 95 63 96 59 97 60 98 61 99 62 100
REMARK H PARENT 86 53 54 64
REMARK Flexibility Score: inf
ROOT
ATOM      1  C   UNL A   1      44.456  44.549  29.793  1.00  0.00     0.188 C 
ENDROOT
BRANCH   1   2
ATOM      2  O   UNL A   1      44.597  43.869  28.546  1.00  0.00    -0.377 OA
BRANCH   2   3
ATOM      3  C   UNL A   1      45.628  42.899  28.451  1.00  0.00     0.188 C 
BRANCH   3   4
ATOM      4  C   UNL A   1      45.180  41.642  27.682  1.00  0.00     0.188 C 
BRANCH   4   5
ATOM      5  O   UNL A   1      46.249  40.995  27.002  1.00  0.00    -0.376 OA
BRANCH   5   6
ATOM      6  C   UNL A   1      46.095  40.728  25.612  1.00  0.00     0.202 C 
BRANCH   6   7
ATOM      7  C   UNL A   1      46.534  41.792  24.592  1.00  0.00     0.261 C 
BRANCH   7   8
ATOM      8  O   UNL A   1      45.597  42.070  23.540  1.00  0.00    -0.460 OA
BRANCH   8   9
ATOM      9  C   UNL A   1      44.810  43.154  23.659  1.00  0.00     0.338 C 
ATOM     10  O   UNL A   1      44.646  43.842  24.650  1.00  0.00    -0.246 OA
BRANCH   9  11
ATOM     11  C   UNL A   1      44.307  43.485  22.306  1.00  0.00     0.087 C 
ATOM     12  C   UNL A   1      43.375  45.657  17.862  1.00  0.00    -0.023 A 
ATOM     13  C   UNL A   1      42.777  44.631  18.616  1.00  0.00     0.052 A 
ATOM     14  C   UNL A   1      44.640  46.112  18.286  1.00  0.00     0.045 A 
ATOM     15  C   UNL A   1      43.350  44.170  19.804  1.00  0.00     0.128 A 
ATOM     16  C   UNL A   1      45.199  45.669  19.491  1.00  0.00     0.032 A 
ATOM     17  Cl  UNL A   1      45.571  47.248  17.369  1.00  0.00    -0.084 Cl
ATOM     18  C   UNL A   1      44.525  44.736  20.280  1.00  0.00     0.019 A 
ATOM     19  O   UNL A   1      42.662  43.186  20.451  1.00  0.00    -0.475 OA
ATOM     20  C   UNL A   1      44.993  44.406  21.615  1.00  0.00     0.027 C 
ATOM     21  C   UNL A   1      43.133  42.719  21.747  1.00  0.00     0.316 C 
BRANCH  12  22
ATOM     22  C   UNL A   1      42.641  46.306  16.689  1.00  0.00     0.014 C 
ATOM     23  C   UNL A   1      41.532  45.453  16.052  1.00  0.00     0.012 C 
ATOM     24  C   UNL A   1      42.013  47.636  17.138  1.00  0.00     0.012 C 
ENDBRANCH  12  22
BRANCH  21  25
ATOM     25  C   UNL A   1      41.922  42.709  22.691  1.00  0.00     0.430 C 
ATOM     26  F   UNL A   1      40.777  42.457  22.012  1.00  0.00    -0.167 F 
ATOM     27  F   UNL A   1      42.024  41.768  23.654  1.00  0.00    -0.167 F 
ATOM     28  F   UNL A   1      41.770  43.904  23.308  1.00  0.00    -0.167 F 
ENDBRANCH  21  25
ENDBRANCH   9  11
ENDBRANCH   8   9
ENDBRANCH   7   8
ENDBRANCH   6   7
ENDBRANCH   5   6
ENDBRANCH   4   5
ENDBRANCH   3   4
ENDBRANCH   2   3
ENDBRANCH   1   2
BRANCH   1  29
ATOM     29  C   UNL A   1      44.752  43.825  31.126  1.00  0.00     0.188 C 
BRANCH  29  30
ATOM     30  O   UNL A   1      43.591  43.270  31.747  1.00  0.00    -0.376 OA
BRANCH  30  31
ATOM     31  C   UNL A   1      43.650  43.088  33.156  1.00  0.00     0.202 C 
BRANCH  31  32
ATOM     32  C   UNL A   1      45.015  42.604  33.663  1.00  0.00     0.261 C 
BRANCH  32  33
ATOM     33  O   UNL A   1      45.357  41.256  33.306  1.00  0.00    -0.460 OA
BRANCH  33  34
ATOM     34  C   UNL A   1      45.140  40.286  34.223  1.00  0.00     0.338 C 
ATOM     35  O   UNL A   1      45.064  40.425  35.431  1.00  0.00    -0.246 OA
BRANCH  34  36
ATOM     36  C   UNL A   1      44.800  39.052  33.483  1.00  0.00     0.060 A 
ATOM     37  C   UNL A   1      44.042  39.119  32.311  1.00  0.00     0.016 A 
ATOM     38  C   UNL A   1      45.207  37.815  33.996  1.00  0.00     0.016 A 
ATOM     39  C   UNL A   1      43.711  37.942  31.636  1.00  0.00     0.010 A 
ATOM     40  C   UNL A   1      44.868  36.637  33.323  1.00  0.00     0.010 A 
ATOM     41  C   UNL A   1      44.135  36.695  32.128  1.00  0.00    -0.014 A 
BRANCH  41  42
ATOM     42  C   UNL A   1      43.969  35.483  31.290  1.00  0.00     0.031 A 
ATOM     43  C   UNL A   1      44.930  35.133  30.195  1.00  0.00     0.074 A 
ATOM     44  C   UNL A   1      42.904  34.696  31.537  1.00  0.00     0.049 A 
ATOM     45  N   UNL A   1      44.949  34.065  29.439  1.00  0.00    -0.248 NA
ATOM     46  C   UNL A   1      46.000  36.097  29.905  1.00  0.00     0.031 C 
ATOM     47  C   UNL A   1      41.894  34.967  32.560  1.00  0.00     0.029 A 
ATOM     48  N   UNL A   1      42.491  33.522  30.960  1.00  0.00    -0.354 N 
ATOM     49  C   UNL A   1      46.043  34.213  28.597  1.00  0.00     0.074 A 
ATOM     50  C   UNL A   1      46.636  35.498  28.904  1.00  0.00     0.031 C 
ATOM     51  C   UNL A   1      40.984  33.983  32.548  1.00  0.00     0.029 A 
ATOM     52  C   UNL A   1      41.328  33.024  31.499  1.00  0.00     0.049 A 
ATOM     53  H   UNL A   1      42.980  33.079  30.230  1.00  0.00     0.167 HD
ATOM     54  C   UNL A   1      46.512  33.341  27.671  1.00  0.00     0.034 A 
ATOM     55  C   UNL A   1      40.614  31.922  31.190  1.00  0.00     0.034 A 
ATOM     56  C   UNL A   1      45.894  32.070  27.374  1.00  0.00     0.049 A 
ATOM     57  C   UNL A   1      41.142  30.988  30.134  1.00  0.00     0.074 A 
ATOM     58  C   UNL A   1      46.330  31.096  26.492  1.00  0.00     0.029 A 
ATOM     59  N   UNL A   1      44.713  31.599  27.931  1.00  0.00    -0.354 N 
ATOM     60  N   UNL A   1      42.246  31.081  29.430  1.00  0.00    -0.248 NA
ATOM     61  C   UNL A   1      40.345  29.790  29.838  1.00  0.00     0.031 C 
ATOM     62  C   UNL A   1      45.380  30.077  26.459  1.00  0.00     0.029 A 
ATOM     63  C   UNL A   1      44.389  30.368  27.382  1.00  0.00     0.049 A 
ATOM     64  H   UNL A   1      44.184  32.069  28.615  1.00  0.00     0.167 HD
ATOM     65  C   UNL A   1      42.291  29.941  28.633  1.00  0.00     0.074 A 
ATOM     66  C   UNL A   1      41.114  29.164  28.954  1.00  0.00     0.031 C 
ATOM     67  C   UNL A   1      43.225  29.580  27.716  1.00  0.00     0.034 A 
BRANCH  54  68
ATOM     68  C   UNL A   1      47.772  33.684  26.913  1.00  0.00     0.023 A 
ATOM     69  C   UNL A   1      49.033  33.364  27.454  1.00  0.00     0.031 A 
ATOM     70  C   UNL A   1      47.729  34.484  25.758  1.00  0.00     0.131 A 
ATOM     71  C   UNL A   1      50.196  33.879  26.865  1.00  0.00     0.055 A 
ATOM     72  C   UNL A   1      48.892  34.961  25.152  1.00  0.00     0.041 A 
ATOM     73  F   UNL A   1      46.552  34.825  25.210  1.00  0.00    -0.206 F 
ATOM     74  C   UNL A   1      50.132  34.672  25.715  1.00  0.00     0.022 A 
BRANCH  71  75
ATOM     75  S   UNL A   1      51.827  33.609  27.612  1.00  0.00     0.124 S 
ATOM     76  O   UNL A   1      52.679  33.481  26.431  1.00  0.00    -0.237 OA
ATOM     77  O   UNL A   1      52.015  34.834  28.386  1.00  0.00    -0.237 OA
ATOM     78  O   UNL A   1      51.659  32.388  28.392  1.00  0.00    -0.744 OA
ENDBRANCH  71  75
ENDBRANCH  54  68
BRANCH  55  79
ATOM     79  C   UNL A   1      39.368  31.632  31.957  1.00  0.00     0.023 A 
ATOM     80  C   UNL A   1      38.128  32.151  31.540  1.00  0.00     0.031 A 
ATOM     81  C   UNL A   1      39.419  30.936  33.176  1.00  0.00     0.131 A 
ATOM     82  C   UNL A   1      37.007  32.024  32.369  1.00  0.00     0.055 A 
ATOM     83  C   UNL A   1      38.283  30.749  33.964  1.00  0.00     0.041 A 
ATOM     84  F   UNL A   1      40.583  30.439  33.623  1.00  0.00    -0.206 F 
ATOM     85  C   UNL A   1      37.071  31.311  33.571  1.00  0.00     0.022 A 
BRANCH  82  86
ATOM     86  S   UNL A   1      35.465  32.903  31.987  1.00  0.00     0.124 S 
ATOM     87  O   UNL A   1      34.695  32.712  33.212  1.00  0.00    -0.237 OA
ATOM     88  O   UNL A   1      35.948  34.262  31.749  1.00  0.00    -0.237 OA
ATOM     89  O   UNL A   1      34.958  32.211  30.807  1.00  0.00    -0.744 OA
ENDBRANCH  82  86
ENDBRANCH  55  79
BRANCH  67  90
ATOM     90  C   UNL A   1      43.049  28.276  26.973  1.00  0.00     0.023 A 
ATOM     91  C   UNL A   1      43.785  27.140  27.364  1.00  0.00     0.031 A 
ATOM     92  C   UNL A   1      42.298  28.203  25.787  1.00  0.00     0.131 A 
ATOM     93  C   UNL A   1      43.796  25.999  26.551  1.00  0.00     0.055 A 
ATOM     94  C   UNL A   1      42.271  27.045  25.006  1.00  0.00     0.041 A 
ATOM     95  F   UNL A   1      41.587  29.260  25.364  1.00  0.00    -0.206 F 
ATOM     96  C   UNL A   1      43.036  25.944  25.379  1.00  0.00     0.022 A 
BRANCH  93  97
ATOM     97  S   UNL A   1      44.872  24.588  26.930  1.00  0.00     0.124 S 
ATOM     98  O   UNL A   1      44.023  23.790  27.812  1.00  0.00    -0.237 OA
ATOM     99  O   UNL A   1      45.106  24.017  25.607  1.00  0.00    -0.237 OA
ATOM    100  O   UNL A   1      46.035  25.192  27.569  1.00  0.00    -0.744 OA
ENDBRANCH  93  97
ENDBRANCH  67  90
ENDBRANCH  41  42
ENDBRANCH  34  36
ENDBRANCH  33  34
ENDBRANCH  32  33
ENDBRANCH  31  32
ENDBRANCH  30  31
ENDBRANCH  29  30
ENDBRANCH   1  29
TORSDOF 25
ENDMDL
