MODEL 1
REMARK VINA RESULT:      -8.3      0.000      0.000
REMARK SMILES Cc1cc(/C=C2/C(=O)NC(=S)N=C2OCCOCCOCCOCCOC(=O)c2ccc(-c3c4nc(c(-c5cc(S(=O)(=O)[O-])ccc5F)c5ccc([nH]5)c(-c5cc(S(=O)(=O)[O-])ccc5F)c5nc(c(-c6cc(S(=O)(=O)[O-])ccc6F)c6ccc3[nH]6)C=C5)C=C4)cc2)c(C)n1-c1cccc(C(=O)[O-])c1
REMARK SMILES IDX 21 1 20 2 19 3 18 4 17 5 16 6 15 7 14 8 13 9 5 10 6 11 7 12
REMARK SMILES IDX 8 13 9 14 12 15 10 16 11 18 4 19 1 20 2 21 3 22 94 23 92 24
REMARK SMILES IDX 93 25 95 26 96 27 103 28 97 29 99 30 98 31 100 32 101 33
REMARK SMILES IDX 102 34 22 35 23 36 24 37 25 38 26 39 27 40 28 41 29 42 30 43
REMARK SMILES IDX 91 44 31 45 90 46 32 47 33 48 34 49 84 50 35 51 89 52 83 53
REMARK SMILES IDX 85 54 36 55 88 56 82 57 81 58 37 60 69 61 49 62 68 63 50 64
REMARK SMILES IDX 53 65 67 66 86 67 51 68 52 69 66 71 87 72 54 73 38 74 39 75
REMARK SMILES IDX 47 76 40 77 46 78 48 79 45 80 41 81 42 82 43 83 44 84 70 85
REMARK SMILES IDX 71 86 79 87 72 88 78 89 80 90 77 91 73 92 74 93 75 94 76 95
REMARK SMILES IDX 55 96 56 97 64 98 57 99 63 100 65 101 62 102 58 103 59 104
REMARK SMILES IDX 60 105 61 106
REMARK H PARENT 9 17 85 59 53 70
REMARK Flexibility Score: inf
ROOT
ATOM      1  C   UNL A   1      41.795  23.305  28.161  1.00  0.00     0.188 C 
ENDROOT
BRANCH   1   2
ATOM      2  O   UNL A   1      41.148  24.014  27.130  1.00  0.00    -0.377 OA
BRANCH   2   3
ATOM      3  C   UNL A   1      40.653  25.311  27.389  1.00  0.00     0.188 C 
BRANCH   3   4
ATOM      4  C   UNL A   1      39.635  25.628  28.509  1.00  0.00     0.188 C 
BRANCH   4   5
ATOM      5  O   UNL A   1      38.871  26.818  28.601  1.00  0.00    -0.376 OA
BRANCH   5   6
ATOM      6  C   UNL A   1      39.357  28.145  28.738  1.00  0.00     0.201 C 
BRANCH   6   7
ATOM      7  C   UNL A   1      38.532  29.410  28.401  1.00  0.00     0.260 C 
BRANCH   7   8
ATOM      8  O   UNL A   1      37.227  29.476  29.035  1.00  0.00    -0.475 OA
BRANCH   8   9
ATOM      9  C   UNL A   1      36.212  29.944  28.303  1.00  0.00     0.229 C 
ATOM     10  C   UNL A   1      35.981  32.218  29.642  1.00  0.00     0.029 C 
ATOM     11  C   UNL A   1      35.687  31.281  28.699  1.00  0.00     0.103 C 
ATOM     12  C   UNL A   1      34.446  31.635  27.903  1.00  0.00     0.262 C 
ATOM     13  O   UNL A   1      33.827  32.682  28.008  1.00  0.00    -0.269 OA
ATOM     14  N   UNL A   1      33.994  30.674  27.038  1.00  0.00    -0.297 N 
ATOM     15  N   UNL A   1      35.740  29.175  27.384  1.00  0.00    -0.184 NA
ATOM     16  C   UNL A   1      34.592  29.487  26.744  1.00  0.00     0.203 C 
ATOM     17  H   UNL A   1      33.143  30.861  26.579  1.00  0.00     0.172 HD
ATOM     18  S   UNL A   1      33.842  28.456  25.658  1.00  0.00    -0.038 S 
BRANCH  10  19
ATOM     19  C   UNL A   1      36.884  32.432  30.760  1.00  0.00    -0.003 A 
ATOM     20  C   UNL A   1      40.398  32.617  32.108  1.00  0.00     0.065 C 
ATOM     21  C   UNL A   1      38.944  32.611  31.794  1.00  0.00     0.020 A 
ATOM     22  C   UNL A   1      38.289  32.140  30.666  1.00  0.00     0.031 A 
ATOM     23  N   UNL A   1      37.975  33.075  32.651  1.00  0.00    -0.318 N 
ATOM     24  C   UNL A   1      36.763  33.099  31.964  1.00  0.00     0.027 A 
ATOM     25  C   UNL A   1      35.691  33.933  32.529  1.00  0.00     0.065 C 
BRANCH  23  26
ATOM     26  C   UNL A   1      38.113  33.643  33.953  1.00  0.00     0.046 A 
ATOM     27  C   UNL A   1      38.872  34.824  34.054  1.00  0.00     0.026 A 
ATOM     28  C   UNL A   1      37.862  32.855  35.084  1.00  0.00     0.036 A 
ATOM     29  C   UNL A   1      39.447  35.186  35.267  1.00  0.00     0.003 A 
ATOM     30  C   UNL A   1      38.442  33.231  36.309  1.00  0.00    -0.001 A 
ATOM     31  C   UNL A   1      39.243  34.385  36.387  1.00  0.00     0.010 A 
BRANCH  30  32
ATOM     32  C   UNL A   1      38.318  32.412  37.530  1.00  0.00     0.072 C 
ATOM     33  O   UNL A   1      39.042  32.531  38.531  1.00  0.00    -0.545 OA
ATOM     34  O   UNL A   1      37.354  31.493  37.478  1.00  0.00    -0.545 OA
ENDBRANCH  30  32
ENDBRANCH  23  26
ENDBRANCH  10  19
ENDBRANCH   8   9
ENDBRANCH   7   8
ENDBRANCH   6   7
ENDBRANCH   5   6
ENDBRANCH   4   5
ENDBRANCH   3   4
ENDBRANCH   2   3
ENDBRANCH   1   2
BRANCH   1  35
ATOM     35  C   UNL A   1      42.506  22.049  27.650  1.00  0.00     0.188 C 
BRANCH  35  36
ATOM     36  O   UNL A   1      42.377  21.766  26.266  1.00  0.00    -0.376 OA
BRANCH  36  37
ATOM     37  C   UNL A   1      43.032  20.603  25.743  1.00  0.00     0.202 C 
BRANCH  37  38
ATOM     38  C   UNL A   1      44.535  20.649  25.309  1.00  0.00     0.261 C 
BRANCH  38  39
ATOM     39  O   UNL A   1      45.519  21.626  25.834  1.00  0.00    -0.460 OA
BRANCH  39  40
ATOM     40  C   UNL A   1      45.899  22.624  24.956  1.00  0.00     0.338 C 
ATOM     41  O   UNL A   1      46.532  22.357  23.938  1.00  0.00    -0.246 OA
BRANCH  40  42
ATOM     42  C   UNL A   1      45.466  24.101  25.203  1.00  0.00     0.060 A 
ATOM     43  C   UNL A   1      46.471  25.058  25.232  1.00  0.00     0.016 A 
ATOM     44  C   UNL A   1      44.229  24.589  25.690  1.00  0.00     0.016 A 
ATOM     45  C   UNL A   1      46.246  26.411  25.693  1.00  0.00     0.010 A 
ATOM     46  C   UNL A   1      44.027  25.975  26.247  1.00  0.00     0.010 A 
ATOM     47  C   UNL A   1      45.044  26.951  26.300  1.00  0.00    -0.014 A 
BRANCH  47  48
ATOM     48  C   UNL A   1      45.212  28.366  27.220  1.00  0.00     0.031 A 
ATOM     49  C   UNL A   1      46.241  27.949  28.216  1.00  0.00     0.074 A 
ATOM     50  C   UNL A   1      44.744  29.672  27.518  1.00  0.00     0.049 A 
ATOM     51  N   UNL A   1      46.039  26.880  28.932  1.00  0.00    -0.248 NA
ATOM     52  C   UNL A   1      47.634  28.401  28.180  1.00  0.00     0.031 C 
ATOM     53  C   UNL A   1      43.594  30.398  26.942  1.00  0.00     0.029 A 
ATOM     54  N   UNL A   1      45.191  30.705  28.454  1.00  0.00    -0.354 N 
ATOM     55  C   UNL A   1      47.162  26.707  29.693  1.00  0.00     0.074 A 
ATOM     56  C   UNL A   1      48.175  27.518  29.028  1.00  0.00     0.031 C 
ATOM     57  C   UNL A   1      43.513  31.696  27.376  1.00  0.00     0.029 A 
ATOM     58  C   UNL A   1      44.555  32.021  28.360  1.00  0.00     0.049 A 
ATOM     59  H   UNL A   1      45.892  30.523  29.121  1.00  0.00     0.167 HD
ATOM     60  C   UNL A   1      46.944  26.521  31.026  1.00  0.00     0.034 A 
ATOM     61  C   UNL A   1      44.755  33.241  29.048  1.00  0.00     0.034 A 
ATOM     62  C   UNL A   1      47.235  27.711  31.778  1.00  0.00     0.049 A 
ATOM     63  C   UNL A   1      45.286  32.910  30.369  1.00  0.00     0.074 A 
ATOM     64  C   UNL A   1      48.273  28.620  31.738  1.00  0.00     0.029 A 
ATOM     65  N   UNL A   1      46.166  28.354  32.366  1.00  0.00    -0.354 N 
ATOM     66  N   UNL A   1      44.512  32.477  31.312  1.00  0.00    -0.248 NA
ATOM     67  C   UNL A   1      46.662  33.182  30.768  1.00  0.00     0.031 C 
ATOM     68  C   UNL A   1      47.643  29.880  31.814  1.00  0.00     0.029 A 
ATOM     69  C   UNL A   1      46.335  29.718  32.264  1.00  0.00     0.049 A 
ATOM     70  H   UNL A   1      45.400  27.908  32.794  1.00  0.00     0.167 HD
ATOM     71  C   UNL A   1      45.385  31.904  32.178  1.00  0.00     0.074 A 
ATOM     72  C   UNL A   1      46.635  32.613  31.975  1.00  0.00     0.031 C 
ATOM     73  C   UNL A   1      45.182  30.585  32.427  1.00  0.00     0.034 A 
BRANCH  60  74
ATOM     74  C   UNL A   1      45.799  25.585  31.323  1.00  0.00     0.023 A 
ATOM     75  C   UNL A   1      45.217  25.598  32.594  1.00  0.00     0.031 A 
ATOM     76  C   UNL A   1      45.380  24.583  30.417  1.00  0.00     0.131 A 
ATOM     77  C   UNL A   1      44.305  24.590  32.952  1.00  0.00     0.055 A 
ATOM     78  C   UNL A   1      44.529  23.549  30.797  1.00  0.00     0.041 A 
ATOM     79  F   UNL A   1      45.810  24.588  29.145  1.00  0.00    -0.206 F 
ATOM     80  C   UNL A   1      43.993  23.542  32.079  1.00  0.00     0.022 A 
BRANCH  77  81
ATOM     81  S   UNL A   1      43.503  24.685  34.574  1.00  0.00     0.124 S 
ATOM     82  O   UNL A   1      44.635  24.592  35.491  1.00  0.00    -0.237 OA
ATOM     83  O   UNL A   1      42.846  25.988  34.517  1.00  0.00    -0.237 OA
ATOM     84  O   UNL A   1      42.598  23.537  34.584  1.00  0.00    -0.744 OA
ENDBRANCH  77  81
ENDBRANCH  60  74
BRANCH  61  85
ATOM     85  C   UNL A   1      44.450  34.800  29.058  1.00  0.00     0.023 A 
ATOM     86  C   UNL A   1      45.354  35.793  28.469  1.00  0.00     0.031 A 
ATOM     87  C   UNL A   1      43.152  35.284  29.260  1.00  0.00     0.131 A 
ATOM     88  C   UNL A   1      44.942  37.111  28.088  1.00  0.00     0.055 A 
ATOM     89  C   UNL A   1      42.752  36.599  28.893  1.00  0.00     0.041 A 
ATOM     90  F   UNL A   1      42.194  34.468  29.721  1.00  0.00    -0.206 F 
ATOM     91  C   UNL A   1      43.629  37.504  28.293  1.00  0.00     0.022 A 
BRANCH  88  92
ATOM     92  S   UNL A   1      46.027  38.278  27.135  1.00  0.00     0.124 S 
ATOM     93  O   UNL A   1      46.931  38.794  28.154  1.00  0.00    -0.237 OA
ATOM     94  O   UNL A   1      46.616  37.420  26.112  1.00  0.00    -0.237 OA
ATOM     95  O   UNL A   1      45.085  39.269  26.607  1.00  0.00    -0.744 OA
ENDBRANCH  88  92
ENDBRANCH  61  85
BRANCH  73  96
ATOM     96  C   UNL A   1      43.730  30.128  32.632  1.00  0.00     0.023 A 
ATOM     97  C   UNL A   1      42.934  30.330  33.795  1.00  0.00     0.031 A 
ATOM     98  C   UNL A   1      43.143  29.357  31.617  1.00  0.00     0.131 A 
ATOM     99  C   UNL A   1      41.657  29.744  33.925  1.00  0.00     0.055 A 
ATOM    100  C   UNL A   1      41.857  28.818  31.722  1.00  0.00     0.041 A 
ATOM    101  F   UNL A   1      43.820  29.100  30.486  1.00  0.00    -0.206 F 
ATOM    102  C   UNL A   1      41.115  28.992  32.885  1.00  0.00     0.022 A 
BRANCH  99 103
ATOM    103  S   UNL A   1      40.726  29.880  35.492  1.00  0.00     0.124 S 
ATOM    104  O   UNL A   1      41.084  28.659  36.207  1.00  0.00    -0.237 OA
ATOM    105  O   UNL A   1      41.234  31.123  36.062  1.00  0.00    -0.237 OA
ATOM    106  O   UNL A   1      39.329  29.936  35.054  1.00  0.00    -0.744 OA
ENDBRANCH  99 103
ENDBRANCH  73  96
ENDBRANCH  47  48
ENDBRANCH  40  42
ENDBRANCH  39  40
ENDBRANCH  38  39
ENDBRANCH  37  38
ENDBRANCH  36  37
ENDBRANCH  35  36
ENDBRANCH   1  35
TORSDOF 25
ENDMDL
MODEL 2
REMARK VINA RESULT:      -8.3      3.256      6.251
REMARK SMILES Cc1cc(/C=C2/C(=O)NC(=S)N=C2OCCOCCOCCOCCOC(=O)c2ccc(-c3c4nc(c(-c5cc(S(=O)(=O)[O-])ccc5F)c5ccc([nH]5)c(-c5cc(S(=O)(=O)[O-])ccc5F)c5nc(c(-c6cc(S(=O)(=O)[O-])ccc6F)c6ccc3[nH]6)C=C5)C=C4)cc2)c(C)n1-c1cccc(C(=O)[O-])c1
REMARK SMILES IDX 21 1 20 2 19 3 18 4 17 5 16 6 15 7 14 8 13 9 5 10 6 11 7 12
REMARK SMILES IDX 8 13 9 14 12 15 10 16 11 18 4 19 1 20 2 21 3 22 94 23 92 24
REMARK SMILES IDX 93 25 95 26 96 27 103 28 97 29 99 30 98 31 100 32 101 33
REMARK SMILES IDX 102 34 22 35 23 36 24 37 25 38 26 39 27 40 28 41 29 42 30 43
REMARK SMILES IDX 91 44 31 45 90 46 32 47 33 48 34 49 84 50 35 51 89 52 83 53
REMARK SMILES IDX 85 54 36 55 88 56 82 57 81 58 37 60 69 61 49 62 68 63 50 64
REMARK SMILES IDX 53 65 67 66 86 67 51 68 52 69 66 71 87 72 54 73 38 74 39 75
REMARK SMILES IDX 47 76 40 77 46 78 48 79 45 80 41 81 42 82 43 83 44 84 70 85
REMARK SMILES IDX 71 86 79 87 72 88 78 89 80 90 77 91 73 92 74 93 75 94 76 95
REMARK SMILES IDX 55 96 56 97 64 98 57 99 63 100 65 101 62 102 58 103 59 104
REMARK SMILES IDX 60 105 61 106
REMARK H PARENT 9 17 85 59 53 70
REMARK Flexibility Score: inf
ROOT
ATOM      1  C   UNL A   1      41.613  23.324  28.589  1.00  0.00     0.188 C 
ENDROOT
BRANCH   1   2
ATOM      2  O   UNL A   1      41.447  24.209  27.506  1.00  0.00    -0.377 OA
BRANCH   2   3
ATOM      3  C   UNL A   1      41.387  25.598  27.752  1.00  0.00     0.188 C 
BRANCH   3   4
ATOM      4  C   UNL A   1      40.176  26.294  28.417  1.00  0.00     0.188 C 
BRANCH   4   5
ATOM      5  O   UNL A   1      39.440  27.362  27.846  1.00  0.00    -0.376 OA
BRANCH   5   6
ATOM      6  C   UNL A   1      38.477  28.185  28.488  1.00  0.00     0.201 C 
BRANCH   6   7
ATOM      7  C   UNL A   1      37.857  29.452  27.852  1.00  0.00     0.260 C 
BRANCH   7   8
ATOM      8  O   UNL A   1      36.409  29.532  27.938  1.00  0.00    -0.475 OA
BRANCH   8   9
ATOM      9  C   UNL A   1      35.874  30.733  28.177  1.00  0.00     0.229 C 
ATOM     10  C   UNL A   1      33.516  30.160  27.115  1.00  0.00     0.029 C 
ATOM     11  C   UNL A   1      34.467  30.920  27.725  1.00  0.00     0.103 C 
ATOM     12  C   UNL A   1      34.024  32.359  27.906  1.00  0.00     0.262 C 
ATOM     13  O   UNL A   1      32.911  32.784  27.640  1.00  0.00    -0.269 OA
ATOM     14  N   UNL A   1      34.978  33.226  28.372  1.00  0.00    -0.297 N 
ATOM     15  N   UNL A   1      36.637  31.629  28.701  1.00  0.00    -0.184 NA
ATOM     16  C   UNL A   1      36.238  32.917  28.782  1.00  0.00     0.203 C 
ATOM     17  H   UNL A   1      34.724  34.176  28.414  1.00  0.00     0.172 HD
ATOM     18  S   UNL A   1      37.240  34.153  29.303  1.00  0.00    -0.038 S 
BRANCH  10  19
ATOM     19  C   UNL A   1      33.339  28.832  26.553  1.00  0.00    -0.003 A 
ATOM     20  C   UNL A   1      31.523  25.530  26.529  1.00  0.00     0.065 C 
ATOM     21  C   UNL A   1      32.356  26.749  26.349  1.00  0.00     0.020 A 
ATOM     22  C   UNL A   1      32.499  27.849  27.183  1.00  0.00     0.031 A 
ATOM     23  N   UNL A   1      33.184  26.958  25.272  1.00  0.00    -0.318 N 
ATOM     24  C   UNL A   1      33.652  28.268  25.331  1.00  0.00     0.027 A 
ATOM     25  C   UNL A   1      34.204  28.838  24.092  1.00  0.00     0.065 C 
BRANCH  23  26
ATOM     26  C   UNL A   1      33.424  26.124  24.139  1.00  0.00     0.046 A 
ATOM     27  C   UNL A   1      32.374  25.995  23.210  1.00  0.00     0.026 A 
ATOM     28  C   UNL A   1      34.466  25.187  24.175  1.00  0.00     0.036 A 
ATOM     29  C   UNL A   1      32.317  24.893  22.363  1.00  0.00     0.003 A 
ATOM     30  C   UNL A   1      34.405  24.079  23.310  1.00  0.00    -0.001 A 
ATOM     31  C   UNL A   1      33.323  23.933  22.424  1.00  0.00     0.010 A 
BRANCH  30  32
ATOM     32  C   UNL A   1      35.401  22.991  23.346  1.00  0.00     0.072 C 
ATOM     33  O   UNL A   1      36.368  22.900  22.573  1.00  0.00    -0.545 OA
ATOM     34  O   UNL A   1      35.177  22.074  24.286  1.00  0.00    -0.545 OA
ENDBRANCH  30  32
ENDBRANCH  23  26
ENDBRANCH  10  19
ENDBRANCH   8   9
ENDBRANCH   7   8
ENDBRANCH   6   7
ENDBRANCH   5   6
ENDBRANCH   4   5
ENDBRANCH   3   4
ENDBRANCH   2   3
ENDBRANCH   1   2
BRANCH   1  35
ATOM     35  C   UNL A   1      42.644  22.229  28.297  1.00  0.00     0.188 C 
BRANCH  35  36
ATOM     36  O   UNL A   1      42.135  20.930  28.043  1.00  0.00    -0.376 OA
BRANCH  36  37
ATOM     37  C   UNL A   1      42.121  20.453  26.691  1.00  0.00     0.202 C 
BRANCH  37  38
ATOM     38  C   UNL A   1      43.218  20.895  25.667  1.00  0.00     0.261 C 
BRANCH  38  39
ATOM     39  O   UNL A   1      43.076  22.053  24.751  1.00  0.00    -0.460 OA
BRANCH  39  40
ATOM     40  C   UNL A   1      44.260  22.636  24.335  1.00  0.00     0.338 C 
ATOM     41  O   UNL A   1      44.627  22.549  23.167  1.00  0.00    -0.246 OA
BRANCH  40  42
ATOM     42  C   UNL A   1      45.115  23.481  25.328  1.00  0.00     0.060 A 
ATOM     43  C   UNL A   1      44.449  24.442  26.076  1.00  0.00     0.016 A 
ATOM     44  C   UNL A   1      46.523  23.620  25.384  1.00  0.00     0.016 A 
ATOM     45  C   UNL A   1      45.145  25.453  26.843  1.00  0.00     0.010 A 
ATOM     46  C   UNL A   1      47.235  24.728  26.117  1.00  0.00     0.010 A 
ATOM     47  C   UNL A   1      46.571  25.721  26.865  1.00  0.00    -0.014 A 
BRANCH  47  48
ATOM     48  C   UNL A   1      47.059  27.255  27.401  1.00  0.00     0.031 A 
ATOM     49  C   UNL A   1      47.881  26.903  28.595  1.00  0.00     0.074 A 
ATOM     50  C   UNL A   1      46.943  28.664  27.286  1.00  0.00     0.049 A 
ATOM     51  N   UNL A   1      47.359  26.163  29.532  1.00  0.00    -0.248 NA
ATOM     52  C   UNL A   1      49.344  26.975  28.623  1.00  0.00     0.031 C 
ATOM     53  C   UNL A   1      46.064  29.452  26.397  1.00  0.00     0.029 A 
ATOM     54  N   UNL A   1      47.597  29.781  27.972  1.00  0.00    -0.354 N 
ATOM     55  C   UNL A   1      48.349  25.948  30.450  1.00  0.00     0.074 A 
ATOM     56  C   UNL A   1      49.579  26.266  29.734  1.00  0.00     0.031 C 
ATOM     57  C   UNL A   1      46.311  30.800  26.466  1.00  0.00     0.029 A 
ATOM     58  C   UNL A   1      47.343  31.129  27.458  1.00  0.00     0.049 A 
ATOM     59  H   UNL A   1      48.183  29.632  28.748  1.00  0.00     0.167 HD
ATOM     60  C   UNL A   1      48.013  26.207  31.746  1.00  0.00     0.034 A 
ATOM     61  C   UNL A   1      47.823  32.408  27.825  1.00  0.00     0.034 A 
ATOM     62  C   UNL A   1      48.569  27.454  32.194  1.00  0.00     0.049 A 
ATOM     63  C   UNL A   1      48.169  32.348  29.244  1.00  0.00     0.074 A 
ATOM     64  C   UNL A   1      49.813  28.035  32.054  1.00  0.00     0.029 A 
ATOM     65  N   UNL A   1      47.680  28.476  32.452  1.00  0.00    -0.354 N 
ATOM     66  N   UNL A   1      47.255  32.402  30.159  1.00  0.00    -0.248 NA
ATOM     67  C   UNL A   1      49.543  32.381  29.733  1.00  0.00     0.031 C 
ATOM     68  C   UNL A   1      49.541  29.378  31.718  1.00  0.00     0.029 A 
ATOM     69  C   UNL A   1      48.214  29.672  32.022  1.00  0.00     0.049 A 
ATOM     70  H   UNL A   1      46.799  28.369  32.878  1.00  0.00     0.167 HD
ATOM     71  C   UNL A   1      47.892  31.905  31.249  1.00  0.00     0.074 A 
ATOM     72  C   UNL A   1      49.295  32.203  31.032  1.00  0.00     0.031 C 
ATOM     73  C   UNL A   1      47.328  30.802  31.804  1.00  0.00     0.034 A 
BRANCH  60  74
ATOM     74  C   UNL A   1      46.644  25.700  32.125  1.00  0.00     0.023 A 
ATOM     75  C   UNL A   1      46.531  24.681  33.076  1.00  0.00     0.031 A 
ATOM     76  C   UNL A   1      45.468  26.105  31.450  1.00  0.00     0.131 A 
ATOM     77  C   UNL A   1      45.290  24.051  33.277  1.00  0.00     0.055 A 
ATOM     78  C   UNL A   1      44.258  25.434  31.603  1.00  0.00     0.041 A 
ATOM     79  F   UNL A   1      45.487  27.156  30.615  1.00  0.00    -0.206 F 
ATOM     80  C   UNL A   1      44.166  24.390  32.515  1.00  0.00     0.022 A 
BRANCH  77  81
ATOM     81  S   UNL A   1      45.157  22.796  34.576  1.00  0.00     0.124 S 
ATOM     82  O   UNL A   1      45.951  21.697  34.035  1.00  0.00    -0.237 OA
ATOM     83  O   UNL A   1      45.737  23.483  35.727  1.00  0.00    -0.237 OA
ATOM     84  O   UNL A   1      43.721  22.540  34.670  1.00  0.00    -0.744 OA
ENDBRANCH  77  81
ENDBRANCH  60  74
BRANCH  61  85
ATOM     85  C   UNL A   1      47.947  33.931  27.391  1.00  0.00     0.023 A 
ATOM     86  C   UNL A   1      49.124  34.470  26.702  1.00  0.00     0.031 A 
ATOM     87  C   UNL A   1      46.816  34.747  27.274  1.00  0.00     0.131 A 
ATOM     88  C   UNL A   1      49.109  35.683  25.940  1.00  0.00     0.055 A 
ATOM     89  C   UNL A   1      46.810  35.958  26.528  1.00  0.00     0.041 A 
ATOM     90  F   UNL A   1      45.643  34.348  27.787  1.00  0.00    -0.206 F 
ATOM     91  C   UNL A   1      47.938  36.419  25.847  1.00  0.00     0.022 A 
BRANCH  88  92
ATOM     92  S   UNL A   1      50.533  36.236  24.885  1.00  0.00     0.124 S 
ATOM     93  O   UNL A   1      51.233  34.992  24.596  1.00  0.00    -0.237 OA
ATOM     94  O   UNL A   1      49.875  36.893  23.760  1.00  0.00    -0.237 OA
ATOM     95  O   UNL A   1      51.270  37.155  25.758  1.00  0.00    -0.744 OA
ENDBRANCH  88  92
ENDBRANCH  61  85
BRANCH  73  96
ATOM     96  C   UNL A   1      45.798  30.787  31.930  1.00  0.00     0.023 A 
ATOM     97  C   UNL A   1      44.880  30.150  31.047  1.00  0.00     0.031 A 
ATOM     98  C   UNL A   1      45.224  31.545  32.962  1.00  0.00     0.131 A 
ATOM     99  C   UNL A   1      43.487  30.319  31.184  1.00  0.00     0.055 A 
ATOM    100  C   UNL A   1      43.842  31.673  33.131  1.00  0.00     0.041 A 
ATOM    101  F   UNL A   1      46.007  32.195  33.839  1.00  0.00    -0.206 F 
ATOM    102  C   UNL A   1      42.966  31.077  32.230  1.00  0.00     0.022 A 
BRANCH  99 103
ATOM    103  S   UNL A   1      42.338  29.628  29.941  1.00  0.00     0.124 S 
ATOM    104  O   UNL A   1      42.459  30.550  28.817  1.00  0.00    -0.237 OA
ATOM    105  O   UNL A   1      42.869  28.286  29.724  1.00  0.00    -0.237 OA
ATOM    106  O   UNL A   1      41.040  29.667  30.618  1.00  0.00    -0.744 OA
ENDBRANCH  99 103
ENDBRANCH  73  96
ENDBRANCH  47  48
ENDBRANCH  40  42
ENDBRANCH  39  40
ENDBRANCH  38  39
ENDBRANCH  37  38
ENDBRANCH  36  37
ENDBRANCH  35  36
ENDBRANCH   1  35
TORSDOF 25
ENDMDL
MODEL 3
REMARK VINA RESULT:      -8.1      4.624     10.833
REMARK SMILES Cc1cc(/C=C2/C(=O)NC(=S)N=C2OCCOCCOCCOCCOC(=O)c2ccc(-c3c4nc(c(-c5cc(S(=O)(=O)[O-])ccc5F)c5ccc([nH]5)c(-c5cc(S(=O)(=O)[O-])ccc5F)c5nc(c(-c6cc(S(=O)(=O)[O-])ccc6F)c6ccc3[nH]6)C=C5)C=C4)cc2)c(C)n1-c1cccc(C(=O)[O-])c1
REMARK SMILES IDX 21 1 20 2 19 3 18 4 17 5 16 6 15 7 14 8 13 9 5 10 6 11 7 12
REMARK SMILES IDX 8 13 9 14 12 15 10 16 11 18 4 19 1 20 2 21 3 22 94 23 92 24
REMARK SMILES IDX 93 25 95 26 96 27 103 28 97 29 99 30 98 31 100 32 101 33
REMARK SMILES IDX 102 34 22 35 23 36 24 37 25 38 26 39 27 40 28 41 29 42 30 43
REMARK SMILES IDX 91 44 31 45 90 46 32 47 33 48 34 49 84 50 35 51 89 52 83 53
REMARK SMILES IDX 85 54 36 55 88 56 82 57 81 58 37 60 69 61 49 62 68 63 50 64
REMARK SMILES IDX 53 65 67 66 86 67 51 68 52 69 66 71 87 72 54 73 38 74 39 75
REMARK SMILES IDX 47 76 40 77 46 78 48 79 45 80 41 81 42 82 43 83 44 84 70 85
REMARK SMILES IDX 71 86 79 87 72 88 78 89 80 90 77 91 73 92 74 93 75 94 76 95
REMARK SMILES IDX 55 96 56 97 64 98 57 99 63 100 65 101 62 102 58 103 59 104
REMARK SMILES IDX 60 105 61 106
REMARK H PARENT 9 17 85 59 53 70
REMARK Flexibility Score: inf
ROOT
ATOM      1  C   UNL A   1      39.091  29.258  31.348  1.00  0.00     0.188 C 
ENDROOT
BRANCH   1   2
ATOM      2  O   UNL A   1      38.747  29.360  29.986  1.00  0.00    -0.377 OA
BRANCH   2   3
ATOM      3  C   UNL A   1      39.770  29.514  29.025  1.00  0.00     0.188 C 
BRANCH   3   4
ATOM      4  C   UNL A   1      39.674  28.965  27.582  1.00  0.00     0.188 C 
BRANCH   4   5
ATOM      5  O   UNL A   1      39.676  27.591  27.233  1.00  0.00    -0.376 OA
BRANCH   5   6
ATOM      6  C   UNL A   1      40.665  26.624  27.547  1.00  0.00     0.201 C 
BRANCH   6   7
ATOM      7  C   UNL A   1      40.369  25.122  27.778  1.00  0.00     0.260 C 
BRANCH   7   8
ATOM      8  O   UNL A   1      40.501  24.286  26.598  1.00  0.00    -0.475 OA
BRANCH   8   9
ATOM      9  C   UNL A   1      41.501  23.399  26.584  1.00  0.00     0.229 C 
ATOM     10  C   UNL A   1      40.011  21.371  25.758  1.00  0.00     0.029 C 
ATOM     11  C   UNL A   1      41.138  22.016  26.167  1.00  0.00     0.103 C 
ATOM     12  C   UNL A   1      42.311  21.070  26.339  1.00  0.00     0.262 C 
ATOM     13  O   UNL A   1      42.298  19.884  26.051  1.00  0.00    -0.269 OA
ATOM     14  N   UNL A   1      43.441  21.612  26.894  1.00  0.00    -0.297 N 
ATOM     15  N   UNL A   1      42.653  23.799  26.997  1.00  0.00    -0.184 NA
ATOM     16  C   UNL A   1      43.656  22.918  27.208  1.00  0.00     0.203 C 
ATOM     17  H   UNL A   1      44.178  20.987  27.086  1.00  0.00     0.172 HD
ATOM     18  S   UNL A   1      45.121  23.349  27.895  1.00  0.00    -0.038 S 
BRANCH  10  19
ATOM     19  C   UNL A   1      38.596  21.623  25.543  1.00  0.00    -0.003 A 
ATOM     20  C   UNL A   1      35.122  20.308  24.909  1.00  0.00     0.065 C 
ATOM     21  C   UNL A   1      36.390  21.041  25.172  1.00  0.00     0.020 A 
ATOM     22  C   UNL A   1      37.698  20.584  25.115  1.00  0.00     0.031 A 
ATOM     23  N   UNL A   1      36.449  22.374  25.500  1.00  0.00    -0.318 N 
ATOM     24  C   UNL A   1      37.759  22.675  25.863  1.00  0.00     0.027 A 
ATOM     25  C   UNL A   1      37.973  23.908  26.637  1.00  0.00     0.065 C 
BRANCH  23  26
ATOM     26  C   UNL A   1      35.387  23.314  25.665  1.00  0.00     0.046 A 
ATOM     27  C   UNL A   1      34.539  23.126  26.773  1.00  0.00     0.026 A 
ATOM     28  C   UNL A   1      34.982  24.102  24.580  1.00  0.00     0.036 A 
ATOM     29  C   UNL A   1      33.255  23.661  26.773  1.00  0.00     0.003 A 
ATOM     30  C   UNL A   1      33.685  24.646  24.590  1.00  0.00    -0.001 A 
ATOM     31  C   UNL A   1      32.826  24.406  25.678  1.00  0.00     0.010 A 
BRANCH  30  32
ATOM     32  C   UNL A   1      33.134  25.403  23.449  1.00  0.00     0.072 C 
ATOM     33  O   UNL A   1      33.815  26.078  22.661  1.00  0.00    -0.545 OA
ATOM     34  O   UNL A   1      31.810  25.323  23.327  1.00  0.00    -0.545 OA
ENDBRANCH  30  32
ENDBRANCH  23  26
ENDBRANCH  10  19
ENDBRANCH   8   9
ENDBRANCH   7   8
ENDBRANCH   6   7
ENDBRANCH   5   6
ENDBRANCH   4   5
ENDBRANCH   3   4
ENDBRANCH   2   3
ENDBRANCH   1   2
BRANCH   1  35
ATOM     35  C   UNL A   1      37.959  29.714  32.273  1.00  0.00     0.188 C 
BRANCH  35  36
ATOM     36  O   UNL A   1      38.260  29.782  33.658  1.00  0.00    -0.376 OA
BRANCH  36  37
ATOM     37  C   UNL A   1      39.014  30.903  34.139  1.00  0.00     0.202 C 
BRANCH  37  38
ATOM     38  C   UNL A   1      38.356  32.314  34.292  1.00  0.00     0.261 C 
BRANCH  38  39
ATOM     39  O   UNL A   1      38.672  33.473  33.423  1.00  0.00    -0.460 OA
BRANCH  39  40
ATOM     40  C   UNL A   1      38.210  33.390  32.122  1.00  0.00     0.338 C 
ATOM     41  O   UNL A   1      37.056  33.042  31.886  1.00  0.00    -0.246 OA
BRANCH  40  42
ATOM     42  C   UNL A   1      39.125  33.809  30.931  1.00  0.00     0.060 A 
ATOM     43  C   UNL A   1      40.444  34.123  31.227  1.00  0.00     0.016 A 
ATOM     44  C   UNL A   1      38.748  34.198  29.622  1.00  0.00     0.016 A 
ATOM     45  C   UNL A   1      41.327  34.759  30.273  1.00  0.00     0.010 A 
ATOM     46  C   UNL A   1      39.651  34.936  28.667  1.00  0.00     0.010 A 
ATOM     47  C   UNL A   1      40.987  35.278  28.961  1.00  0.00    -0.014 A 
BRANCH  47  48
ATOM     48  C   UNL A   1      42.039  36.426  28.288  1.00  0.00     0.031 A 
ATOM     49  C   UNL A   1      43.051  35.548  27.632  1.00  0.00     0.074 A 
ATOM     50  C   UNL A   1      42.425  37.786  28.177  1.00  0.00     0.049 A 
ATOM     51  N   UNL A   1      43.656  34.634  28.336  1.00  0.00    -0.248 NA
ATOM     52  C   UNL A   1      43.136  35.353  26.182  1.00  0.00     0.031 C 
ATOM     53  C   UNL A   1      41.851  38.970  28.848  1.00  0.00     0.029 A 
ATOM     54  N   UNL A   1      43.475  38.469  27.417  1.00  0.00    -0.354 N 
ATOM     55  C   UNL A   1      44.461  33.949  27.470  1.00  0.00     0.074 A 
ATOM     56  C   UNL A   1      43.932  34.276  26.151  1.00  0.00     0.031 C 
ATOM     57  C   UNL A   1      42.396  40.149  28.404  1.00  0.00     0.029 A 
ATOM     58  C   UNL A   1      43.463  39.933  27.418  1.00  0.00     0.049 A 
ATOM     59  H   UNL A   1      44.163  37.964  26.926  1.00  0.00     0.167 HD
ATOM     60  C   UNL A   1      45.757  33.802  27.866  1.00  0.00     0.034 A 
ATOM     61  C   UNL A   1      44.268  40.905  26.778  1.00  0.00     0.034 A 
ATOM     62  C   UNL A   1      46.629  34.703  27.164  1.00  0.00     0.049 A 
ATOM     63  C   UNL A   1      45.583  40.303  26.563  1.00  0.00     0.074 A 
ATOM     64  C   UNL A   1      46.731  35.072  25.838  1.00  0.00     0.029 A 
ATOM     65  N   UNL A   1      47.210  35.712  27.904  1.00  0.00    -0.354 N 
ATOM     66  N   UNL A   1      46.437  40.197  27.531  1.00  0.00    -0.248 NA
ATOM     67  C   UNL A   1      46.083  39.929  25.245  1.00  0.00     0.031 C 
ATOM     68  C   UNL A   1      46.884  36.475  25.872  1.00  0.00     0.029 A 
ATOM     69  C   UNL A   1      47.240  36.871  27.159  1.00  0.00     0.049 A 
ATOM     70  H   UNL A   1      47.550  35.619  28.823  1.00  0.00     0.167 HD
ATOM     71  C   UNL A   1      47.297  39.254  27.069  1.00  0.00     0.074 A 
ATOM     72  C   UNL A   1      47.231  39.361  25.623  1.00  0.00     0.031 C 
ATOM     73  C   UNL A   1      47.414  38.142  27.839  1.00  0.00     0.034 A 
BRANCH  60  74
ATOM     74  C   UNL A   1      45.902  33.440  29.324  1.00  0.00     0.023 A 
ATOM     75  C   UNL A   1      45.222  34.194  30.286  1.00  0.00     0.031 A 
ATOM     76  C   UNL A   1      46.816  32.462  29.779  1.00  0.00     0.131 A 
ATOM     77  C   UNL A   1      45.517  34.011  31.649  1.00  0.00     0.055 A 
ATOM     78  C   UNL A   1      47.154  32.331  31.123  1.00  0.00     0.041 A 
ATOM     79  F   UNL A   1      47.410  31.625  28.913  1.00  0.00    -0.206 F 
ATOM     80  C   UNL A   1      46.509  33.119  32.069  1.00  0.00     0.022 A 
BRANCH  77  81
ATOM     81  S   UNL A   1      44.557  34.939  32.873  1.00  0.00     0.124 S 
ATOM     82  O   UNL A   1      43.861  35.922  32.049  1.00  0.00    -0.237 OA
ATOM     83  O   UNL A   1      43.714  33.899  33.456  1.00  0.00    -0.237 OA
ATOM     84  O   UNL A   1      45.572  35.487  33.771  1.00  0.00    -0.744 OA
ENDBRANCH  77  81
ENDBRANCH  60  74
BRANCH  61  85
ATOM     85  C   UNL A   1      44.401  42.439  26.386  1.00  0.00     0.023 A 
ATOM     86  C   UNL A   1      45.259  43.378  27.117  1.00  0.00     0.031 A 
ATOM     87  C   UNL A   1      44.040  42.896  25.113  1.00  0.00     0.131 A 
ATOM     88  C   UNL A   1      45.726  44.615  26.569  1.00  0.00     0.055 A 
ATOM     89  C   UNL A   1      44.495  44.134  24.579  1.00  0.00     0.041 A 
ATOM     90  F   UNL A   1      43.321  42.114  24.297  1.00  0.00    -0.206 F 
ATOM     91  C   UNL A   1      45.347  44.982  25.287  1.00  0.00     0.022 A 
BRANCH  88  92
ATOM     92  S   UNL A   1      46.992  45.683  27.408  1.00  0.00     0.124 S 
ATOM     93  O   UNL A   1      46.216  46.840  27.836  1.00  0.00    -0.237 OA
ATOM     94  O   UNL A   1      47.510  44.816  28.460  1.00  0.00    -0.237 OA
ATOM     95  O   UNL A   1      47.960  45.968  26.344  1.00  0.00    -0.744 OA
ENDBRANCH  88  92
ENDBRANCH  61  85
BRANCH  73  96
ATOM     96  C   UNL A   1      47.492  38.350  29.359  1.00  0.00     0.023 A 
ATOM     97  C   UNL A   1      48.625  38.797  30.096  1.00  0.00     0.031 A 
ATOM     98  C   UNL A   1      46.374  37.983  30.123  1.00  0.00     0.131 A 
ATOM     99  C   UNL A   1      48.626  38.818  31.507  1.00  0.00     0.055 A 
ATOM    100  C   UNL A   1      46.354  38.051  31.519  1.00  0.00     0.041 A 
ATOM    101  F   UNL A   1      45.261  37.535  29.519  1.00  0.00    -0.206 F 
ATOM    102  C   UNL A   1      47.487  38.450  32.219  1.00  0.00     0.022 A 
BRANCH  99 103
ATOM    103  S   UNL A   1      50.146  39.237  32.431  1.00  0.00     0.124 S 
ATOM    104  O   UNL A   1      49.913  40.611  32.862  1.00  0.00    -0.237 OA
ATOM    105  O   UNL A   1      50.168  38.232  33.489  1.00  0.00    -0.237 OA
ATOM    106  O   UNL A   1      51.205  39.090  31.430  1.00  0.00    -0.744 OA
ENDBRANCH  99 103
ENDBRANCH  73  96
ENDBRANCH  47  48
ENDBRANCH  40  42
ENDBRANCH  39  40
ENDBRANCH  38  39
ENDBRANCH  37  38
ENDBRANCH  36  37
ENDBRANCH  35  36
ENDBRANCH   1  35
TORSDOF 25
ENDMDL
