MODEL 1
REMARK VINA RESULT:      -7.9      0.000      0.000
REMARK SMILES O=C(OCCOCCOCCOCCOC(=O)[C@H]1CCC[C@@H]1C[NH2+][C@@H]1CCOC2(CCC2)C1)c1ccc(-c2c3nc(c(-c4cc(S(=O)(=O)[O-])ccc4F)c4ccc([nH]4)c(-c4cc(S(=O)(=O)[O-])ccc4F)c4nc(c(-c5cc(S(=O)(=O)[O-])ccc5F)c5ccc2[nH]5)C=C4)C=C3)cc1
REMARK SMILES IDX 9 1 8 2 7 3 6 4 5 5 4 6 3 7 2 8 1 9 34 10 35 11 96 12 36 13
REMARK SMILES IDX 95 14 37 15 38 16 39 17 89 18 40 19 94 20 88 21 90 22 41 23
REMARK SMILES IDX 93 24 87 25 86 26 42 28 74 29 54 30 73 31 55 32 58 33 72 34
REMARK SMILES IDX 91 35 56 36 57 37 71 39 92 40 59 41 43 42 44 43 52 44 45 45
REMARK SMILES IDX 51 46 53 47 50 48 46 49 47 50 48 51 49 52 75 53 76 54 84 55
REMARK SMILES IDX 77 56 83 57 85 58 82 59 78 60 79 61 80 62 81 63 60 64 61 65
REMARK SMILES IDX 69 66 62 67 68 68 70 69 67 70 63 71 64 72 65 73 66 74 10 75
REMARK SMILES IDX 11 76 12 77 13 78 14 79 15 80 16 81 17 82 18 83 19 84 22 85
REMARK SMILES IDX 20 86 21 87 23 88 24 89 25 92 26 93 33 94 27 95 29 96 28 97
REMARK SMILES IDX 30 98 32 99 31 100
REMARK H PARENT 90 27 58 38 24 90 24 91
REMARK Flexibility Score: inf
ROOT
ATOM      1  O   UNL A   1      41.844  19.502  27.166  1.00  0.00    -0.377 OA
ENDROOT
BRANCH   1   2
ATOM      2  C   UNL A   1      42.086  19.159  25.811  1.00  0.00     0.188 C 
BRANCH   2   3
ATOM      3  C   UNL A   1      43.495  18.654  25.503  1.00  0.00     0.188 C 
BRANCH   3   4
ATOM      4  O   UNL A   1      43.997  19.132  24.259  1.00  0.00    -0.376 OA
BRANCH   4   5
ATOM      5  C   UNL A   1      45.355  19.571  24.219  1.00  0.00     0.202 C 
BRANCH   5   6
ATOM      6  C   UNL A   1      45.758  20.479  25.379  1.00  0.00     0.261 C 
BRANCH   6   7
ATOM      7  O   UNL A   1      46.435  21.662  24.942  1.00  0.00    -0.460 OA
BRANCH   7   8
ATOM      8  C   UNL A   1      45.915  22.900  24.749  1.00  0.00     0.338 C 
ATOM      9  O   UNL A   1      45.748  23.263  23.583  1.00  0.00    -0.246 OA
BRANCH   8  10
ATOM     10  C   UNL A   1      45.576  23.882  25.838  1.00  0.00     0.060 A 
ATOM     11  C   UNL A   1      44.294  24.262  26.248  1.00  0.00     0.016 A 
ATOM     12  C   UNL A   1      46.665  24.422  26.548  1.00  0.00     0.016 A 
ATOM     13  C   UNL A   1      44.085  25.140  27.299  1.00  0.00     0.010 A 
ATOM     14  C   UNL A   1      46.471  25.334  27.590  1.00  0.00     0.010 A 
ATOM     15  C   UNL A   1      45.173  25.712  27.943  1.00  0.00    -0.014 A 
BRANCH  15  16
ATOM     16  C   UNL A   1      44.898  26.898  28.767  1.00  0.00     0.031 A 
ATOM     17  C   UNL A   1      44.640  26.657  30.224  1.00  0.00     0.074 A 
ATOM     18  C   UNL A   1      45.070  28.130  28.260  1.00  0.00     0.049 A 
ATOM     19  N   UNL A   1      44.317  27.500  31.163  1.00  0.00    -0.248 NA
ATOM     20  C   UNL A   1      44.790  25.265  30.691  1.00  0.00     0.031 C 
ATOM     21  C   UNL A   1      45.518  28.426  26.897  1.00  0.00     0.029 A 
ATOM     22  N   UNL A   1      44.921  29.361  28.838  1.00  0.00    -0.354 N 
ATOM     23  C   UNL A   1      44.194  26.739  32.320  1.00  0.00     0.074 A 
ATOM     24  C   UNL A   1      44.475  25.367  31.971  1.00  0.00     0.031 C 
ATOM     25  C   UNL A   1      45.605  29.759  26.746  1.00  0.00     0.029 A 
ATOM     26  C   UNL A   1      45.143  30.404  27.969  1.00  0.00     0.049 A 
ATOM     27  H   UNL A   1      44.679  29.488  29.783  1.00  0.00     0.167 HD
ATOM     28  C   UNL A   1      43.858  27.164  33.559  1.00  0.00     0.034 A 
ATOM     29  C   UNL A   1      44.933  31.723  28.148  1.00  0.00     0.034 A 
ATOM     30  C   UNL A   1      43.573  28.545  33.843  1.00  0.00     0.049 A 
ATOM     31  C   UNL A   1      44.410  32.157  29.499  1.00  0.00     0.074 A 
ATOM     32  C   UNL A   1      43.129  29.118  35.017  1.00  0.00     0.029 A 
ATOM     33  N   UNL A   1      43.703  29.576  32.915  1.00  0.00    -0.354 N 
ATOM     34  N   UNL A   1      44.186  31.426  30.570  1.00  0.00    -0.248 NA
ATOM     35  C   UNL A   1      44.103  33.579  29.666  1.00  0.00     0.031 C 
ATOM     36  C   UNL A   1      42.918  30.480  34.778  1.00  0.00     0.029 A 
ATOM     37  C   UNL A   1      43.319  30.777  33.482  1.00  0.00     0.049 A 
ATOM     38  H   UNL A   1      44.022  29.466  31.990  1.00  0.00     0.167 HD
ATOM     39  C   UNL A   1      43.740  32.308  31.548  1.00  0.00     0.074 A 
ATOM     40  C   UNL A   1      43.749  33.625  30.942  1.00  0.00     0.031 C 
ATOM     41  C   UNL A   1      43.354  32.065  32.828  1.00  0.00     0.034 A 
BRANCH  28  42
ATOM     42  C   UNL A   1      43.666  26.110  34.619  1.00  0.00     0.023 A 
ATOM     43  C   UNL A   1      44.747  25.420  35.198  1.00  0.00     0.031 A 
ATOM     44  C   UNL A   1      42.366  25.725  34.990  1.00  0.00     0.131 A 
ATOM     45  C   UNL A   1      44.505  24.336  36.058  1.00  0.00     0.055 A 
ATOM     46  C   UNL A   1      42.133  24.700  35.907  1.00  0.00     0.041 A 
ATOM     47  F   UNL A   1      41.296  26.319  34.440  1.00  0.00    -0.206 F 
ATOM     48  C   UNL A   1      43.205  23.989  36.436  1.00  0.00     0.022 A 
BRANCH  45  49
ATOM     49  S   UNL A   1      45.900  23.289  36.557  1.00  0.00     0.124 S 
ATOM     50  O   UNL A   1      46.265  23.876  37.845  1.00  0.00    -0.237 OA
ATOM     51  O   UNL A   1      45.299  21.962  36.609  1.00  0.00    -0.237 OA
ATOM     52  O   UNL A   1      46.879  23.488  35.490  1.00  0.00    -0.744 OA
ENDBRANCH  45  49
ENDBRANCH  28  42
BRANCH  29  53
ATOM     53  C   UNL A   1      45.110  32.697  27.028  1.00  0.00     0.023 A 
ATOM     54  C   UNL A   1      46.201  33.580  26.988  1.00  0.00     0.031 A 
ATOM     55  C   UNL A   1      44.135  32.823  26.017  1.00  0.00     0.131 A 
ATOM     56  C   UNL A   1      46.259  34.583  26.005  1.00  0.00     0.055 A 
ATOM     57  C   UNL A   1      44.234  33.775  25.000  1.00  0.00     0.041 A 
ATOM     58  F   UNL A   1      43.059  32.020  26.004  1.00  0.00    -0.206 F 
ATOM     59  C   UNL A   1      45.292  34.676  25.002  1.00  0.00     0.022 A 
BRANCH  56  60
ATOM     60  S   UNL A   1      47.550  35.852  26.133  1.00  0.00     0.124 S 
ATOM     61  O   UNL A   1      48.537  35.369  25.174  1.00  0.00    -0.237 OA
ATOM     62  O   UNL A   1      46.825  37.061  25.755  1.00  0.00    -0.237 OA
ATOM     63  O   UNL A   1      47.957  35.784  27.535  1.00  0.00    -0.744 OA
ENDBRANCH  56  60
ENDBRANCH  29  53
BRANCH  41  64
ATOM     64  C   UNL A   1      42.972  33.262  33.656  1.00  0.00     0.023 A 
ATOM     65  C   UNL A   1      41.639  33.516  34.015  1.00  0.00     0.031 A 
ATOM     66  C   UNL A   1      43.966  34.154  34.097  1.00  0.00     0.131 A 
ATOM     67  C   UNL A   1      41.327  34.671  34.743  1.00  0.00     0.055 A 
ATOM     68  C   UNL A   1      43.656  35.260  34.886  1.00  0.00     0.041 A 
ATOM     69  F   UNL A   1      45.255  33.954  33.780  1.00  0.00    -0.206 F 
ATOM     70  C   UNL A   1      42.328  35.531  35.201  1.00  0.00     0.022 A 
BRANCH  67  71
ATOM     71  S   UNL A   1      39.581  35.085  34.997  1.00  0.00     0.124 S 
ATOM     72  O   UNL A   1      39.167  34.073  35.963  1.00  0.00    -0.237 OA
ATOM     73  O   UNL A   1      39.654  36.453  35.500  1.00  0.00    -0.237 OA
ATOM     74  O   UNL A   1      38.999  34.946  33.663  1.00  0.00    -0.744 OA
ENDBRANCH  67  71
ENDBRANCH  41  64
ENDBRANCH  15  16
ENDBRANCH   8  10
ENDBRANCH   7   8
ENDBRANCH   6   7
ENDBRANCH   5   6
ENDBRANCH   4   5
ENDBRANCH   3   4
ENDBRANCH   2   3
ENDBRANCH   1   2
BRANCH   1  75
ATOM     75  C   UNL A   1      41.562  20.870  27.427  1.00  0.00     0.188 C 
BRANCH  75  76
ATOM     76  C   UNL A   1      40.980  21.764  26.290  1.00  0.00     0.188 C 
BRANCH  76  77
ATOM     77  O   UNL A   1      39.635  22.148  26.498  1.00  0.00    -0.376 OA
BRANCH  77  78
ATOM     78  C   UNL A   1      39.449  23.467  26.994  1.00  0.00     0.202 C 
BRANCH  78  79
ATOM     79  C   UNL A   1      40.469  24.500  26.492  1.00  0.00     0.261 C 
BRANCH  79  80
ATOM     80  O   UNL A   1      40.025  25.884  26.439  1.00  0.00    -0.463 OA
BRANCH  80  81
ATOM     81  C   UNL A   1      40.907  26.901  26.667  1.00  0.00     0.309 C 
ATOM     82  O   UNL A   1      41.778  27.234  25.889  1.00  0.00    -0.252 OA
BRANCH  81  83
ATOM     83  C   UNL A   1      40.643  27.552  28.047  1.00  0.00     0.108 C 
ATOM     84  C   UNL A   1      40.821  29.059  27.910  1.00  0.00     0.016 C 
ATOM     85  C   UNL A   1      39.253  27.409  28.740  1.00  0.00     0.058 C 
ATOM     86  C   UNL A   1      39.418  29.613  27.697  1.00  0.00     0.001 C 
ATOM     87  C   UNL A   1      38.427  28.569  28.191  1.00  0.00     0.010 C 
BRANCH  85  88
ATOM     88  C   UNL A   1      39.200  27.338  30.307  1.00  0.00     0.265 C 
BRANCH  88  89
ATOM     89  N   UNL A   1      38.933  28.604  30.983  1.00  0.00    -0.343 N 
ATOM     90  H   UNL A   1      38.211  28.431  31.681  1.00  0.00     0.346 HD
ATOM     91  H   UNL A   1      38.672  29.247  30.236  1.00  0.00     0.346 HD
BRANCH  89  92
ATOM     92  C   UNL A   1      40.063  29.261  31.668  1.00  0.00     0.187 C 
ATOM     93  C   UNL A   1      39.710  29.415  33.165  1.00  0.00     0.093 C 
ATOM     94  C   UNL A   1      40.490  30.651  31.148  1.00  0.00     0.100 C 
ATOM     95  C   UNL A   1      38.677  30.516  33.406  1.00  0.00     0.167 C 
ATOM     96  C   UNL A   1      39.387  31.688  31.382  1.00  0.00     0.074 C 
ATOM     97  O   UNL A   1      39.084  31.746  32.800  1.00  0.00    -0.375 OA
ATOM     98  C   UNL A   1      39.638  33.070  30.698  1.00  0.00     0.036 C 
ATOM     99  C   UNL A   1      38.178  31.560  30.435  1.00  0.00     0.036 C 
ATOM    100  C   UNL A   1      38.175  33.061  30.218  1.00  0.00     0.006 C 
ENDBRANCH  89  92
ENDBRANCH  88  89
ENDBRANCH  85  88
ENDBRANCH  81  83
ENDBRANCH  80  81
ENDBRANCH  79  80
ENDBRANCH  78  79
ENDBRANCH  77  78
ENDBRANCH  76  77
ENDBRANCH  75  76
ENDBRANCH   1  75
TORSDOF 26
ENDMDL
MODEL 2
REMARK VINA RESULT:      -7.7      4.686      8.713
REMARK SMILES O=C(OCCOCCOCCOCCOC(=O)[C@H]1CCC[C@@H]1C[NH2+][C@@H]1CCOC2(CCC2)C1)c1ccc(-c2c3nc(c(-c4cc(S(=O)(=O)[O-])ccc4F)c4ccc([nH]4)c(-c4cc(S(=O)(=O)[O-])ccc4F)c4nc(c(-c5cc(S(=O)(=O)[O-])ccc5F)c5ccc2[nH]5)C=C4)C=C3)cc1
REMARK SMILES IDX 9 1 8 2 7 3 6 4 5 5 4 6 3 7 2 8 1 9 34 10 35 11 96 12 36 13
REMARK SMILES IDX 95 14 37 15 38 16 39 17 89 18 40 19 94 20 88 21 90 22 41 23
REMARK SMILES IDX 93 24 87 25 86 26 42 28 74 29 54 30 73 31 55 32 58 33 72 34
REMARK SMILES IDX 91 35 56 36 57 37 71 39 92 40 59 41 43 42 44 43 52 44 45 45
REMARK SMILES IDX 51 46 53 47 50 48 46 49 47 50 48 51 49 52 75 53 76 54 84 55
REMARK SMILES IDX 77 56 83 57 85 58 82 59 78 60 79 61 80 62 81 63 60 64 61 65
REMARK SMILES IDX 69 66 62 67 68 68 70 69 67 70 63 71 64 72 65 73 66 74 10 75
REMARK SMILES IDX 11 76 12 77 13 78 14 79 15 80 16 81 17 82 18 83 19 84 22 85
REMARK SMILES IDX 20 86 21 87 23 88 24 89 25 92 26 93 33 94 27 95 29 96 28 97
REMARK SMILES IDX 30 98 32 99 31 100
REMARK H PARENT 90 27 58 38 24 90 24 91
REMARK Flexibility Score: inf
ROOT
ATOM      1  O   UNL A   1      39.137  22.247  26.510  1.00  0.00    -0.377 OA
ENDROOT
BRANCH   1   2
ATOM      2  C   UNL A   1      40.205  21.321  26.387  1.00  0.00     0.188 C 
BRANCH   2   3
ATOM      3  C   UNL A   1      39.801  19.903  25.982  1.00  0.00     0.188 C 
BRANCH   3   4
ATOM      4  O   UNL A   1      40.916  19.074  25.674  1.00  0.00    -0.376 OA
BRANCH   4   5
ATOM      5  C   UNL A   1      41.980  19.018  26.624  1.00  0.00     0.202 C 
BRANCH   5   6
ATOM      6  C   UNL A   1      43.285  18.443  26.076  1.00  0.00     0.261 C 
BRANCH   6   7
ATOM      7  O   UNL A   1      43.638  18.999  24.805  1.00  0.00    -0.460 OA
BRANCH   7   8
ATOM      8  C   UNL A   1      44.539  19.980  24.543  1.00  0.00     0.338 C 
ATOM      9  O   UNL A   1      45.545  19.662  23.906  1.00  0.00    -0.246 OA
BRANCH   8  10
ATOM     10  C   UNL A   1      44.435  21.407  25.011  1.00  0.00     0.060 A 
ATOM     11  C   UNL A   1      44.153  22.524  24.220  1.00  0.00     0.016 A 
ATOM     12  C   UNL A   1      44.578  21.618  26.396  1.00  0.00     0.016 A 
ATOM     13  C   UNL A   1      44.028  23.796  24.756  1.00  0.00     0.010 A 
ATOM     14  C   UNL A   1      44.487  22.900  26.947  1.00  0.00     0.010 A 
ATOM     15  C   UNL A   1      44.238  23.992  26.113  1.00  0.00    -0.014 A 
BRANCH  15  16
ATOM     16  C   UNL A   1      44.470  25.378  26.546  1.00  0.00     0.031 A 
ATOM     17  C   UNL A   1      45.824  25.953  26.256  1.00  0.00     0.074 A 
ATOM     18  C   UNL A   1      43.451  26.128  26.995  1.00  0.00     0.049 A 
ATOM     19  N   UNL A   1      46.320  27.116  26.571  1.00  0.00    -0.248 NA
ATOM     20  C   UNL A   1      46.742  25.100  25.476  1.00  0.00     0.031 C 
ATOM     21  C   UNL A   1      42.060  25.679  27.110  1.00  0.00     0.029 A 
ATOM     22  N   UNL A   1      43.415  27.432  27.405  1.00  0.00    -0.354 N 
ATOM     23  C   UNL A   1      47.613  27.120  26.060  1.00  0.00     0.074 A 
ATOM     24  C   UNL A   1      47.829  25.848  25.414  1.00  0.00     0.031 C 
ATOM     25  C   UNL A   1      41.309  26.696  27.565  1.00  0.00     0.029 A 
ATOM     26  C   UNL A   1      42.176  27.835  27.848  1.00  0.00     0.049 A 
ATOM     27  H   UNL A   1      44.200  28.026  27.386  1.00  0.00     0.167 HD
ATOM     28  C   UNL A   1      48.535  28.106  26.146  1.00  0.00     0.034 A 
ATOM     29  C   UNL A   1      41.819  28.979  28.463  1.00  0.00     0.034 A 
ATOM     30  C   UNL A   1      48.264  29.349  26.818  1.00  0.00     0.049 A 
ATOM     31  C   UNL A   1      42.907  30.006  28.683  1.00  0.00     0.074 A 
ATOM     32  C   UNL A   1      49.118  30.402  27.073  1.00  0.00     0.029 A 
ATOM     33  N   UNL A   1      47.026  29.693  27.355  1.00  0.00    -0.354 N 
ATOM     34  N   UNL A   1      44.164  29.972  28.297  1.00  0.00    -0.248 NA
ATOM     35  C   UNL A   1      42.538  31.214  29.425  1.00  0.00     0.031 C 
ATOM     36  C   UNL A   1      48.417  31.349  27.827  1.00  0.00     0.029 A 
ATOM     37  C   UNL A   1      47.101  30.931  27.965  1.00  0.00     0.049 A 
ATOM     38  H   UNL A   1      46.215  29.136  27.306  1.00  0.00     0.167 HD
ATOM     39  C   UNL A   1      44.729  31.169  28.724  1.00  0.00     0.074 A 
ATOM     40  C   UNL A   1      43.666  31.908  29.378  1.00  0.00     0.031 C 
ATOM     41  C   UNL A   1      46.002  31.625  28.598  1.00  0.00     0.034 A 
BRANCH  28  42
ATOM     42  C   UNL A   1      49.913  27.807  25.616  1.00  0.00     0.023 A 
ATOM     43  C   UNL A   1      50.330  28.209  24.334  1.00  0.00     0.031 A 
ATOM     44  C   UNL A   1      50.795  27.021  26.378  1.00  0.00     0.131 A 
ATOM     45  C   UNL A   1      51.563  27.763  23.828  1.00  0.00     0.055 A 
ATOM     46  C   UNL A   1      52.052  26.647  25.900  1.00  0.00     0.041 A 
ATOM     47  F   UNL A   1      50.435  26.572  27.591  1.00  0.00    -0.206 F 
ATOM     48  C   UNL A   1      52.437  27.006  24.613  1.00  0.00     0.022 A 
BRANCH  45  49
ATOM     49  S   UNL A   1      51.944  28.055  22.078  1.00  0.00     0.124 S 
ATOM     50  O   UNL A   1      51.642  26.753  21.488  1.00  0.00    -0.237 OA
ATOM     51  O   UNL A   1      51.032  29.139  21.731  1.00  0.00    -0.237 OA
ATOM     52  O   UNL A   1      53.361  28.414  22.090  1.00  0.00    -0.744 OA
ENDBRANCH  45  49
ENDBRANCH  28  42
BRANCH  29  53
ATOM     53  C   UNL A   1      40.436  29.178  28.994  1.00  0.00     0.023 A 
ATOM     54  C   UNL A   1      40.165  29.135  30.371  1.00  0.00     0.031 A 
ATOM     55  C   UNL A   1      39.340  29.325  28.120  1.00  0.00     0.131 A 
ATOM     56  C   UNL A   1      38.837  29.175  30.828  1.00  0.00     0.055 A 
ATOM     57  C   UNL A   1      38.027  29.436  28.583  1.00  0.00     0.041 A 
ATOM     58  F   UNL A   1      39.527  29.358  26.791  1.00  0.00    -0.206 F 
ATOM     59  C   UNL A   1      37.768  29.341  29.946  1.00  0.00     0.022 A 
BRANCH  56  60
ATOM     60  S   UNL A   1      38.514  28.872  32.588  1.00  0.00     0.124 S 
ATOM     61  O   UNL A   1      39.388  27.738  32.859  1.00  0.00    -0.237 OA
ATOM     62  O   UNL A   1      38.905  30.143  33.191  1.00  0.00    -0.237 OA
ATOM     63  O   UNL A   1      37.082  28.581  32.627  1.00  0.00    -0.744 OA
ENDBRANCH  56  60
ENDBRANCH  29  53
BRANCH  41  64
ATOM     64  C   UNL A   1      46.280  33.005  29.129  1.00  0.00     0.023 A 
ATOM     65  C   UNL A   1      46.090  34.151  28.340  1.00  0.00     0.031 A 
ATOM     66  C   UNL A   1      46.732  33.169  30.450  1.00  0.00     0.131 A 
ATOM     67  C   UNL A   1      46.411  35.410  28.862  1.00  0.00     0.055 A 
ATOM     68  C   UNL A   1      46.977  34.431  30.987  1.00  0.00     0.041 A 
ATOM     69  F   UNL A   1      46.928  32.103  31.244  1.00  0.00    -0.206 F 
ATOM     70  C   UNL A   1      46.830  35.561  30.187  1.00  0.00     0.022 A 
BRANCH  67  71
ATOM     71  S   UNL A   1      46.368  36.841  27.752  1.00  0.00     0.124 S 
ATOM     72  O   UNL A   1      47.713  36.824  27.185  1.00  0.00    -0.237 OA
ATOM     73  O   UNL A   1      45.287  36.494  26.835  1.00  0.00    -0.237 OA
ATOM     74  O   UNL A   1      46.085  37.961  28.648  1.00  0.00    -0.744 OA
ENDBRANCH  67  71
ENDBRANCH  41  64
ENDBRANCH  15  16
ENDBRANCH   8  10
ENDBRANCH   7   8
ENDBRANCH   6   7
ENDBRANCH   5   6
ENDBRANCH   4   5
ENDBRANCH   3   4
ENDBRANCH   2   3
ENDBRANCH   1   2
BRANCH   1  75
ATOM     75  C   UNL A   1      38.463  22.591  25.307  1.00  0.00     0.188 C 
BRANCH  75  76
ATOM     76  C   UNL A   1      36.982  22.149  25.104  1.00  0.00     0.188 C 
BRANCH  76  77
ATOM     77  O   UNL A   1      36.303  21.857  26.310  1.00  0.00    -0.376 OA
BRANCH  77  78
ATOM     78  C   UNL A   1      34.990  21.336  26.158  1.00  0.00     0.202 C 
BRANCH  78  79
ATOM     79  C   UNL A   1      34.760  20.516  24.880  1.00  0.00     0.261 C 
BRANCH  79  80
ATOM     80  O   UNL A   1      33.593  20.862  24.083  1.00  0.00    -0.463 OA
BRANCH  80  81
ATOM     81  C   UNL A   1      32.396  21.119  24.688  1.00  0.00     0.309 C 
ATOM     82  O   UNL A   1      31.809  20.329  25.399  1.00  0.00    -0.252 OA
BRANCH  81  83
ATOM     83  C   UNL A   1      31.901  22.542  24.332  1.00  0.00     0.108 C 
ATOM     84  C   UNL A   1      30.977  23.022  25.444  1.00  0.00     0.016 C 
ATOM     85  C   UNL A   1      32.913  23.717  24.164  1.00  0.00     0.058 C 
ATOM     86  C   UNL A   1      31.854  23.864  26.362  1.00  0.00     0.001 C 
ATOM     87  C   UNL A   1      33.086  24.281  25.571  1.00  0.00     0.010 C 
BRANCH  85  88
ATOM     88  C   UNL A   1      32.592  24.839  23.115  1.00  0.00     0.265 C 
BRANCH  88  89
ATOM     89  N   UNL A   1      32.665  26.207  23.620  1.00  0.00    -0.343 N 
ATOM     90  H   UNL A   1      33.252  26.739  22.978  1.00  0.00     0.346 HD
ATOM     91  H   UNL A   1      33.029  26.115  24.569  1.00  0.00     0.346 HD
BRANCH  89  92
ATOM     92  C   UNL A   1      31.396  26.945  23.772  1.00  0.00     0.187 C 
ATOM     93  C   UNL A   1      31.464  28.226  22.911  1.00  0.00     0.093 C 
ATOM     94  C   UNL A   1      30.995  27.369  25.202  1.00  0.00     0.100 C 
ATOM     95  C   UNL A   1      32.375  29.290  23.525  1.00  0.00     0.167 C 
ATOM     96  C   UNL A   1      31.981  28.398  25.766  1.00  0.00     0.074 C 
ATOM     97  O   UNL A   1      32.019  29.551  24.886  1.00  0.00    -0.375 OA
ATOM     98  C   UNL A   1      31.783  28.725  27.281  1.00  0.00     0.036 C 
ATOM     99  C   UNL A   1      33.345  27.816  26.181  1.00  0.00     0.036 C 
ATOM    100  C   UNL A   1      33.307  28.613  27.471  1.00  0.00     0.006 C 
ENDBRANCH  89  92
ENDBRANCH  88  89
ENDBRANCH  85  88
ENDBRANCH  81  83
ENDBRANCH  80  81
ENDBRANCH  79  80
ENDBRANCH  78  79
ENDBRANCH  77  78
ENDBRANCH  76  77
ENDBRANCH  75  76
ENDBRANCH   1  75
TORSDOF 26
ENDMDL
MODEL 3
REMARK VINA RESULT:      -7.6      5.024      8.502
REMARK SMILES O=C(OCCOCCOCCOCCOC(=O)[C@H]1CCC[C@@H]1C[NH2+][C@@H]1CCOC2(CCC2)C1)c1ccc(-c2c3nc(c(-c4cc(S(=O)(=O)[O-])ccc4F)c4ccc([nH]4)c(-c4cc(S(=O)(=O)[O-])ccc4F)c4nc(c(-c5cc(S(=O)(=O)[O-])ccc5F)c5ccc2[nH]5)C=C4)C=C3)cc1
REMARK SMILES IDX 9 1 8 2 7 3 6 4 5 5 4 6 3 7 2 8 1 9 34 10 35 11 96 12 36 13
REMARK SMILES IDX 95 14 37 15 38 16 39 17 89 18 40 19 94 20 88 21 90 22 41 23
REMARK SMILES IDX 93 24 87 25 86 26 42 28 74 29 54 30 73 31 55 32 58 33 72 34
REMARK SMILES IDX 91 35 56 36 57 37 71 39 92 40 59 41 43 42 44 43 52 44 45 45
REMARK SMILES IDX 51 46 53 47 50 48 46 49 47 50 48 51 49 52 75 53 76 54 84 55
REMARK SMILES IDX 77 56 83 57 85 58 82 59 78 60 79 61 80 62 81 63 60 64 61 65
REMARK SMILES IDX 69 66 62 67 68 68 70 69 67 70 63 71 64 72 65 73 66 74 10 75
REMARK SMILES IDX 11 76 12 77 13 78 14 79 15 80 16 81 17 82 18 83 19 84 22 85
REMARK SMILES IDX 20 86 21 87 23 88 24 89 25 92 26 93 33 94 27 95 29 96 28 97
REMARK SMILES IDX 30 98 32 99 31 100
REMARK H PARENT 90 27 58 38 24 90 24 91
REMARK Flexibility Score: inf
ROOT
ATOM      1  O   UNL A   1      39.169  22.860  26.908  1.00  0.00    -0.377 OA
ENDROOT
BRANCH   1   2
ATOM      2  C   UNL A   1      40.066  21.910  26.355  1.00  0.00     0.188 C 
BRANCH   2   3
ATOM      3  C   UNL A   1      39.421  20.632  25.819  1.00  0.00     0.188 C 
BRANCH   3   4
ATOM      4  O   UNL A   1      40.342  19.554  25.697  1.00  0.00    -0.376 OA
BRANCH   4   5
ATOM      5  C   UNL A   1      41.269  19.352  26.764  1.00  0.00     0.202 C 
BRANCH   5   6
ATOM      6  C   UNL A   1      42.650  18.877  26.316  1.00  0.00     0.261 C 
BRANCH   6   7
ATOM      7  O   UNL A   1      43.037  19.425  25.052  1.00  0.00    -0.460 OA
BRANCH   7   8
ATOM      8  C   UNL A   1      43.860  20.477  24.813  1.00  0.00     0.338 C 
ATOM      9  O   UNL A   1      44.859  20.262  24.125  1.00  0.00    -0.246 OA
BRANCH   8  10
ATOM     10  C   UNL A   1      43.681  21.867  25.364  1.00  0.00     0.060 A 
ATOM     11  C   UNL A   1      43.430  23.028  24.627  1.00  0.00     0.016 A 
ATOM     12  C   UNL A   1      43.712  21.988  26.766  1.00  0.00     0.016 A 
ATOM     13  C   UNL A   1      43.229  24.258  25.233  1.00  0.00     0.010 A 
ATOM     14  C   UNL A   1      43.544  23.228  27.391  1.00  0.00     0.010 A 
ATOM     15  C   UNL A   1      43.330  24.368  26.613  1.00  0.00    -0.014 A 
BRANCH  15  16
ATOM     16  C   UNL A   1      43.490  25.726  27.152  1.00  0.00     0.031 A 
ATOM     17  C   UNL A   1      44.847  26.347  27.012  1.00  0.00     0.074 A 
ATOM     18  C   UNL A   1      42.418  26.424  27.562  1.00  0.00     0.049 A 
ATOM     19  N   UNL A   1      45.285  27.497  27.441  1.00  0.00    -0.248 NA
ATOM     20  C   UNL A   1      45.847  25.567  26.258  1.00  0.00     0.031 C 
ATOM     21  C   UNL A   1      41.035  25.939  27.532  1.00  0.00     0.029 A 
ATOM     22  N   UNL A   1      42.315  27.697  28.051  1.00  0.00    -0.354 N 
ATOM     23  C   UNL A   1      46.615  27.561  27.040  1.00  0.00     0.074 A 
ATOM     24  C   UNL A   1      46.916  26.340  26.333  1.00  0.00     0.031 C 
ATOM     25  C   UNL A   1      40.223  26.909  27.988  1.00  0.00     0.029 A 
ATOM     26  C   UNL A   1      41.034  28.043  28.415  1.00  0.00     0.049 A 
ATOM     27  H   UNL A   1      43.083  28.306  28.135  1.00  0.00     0.167 HD
ATOM     28  C   UNL A   1      47.501  28.558  27.265  1.00  0.00     0.034 A 
ATOM     29  C   UNL A   1      40.599  29.137  29.070  1.00  0.00     0.034 A 
ATOM     30  C   UNL A   1      47.145  29.748  27.992  1.00  0.00     0.049 A 
ATOM     31  C   UNL A   1      41.638  30.169  29.445  1.00  0.00     0.074 A 
ATOM     32  C   UNL A   1      47.947  30.800  28.383  1.00  0.00     0.029 A 
ATOM     33  N   UNL A   1      45.858  30.031  28.445  1.00  0.00    -0.354 N 
ATOM     34  N   UNL A   1      42.923  30.186  29.163  1.00  0.00    -0.248 NA
ATOM     35  C   UNL A   1      41.179  31.318  30.230  1.00  0.00     0.031 C 
ATOM     36  C   UNL A   1      47.163  31.680  29.136  1.00  0.00     0.029 A 
ATOM     37  C   UNL A   1      45.851  31.227  29.137  1.00  0.00     0.049 A 
ATOM     38  H   UNL A   1      45.068  29.461  28.293  1.00  0.00     0.167 HD
ATOM     39  C   UNL A   1      43.419  31.364  29.712  1.00  0.00     0.074 A 
ATOM     40  C   UNL A   1      42.288  32.036  30.321  1.00  0.00     0.031 C 
ATOM     41  C   UNL A   1      44.687  31.854  29.721  1.00  0.00     0.034 A 
BRANCH  28  42
ATOM     42  C   UNL A   1      48.925  28.323  26.833  1.00  0.00     0.023 A 
ATOM     43  C   UNL A   1      49.359  28.552  25.515  1.00  0.00     0.031 A 
ATOM     44  C   UNL A   1      49.845  27.770  27.742  1.00  0.00     0.131 A 
ATOM     45  C   UNL A   1      50.651  28.162  25.127  1.00  0.00     0.055 A 
ATOM     46  C   UNL A   1      51.153  27.458  27.370  1.00  0.00     0.041 A 
ATOM     47  F   UNL A   1      49.476  27.491  29.002  1.00  0.00    -0.206 F 
ATOM     48  C   UNL A   1      51.559  27.640  26.052  1.00  0.00     0.022 A 
BRANCH  45  49
ATOM     49  S   UNL A   1      51.082  28.201  23.364  1.00  0.00     0.124 S 
ATOM     50  O   UNL A   1      49.763  28.177  22.736  1.00  0.00    -0.237 OA
ATOM     51  O   UNL A   1      51.822  29.453  23.247  1.00  0.00    -0.237 OA
ATOM     52  O   UNL A   1      51.877  26.989  23.177  1.00  0.00    -0.744 OA
ENDBRANCH  45  49
ENDBRANCH  28  42
BRANCH  29  53
ATOM     53  C   UNL A   1      39.173  29.271  29.496  1.00  0.00     0.023 A 
ATOM     54  C   UNL A   1      38.271  30.089  28.796  1.00  0.00     0.031 A 
ATOM     55  C   UNL A   1      38.707  28.650  30.672  1.00  0.00     0.131 A 
ATOM     56  C   UNL A   1      36.980  30.312  29.306  1.00  0.00     0.055 A 
ATOM     57  C   UNL A   1      37.401  28.818  31.138  1.00  0.00     0.041 A 
ATOM     58  F   UNL A   1      39.522  27.867  31.399  1.00  0.00    -0.206 F 
ATOM     59  C   UNL A   1      36.535  29.670  30.463  1.00  0.00     0.022 A 
BRANCH  56  60
ATOM     60  S   UNL A   1      35.933  31.560  28.508  1.00  0.00     0.124 S 
ATOM     61  O   UNL A   1      35.421  30.826  27.357  1.00  0.00    -0.237 OA
ATOM     62  O   UNL A   1      34.968  31.863  29.559  1.00  0.00    -0.237 OA
ATOM     63  O   UNL A   1      36.868  32.639  28.194  1.00  0.00    -0.744 OA
ENDBRANCH  56  60
ENDBRANCH  29  53
BRANCH  41  64
ATOM     64  C   UNL A   1      44.884  33.201  30.360  1.00  0.00     0.023 A 
ATOM     65  C   UNL A   1      44.698  34.394  29.643  1.00  0.00     0.031 A 
ATOM     66  C   UNL A   1      45.256  33.286  31.714  1.00  0.00     0.131 A 
ATOM     67  C   UNL A   1      44.943  35.622  30.268  1.00  0.00     0.055 A 
ATOM     68  C   UNL A   1      45.424  34.515  32.350  1.00  0.00     0.041 A 
ATOM     69  F   UNL A   1      45.446  32.174  32.442  1.00  0.00    -0.206 F 
ATOM     70  C   UNL A   1      45.281  35.692  31.622  1.00  0.00     0.022 A 
BRANCH  67  71
ATOM     71  S   UNL A   1      44.910  37.126  29.258  1.00  0.00     0.124 S 
ATOM     72  O   UNL A   1      46.329  37.343  28.993  1.00  0.00    -0.237 OA
ATOM     73  O   UNL A   1      44.105  36.716  28.112  1.00  0.00    -0.237 OA
ATOM     74  O   UNL A   1      44.283  38.114  30.135  1.00  0.00    -0.744 OA
ENDBRANCH  67  71
ENDBRANCH  41  64
ENDBRANCH  15  16
ENDBRANCH   8  10
ENDBRANCH   7   8
ENDBRANCH   6   7
ENDBRANCH   5   6
ENDBRANCH   4   5
ENDBRANCH   3   4
ENDBRANCH   2   3
ENDBRANCH   1   2
BRANCH   1  75
ATOM     75  C   UNL A   1      38.482  23.688  25.980  1.00  0.00     0.188 C 
BRANCH  75  76
ATOM     76  C   UNL A   1      36.986  23.398  25.653  1.00  0.00     0.188 C 
BRANCH  76  77
ATOM     77  O   UNL A   1      36.465  22.267  26.323  1.00  0.00    -0.376 OA
BRANCH  77  78
ATOM     78  C   UNL A   1      35.094  21.991  26.074  1.00  0.00     0.202 C 
BRANCH  78  79
ATOM     79  C   UNL A   1      34.824  21.048  24.891  1.00  0.00     0.261 C 
BRANCH  79  80
ATOM     80  O   UNL A   1      33.622  21.304  24.112  1.00  0.00    -0.463 OA
BRANCH  80  81
ATOM     81  C   UNL A   1      32.389  21.146  24.675  1.00  0.00     0.309 C 
ATOM     82  O   UNL A   1      32.026  20.140  25.249  1.00  0.00    -0.252 OA
BRANCH  81  83
ATOM     83  C   UNL A   1      31.530  22.417  24.469  1.00  0.00     0.108 C 
ATOM     84  C   UNL A   1      30.740  22.676  25.746  1.00  0.00     0.016 C 
ATOM     85  C   UNL A   1      32.204  23.792  24.170  1.00  0.00     0.058 C 
ATOM     86  C   UNL A   1      31.558  23.699  26.526  1.00  0.00     0.001 C 
ATOM     87  C   UNL A   1      32.499  24.384  25.545  1.00  0.00     0.010 C 
BRANCH  85  88
ATOM     88  C   UNL A   1      31.453  24.809  23.240  1.00  0.00     0.265 C 
BRANCH  88  89
ATOM     89  N   UNL A   1      31.202  26.124  23.824  1.00  0.00    -0.343 N 
ATOM     90  H   UNL A   1      31.322  26.039  24.833  1.00  0.00     0.346 HD
ATOM     91  H   UNL A   1      30.260  26.369  23.517  1.00  0.00     0.346 HD
BRANCH  89  92
ATOM     92  C   UNL A   1      32.050  27.243  23.370  1.00  0.00     0.187 C 
ATOM     93  C   UNL A   1      32.522  28.037  24.608  1.00  0.00     0.093 C 
ATOM     94  C   UNL A   1      31.417  28.253  22.387  1.00  0.00     0.100 C 
ATOM     95  C   UNL A   1      31.404  28.883  25.217  1.00  0.00     0.167 C 
ATOM     96  C   UNL A   1      30.274  29.026  23.054  1.00  0.00     0.074 C 
ATOM     97  O   UNL A   1      30.786  29.710  24.227  1.00  0.00    -0.375 OA
ATOM     98  C   UNL A   1      29.434  29.913  22.080  1.00  0.00     0.036 C 
ATOM     99  C   UNL A   1      28.982  28.211  23.254  1.00  0.00     0.036 C 
ATOM    100  C   UNL A   1      28.154  29.377  22.748  1.00  0.00     0.006 C 
ENDBRANCH  89  92
ENDBRANCH  88  89
ENDBRANCH  85  88
ENDBRANCH  81  83
ENDBRANCH  80  81
ENDBRANCH  79  80
ENDBRANCH  78  79
ENDBRANCH  77  78
ENDBRANCH  76  77
ENDBRANCH  75  76
ENDBRANCH   1  75
TORSDOF 26
ENDMDL
