MODEL 1
REMARK VINA RESULT:      -8.7      0.000      0.000
REMARK SMILES CCCC1CN(c2cc(C(=O)OCCOCCOCCOCCOC(=O)c3ccc(-c4c5nc(c(-c6cc(S(=O)(=O)[O-])ccc6F)c6ccc([nH]6)c(-c6cc(S(=O)(=O)[O-])ccc6F)c6nc(c(-c7cc(S(=O)(=O)[O-])ccc7F)c7ccc4[nH]7)C=C6)C=C5)cc3)ccc2F)C1
REMARK SMILES IDX 18 1 17 2 16 3 15 4 14 5 13 6 12 7 10 8 11 9 9 10 7 11 8 12
REMARK SMILES IDX 92 13 91 14 93 15 90 16 6 17 4 18 5 19 94 20 3 21 2 22 1 23
REMARK SMILES IDX 19 24 20 25 21 26 22 27 23 28 24 29 25 30 26 31 27 32 28 33
REMARK SMILES IDX 89 34 29 35 88 36 30 37 31 38 32 39 82 40 33 41 87 42 81 43
REMARK SMILES IDX 83 44 34 45 86 46 80 47 79 48 35 50 67 51 47 52 66 53 48 54
REMARK SMILES IDX 51 55 65 56 84 57 49 58 50 59 64 61 85 62 52 63 36 64 37 65
REMARK SMILES IDX 45 66 38 67 44 68 46 69 43 70 39 71 40 72 41 73 42 74 68 75
REMARK SMILES IDX 69 76 77 77 70 78 76 79 78 80 75 81 71 82 72 83 73 84 74 85
REMARK SMILES IDX 53 86 54 87 62 88 55 89 61 90 63 91 60 92 56 93 57 94 58 95
REMARK SMILES IDX 59 96
REMARK H PARENT 83 49 51 60
REMARK Flexibility Score: inf
ROOT
ATOM      1  O   UNL A   1      39.303  21.661  26.467  1.00  0.00    -0.377 OA
ENDROOT
BRANCH   1   2
ATOM      2  C   UNL A   1      39.024  23.050  26.452  1.00  0.00     0.188 C 
BRANCH   2   3
ATOM      3  C   UNL A   1      37.597  23.407  25.995  1.00  0.00     0.188 C 
BRANCH   3   4
ATOM      4  O   UNL A   1      37.295  23.062  24.658  1.00  0.00    -0.376 OA
BRANCH   4   5
ATOM      5  C   UNL A   1      36.643  21.851  24.315  1.00  0.00     0.202 C 
BRANCH   5   6
ATOM      6  C   UNL A   1      35.986  20.862  25.296  1.00  0.00     0.261 C 
BRANCH   6   7
ATOM      7  O   UNL A   1      34.619  20.515  25.092  1.00  0.00    -0.460 OA
BRANCH   7   8
ATOM      8  C   UNL A   1      33.687  21.099  25.872  1.00  0.00     0.338 C 
ATOM      9  O   UNL A   1      33.552  20.983  27.078  1.00  0.00    -0.246 OA
BRANCH   8  10
ATOM     10  C   UNL A   1      32.975  22.086  25.024  1.00  0.00     0.062 A 
ATOM     11  C   UNL A   1      32.135  24.341  24.721  1.00  0.00     0.074 A 
ATOM     12  C   UNL A   1      32.755  23.382  25.526  1.00  0.00     0.044 A 
ATOM     13  C   UNL A   1      31.743  23.974  23.421  1.00  0.00     0.146 A 
ATOM     14  C   UNL A   1      31.983  22.704  22.909  1.00  0.00     0.042 A 
ATOM     15  F   UNL A   1      31.118  24.869  22.639  1.00  0.00    -0.205 F 
ATOM     16  C   UNL A   1      32.605  21.753  23.711  1.00  0.00     0.019 A 
BRANCH  11  17
ATOM     17  N   UNL A   1      31.824  25.631  25.167  1.00  0.00    -0.368 N 
ATOM     18  C   UNL A   1      31.557  27.584  25.658  1.00  0.00     0.028 C 
ATOM     19  C   UNL A   1      30.692  26.483  24.984  1.00  0.00     0.122 C 
ATOM     20  C   UNL A   1      32.741  26.728  25.175  1.00  0.00     0.122 C 
BRANCH  18  21
ATOM     21  C   UNL A   1      31.394  29.022  25.192  1.00  0.00     0.007 C 
BRANCH  21  22
ATOM     22  C   UNL A   1      32.115  30.019  26.108  1.00  0.00    -0.003 C 
ATOM     23  C   UNL A   1      31.388  31.353  26.241  1.00  0.00     0.004 C 
ENDBRANCH  21  22
ENDBRANCH  18  21
ENDBRANCH  11  17
ENDBRANCH   8  10
ENDBRANCH   7   8
ENDBRANCH   6   7
ENDBRANCH   5   6
ENDBRANCH   4   5
ENDBRANCH   3   4
ENDBRANCH   2   3
ENDBRANCH   1   2
BRANCH   1  24
ATOM     24  C   UNL A   1      40.666  21.234  26.424  1.00  0.00     0.188 C 
BRANCH  24  25
ATOM     25  C   UNL A   1      41.844  22.222  26.240  1.00  0.00     0.188 C 
BRANCH  25  26
ATOM     26  O   UNL A   1      42.549  22.092  25.013  1.00  0.00    -0.376 OA
BRANCH  26  27
ATOM     27  C   UNL A   1      43.706  22.882  24.807  1.00  0.00     0.202 C 
BRANCH  27  28
ATOM     28  C   UNL A   1      43.833  24.143  25.674  1.00  0.00     0.261 C 
BRANCH  28  29
ATOM     29  O   UNL A   1      43.527  25.380  25.017  1.00  0.00    -0.460 OA
BRANCH  29  30
ATOM     30  C   UNL A   1      42.412  26.017  25.430  1.00  0.00     0.338 C 
ATOM     31  O   UNL A   1      41.282  25.554  25.476  1.00  0.00    -0.246 OA
BRANCH  30  32
ATOM     32  C   UNL A   1      42.806  27.320  25.999  1.00  0.00     0.060 A 
ATOM     33  C   UNL A   1      43.826  27.353  26.957  1.00  0.00     0.016 A 
ATOM     34  C   UNL A   1      42.162  28.496  25.606  1.00  0.00     0.016 A 
ATOM     35  C   UNL A   1      44.161  28.558  27.572  1.00  0.00     0.010 A 
ATOM     36  C   UNL A   1      42.488  29.701  26.235  1.00  0.00     0.010 A 
ATOM     37  C   UNL A   1      43.457  29.727  27.255  1.00  0.00    -0.014 A 
BRANCH  37  38
ATOM     38  C   UNL A   1      43.594  30.909  28.140  1.00  0.00     0.031 A 
ATOM     39  C   UNL A   1      44.699  31.892  27.852  1.00  0.00     0.074 A 
ATOM     40  C   UNL A   1      42.708  31.153  29.124  1.00  0.00     0.049 A 
ATOM     41  N   UNL A   1      45.001  33.003  28.469  1.00  0.00    -0.248 NA
ATOM     42  C   UNL A   1      45.577  31.584  26.708  1.00  0.00     0.031 C 
ATOM     43  C   UNL A   1      41.564  30.304  29.457  1.00  0.00     0.029 A 
ATOM     44  N   UNL A   1      42.622  32.196  30.013  1.00  0.00    -0.354 N 
ATOM     45  C   UNL A   1      46.096  33.527  27.791  1.00  0.00     0.074 A 
ATOM     46  C   UNL A   1      46.432  32.596  26.738  1.00  0.00     0.031 C 
ATOM     47  C   UNL A   1      40.884  30.869  30.471  1.00  0.00     0.029 A 
ATOM     48  C   UNL A   1      41.562  32.097  30.884  1.00  0.00     0.049 A 
ATOM     49  H   UNL A   1      43.260  32.945  30.025  1.00  0.00     0.167 HD
ATOM     50  C   UNL A   1      46.751  34.690  28.015  1.00  0.00     0.034 A 
ATOM     51  C   UNL A   1      41.191  32.896  31.906  1.00  0.00     0.034 A 
ATOM     52  C   UNL A   1      46.404  35.617  29.060  1.00  0.00     0.049 A 
ATOM     53  C   UNL A   1      41.997  34.140  32.196  1.00  0.00     0.074 A 
ATOM     54  C   UNL A   1      47.002  36.828  29.361  1.00  0.00     0.029 A 
ATOM     55  N   UNL A   1      45.375  35.439  29.972  1.00  0.00    -0.354 N 
ATOM     56  N   UNL A   1      43.043  34.610  31.558  1.00  0.00    -0.248 NA
ATOM     57  C   UNL A   1      41.576  34.959  33.342  1.00  0.00     0.031 C 
ATOM     58  C   UNL A   1      46.381  37.346  30.500  1.00  0.00     0.029 A 
ATOM     59  C   UNL A   1      45.344  36.500  30.860  1.00  0.00     0.049 A 
ATOM     60  H   UNL A   1      44.758  34.671  29.987  1.00  0.00     0.167 HD
ATOM     61  C   UNL A   1      43.388  35.791  32.211  1.00  0.00     0.074 A 
ATOM     62  C   UNL A   1      42.438  35.965  33.289  1.00  0.00     0.031 C 
ATOM     63  C   UNL A   1      44.396  36.656  31.934  1.00  0.00     0.034 A 
BRANCH  50  64
ATOM     64  C   UNL A   1      47.929  35.021  27.139  1.00  0.00     0.023 A 
ATOM     65  C   UNL A   1      49.207  34.501  27.397  1.00  0.00     0.031 A 
ATOM     66  C   UNL A   1      47.752  35.818  25.995  1.00  0.00     0.131 A 
ATOM     67  C   UNL A   1      50.268  34.798  26.528  1.00  0.00     0.055 A 
ATOM     68  C   UNL A   1      48.797  36.064  25.104  1.00  0.00     0.041 A 
ATOM     69  F   UNL A   1      46.554  36.356  25.716  1.00  0.00    -0.206 F 
ATOM     70  C   UNL A   1      50.065  35.554  25.370  1.00  0.00     0.022 A 
BRANCH  67  71
ATOM     71  S   UNL A   1      51.932  34.221  26.954  1.00  0.00     0.124 S 
ATOM     72  O   UNL A   1      52.527  34.032  25.633  1.00  0.00    -0.237 OA
ATOM     73  O   UNL A   1      52.462  35.330  27.739  1.00  0.00    -0.237 OA
ATOM     74  O   UNL A   1      51.688  32.990  27.703  1.00  0.00    -0.744 OA
ENDBRANCH  67  71
ENDBRANCH  50  64
BRANCH  51  75
ATOM     75  C   UNL A   1      40.022  32.530  32.757  1.00  0.00     0.023 A 
ATOM     76  C   UNL A   1      38.753  33.086  32.534  1.00  0.00     0.031 A 
ATOM     77  C   UNL A   1      40.167  31.624  33.823  1.00  0.00     0.131 A 
ATOM     78  C   UNL A   1      37.684  32.748  33.379  1.00  0.00     0.055 A 
ATOM     79  C   UNL A   1      39.092  31.258  34.633  1.00  0.00     0.041 A 
ATOM     80  F   UNL A   1      41.360  31.065  34.081  1.00  0.00    -0.206 F 
ATOM     81  C   UNL A   1      37.841  31.827  34.418  1.00  0.00     0.022 A 
BRANCH  78  82
ATOM     82  S   UNL A   1      36.082  33.564  33.130  1.00  0.00     0.124 S 
ATOM     83  O   UNL A   1      36.450  34.972  33.223  1.00  0.00    -0.237 OA
ATOM     84  O   UNL A   1      35.699  33.085  31.806  1.00  0.00    -0.237 OA
ATOM     85  O   UNL A   1      35.268  33.056  34.232  1.00  0.00    -0.744 OA
ENDBRANCH  78  82
ENDBRANCH  51  75
BRANCH  63  86
ATOM     86  C   UNL A   1      44.519  37.892  32.787  1.00  0.00     0.023 A 
ATOM     87  C   UNL A   1      43.769  39.047  32.520  1.00  0.00     0.031 A 
ATOM     88  C   UNL A   1      45.335  37.876  33.934  1.00  0.00     0.131 A 
ATOM     89  C   UNL A   1      43.861  40.151  33.381  1.00  0.00     0.055 A 
ATOM     90  C   UNL A   1      45.386  38.959  34.812  1.00  0.00     0.041 A 
ATOM     91  F   UNL A   1      46.065  36.791  34.237  1.00  0.00    -0.206 F 
ATOM     92  C   UNL A   1      44.649  40.106  34.535  1.00  0.00     0.022 A 
BRANCH  89  93
ATOM     93  S   UNL A   1      42.950  41.662  32.962  1.00  0.00     0.124 S 
ATOM     94  O   UNL A   1      42.540  41.397  31.587  1.00  0.00    -0.237 OA
ATOM     95  O   UNL A   1      41.882  41.673  33.956  1.00  0.00    -0.237 OA
ATOM     96  O   UNL A   1      43.950  42.719  33.118  1.00  0.00    -0.744 OA
ENDBRANCH  89  93
ENDBRANCH  63  86
ENDBRANCH  37  38
ENDBRANCH  30  32
ENDBRANCH  29  30
ENDBRANCH  28  29
ENDBRANCH  27  28
ENDBRANCH  26  27
ENDBRANCH  25  26
ENDBRANCH  24  25
ENDBRANCH   1  24
TORSDOF 26
ENDMDL
MODEL 2
REMARK VINA RESULT:      -8.4      4.026      5.915
REMARK SMILES CCCC1CN(c2cc(C(=O)OCCOCCOCCOCCOC(=O)c3ccc(-c4c5nc(c(-c6cc(S(=O)(=O)[O-])ccc6F)c6ccc([nH]6)c(-c6cc(S(=O)(=O)[O-])ccc6F)c6nc(c(-c7cc(S(=O)(=O)[O-])ccc7F)c7ccc4[nH]7)C=C6)C=C5)cc3)ccc2F)C1
REMARK SMILES IDX 18 1 17 2 16 3 15 4 14 5 13 6 12 7 10 8 11 9 9 10 7 11 8 12
REMARK SMILES IDX 92 13 91 14 93 15 90 16 6 17 4 18 5 19 94 20 3 21 2 22 1 23
REMARK SMILES IDX 19 24 20 25 21 26 22 27 23 28 24 29 25 30 26 31 27 32 28 33
REMARK SMILES IDX 89 34 29 35 88 36 30 37 31 38 32 39 82 40 33 41 87 42 81 43
REMARK SMILES IDX 83 44 34 45 86 46 80 47 79 48 35 50 67 51 47 52 66 53 48 54
REMARK SMILES IDX 51 55 65 56 84 57 49 58 50 59 64 61 85 62 52 63 36 64 37 65
REMARK SMILES IDX 45 66 38 67 44 68 46 69 43 70 39 71 40 72 41 73 42 74 68 75
REMARK SMILES IDX 69 76 77 77 70 78 76 79 78 80 75 81 71 82 72 83 73 84 74 85
REMARK SMILES IDX 53 86 54 87 62 88 55 89 61 90 63 91 60 92 56 93 57 94 58 95
REMARK SMILES IDX 59 96
REMARK H PARENT 83 49 51 60
REMARK Flexibility Score: inf
ROOT
ATOM      1  O   UNL A   1      38.806  21.282  25.907  1.00  0.00    -0.377 OA
ENDROOT
BRANCH   1   2
ATOM      2  C   UNL A   1      37.718  21.453  25.017  1.00  0.00     0.188 C 
BRANCH   2   3
ATOM      3  C   UNL A   1      36.604  22.377  25.543  1.00  0.00     0.188 C 
BRANCH   3   4
ATOM      4  O   UNL A   1      35.957  23.155  24.557  1.00  0.00    -0.376 OA
BRANCH   4   5
ATOM      5  C   UNL A   1      35.268  24.354  24.866  1.00  0.00     0.202 C 
BRANCH   5   6
ATOM      6  C   UNL A   1      34.267  25.089  23.955  1.00  0.00     0.261 C 
BRANCH   6   7
ATOM      7  O   UNL A   1      33.873  24.461  22.737  1.00  0.00    -0.460 OA
BRANCH   7   8
ATOM      8  C   UNL A   1      33.130  25.169  21.863  1.00  0.00     0.338 C 
ATOM      9  O   UNL A   1      33.338  25.329  20.674  1.00  0.00    -0.246 OA
BRANCH   8  10
ATOM     10  C   UNL A   1      31.883  25.550  22.572  1.00  0.00     0.062 A 
ATOM     11  C   UNL A   1      30.126  27.178  22.953  1.00  0.00     0.074 A 
ATOM     12  C   UNL A   1      31.328  26.822  22.337  1.00  0.00     0.044 A 
ATOM     13  C   UNL A   1      29.505  26.245  23.802  1.00  0.00     0.146 A 
ATOM     14  C   UNL A   1      30.033  24.977  24.016  1.00  0.00     0.042 A 
ATOM     15  F   UNL A   1      28.364  26.575  24.429  1.00  0.00    -0.205 F 
ATOM     16  C   UNL A   1      31.226  24.623  23.397  1.00  0.00     0.019 A 
BRANCH  11  17
ATOM     17  N   UNL A   1      29.543  28.444  22.821  1.00  0.00    -0.368 N 
ATOM     18  C   UNL A   1      28.811  30.293  22.400  1.00  0.00     0.028 C 
ATOM     19  C   UNL A   1      28.195  28.889  22.652  1.00  0.00     0.122 C 
ATOM     20  C   UNL A   1      30.068  29.497  22.007  1.00  0.00     0.122 C 
BRANCH  18  21
ATOM     21  C   UNL A   1      28.130  31.215  21.402  1.00  0.00     0.007 C 
BRANCH  21  22
ATOM     22  C   UNL A   1      28.344  32.697  21.736  1.00  0.00    -0.003 C 
ATOM     23  C   UNL A   1      28.819  32.932  23.165  1.00  0.00     0.004 C 
ENDBRANCH  21  22
ENDBRANCH  18  21
ENDBRANCH  11  17
ENDBRANCH   8  10
ENDBRANCH   7   8
ENDBRANCH   6   7
ENDBRANCH   5   6
ENDBRANCH   4   5
ENDBRANCH   3   4
ENDBRANCH   2   3
ENDBRANCH   1   2
BRANCH   1  24
ATOM     24  C   UNL A   1      39.542  22.434  26.322  1.00  0.00     0.188 C 
BRANCH  24  25
ATOM     25  C   UNL A   1      40.175  22.555  27.730  1.00  0.00     0.188 C 
BRANCH  25  26
ATOM     26  O   UNL A   1      41.491  22.033  27.844  1.00  0.00    -0.376 OA
BRANCH  26  27
ATOM     27  C   UNL A   1      41.841  20.896  27.077  1.00  0.00     0.202 C 
BRANCH  27  28
ATOM     28  C   UNL A   1      42.607  21.163  25.774  1.00  0.00     0.261 C 
BRANCH  28  29
ATOM     29  O   UNL A   1      43.235  20.019  25.180  1.00  0.00    -0.460 OA
BRANCH  29  30
ATOM     30  C   UNL A   1      44.473  20.208  24.679  1.00  0.00     0.338 C 
ATOM     31  O   UNL A   1      45.084  19.450  23.939  1.00  0.00    -0.246 OA
BRANCH  30  32
ATOM     32  C   UNL A   1      44.908  21.576  25.019  1.00  0.00     0.060 A 
ATOM     33  C   UNL A   1      45.463  21.809  26.282  1.00  0.00     0.016 A 
ATOM     34  C   UNL A   1      44.750  22.623  24.107  1.00  0.00     0.016 A 
ATOM     35  C   UNL A   1      45.804  23.106  26.661  1.00  0.00     0.010 A 
ATOM     36  C   UNL A   1      45.078  23.925  24.494  1.00  0.00     0.010 A 
ATOM     37  C   UNL A   1      45.563  24.178  25.791  1.00  0.00    -0.014 A 
BRANCH  37  38
ATOM     38  C   UNL A   1      45.619  25.561  26.323  1.00  0.00     0.031 A 
ATOM     39  C   UNL A   1      46.943  26.281  26.301  1.00  0.00     0.074 A 
ATOM     40  C   UNL A   1      44.507  26.196  26.737  1.00  0.00     0.049 A 
ATOM     41  N   UNL A   1      47.232  27.494  26.690  1.00  0.00    -0.248 NA
ATOM     42  C   UNL A   1      48.093  25.534  25.761  1.00  0.00     0.031 C 
ATOM     43  C   UNL A   1      43.162  25.621  26.749  1.00  0.00     0.029 A 
ATOM     44  N   UNL A   1      44.330  27.472  27.213  1.00  0.00    -0.354 N 
ATOM     45  C   UNL A   1      48.590  27.657  26.439  1.00  0.00     0.074 A 
ATOM     46  C   UNL A   1      49.078  26.409  25.900  1.00  0.00     0.031 C 
ATOM     47  C   UNL A   1      42.297  26.547  27.197  1.00  0.00     0.029 A 
ATOM     48  C   UNL A   1      43.027  27.767  27.540  1.00  0.00     0.049 A 
ATOM     49  H   UNL A   1      45.068  28.116  27.310  1.00  0.00     0.167 HD
ATOM     50  C   UNL A   1      49.356  28.757  26.624  1.00  0.00     0.034 A 
ATOM     51  C   UNL A   1      42.489  28.885  28.070  1.00  0.00     0.034 A 
ATOM     52  C   UNL A   1      48.860  30.001  27.152  1.00  0.00     0.049 A 
ATOM     53  C   UNL A   1      43.384  30.067  28.357  1.00  0.00     0.074 A 
ATOM     54  C   UNL A   1      49.556  31.177  27.367  1.00  0.00     0.029 A 
ATOM     55  N   UNL A   1      47.551  30.231  27.548  1.00  0.00    -0.354 N 
ATOM     56  N   UNL A   1      44.670  30.198  28.133  1.00  0.00    -0.248 NA
ATOM     57  C   UNL A   1      42.758  31.249  28.968  1.00  0.00     0.031 C 
ATOM     58  C   UNL A   1      48.686  32.094  27.962  1.00  0.00     0.029 A 
ATOM     59  C   UNL A   1      47.428  31.519  28.041  1.00  0.00     0.049 A 
ATOM     60  H   UNL A   1      46.818  29.576  27.488  1.00  0.00     0.167 HD
ATOM     61  C   UNL A   1      45.001  31.484  28.554  1.00  0.00     0.074 A 
ATOM     62  C   UNL A   1      43.780  32.091  29.040  1.00  0.00     0.031 C 
ATOM     63  C   UNL A   1      46.206  32.107  28.529  1.00  0.00     0.034 A 
BRANCH  50  64
ATOM     64  C   UNL A   1      50.819  28.668  26.285  1.00  0.00     0.023 A 
ATOM     65  C   UNL A   1      51.301  29.001  25.009  1.00  0.00     0.031 A 
ATOM     66  C   UNL A   1      51.750  28.307  27.274  1.00  0.00     0.131 A 
ATOM     67  C   UNL A   1      52.679  28.949  24.749  1.00  0.00     0.055 A 
ATOM     68  C   UNL A   1      53.122  28.311  27.027  1.00  0.00     0.041 A 
ATOM     69  F   UNL A   1      51.337  27.960  28.504  1.00  0.00    -0.206 F 
ATOM     70  C   UNL A   1      53.594  28.632  25.757  1.00  0.00     0.022 A 
BRANCH  67  71
ATOM     71  S   UNL A   1      53.261  29.257  23.061  1.00  0.00     0.124 S 
ATOM     72  O   UNL A   1      53.024  27.963  22.426  1.00  0.00    -0.237 OA
ATOM     73  O   UNL A   1      52.401  30.350  22.622  1.00  0.00    -0.237 OA
ATOM     74  O   UNL A   1      54.669  29.607  23.242  1.00  0.00    -0.744 OA
ENDBRANCH  67  71
ENDBRANCH  50  64
BRANCH  51  75
ATOM     75  C   UNL A   1      41.035  28.933  28.399  1.00  0.00     0.023 A 
ATOM     76  C   UNL A   1      40.579  28.810  29.721  1.00  0.00     0.031 A 
ATOM     77  C   UNL A   1      40.075  29.085  27.382  1.00  0.00     0.131 A 
ATOM     78  C   UNL A   1      39.201  28.820  29.989  1.00  0.00     0.055 A 
ATOM     79  C   UNL A   1      38.708  29.138  27.658  1.00  0.00     0.041 A 
ATOM     80  F   UNL A   1      40.457  29.205  26.100  1.00  0.00    -0.206 F 
ATOM     81  C   UNL A   1      38.263  28.998  28.968  1.00  0.00     0.022 A 
BRANCH  78  82
ATOM     82  S   UNL A   1      38.640  28.554  31.694  1.00  0.00     0.124 S 
ATOM     83  O   UNL A   1      37.197  28.713  31.559  1.00  0.00    -0.237 OA
ATOM     84  O   UNL A   1      39.115  27.201  31.962  1.00  0.00    -0.237 OA
ATOM     85  O   UNL A   1      39.319  29.609  32.443  1.00  0.00    -0.744 OA
ENDBRANCH  78  82
ENDBRANCH  51  75
BRANCH  63  86
ATOM     86  C   UNL A   1      46.274  33.532  29.015  1.00  0.00     0.023 A 
ATOM     87  C   UNL A   1      45.961  34.611  28.173  1.00  0.00     0.031 A 
ATOM     88  C   UNL A   1      46.571  33.802  30.363  1.00  0.00     0.131 A 
ATOM     89  C   UNL A   1      45.968  35.917  28.685  1.00  0.00     0.055 A 
ATOM     90  C   UNL A   1      46.531  35.097  30.878  1.00  0.00     0.041 A 
ATOM     91  F   UNL A   1      46.868  32.803  31.210  1.00  0.00    -0.206 F 
ATOM     92  C   UNL A   1      46.231  36.164  30.036  1.00  0.00     0.022 A 
BRANCH  89  93
ATOM     93  S   UNL A   1      45.648  37.298  27.555  1.00  0.00     0.124 S 
ATOM     94  O   UNL A   1      44.190  37.331  27.523  1.00  0.00    -0.237 OA
ATOM     95  O   UNL A   1      46.297  38.416  28.231  1.00  0.00    -0.237 OA
ATOM     96  O   UNL A   1      46.287  36.876  26.309  1.00  0.00    -0.744 OA
ENDBRANCH  89  93
ENDBRANCH  63  86
ENDBRANCH  37  38
ENDBRANCH  30  32
ENDBRANCH  29  30
ENDBRANCH  28  29
ENDBRANCH  27  28
ENDBRANCH  26  27
ENDBRANCH  25  26
ENDBRANCH  24  25
ENDBRANCH   1  24
TORSDOF 26
ENDMDL
MODEL 3
REMARK VINA RESULT:      -8.3      4.216      6.884
REMARK SMILES CCCC1CN(c2cc(C(=O)OCCOCCOCCOCCOC(=O)c3ccc(-c4c5nc(c(-c6cc(S(=O)(=O)[O-])ccc6F)c6ccc([nH]6)c(-c6cc(S(=O)(=O)[O-])ccc6F)c6nc(c(-c7cc(S(=O)(=O)[O-])ccc7F)c7ccc4[nH]7)C=C6)C=C5)cc3)ccc2F)C1
REMARK SMILES IDX 18 1 17 2 16 3 15 4 14 5 13 6 12 7 10 8 11 9 9 10 7 11 8 12
REMARK SMILES IDX 92 13 91 14 93 15 90 16 6 17 4 18 5 19 94 20 3 21 2 22 1 23
REMARK SMILES IDX 19 24 20 25 21 26 22 27 23 28 24 29 25 30 26 31 27 32 28 33
REMARK SMILES IDX 89 34 29 35 88 36 30 37 31 38 32 39 82 40 33 41 87 42 81 43
REMARK SMILES IDX 83 44 34 45 86 46 80 47 79 48 35 50 67 51 47 52 66 53 48 54
REMARK SMILES IDX 51 55 65 56 84 57 49 58 50 59 64 61 85 62 52 63 36 64 37 65
REMARK SMILES IDX 45 66 38 67 44 68 46 69 43 70 39 71 40 72 41 73 42 74 68 75
REMARK SMILES IDX 69 76 77 77 70 78 76 79 78 80 75 81 71 82 72 83 73 84 74 85
REMARK SMILES IDX 53 86 54 87 62 88 55 89 61 90 63 91 60 92 56 93 57 94 58 95
REMARK SMILES IDX 59 96
REMARK H PARENT 83 49 51 60
REMARK Flexibility Score: inf
ROOT
ATOM      1  O   UNL A   1      39.060  21.212  25.893  1.00  0.00    -0.377 OA
ENDROOT
BRANCH   1   2
ATOM      2  C   UNL A   1      37.898  21.514  25.142  1.00  0.00     0.188 C 
BRANCH   2   3
ATOM      3  C   UNL A   1      37.171  22.799  25.582  1.00  0.00     0.188 C 
BRANCH   3   4
ATOM      4  O   UNL A   1      35.894  22.988  25.009  1.00  0.00    -0.376 OA
BRANCH   4   5
ATOM      5  C   UNL A   1      35.271  24.260  24.945  1.00  0.00     0.202 C 
BRANCH   5   6
ATOM      6  C   UNL A   1      34.475  24.941  26.075  1.00  0.00     0.261 C 
BRANCH   6   7
ATOM      7  O   UNL A   1      33.080  25.162  25.881  1.00  0.00    -0.460 OA
BRANCH   7   8
ATOM      8  C   UNL A   1      32.224  24.175  26.215  1.00  0.00     0.338 C 
ATOM      9  O   UNL A   1      31.490  24.128  27.186  1.00  0.00    -0.246 OA
BRANCH   8  10
ATOM     10  C   UNL A   1      32.180  23.240  25.063  1.00  0.00     0.062 A 
ATOM     11  C   UNL A   1      32.407  20.980  24.215  1.00  0.00     0.074 A 
ATOM     12  C   UNL A   1      32.496  21.885  25.275  1.00  0.00     0.044 A 
ATOM     13  C   UNL A   1      32.004  21.458  22.955  1.00  0.00     0.146 A 
ATOM     14  C   UNL A   1      31.663  22.789  22.747  1.00  0.00     0.042 A 
ATOM     15  F   UNL A   1      31.940  20.612  21.914  1.00  0.00    -0.205 F 
ATOM     16  C   UNL A   1      31.747  23.687  23.805  1.00  0.00     0.019 A 
BRANCH  11  17
ATOM     17  N   UNL A   1      32.764  19.631  24.328  1.00  0.00    -0.368 N 
ATOM     18  C   UNL A   1      33.157  17.675  24.715  1.00  0.00     0.028 C 
ATOM     19  C   UNL A   1      32.370  18.451  23.624  1.00  0.00     0.122 C 
ATOM     20  C   UNL A   1      32.904  18.931  25.567  1.00  0.00     0.122 C 
BRANCH  18  21
ATOM     21  C   UNL A   1      32.638  16.316  25.157  1.00  0.00     0.007 C 
BRANCH  21  22
ATOM     22  C   UNL A   1      33.763  15.288  25.329  1.00  0.00    -0.003 C 
ATOM     23  C   UNL A   1      35.157  15.897  25.235  1.00  0.00     0.004 C 
ENDBRANCH  21  22
ENDBRANCH  18  21
ENDBRANCH  11  17
ENDBRANCH   8  10
ENDBRANCH   7   8
ENDBRANCH   6   7
ENDBRANCH   5   6
ENDBRANCH   4   5
ENDBRANCH   3   4
ENDBRANCH   2   3
ENDBRANCH   1   2
BRANCH   1  24
ATOM     24  C   UNL A   1      39.853  22.289  26.395  1.00  0.00     0.188 C 
BRANCH  24  25
ATOM     25  C   UNL A   1      40.494  22.266  27.805  1.00  0.00     0.188 C 
BRANCH  25  26
ATOM     26  O   UNL A   1      41.776  21.657  27.871  1.00  0.00    -0.376 OA
BRANCH  26  27
ATOM     27  C   UNL A   1      42.063  20.578  27.001  1.00  0.00     0.202 C 
BRANCH  27  28
ATOM     28  C   UNL A   1      42.771  20.934  25.686  1.00  0.00     0.261 C 
BRANCH  28  29
ATOM     29  O   UNL A   1      43.271  19.822  24.932  1.00  0.00    -0.460 OA
BRANCH  29  30
ATOM     30  C   UNL A   1      44.533  19.932  24.466  1.00  0.00     0.338 C 
ATOM     31  O   UNL A   1      45.125  19.124  23.766  1.00  0.00    -0.246 OA
BRANCH  30  32
ATOM     32  C   UNL A   1      45.029  21.285  24.786  1.00  0.00     0.060 A 
ATOM     33  C   UNL A   1      45.578  21.515  26.053  1.00  0.00     0.016 A 
ATOM     34  C   UNL A   1      44.933  22.320  23.853  1.00  0.00     0.016 A 
ATOM     35  C   UNL A   1      45.977  22.801  26.411  1.00  0.00     0.010 A 
ATOM     36  C   UNL A   1      45.319  23.612  24.220  1.00  0.00     0.010 A 
ATOM     37  C   UNL A   1      45.799  23.866  25.518  1.00  0.00    -0.014 A 
BRANCH  37  38
ATOM     38  C   UNL A   1      45.915  25.255  26.025  1.00  0.00     0.031 A 
ATOM     39  C   UNL A   1      47.276  25.903  26.024  1.00  0.00     0.074 A 
ATOM     40  C   UNL A   1      44.829  25.957  26.396  1.00  0.00     0.049 A 
ATOM     41  N   UNL A   1      47.620  27.107  26.397  1.00  0.00    -0.248 NA
ATOM     42  C   UNL A   1      48.398  25.085  25.529  1.00  0.00     0.031 C 
ATOM     43  C   UNL A   1      43.455  25.454  26.383  1.00  0.00     0.029 A 
ATOM     44  N   UNL A   1      44.708  27.250  26.842  1.00  0.00    -0.354 N 
ATOM     45  C   UNL A   1      48.990  27.193  26.179  1.00  0.00     0.074 A 
ATOM     46  C   UNL A   1      49.425  25.910  25.678  1.00  0.00     0.031 C 
ATOM     47  C   UNL A   1      42.629  26.434  26.790  1.00  0.00     0.029 A 
ATOM     48  C   UNL A   1      43.415  27.620  27.129  1.00  0.00     0.049 A 
ATOM     49  H   UNL A   1      45.476  27.856  26.946  1.00  0.00     0.167 HD
ATOM     50  C   UNL A   1      49.809  28.255  26.363  1.00  0.00     0.034 A 
ATOM     51  C   UNL A   1      42.923  28.776  27.622  1.00  0.00     0.034 A 
ATOM     52  C   UNL A   1      49.367  29.534  26.853  1.00  0.00     0.049 A 
ATOM     53  C   UNL A   1      43.873  29.915  27.910  1.00  0.00     0.074 A 
ATOM     54  C   UNL A   1      50.119  30.675  27.065  1.00  0.00     0.029 A 
ATOM     55  N   UNL A   1      48.062  29.841  27.210  1.00  0.00    -0.354 N 
ATOM     56  N   UNL A   1      45.170  29.973  27.719  1.00  0.00    -0.248 NA
ATOM     57  C   UNL A   1      43.296  31.140  28.481  1.00  0.00     0.031 C 
ATOM     58  C   UNL A   1      49.285  31.649  27.618  1.00  0.00     0.029 A 
ATOM     59  C   UNL A   1      47.996  31.143  27.675  1.00  0.00     0.049 A 
ATOM     60  H   UNL A   1      47.297  29.224  27.143  1.00  0.00     0.167 HD
ATOM     61  C   UNL A   1      45.558  31.248  28.122  1.00  0.00     0.074 A 
ATOM     62  C   UNL A   1      44.359  31.929  28.564  1.00  0.00     0.031 C 
ATOM     63  C   UNL A   1      46.795  31.805  28.118  1.00  0.00     0.034 A 
BRANCH  50  64
ATOM     64  C   UNL A   1      51.274  28.081  26.066  1.00  0.00     0.023 A 
ATOM     65  C   UNL A   1      51.777  28.188  24.759  1.00  0.00     0.031 A 
ATOM     66  C   UNL A   1      52.185  27.870  27.115  1.00  0.00     0.131 A 
ATOM     67  C   UNL A   1      53.157  28.066  24.532  1.00  0.00     0.055 A 
ATOM     68  C   UNL A   1      53.560  27.805  26.891  1.00  0.00     0.041 A 
ATOM     69  F   UNL A   1      51.751  27.740  28.379  1.00  0.00    -0.206 F 
ATOM     70  C   UNL A   1      54.053  27.902  25.592  1.00  0.00     0.022 A 
BRANCH  67  71
ATOM     71  S   UNL A   1      53.765  28.079  22.825  1.00  0.00     0.124 S 
ATOM     72  O   UNL A   1      54.731  29.174  22.863  1.00  0.00    -0.237 OA
ATOM     73  O   UNL A   1      54.323  26.740  22.676  1.00  0.00    -0.237 OA
ATOM     74  O   UNL A   1      52.563  28.343  22.035  1.00  0.00    -0.744 OA
ENDBRANCH  67  71
ENDBRANCH  50  64
BRANCH  51  75
ATOM     75  C   UNL A   1      41.466  28.908  27.911  1.00  0.00     0.023 A 
ATOM     76  C   UNL A   1      40.976  28.881  29.225  1.00  0.00     0.031 A 
ATOM     77  C   UNL A   1      40.538  29.044  26.863  1.00  0.00     0.131 A 
ATOM     78  C   UNL A   1      39.594  28.968  29.458  1.00  0.00     0.055 A 
ATOM     79  C   UNL A   1      39.169  29.174  27.101  1.00  0.00     0.041 A 
ATOM     80  F   UNL A   1      40.954  29.074  25.587  1.00  0.00    -0.206 F 
ATOM     81  C   UNL A   1      38.688  29.129  28.405  1.00  0.00     0.022 A 
BRANCH  78  82
ATOM     82  S   UNL A   1      38.983  28.825  31.160  1.00  0.00     0.124 S 
ATOM     83  O   UNL A   1      39.536  27.537  31.565  1.00  0.00    -0.237 OA
ATOM     84  O   UNL A   1      39.566  30.003  31.793  1.00  0.00    -0.237 OA
ATOM     85  O   UNL A   1      37.530  28.860  31.004  1.00  0.00    -0.744 OA
ENDBRANCH  78  82
ENDBRANCH  51  75
BRANCH  63  86
ATOM     86  C   UNL A   1      46.926  33.234  28.578  1.00  0.00     0.023 A 
ATOM     87  C   UNL A   1      46.842  34.307  27.676  1.00  0.00     0.031 A 
ATOM     88  C   UNL A   1      47.050  33.524  29.950  1.00  0.00     0.131 A 
ATOM     89  C   UNL A   1      46.899  35.624  28.156  1.00  0.00     0.055 A 
ATOM     90  C   UNL A   1      47.058  34.835  30.424  1.00  0.00     0.041 A 
ATOM     91  F   UNL A   1      47.125  32.532  30.852  1.00  0.00    -0.206 F 
ATOM     92  C   UNL A   1      46.985  35.894  29.525  1.00  0.00     0.022 A 
BRANCH  89  93
ATOM     93  S   UNL A   1      46.878  36.989  26.962  1.00  0.00     0.124 S 
ATOM     94  O   UNL A   1      48.267  37.433  26.985  1.00  0.00    -0.237 OA
ATOM     95  O   UNL A   1      46.440  36.329  25.736  1.00  0.00    -0.237 OA
ATOM     96  O   UNL A   1      45.916  37.930  27.534  1.00  0.00    -0.744 OA
ENDBRANCH  89  93
ENDBRANCH  63  86
ENDBRANCH  37  38
ENDBRANCH  30  32
ENDBRANCH  29  30
ENDBRANCH  28  29
ENDBRANCH  27  28
ENDBRANCH  26  27
ENDBRANCH  25  26
ENDBRANCH  24  25
ENDBRANCH   1  24
TORSDOF 26
ENDMDL
