MODEL 1
REMARK VINA RESULT:     -10.2      0.000      0.000
REMARK SMILES C[C@@H](C(=O)OCCOCCOCCOCCOC(=O)c1ccc(-c2c3nc(c(-c4cc(S(=O)(=O)[O-])ccc4F)c4ccc([nH]4)c(-c4cc(S(=O)(=O)[O-])ccc4F)c4nc(c(-c5cc(S(=O)(=O)[O-])ccc5F)c5ccc2[nH]5)C=C4)C=C3)cc1)c1ccc(Cc2ccoc2)cc1F
REMARK SMILES IDX 11 1 10 2 9 3 8 4 7 5 6 6 5 7 3 8 4 9 2 10 1 11 83 12 84 13
REMARK SMILES IDX 94 14 85 15 93 16 95 17 86 18 87 19 88 20 89 21 92 22 90 23
REMARK SMILES IDX 91 24 12 25 13 26 14 27 15 28 16 29 17 30 18 31 19 32 20 33
REMARK SMILES IDX 21 34 82 35 22 36 81 37 23 38 24 39 25 40 75 41 26 42 80 43
REMARK SMILES IDX 74 44 76 45 27 46 79 47 73 48 72 49 28 51 60 52 40 53 59 54
REMARK SMILES IDX 41 55 44 56 58 57 77 58 42 59 43 60 57 62 78 63 45 64 29 65
REMARK SMILES IDX 30 66 38 67 31 68 37 69 39 70 36 71 32 72 33 73 34 74 35 75
REMARK SMILES IDX 61 76 62 77 70 78 63 79 69 80 71 81 68 82 64 83 65 84 66 85
REMARK SMILES IDX 67 86 46 87 47 88 55 89 48 90 54 91 56 92 53 93 49 94 50 95
REMARK SMILES IDX 51 96 52 97
REMARK H PARENT 76 50 44 61
REMARK Flexibility Score: inf
ROOT
ATOM      1  O   UNL A   1      34.160  31.304  27.237  1.00  0.00    -0.377 OA
ENDROOT
BRANCH   1   2
ATOM      2  C   UNL A   1      33.199  30.263  27.207  1.00  0.00     0.188 C 
BRANCH   2   3
ATOM      3  C   UNL A   1      32.059  30.440  26.189  1.00  0.00     0.188 C 
BRANCH   3   4
ATOM      4  O   UNL A   1      32.093  29.578  25.070  1.00  0.00    -0.376 OA
BRANCH   4   5
ATOM      5  C   UNL A   1      31.020  28.685  24.797  1.00  0.00     0.202 C 
BRANCH   5   6
ATOM      6  C   UNL A   1      31.024  27.581  23.719  1.00  0.00     0.261 C 
BRANCH   6   7
ATOM      7  O   UNL A   1      32.078  27.656  22.757  1.00  0.00    -0.463 OA
BRANCH   7   8
ATOM      8  C   UNL A   1      33.241  27.011  22.995  1.00  0.00     0.313 C 
ATOM      9  O   UNL A   1      34.105  27.400  23.772  1.00  0.00    -0.252 OA
BRANCH   8  10
ATOM     10  C   UNL A   1      33.340  25.712  22.182  1.00  0.00     0.129 C 
ATOM     11  C   UNL A   1      32.509  25.819  20.885  1.00  0.00     0.025 C 
BRANCH  10  12
ATOM     12  C   UNL A   1      33.175  24.415  22.988  1.00  0.00     0.002 A 
ATOM     13  C   UNL A   1      32.915  24.410  24.371  1.00  0.00     0.008 A 
ATOM     14  C   UNL A   1      33.156  23.165  22.354  1.00  0.00     0.127 A 
ATOM     15  C   UNL A   1      32.619  23.219  25.063  1.00  0.00     0.004 A 
ATOM     16  C   UNL A   1      32.882  21.976  23.040  1.00  0.00     0.043 A 
ATOM     17  F   UNL A   1      33.368  23.069  21.036  1.00  0.00    -0.207 F 
ATOM     18  C   UNL A   1      32.578  21.983  24.405  1.00  0.00    -0.041 A 
BRANCH  18  19
ATOM     19  C   UNL A   1      32.033  20.731  25.057  1.00  0.00     0.074 C 
BRANCH  19  20
ATOM     20  C   UNL A   1      32.777  19.520  24.604  1.00  0.00    -0.005 A 
ATOM     21  C   UNL A   1      32.334  18.465  23.751  1.00  0.00     0.046 A 
ATOM     22  C   UNL A   1      34.122  19.265  24.808  1.00  0.00     0.198 A 
ATOM     23  C   UNL A   1      33.423  17.660  23.514  1.00  0.00     0.195 A 
ATOM     24  O   UNL A   1      34.516  18.146  24.151  1.00  0.00    -0.472 OA
ENDBRANCH  19  20
ENDBRANCH  18  19
ENDBRANCH  10  12
ENDBRANCH   8  10
ENDBRANCH   7   8
ENDBRANCH   6   7
ENDBRANCH   5   6
ENDBRANCH   4   5
ENDBRANCH   3   4
ENDBRANCH   2   3
ENDBRANCH   1   2
BRANCH   1  25
ATOM     25  C   UNL A   1      34.230  32.143  28.386  1.00  0.00     0.188 C 
BRANCH  25  26
ATOM     26  C   UNL A   1      33.747  33.610  28.347  1.00  0.00     0.188 C 
BRANCH  26  27
ATOM     27  O   UNL A   1      34.433  34.493  29.222  1.00  0.00    -0.376 OA
BRANCH  27  28
ATOM     28  C   UNL A   1      33.757  34.960  30.378  1.00  0.00     0.202 C 
BRANCH  28  29
ATOM     29  C   UNL A   1      34.448  34.749  31.736  1.00  0.00     0.261 C 
BRANCH  29  30
ATOM     30  O   UNL A   1      35.754  34.151  31.701  1.00  0.00    -0.460 OA
BRANCH  30  31
ATOM     31  C   UNL A   1      35.963  33.059  32.469  1.00  0.00     0.338 C 
ATOM     32  O   UNL A   1      35.340  32.739  33.468  1.00  0.00    -0.246 OA
BRANCH  31  33
ATOM     33  C   UNL A   1      36.948  32.202  31.777  1.00  0.00     0.060 A 
ATOM     34  C   UNL A   1      37.764  31.354  32.538  1.00  0.00     0.016 A 
ATOM     35  C   UNL A   1      37.062  32.232  30.385  1.00  0.00     0.016 A 
ATOM     36  C   UNL A   1      38.724  30.561  31.910  1.00  0.00     0.010 A 
ATOM     37  C   UNL A   1      38.040  31.454  29.761  1.00  0.00     0.010 A 
ATOM     38  C   UNL A   1      38.900  30.642  30.523  1.00  0.00    -0.014 A 
BRANCH  38  39
ATOM     39  C   UNL A   1      40.113  30.054  29.900  1.00  0.00     0.031 A 
ATOM     40  C   UNL A   1      41.345  30.913  29.797  1.00  0.00     0.074 A 
ATOM     41  C   UNL A   1      40.137  28.783  29.460  1.00  0.00     0.049 A 
ATOM     42  N   UNL A   1      42.498  30.656  29.237  1.00  0.00    -0.248 NA
ATOM     43  C   UNL A   1      41.255  32.248  30.408  1.00  0.00     0.031 C 
ATOM     44  C   UNL A   1      39.028  27.836  29.557  1.00  0.00     0.029 A 
ATOM     45  N   UNL A   1      41.133  28.073  28.837  1.00  0.00    -0.354 N 
ATOM     46  C   UNL A   1      43.270  31.797  29.424  1.00  0.00     0.074 A 
ATOM     47  C   UNL A   1      42.438  32.762  30.109  1.00  0.00     0.031 C 
ATOM     48  C   UNL A   1      39.402  26.670  28.999  1.00  0.00     0.029 A 
ATOM     49  C   UNL A   1      40.757  26.802  28.466  1.00  0.00     0.049 A 
ATOM     50  H   UNL A   1      42.033  28.438  28.671  1.00  0.00     0.167 HD
ATOM     51  C   UNL A   1      44.560  32.017  29.067  1.00  0.00     0.034 A 
ATOM     52  C   UNL A   1      41.419  25.869  27.749  1.00  0.00     0.034 A 
ATOM     53  C   UNL A   1      45.371  31.050  28.368  1.00  0.00     0.049 A 
ATOM     54  C   UNL A   1      42.819  26.174  27.265  1.00  0.00     0.074 A 
ATOM     55  C   UNL A   1      46.687  31.166  27.958  1.00  0.00     0.029 A 
ATOM     56  N   UNL A   1      44.939  29.793  27.962  1.00  0.00    -0.354 N 
ATOM     57  N   UNL A   1      43.540  27.257  27.443  1.00  0.00    -0.248 NA
ATOM     58  C   UNL A   1      43.495  25.126  26.488  1.00  0.00     0.031 C 
ATOM     59  C   UNL A   1      47.023  30.018  27.232  1.00  0.00     0.029 A 
ATOM     60  C   UNL A   1      45.951  29.141  27.272  1.00  0.00     0.049 A 
ATOM     61  H   UNL A   1      44.046  29.420  28.138  1.00  0.00     0.167 HD
ATOM     62  C   UNL A   1      44.768  27.004  26.831  1.00  0.00     0.074 A 
ATOM     63  C   UNL A   1      44.692  25.663  26.292  1.00  0.00     0.031 C 
ATOM     64  C   UNL A   1      45.861  27.805  26.731  1.00  0.00     0.034 A 
BRANCH  51  65
ATOM     65  C   UNL A   1      45.143  33.374  29.378  1.00  0.00     0.023 A 
ATOM     66  C   UNL A   1      45.190  34.400  28.417  1.00  0.00     0.031 A 
ATOM     67  C   UNL A   1      45.697  33.636  30.645  1.00  0.00     0.131 A 
ATOM     68  C   UNL A   1      45.843  35.606  28.710  1.00  0.00     0.055 A 
ATOM     69  C   UNL A   1      46.266  34.872  30.959  1.00  0.00     0.041 A 
ATOM     70  F   UNL A   1      45.708  32.688  31.595  1.00  0.00    -0.206 F 
ATOM     71  C   UNL A   1      46.356  35.860  29.983  1.00  0.00     0.022 A 
BRANCH  68  72
ATOM     72  S   UNL A   1      46.154  36.773  27.357  1.00  0.00     0.124 S 
ATOM     73  O   UNL A   1      44.850  37.418  27.219  1.00  0.00    -0.237 OA
ATOM     74  O   UNL A   1      47.224  37.604  27.897  1.00  0.00    -0.237 OA
ATOM     75  O   UNL A   1      46.536  35.911  26.241  1.00  0.00    -0.744 OA
ENDBRANCH  68  72
ENDBRANCH  51  65
BRANCH  52  76
ATOM     76  C   UNL A   1      40.759  24.578  27.394  1.00  0.00     0.023 A 
ATOM     77  C   UNL A   1      41.404  23.347  27.595  1.00  0.00     0.031 A 
ATOM     78  C   UNL A   1      39.489  24.562  26.788  1.00  0.00     0.131 A 
ATOM     79  C   UNL A   1      40.801  22.159  27.150  1.00  0.00     0.055 A 
ATOM     80  C   UNL A   1      38.866  23.373  26.405  1.00  0.00     0.041 A 
ATOM     81  F   UNL A   1      38.829  25.709  26.564  1.00  0.00    -0.206 F 
ATOM     82  C   UNL A   1      39.530  22.162  26.573  1.00  0.00     0.022 A 
BRANCH  79  83
ATOM     83  S   UNL A   1      41.747  20.613  27.247  1.00  0.00     0.124 S 
ATOM     84  O   UNL A   1      40.814  19.740  27.952  1.00  0.00    -0.237 OA
ATOM     85  O   UNL A   1      41.971  20.308  25.838  1.00  0.00    -0.237 OA
ATOM     86  O   UNL A   1      42.940  20.991  28.000  1.00  0.00    -0.744 OA
ENDBRANCH  79  83
ENDBRANCH  52  76
BRANCH  64  87
ATOM     87  C   UNL A   1      47.086  27.228  26.057  1.00  0.00     0.023 A 
ATOM     88  C   UNL A   1      48.068  26.520  26.772  1.00  0.00     0.031 A 
ATOM     89  C   UNL A   1      47.272  27.393  24.673  1.00  0.00     0.131 A 
ATOM     90  C   UNL A   1      49.216  26.055  26.112  1.00  0.00     0.055 A 
ATOM     91  C   UNL A   1      48.381  26.867  24.008  1.00  0.00     0.041 A 
ATOM     92  F   UNL A   1      46.371  28.064  23.937  1.00  0.00    -0.206 F 
ATOM     93  C   UNL A   1      49.369  26.205  24.732  1.00  0.00     0.022 A 
BRANCH  90  94
ATOM     94  S   UNL A   1      50.560  25.341  27.099  1.00  0.00     0.124 S 
ATOM     95  O   UNL A   1      50.969  26.477  27.920  1.00  0.00    -0.237 OA
ATOM     96  O   UNL A   1      49.888  24.254  27.804  1.00  0.00    -0.237 OA
ATOM     97  O   UNL A   1      51.536  24.918  26.095  1.00  0.00    -0.744 OA
ENDBRANCH  90  94
ENDBRANCH  64  87
ENDBRANCH  38  39
ENDBRANCH  31  33
ENDBRANCH  30  31
ENDBRANCH  29  30
ENDBRANCH  28  29
ENDBRANCH  27  28
ENDBRANCH  26  27
ENDBRANCH  25  26
ENDBRANCH   1  25
TORSDOF 26
ENDMDL
MODEL 2
REMARK VINA RESULT:     -10.0      5.347      8.999
REMARK SMILES C[C@@H](C(=O)OCCOCCOCCOCCOC(=O)c1ccc(-c2c3nc(c(-c4cc(S(=O)(=O)[O-])ccc4F)c4ccc([nH]4)c(-c4cc(S(=O)(=O)[O-])ccc4F)c4nc(c(-c5cc(S(=O)(=O)[O-])ccc5F)c5ccc2[nH]5)C=C4)C=C3)cc1)c1ccc(Cc2ccoc2)cc1F
REMARK SMILES IDX 11 1 10 2 9 3 8 4 7 5 6 6 5 7 3 8 4 9 2 10 1 11 83 12 84 13
REMARK SMILES IDX 94 14 85 15 93 16 95 17 86 18 87 19 88 20 89 21 92 22 90 23
REMARK SMILES IDX 91 24 12 25 13 26 14 27 15 28 16 29 17 30 18 31 19 32 20 33
REMARK SMILES IDX 21 34 82 35 22 36 81 37 23 38 24 39 25 40 75 41 26 42 80 43
REMARK SMILES IDX 74 44 76 45 27 46 79 47 73 48 72 49 28 51 60 52 40 53 59 54
REMARK SMILES IDX 41 55 44 56 58 57 77 58 42 59 43 60 57 62 78 63 45 64 29 65
REMARK SMILES IDX 30 66 38 67 31 68 37 69 39 70 36 71 32 72 33 73 34 74 35 75
REMARK SMILES IDX 61 76 62 77 70 78 63 79 69 80 71 81 68 82 64 83 65 84 66 85
REMARK SMILES IDX 67 86 46 87 47 88 55 89 48 90 54 91 56 92 53 93 49 94 50 95
REMARK SMILES IDX 51 96 52 97
REMARK H PARENT 76 50 44 61
REMARK Flexibility Score: inf
ROOT
ATOM      1  O   UNL A   1      34.000  30.027  26.739  1.00  0.00    -0.377 OA
ENDROOT
BRANCH   1   2
ATOM      2  C   UNL A   1      33.865  28.684  27.168  1.00  0.00     0.188 C 
BRANCH   2   3
ATOM      3  C   UNL A   1      32.650  27.926  26.607  1.00  0.00     0.188 C 
BRANCH   3   4
ATOM      4  O   UNL A   1      32.906  27.077  25.507  1.00  0.00    -0.376 OA
BRANCH   4   5
ATOM      5  C   UNL A   1      31.878  26.735  24.587  1.00  0.00     0.202 C 
BRANCH   5   6
ATOM      6  C   UNL A   1      32.087  26.041  23.224  1.00  0.00     0.261 C 
BRANCH   6   7
ATOM      7  O   UNL A   1      32.829  24.820  23.258  1.00  0.00    -0.463 OA
BRANCH   7   8
ATOM      8  C   UNL A   1      32.167  23.642  23.259  1.00  0.00     0.313 C 
ATOM      9  O   UNL A   1      30.950  23.528  23.334  1.00  0.00    -0.252 OA
BRANCH   8  10
ATOM     10  C   UNL A   1      33.134  22.454  23.136  1.00  0.00     0.129 C 
ATOM     11  C   UNL A   1      32.386  21.121  23.356  1.00  0.00     0.025 C 
BRANCH  10  12
ATOM     12  C   UNL A   1      34.470  22.613  23.877  1.00  0.00     0.002 A 
ATOM     13  C   UNL A   1      35.688  22.822  23.206  1.00  0.00     0.008 A 
ATOM     14  C   UNL A   1      34.519  22.678  25.276  1.00  0.00     0.127 A 
ATOM     15  C   UNL A   1      36.877  23.115  23.904  1.00  0.00     0.004 A 
ATOM     16  C   UNL A   1      35.700  22.948  25.977  1.00  0.00     0.043 A 
ATOM     17  F   UNL A   1      33.407  22.516  26.003  1.00  0.00    -0.207 F 
ATOM     18  C   UNL A   1      36.899  23.202  25.302  1.00  0.00    -0.041 A 
BRANCH  18  19
ATOM     19  C   UNL A   1      38.087  23.745  26.066  1.00  0.00     0.074 C 
BRANCH  19  20
ATOM     20  C   UNL A   1      39.051  22.660  26.407  1.00  0.00    -0.005 A 
ATOM     21  C   UNL A   1      39.126  21.333  25.886  1.00  0.00     0.046 A 
ATOM     22  C   UNL A   1      40.178  22.790  27.200  1.00  0.00     0.198 A 
ATOM     23  C   UNL A   1      40.268  20.767  26.402  1.00  0.00     0.195 A 
ATOM     24  O   UNL A   1      40.916  21.651  27.198  1.00  0.00    -0.472 OA
ENDBRANCH  19  20
ENDBRANCH  18  19
ENDBRANCH  10  12
ENDBRANCH   8  10
ENDBRANCH   7   8
ENDBRANCH   6   7
ENDBRANCH   5   6
ENDBRANCH   4   5
ENDBRANCH   3   4
ENDBRANCH   2   3
ENDBRANCH   1   2
BRANCH   1  25
ATOM     25  C   UNL A   1      33.641  31.076  27.634  1.00  0.00     0.188 C 
BRANCH  25  26
ATOM     26  C   UNL A   1      34.508  32.346  27.782  1.00  0.00     0.188 C 
BRANCH  26  27
ATOM     27  O   UNL A   1      34.098  33.239  28.808  1.00  0.00    -0.376 OA
BRANCH  27  28
ATOM     28  C   UNL A   1      33.832  34.588  28.461  1.00  0.00     0.202 C 
BRANCH  28  29
ATOM     29  C   UNL A   1      32.935  35.399  29.411  1.00  0.00     0.261 C 
BRANCH  29  30
ATOM     30  O   UNL A   1      33.566  35.930  30.588  1.00  0.00    -0.460 OA
BRANCH  30  31
ATOM     31  C   UNL A   1      33.463  35.216  31.730  1.00  0.00     0.338 C 
ATOM     32  O   UNL A   1      32.474  35.106  32.436  1.00  0.00    -0.246 OA
BRANCH  31  33
ATOM     33  C   UNL A   1      34.698  34.418  31.877  1.00  0.00     0.060 A 
ATOM     34  C   UNL A   1      34.621  33.147  32.462  1.00  0.00     0.016 A 
ATOM     35  C   UNL A   1      35.924  34.919  31.434  1.00  0.00     0.016 A 
ATOM     36  C   UNL A   1      35.778  32.390  32.643  1.00  0.00     0.010 A 
ATOM     37  C   UNL A   1      37.085  34.169  31.637  1.00  0.00     0.010 A 
ATOM     38  C   UNL A   1      37.023  32.916  32.275  1.00  0.00    -0.014 A 
BRANCH  38  39
ATOM     39  C   UNL A   1      38.268  32.262  32.751  1.00  0.00     0.031 A 
ATOM     40  C   UNL A   1      38.889  31.201  31.882  1.00  0.00     0.074 A 
ATOM     41  C   UNL A   1      38.854  32.615  33.910  1.00  0.00     0.049 A 
ATOM     42  N   UNL A   1      39.929  30.442  32.106  1.00  0.00    -0.248 NA
ATOM     43  C   UNL A   1      38.239  30.967  30.583  1.00  0.00     0.031 C 
ATOM     44  C   UNL A   1      38.381  33.666  34.808  1.00  0.00     0.029 A 
ATOM     45  N   UNL A   1      39.973  32.119  34.531  1.00  0.00    -0.354 N 
ATOM     46  C   UNL A   1      40.056  29.636  30.980  1.00  0.00     0.074 A 
ATOM     47  C   UNL A   1      38.960  29.970  30.096  1.00  0.00     0.031 C 
ATOM     48  C   UNL A   1      39.199  33.727  35.874  1.00  0.00     0.029 A 
ATOM     49  C   UNL A   1      40.225  32.691  35.756  1.00  0.00     0.049 A 
ATOM     50  H   UNL A   1      40.543  31.419  34.136  1.00  0.00     0.167 HD
ATOM     51  C   UNL A   1      41.007  28.709  30.702  1.00  0.00     0.034 A 
ATOM     52  C   UNL A   1      41.154  32.389  36.688  1.00  0.00     0.034 A 
ATOM     53  C   UNL A   1      42.082  28.374  31.603  1.00  0.00     0.049 A 
ATOM     54  C   UNL A   1      42.140  31.278  36.406  1.00  0.00     0.074 A 
ATOM     55  C   UNL A   1      43.100  27.453  31.425  1.00  0.00     0.029 A 
ATOM     56  N   UNL A   1      42.275  28.938  32.859  1.00  0.00    -0.354 N 
ATOM     57  N   UNL A   1      42.250  30.518  35.340  1.00  0.00    -0.248 NA
ATOM     58  C   UNL A   1      43.129  30.987  37.453  1.00  0.00     0.031 C 
ATOM     59  C   UNL A   1      43.853  27.399  32.602  1.00  0.00     0.029 A 
ATOM     60  C   UNL A   1      43.369  28.355  33.480  1.00  0.00     0.049 A 
ATOM     61  H   UNL A   1      41.715  29.647  33.250  1.00  0.00     0.167 HD
ATOM     62  C   UNL A   1      43.345  29.686  35.575  1.00  0.00     0.074 A 
ATOM     63  C   UNL A   1      43.866  30.047  36.877  1.00  0.00     0.031 C 
ATOM     64  C   UNL A   1      43.876  28.718  34.784  1.00  0.00     0.034 A 
BRANCH  51  65
ATOM     65  C   UNL A   1      40.882  27.958  29.399  1.00  0.00     0.023 A 
ATOM     66  C   UNL A   1      41.744  28.203  28.315  1.00  0.00     0.031 A 
ATOM     67  C   UNL A   1      39.861  27.006  29.222  1.00  0.00     0.131 A 
ATOM     68  C   UNL A   1      41.523  27.567  27.085  1.00  0.00     0.055 A 
ATOM     69  C   UNL A   1      39.702  26.310  28.023  1.00  0.00     0.041 A 
ATOM     70  F   UNL A   1      38.989  26.749  30.209  1.00  0.00    -0.206 F 
ATOM     71  C   UNL A   1      40.525  26.601  26.939  1.00  0.00     0.022 A 
BRANCH  68  72
ATOM     72  S   UNL A   1      42.452  28.137  25.636  1.00  0.00     0.124 S 
ATOM     73  O   UNL A   1      42.525  26.917  24.834  1.00  0.00    -0.237 OA
ATOM     74  O   UNL A   1      41.599  29.196  25.110  1.00  0.00    -0.237 OA
ATOM     75  O   UNL A   1      43.725  28.580  26.197  1.00  0.00    -0.744 OA
ENDBRANCH  68  72
ENDBRANCH  51  65
BRANCH  52  76
ATOM     76  C   UNL A   1      41.174  33.106  37.998  1.00  0.00     0.023 A 
ATOM     77  C   UNL A   1      40.391  32.673  39.080  1.00  0.00     0.031 A 
ATOM     78  C   UNL A   1      41.935  34.278  38.165  1.00  0.00     0.131 A 
ATOM     79  C   UNL A   1      40.349  33.432  40.261  1.00  0.00     0.055 A 
ATOM     80  C   UNL A   1      41.938  34.994  39.364  1.00  0.00     0.041 A 
ATOM     81  F   UNL A   1      42.696  34.743  37.161  1.00  0.00    -0.206 F 
ATOM     82  C   UNL A   1      41.130  34.579  40.416  1.00  0.00     0.022 A 
BRANCH  79  83
ATOM     83  S   UNL A   1      39.178  32.952  41.563  1.00  0.00     0.124 S 
ATOM     84  O   UNL A   1      38.019  33.775  41.235  1.00  0.00    -0.237 OA
ATOM     85  O   UNL A   1      39.035  31.520  41.328  1.00  0.00    -0.237 OA
ATOM     86  O   UNL A   1      39.874  33.314  42.796  1.00  0.00    -0.744 OA
ENDBRANCH  79  83
ENDBRANCH  52  76
BRANCH  64  87
ATOM     87  C   UNL A   1      45.119  28.016  35.283  1.00  0.00     0.023 A 
ATOM     88  C   UNL A   1      45.057  26.828  36.032  1.00  0.00     0.031 A 
ATOM     89  C   UNL A   1      46.389  28.551  35.002  1.00  0.00     0.131 A 
ATOM     90  C   UNL A   1      46.236  26.247  36.522  1.00  0.00     0.055 A 
ATOM     91  C   UNL A   1      47.564  27.930  35.432  1.00  0.00     0.041 A 
ATOM     92  F   UNL A   1      46.513  29.686  34.296  1.00  0.00    -0.206 F 
ATOM     93  C   UNL A   1      47.490  26.778  36.209  1.00  0.00     0.022 A 
BRANCH  90  94
ATOM     94  S   UNL A   1      46.107  24.843  37.664  1.00  0.00     0.124 S 
ATOM     95  O   UNL A   1      47.188  25.118  38.605  1.00  0.00    -0.237 OA
ATOM     96  O   UNL A   1      44.753  24.988  38.187  1.00  0.00    -0.237 OA
ATOM     97  O   UNL A   1      46.317  23.680  36.802  1.00  0.00    -0.744 OA
ENDBRANCH  90  94
ENDBRANCH  64  87
ENDBRANCH  38  39
ENDBRANCH  31  33
ENDBRANCH  30  31
ENDBRANCH  29  30
ENDBRANCH  28  29
ENDBRANCH  27  28
ENDBRANCH  26  27
ENDBRANCH  25  26
ENDBRANCH   1  25
TORSDOF 26
ENDMDL
MODEL 3
REMARK VINA RESULT:      -9.2      5.947      9.076
REMARK SMILES C[C@@H](C(=O)OCCOCCOCCOCCOC(=O)c1ccc(-c2c3nc(c(-c4cc(S(=O)(=O)[O-])ccc4F)c4ccc([nH]4)c(-c4cc(S(=O)(=O)[O-])ccc4F)c4nc(c(-c5cc(S(=O)(=O)[O-])ccc5F)c5ccc2[nH]5)C=C4)C=C3)cc1)c1ccc(Cc2ccoc2)cc1F
REMARK SMILES IDX 11 1 10 2 9 3 8 4 7 5 6 6 5 7 3 8 4 9 2 10 1 11 83 12 84 13
REMARK SMILES IDX 94 14 85 15 93 16 95 17 86 18 87 19 88 20 89 21 92 22 90 23
REMARK SMILES IDX 91 24 12 25 13 26 14 27 15 28 16 29 17 30 18 31 19 32 20 33
REMARK SMILES IDX 21 34 82 35 22 36 81 37 23 38 24 39 25 40 75 41 26 42 80 43
REMARK SMILES IDX 74 44 76 45 27 46 79 47 73 48 72 49 28 51 60 52 40 53 59 54
REMARK SMILES IDX 41 55 44 56 58 57 77 58 42 59 43 60 57 62 78 63 45 64 29 65
REMARK SMILES IDX 30 66 38 67 31 68 37 69 39 70 36 71 32 72 33 73 34 74 35 75
REMARK SMILES IDX 61 76 62 77 70 78 63 79 69 80 71 81 68 82 64 83 65 84 66 85
REMARK SMILES IDX 67 86 46 87 47 88 55 89 48 90 54 91 56 92 53 93 49 94 50 95
REMARK SMILES IDX 51 96 52 97
REMARK H PARENT 76 50 44 61
REMARK Flexibility Score: inf
ROOT
ATOM      1  O   UNL A   1      33.712  30.100  26.450  1.00  0.00    -0.377 OA
ENDROOT
BRANCH   1   2
ATOM      2  C   UNL A   1      33.547  28.724  26.739  1.00  0.00     0.188 C 
BRANCH   2   3
ATOM      3  C   UNL A   1      32.297  28.062  26.134  1.00  0.00     0.188 C 
BRANCH   3   4
ATOM      4  O   UNL A   1      32.505  27.309  24.956  1.00  0.00    -0.376 OA
BRANCH   4   5
ATOM      5  C   UNL A   1      31.413  26.883  24.153  1.00  0.00     0.202 C 
BRANCH   5   6
ATOM      6  C   UNL A   1      31.520  26.034  22.869  1.00  0.00     0.261 C 
BRANCH   6   7
ATOM      7  O   UNL A   1      32.412  24.919  22.935  1.00  0.00    -0.463 OA
BRANCH   7   8
ATOM      8  C   UNL A   1      31.960  23.734  23.401  1.00  0.00     0.313 C 
ATOM      9  O   UNL A   1      30.863  23.564  23.918  1.00  0.00    -0.252 OA
BRANCH   8  10
ATOM     10  C   UNL A   1      32.990  22.615  23.186  1.00  0.00     0.129 C 
ATOM     11  C   UNL A   1      32.320  21.230  23.311  1.00  0.00     0.025 C 
BRANCH  10  12
ATOM     12  C   UNL A   1      34.322  22.795  23.928  1.00  0.00     0.002 A 
ATOM     13  C   UNL A   1      35.552  22.924  23.258  1.00  0.00     0.008 A 
ATOM     14  C   UNL A   1      34.359  22.960  25.320  1.00  0.00     0.127 A 
ATOM     15  C   UNL A   1      36.741  23.237  23.947  1.00  0.00     0.004 A 
ATOM     16  C   UNL A   1      35.540  23.251  26.013  1.00  0.00     0.043 A 
ATOM     17  F   UNL A   1      33.237  22.879  26.044  1.00  0.00    -0.207 F 
ATOM     18  C   UNL A   1      36.752  23.425  25.335  1.00  0.00    -0.041 A 
BRANCH  18  19
ATOM     19  C   UNL A   1      37.946  23.992  26.071  1.00  0.00     0.074 C 
BRANCH  19  20
ATOM     20  C   UNL A   1      38.910  22.918  26.444  1.00  0.00    -0.005 A 
ATOM     21  C   UNL A   1      39.055  21.613  25.886  1.00  0.00     0.046 A 
ATOM     22  C   UNL A   1      39.976  23.046  27.318  1.00  0.00     0.198 A 
ATOM     23  C   UNL A   1      40.172  21.055  26.462  1.00  0.00     0.195 A 
ATOM     24  O   UNL A   1      40.740  21.926  27.331  1.00  0.00    -0.472 OA
ENDBRANCH  19  20
ENDBRANCH  18  19
ENDBRANCH  10  12
ENDBRANCH   8  10
ENDBRANCH   7   8
ENDBRANCH   6   7
ENDBRANCH   5   6
ENDBRANCH   4   5
ENDBRANCH   3   4
ENDBRANCH   2   3
ENDBRANCH   1   2
BRANCH   1  25
ATOM     25  C   UNL A   1      33.333  31.060  27.432  1.00  0.00     0.188 C 
BRANCH  25  26
ATOM     26  C   UNL A   1      34.364  32.021  28.064  1.00  0.00     0.188 C 
BRANCH  26  27
ATOM     27  O   UNL A   1      33.836  32.925  29.024  1.00  0.00    -0.376 OA
BRANCH  27  28
ATOM     28  C   UNL A   1      33.932  34.316  28.766  1.00  0.00     0.202 C 
BRANCH  28  29
ATOM     29  C   UNL A   1      32.953  35.242  29.507  1.00  0.00     0.261 C 
BRANCH  29  30
ATOM     30  O   UNL A   1      33.423  35.816  30.737  1.00  0.00    -0.460 OA
BRANCH  30  31
ATOM     31  C   UNL A   1      33.245  35.103  31.870  1.00  0.00     0.338 C 
ATOM     32  O   UNL A   1      32.187  34.887  32.439  1.00  0.00    -0.246 OA
BRANCH  31  33
ATOM     33  C   UNL A   1      34.528  34.449  32.199  1.00  0.00     0.060 A 
ATOM     34  C   UNL A   1      34.513  33.168  32.769  1.00  0.00     0.016 A 
ATOM     35  C   UNL A   1      35.740  35.094  31.943  1.00  0.00     0.016 A 
ATOM     36  C   UNL A   1      35.710  32.546  33.120  1.00  0.00     0.010 A 
ATOM     37  C   UNL A   1      36.937  34.478  32.317  1.00  0.00     0.010 A 
ATOM     38  C   UNL A   1      36.926  33.216  32.940  1.00  0.00    -0.014 A 
BRANCH  38  39
ATOM     39  C   UNL A   1      38.155  32.701  33.597  1.00  0.00     0.031 A 
ATOM     40  C   UNL A   1      38.376  33.033  35.048  1.00  0.00     0.074 A 
ATOM     41  C   UNL A   1      39.041  31.934  32.936  1.00  0.00     0.049 A 
ATOM     42  N   UNL A   1      39.394  32.762  35.821  1.00  0.00    -0.248 NA
ATOM     43  C   UNL A   1      37.296  33.779  35.712  1.00  0.00     0.031 C 
ATOM     44  C   UNL A   1      38.909  31.497  31.548  1.00  0.00     0.029 A 
ATOM     45  N   UNL A   1      40.234  31.393  33.348  1.00  0.00    -0.354 N 
ATOM     46  C   UNL A   1      39.082  33.307  37.061  1.00  0.00     0.074 A 
ATOM     47  C   UNL A   1      37.800  33.963  36.922  1.00  0.00     0.031 C 
ATOM     48  C   UNL A   1      39.988  30.764  31.218  1.00  0.00     0.029 A 
ATOM     49  C   UNL A   1      40.906  30.718  32.355  1.00  0.00     0.049 A 
ATOM     50  H   UNL A   1      40.576  31.479  34.267  1.00  0.00     0.167 HD
ATOM     51  C   UNL A   1      39.794  33.257  38.214  1.00  0.00     0.034 A 
ATOM     52  C   UNL A   1      42.136  30.159  32.356  1.00  0.00     0.034 A 
ATOM     53  C   UNL A   1      41.081  32.615  38.331  1.00  0.00     0.049 A 
ATOM     54  C   UNL A   1      42.961  30.208  33.622  1.00  0.00     0.074 A 
ATOM     55  C   UNL A   1      41.889  32.503  39.448  1.00  0.00     0.029 A 
ATOM     56  N   UNL A   1      41.755  31.987  37.290  1.00  0.00    -0.354 N 
ATOM     57  N   UNL A   1      42.659  30.729  34.789  1.00  0.00    -0.248 NA
ATOM     58  C   UNL A   1      44.292  29.587  33.570  1.00  0.00     0.031 C 
ATOM     59  C   UNL A   1      43.084  31.886  39.065  1.00  0.00     0.029 A 
ATOM     60  C   UNL A   1      42.985  31.522  37.732  1.00  0.00     0.049 A 
ATOM     61  H   UNL A   1      41.410  31.887  36.374  1.00  0.00     0.167 HD
ATOM     62  C   UNL A   1      43.749  30.465  35.619  1.00  0.00     0.074 A 
ATOM     63  C   UNL A   1      44.707  29.729  34.822  1.00  0.00     0.031 C 
ATOM     64  C   UNL A   1      43.937  30.795  36.924  1.00  0.00     0.034 A 
BRANCH  51  65
ATOM     65  C   UNL A   1      39.218  33.965  39.416  1.00  0.00     0.023 A 
ATOM     66  C   UNL A   1      38.438  33.290  40.373  1.00  0.00     0.031 A 
ATOM     67  C   UNL A   1      39.419  35.347  39.591  1.00  0.00     0.131 A 
ATOM     68  C   UNL A   1      37.826  34.008  41.411  1.00  0.00     0.055 A 
ATOM     69  C   UNL A   1      38.881  36.039  40.677  1.00  0.00     0.041 A 
ATOM     70  F   UNL A   1      40.130  36.052  38.697  1.00  0.00    -0.206 F 
ATOM     71  C   UNL A   1      38.065  35.372  41.586  1.00  0.00     0.022 A 
BRANCH  68  72
ATOM     72  S   UNL A   1      36.586  33.166  42.432  1.00  0.00     0.124 S 
ATOM     73  O   UNL A   1      35.616  32.740  41.426  1.00  0.00    -0.237 OA
ATOM     74  O   UNL A   1      37.363  32.104  43.061  1.00  0.00    -0.237 OA
ATOM     75  O   UNL A   1      36.116  34.214  43.335  1.00  0.00    -0.744 OA
ENDBRANCH  68  72
ENDBRANCH  51  65
BRANCH  52  76
ATOM     76  C   UNL A   1      42.692  29.550  31.111  1.00  0.00     0.023 A 
ATOM     77  C   UNL A   1      43.470  30.300  30.215  1.00  0.00     0.031 A 
ATOM     78  C   UNL A   1      42.398  28.217  30.769  1.00  0.00     0.131 A 
ATOM     79  C   UNL A   1      43.885  29.729  29.001  1.00  0.00     0.055 A 
ATOM     80  C   UNL A   1      42.866  27.635  29.590  1.00  0.00     0.041 A 
ATOM     81  F   UNL A   1      41.650  27.456  31.584  1.00  0.00    -0.206 F 
ATOM     82  C   UNL A   1      43.604  28.397  28.691  1.00  0.00     0.022 A 
BRANCH  79  83
ATOM     83  S   UNL A   1      44.719  30.784  27.783  1.00  0.00     0.124 S 
ATOM     84  O   UNL A   1      44.533  32.110  28.363  1.00  0.00    -0.237 OA
ATOM     85  O   UNL A   1      46.079  30.258  27.807  1.00  0.00    -0.237 OA
ATOM     86  O   UNL A   1      43.977  30.532  26.549  1.00  0.00    -0.744 OA
ENDBRANCH  79  83
ENDBRANCH  52  76
BRANCH  64  87
ATOM     87  C   UNL A   1      45.207  30.311  37.587  1.00  0.00     0.023 A 
ATOM     88  C   UNL A   1      45.283  29.069  38.240  1.00  0.00     0.031 A 
ATOM     89  C   UNL A   1      46.363  31.113  37.564  1.00  0.00     0.131 A 
ATOM     90  C   UNL A   1      46.467  28.691  38.892  1.00  0.00     0.055 A 
ATOM     91  C   UNL A   1      47.560  30.701  38.153  1.00  0.00     0.041 A 
ATOM     92  F   UNL A   1      46.352  32.312  36.960  1.00  0.00    -0.206 F 
ATOM     93  C   UNL A   1      47.612  29.489  38.834  1.00  0.00     0.022 A 
BRANCH  90  94
ATOM     94  S   UNL A   1      46.462  27.187  39.907  1.00  0.00     0.124 S 
ATOM     95  O   UNL A   1      47.884  26.870  39.984  1.00  0.00    -0.237 OA
ATOM     96  O   UNL A   1      45.843  27.647  41.146  1.00  0.00    -0.237 OA
ATOM     97  O   UNL A   1      45.659  26.248  39.124  1.00  0.00    -0.744 OA
ENDBRANCH  90  94
ENDBRANCH  64  87
ENDBRANCH  38  39
ENDBRANCH  31  33
ENDBRANCH  30  31
ENDBRANCH  29  30
ENDBRANCH  28  29
ENDBRANCH  27  28
ENDBRANCH  26  27
ENDBRANCH  25  26
ENDBRANCH   1  25
TORSDOF 26
ENDMDL
