MODEL 1
REMARK VINA RESULT:     -10.0      0.000      0.000
REMARK SMILES O=C(OCCOCCOCCOCCOC(=O)[C@@H]1CN(c2nc(-c3ccccc3)no2)CC[NH2+]1)c1ccc(-c2c3nc(c(-c4cc(S(=O)(=O)[O-])ccc4F)c4ccc([nH]4)c(-c4cc(S(=O)(=O)[O-])ccc4F)c4nc(c(-c5cc(S(=O)(=O)[O-])ccc5F)c5ccc2[nH]5)C=C4)C=C3)cc1
REMARK SMILES IDX 8 1 7 2 6 3 5 4 4 5 3 6 2 7 1 8 35 9 36 10 97 11 37 12 96 13
REMARK SMILES IDX 38 14 39 15 40 16 90 17 41 18 95 19 89 20 91 21 42 22 94 23
REMARK SMILES IDX 88 24 87 25 43 27 75 28 55 29 74 30 56 31 59 32 73 33 92 34
REMARK SMILES IDX 57 35 58 36 72 38 93 39 60 40 44 41 45 42 53 43 46 44 52 45
REMARK SMILES IDX 54 46 51 47 47 48 48 49 49 50 50 51 76 52 77 53 85 54 78 55
REMARK SMILES IDX 84 56 86 57 83 58 79 59 80 60 81 61 82 62 61 63 62 64 70 65
REMARK SMILES IDX 63 66 69 67 71 68 68 69 64 70 65 71 66 72 67 73 9 74 10 75
REMARK SMILES IDX 11 76 12 77 13 78 14 79 15 80 16 81 17 82 18 83 19 84 34 85
REMARK SMILES IDX 20 86 33 87 32 90 21 91 22 92 31 93 23 94 30 95 24 96 25 97
REMARK SMILES IDX 29 98 26 99 28 100 27 101
REMARK H PARENT 91 26 59 37 34 88 34 89
REMARK Flexibility Score: inf
ROOT
ATOM      1  C   UNL A   1      35.082  31.838  29.260  1.00  0.00     0.188 C 
ENDROOT
BRANCH   1   2
ATOM      2  C   UNL A   1      35.377  32.939  28.249  1.00  0.00     0.188 C 
BRANCH   2   3
ATOM      3  O   UNL A   1      34.201  33.729  28.107  1.00  0.00    -0.376 OA
BRANCH   3   4
ATOM      4  C   UNL A   1      34.366  35.132  28.267  1.00  0.00     0.202 C 
BRANCH   4   5
ATOM      5  C   UNL A   1      33.240  35.788  29.065  1.00  0.00     0.261 C 
BRANCH   5   6
ATOM      6  O   UNL A   1      32.755  34.937  30.116  1.00  0.00    -0.460 OA
BRANCH   6   7
ATOM      7  C   UNL A   1      33.052  35.029  31.440  1.00  0.00     0.338 C 
ATOM      8  O   UNL A   1      32.242  35.577  32.187  1.00  0.00    -0.246 OA
BRANCH   7   9
ATOM      9  C   UNL A   1      34.300  34.475  32.047  1.00  0.00     0.060 A 
ATOM     10  C   UNL A   1      35.534  35.124  32.054  1.00  0.00     0.016 A 
ATOM     11  C   UNL A   1      34.200  33.257  32.738  1.00  0.00     0.016 A 
ATOM     12  C   UNL A   1      36.653  34.570  32.655  1.00  0.00     0.010 A 
ATOM     13  C   UNL A   1      35.315  32.703  33.378  1.00  0.00     0.010 A 
ATOM     14  C   UNL A   1      36.552  33.355  33.317  1.00  0.00    -0.014 A 
BRANCH  14  15
ATOM     15  C   UNL A   1      37.805  32.731  33.781  1.00  0.00     0.031 A 
ATOM     16  C   UNL A   1      38.403  31.658  32.922  1.00  0.00     0.074 A 
ATOM     17  C   UNL A   1      38.457  33.236  34.844  1.00  0.00     0.049 A 
ATOM     18  N   UNL A   1      39.434  30.895  33.147  1.00  0.00    -0.248 NA
ATOM     19  C   UNL A   1      37.751  31.427  31.621  1.00  0.00     0.031 C 
ATOM     20  C   UNL A   1      38.024  34.399  35.625  1.00  0.00     0.029 A 
ATOM     21  N   UNL A   1      39.636  32.865  35.433  1.00  0.00    -0.354 N 
ATOM     22  C   UNL A   1      39.529  30.061  32.039  1.00  0.00     0.074 A 
ATOM     23  C   UNL A   1      38.458  30.419  31.138  1.00  0.00     0.031 C 
ATOM     24  C   UNL A   1      38.935  34.652  36.579  1.00  0.00     0.029 A 
ATOM     25  C   UNL A   1      39.963  33.620  36.537  1.00  0.00     0.049 A 
ATOM     26  H   UNL A   1      40.197  32.127  35.099  1.00  0.00     0.167 HD
ATOM     27  C   UNL A   1      40.426  29.071  31.819  1.00  0.00     0.034 A 
ATOM     28  C   UNL A   1      40.952  33.448  37.437  1.00  0.00     0.034 A 
ATOM     29  C   UNL A   1      41.473  28.755  32.755  1.00  0.00     0.049 A 
ATOM     30  C   UNL A   1      41.871  32.266  37.230  1.00  0.00     0.074 A 
ATOM     31  C   UNL A   1      42.393  27.725  32.718  1.00  0.00     0.029 A 
ATOM     32  N   UNL A   1      41.734  29.484  33.911  1.00  0.00    -0.354 N 
ATOM     33  N   UNL A   1      41.891  31.402  36.237  1.00  0.00    -0.248 NA
ATOM     34  C   UNL A   1      42.881  32.020  38.263  1.00  0.00     0.031 C 
ATOM     35  C   UNL A   1      43.171  27.799  33.880  1.00  0.00     0.029 A 
ATOM     36  C   UNL A   1      42.782  28.914  34.609  1.00  0.00     0.049 A 
ATOM     37  H   UNL A   1      41.242  30.290  34.193  1.00  0.00     0.167 HD
ATOM     38  C   UNL A   1      42.922  30.515  36.524  1.00  0.00     0.074 A 
ATOM     39  C   UNL A   1      43.520  30.972  37.764  1.00  0.00     0.031 C 
ATOM     40  C   UNL A   1      43.337  29.414  35.844  1.00  0.00     0.034 A 
BRANCH  27  41
ATOM     41  C   UNL A   1      40.211  28.216  30.598  1.00  0.00     0.023 A 
ATOM     42  C   UNL A   1      40.911  28.433  29.397  1.00  0.00     0.031 A 
ATOM     43  C   UNL A   1      39.212  27.227  30.610  1.00  0.00     0.131 A 
ATOM     44  C   UNL A   1      40.552  27.718  28.241  1.00  0.00     0.055 A 
ATOM     45  C   UNL A   1      38.909  26.470  29.478  1.00  0.00     0.041 A 
ATOM     46  F   UNL A   1      38.488  27.003  31.718  1.00  0.00    -0.206 F 
ATOM     47  C   UNL A   1      39.572  26.723  28.280  1.00  0.00     0.022 A 
BRANCH  44  48
ATOM     48  S   UNL A   1      41.291  28.198  26.655  1.00  0.00     0.124 S 
ATOM     49  O   UNL A   1      40.325  29.185  26.168  1.00  0.00    -0.237 OA
ATOM     50  O   UNL A   1      42.588  28.716  27.048  1.00  0.00    -0.237 OA
ATOM     51  O   UNL A   1      41.319  26.944  25.897  1.00  0.00    -0.744 OA
ENDBRANCH  44  48
ENDBRANCH  27  41
BRANCH  28  52
ATOM     52  C   UNL A   1      41.063  34.317  38.650  1.00  0.00     0.023 A 
ATOM     53  C   UNL A   1      40.238  34.126  39.770  1.00  0.00     0.031 A 
ATOM     54  C   UNL A   1      41.950  35.412  38.677  1.00  0.00     0.131 A 
ATOM     55  C   UNL A   1      40.278  35.039  40.839  1.00  0.00     0.055 A 
ATOM     56  C   UNL A   1      42.034  36.277  39.769  1.00  0.00     0.041 A 
ATOM     57  F   UNL A   1      42.756  35.662  37.632  1.00  0.00    -0.206 F 
ATOM     58  C   UNL A   1      41.181  36.104  40.852  1.00  0.00     0.022 A 
BRANCH  55  59
ATOM     59  S   UNL A   1      39.042  34.893  42.161  1.00  0.00     0.124 S 
ATOM     60  O   UNL A   1      38.810  33.453  42.193  1.00  0.00    -0.237 OA
ATOM     61  O   UNL A   1      39.755  35.455  43.302  1.00  0.00    -0.237 OA
ATOM     62  O   UNL A   1      37.923  35.695  41.670  1.00  0.00    -0.744 OA
ENDBRANCH  55  59
ENDBRANCH  28  52
BRANCH  40  63
ATOM     63  C   UNL A   1      44.508  28.673  36.428  1.00  0.00     0.023 A 
ATOM     64  C   UNL A   1      44.331  27.697  37.423  1.00  0.00     0.031 A 
ATOM     65  C   UNL A   1      45.811  28.950  35.984  1.00  0.00     0.131 A 
ATOM     66  C   UNL A   1      45.450  27.070  37.985  1.00  0.00     0.055 A 
ATOM     67  C   UNL A   1      46.917  28.279  36.505  1.00  0.00     0.041 A 
ATOM     68  F   UNL A   1      46.027  29.874  35.034  1.00  0.00    -0.206 F 
ATOM     69  C   UNL A   1      46.740  27.342  37.519  1.00  0.00     0.022 A 
BRANCH  66  70
ATOM     70  S   UNL A   1      45.202  25.951  39.388  1.00  0.00     0.124 S 
ATOM     71  O   UNL A   1      44.096  26.591  40.093  1.00  0.00    -0.237 OA
ATOM     72  O   UNL A   1      44.890  24.687  38.729  1.00  0.00    -0.237 OA
ATOM     73  O   UNL A   1      46.486  25.985  40.084  1.00  0.00    -0.744 OA
ENDBRANCH  66  70
ENDBRANCH  40  63
ENDBRANCH  14  15
ENDBRANCH   7   9
ENDBRANCH   6   7
ENDBRANCH   5   6
ENDBRANCH   4   5
ENDBRANCH   3   4
ENDBRANCH   2   3
ENDBRANCH   1   2
BRANCH   1  74
ATOM     74  O   UNL A   1      35.416  30.535  28.780  1.00  0.00    -0.377 OA
BRANCH  74  75
ATOM     75  C   UNL A   1      35.047  30.215  27.438  1.00  0.00     0.188 C 
BRANCH  75  76
ATOM     76  C   UNL A   1      33.632  29.673  27.186  1.00  0.00     0.188 C 
BRANCH  76  77
ATOM     77  O   UNL A   1      33.263  29.754  25.830  1.00  0.00    -0.376 OA
BRANCH  77  78
ATOM     78  C   UNL A   1      31.886  29.821  25.500  1.00  0.00     0.202 C 
BRANCH  78  79
ATOM     79  C   UNL A   1      31.236  29.029  24.339  1.00  0.00     0.261 C 
BRANCH  79  80
ATOM     80  O   UNL A   1      31.818  27.759  24.008  1.00  0.00    -0.459 OA
BRANCH  80  81
ATOM     81  C   UNL A   1      31.157  26.632  24.401  1.00  0.00     0.366 C 
ATOM     82  O   UNL A   1      29.938  26.558  24.518  1.00  0.00    -0.245 OA
BRANCH  81  83
ATOM     83  C   UNL A   1      32.102  25.425  24.603  1.00  0.00     0.313 C 
ATOM     84  C   UNL A   1      31.314  24.142  24.946  1.00  0.00     0.199 C 
ATOM     85  N   UNL A   1      33.216  25.795  25.537  1.00  0.00    -0.332 N 
ATOM     86  N   UNL A   1      32.179  23.065  25.434  1.00  0.00    -0.312 N 
ATOM     87  C   UNL A   1      34.002  24.610  25.930  1.00  0.00     0.283 C 
ATOM     88  H   UNL A   1      32.818  26.222  26.373  1.00  0.00     0.347 HD
ATOM     89  H   UNL A   1      33.835  26.447  25.056  1.00  0.00     0.347 HD
ATOM     90  C   UNL A   1      33.172  23.405  26.435  1.00  0.00     0.183 C 
BRANCH  86  91
ATOM     91  C   UNL A   1      32.202  21.918  24.741  1.00  0.00     0.324 A 
ATOM     92  N   UNL A   1      32.541  20.747  25.201  1.00  0.00    -0.171 NA
ATOM     93  O   UNL A   1      31.920  21.907  23.401  1.00  0.00    -0.315 OA
ATOM     94  C   UNL A   1      32.491  19.957  24.093  1.00  0.00     0.204 A 
ATOM     95  N   UNL A   1      32.144  20.586  22.962  1.00  0.00    -0.055 NA
BRANCH  94  96
ATOM     96  C   UNL A   1      32.779  18.551  24.242  1.00  0.00     0.023 A 
ATOM     97  C   UNL A   1      33.433  17.841  23.232  1.00  0.00     0.012 A 
ATOM     98  C   UNL A   1      32.559  17.956  25.490  1.00  0.00     0.012 A 
ATOM     99  C   UNL A   1      33.875  16.541  23.482  1.00  0.00     0.001 A 
ATOM    100  C   UNL A   1      32.992  16.656  25.733  1.00  0.00     0.001 A 
ATOM    101  C   UNL A   1      33.657  15.952  24.730  1.00  0.00     0.000 A 
ENDBRANCH  94  96
ENDBRANCH  86  91
ENDBRANCH  81  83
ENDBRANCH  80  81
ENDBRANCH  79  80
ENDBRANCH  78  79
ENDBRANCH  77  78
ENDBRANCH  76  77
ENDBRANCH  75  76
ENDBRANCH  74  75
ENDBRANCH   1  74
TORSDOF 25
ENDMDL
MODEL 2
REMARK VINA RESULT:      -9.8      6.357     11.792
REMARK SMILES O=C(OCCOCCOCCOCCOC(=O)[C@@H]1CN(c2nc(-c3ccccc3)no2)CC[NH2+]1)c1ccc(-c2c3nc(c(-c4cc(S(=O)(=O)[O-])ccc4F)c4ccc([nH]4)c(-c4cc(S(=O)(=O)[O-])ccc4F)c4nc(c(-c5cc(S(=O)(=O)[O-])ccc5F)c5ccc2[nH]5)C=C4)C=C3)cc1
REMARK SMILES IDX 8 1 7 2 6 3 5 4 4 5 3 6 2 7 1 8 35 9 36 10 97 11 37 12 96 13
REMARK SMILES IDX 38 14 39 15 40 16 90 17 41 18 95 19 89 20 91 21 42 22 94 23
REMARK SMILES IDX 88 24 87 25 43 27 75 28 55 29 74 30 56 31 59 32 73 33 92 34
REMARK SMILES IDX 57 35 58 36 72 38 93 39 60 40 44 41 45 42 53 43 46 44 52 45
REMARK SMILES IDX 54 46 51 47 47 48 48 49 49 50 50 51 76 52 77 53 85 54 78 55
REMARK SMILES IDX 84 56 86 57 83 58 79 59 80 60 81 61 82 62 61 63 62 64 70 65
REMARK SMILES IDX 63 66 69 67 71 68 68 69 64 70 65 71 66 72 67 73 9 74 10 75
REMARK SMILES IDX 11 76 12 77 13 78 14 79 15 80 16 81 17 82 18 83 19 84 34 85
REMARK SMILES IDX 20 86 33 87 32 90 21 91 22 92 31 93 23 94 30 95 24 96 25 97
REMARK SMILES IDX 29 98 26 99 28 100 27 101
REMARK H PARENT 91 26 59 37 34 88 34 89
REMARK Flexibility Score: inf
ROOT
ATOM      1  C   UNL A   1      35.882  21.502  24.677  1.00  0.00     0.188 C 
ENDROOT
BRANCH   1   2
ATOM      2  C   UNL A   1      37.262  20.896  24.899  1.00  0.00     0.188 C 
BRANCH   2   3
ATOM      3  O   UNL A   1      38.097  21.904  25.459  1.00  0.00    -0.376 OA
BRANCH   3   4
ATOM      4  C   UNL A   1      39.309  21.456  26.051  1.00  0.00     0.202 C 
BRANCH   4   5
ATOM      5  C   UNL A   1      39.514  19.946  25.946  1.00  0.00     0.261 C 
BRANCH   5   6
ATOM      6  O   UNL A   1      40.806  19.540  26.425  1.00  0.00    -0.460 OA
BRANCH   6   7
ATOM      7  C   UNL A   1      42.014  19.940  25.948  1.00  0.00     0.338 C 
ATOM      8  O   UNL A   1      42.610  19.203  25.164  1.00  0.00    -0.246 OA
BRANCH   7   9
ATOM      9  C   UNL A   1      42.650  21.245  26.303  1.00  0.00     0.060 A 
ATOM     10  C   UNL A   1      43.046  21.611  27.589  1.00  0.00     0.016 A 
ATOM     11  C   UNL A   1      42.956  22.125  25.252  1.00  0.00     0.016 A 
ATOM     12  C   UNL A   1      43.654  22.827  27.854  1.00  0.00     0.010 A 
ATOM     13  C   UNL A   1      43.601  23.342  25.501  1.00  0.00     0.010 A 
ATOM     14  C   UNL A   1      43.932  23.702  26.813  1.00  0.00    -0.014 A 
BRANCH  14  15
ATOM     15  C   UNL A   1      44.416  25.048  27.172  1.00  0.00     0.031 A 
ATOM     16  C   UNL A   1      43.427  26.000  27.773  1.00  0.00     0.074 A 
ATOM     17  C   UNL A   1      45.730  25.332  27.111  1.00  0.00     0.049 A 
ATOM     18  N   UNL A   1      43.571  27.257  28.085  1.00  0.00    -0.248 NA
ATOM     19  C   UNL A   1      42.095  25.450  28.078  1.00  0.00     0.031 C 
ATOM     20  C   UNL A   1      46.778  24.391  26.704  1.00  0.00     0.029 A 
ATOM     21  N   UNL A   1      46.416  26.474  27.424  1.00  0.00    -0.354 N 
ATOM     22  C   UNL A   1      42.336  27.662  28.579  1.00  0.00     0.074 A 
ATOM     23  C   UNL A   1      41.459  26.515  28.536  1.00  0.00     0.031 C 
ATOM     24  C   UNL A   1      47.974  24.993  26.807  1.00  0.00     0.029 A 
ATOM     25  C   UNL A   1      47.772  26.383  27.197  1.00  0.00     0.049 A 
ATOM     26  H   UNL A   1      45.982  27.285  27.777  1.00  0.00     0.167 HD
ATOM     27  C   UNL A   1      41.976  28.894  29.006  1.00  0.00     0.034 A 
ATOM     28  C   UNL A   1      48.720  27.340  27.247  1.00  0.00     0.034 A 
ATOM     29  C   UNL A   1      42.893  30.004  29.024  1.00  0.00     0.049 A 
ATOM     30  C   UNL A   1      48.270  28.734  27.616  1.00  0.00     0.074 A 
ATOM     31  C   UNL A   1      42.652  31.328  29.337  1.00  0.00     0.029 A 
ATOM     32  N   UNL A   1      44.245  29.906  28.710  1.00  0.00    -0.354 N 
ATOM     33  N   UNL A   1      47.072  29.145  27.975  1.00  0.00    -0.248 NA
ATOM     34  C   UNL A   1      49.282  29.794  27.571  1.00  0.00     0.031 C 
ATOM     35  C   UNL A   1      43.845  32.038  29.156  1.00  0.00     0.029 A 
ATOM     36  C   UNL A   1      44.847  31.148  28.796  1.00  0.00     0.049 A 
ATOM     37  H   UNL A   1      44.707  29.072  28.461  1.00  0.00     0.167 HD
ATOM     38  C   UNL A   1      47.191  30.511  28.205  1.00  0.00     0.074 A 
ATOM     39  C   UNL A   1      48.585  30.844  27.978  1.00  0.00     0.031 C 
ATOM     40  C   UNL A   1      46.244  31.420  28.556  1.00  0.00     0.034 A 
BRANCH  27  41
ATOM     41  C   UNL A   1      40.525  29.099  29.352  1.00  0.00     0.023 A 
ATOM     42  C   UNL A   1      40.060  29.093  30.680  1.00  0.00     0.031 A 
ATOM     43  C   UNL A   1      39.574  29.204  28.321  1.00  0.00     0.131 A 
ATOM     44  C   UNL A   1      38.679  29.119  30.936  1.00  0.00     0.055 A 
ATOM     45  C   UNL A   1      38.207  29.301  28.585  1.00  0.00     0.041 A 
ATOM     46  F   UNL A   1      39.957  29.177  27.035  1.00  0.00    -0.206 F 
ATOM     47  C   UNL A   1      37.751  29.245  29.899  1.00  0.00     0.022 A 
BRANCH  44  48
ATOM     48  S   UNL A   1      38.103  28.851  32.636  1.00  0.00     0.124 S 
ATOM     49  O   UNL A   1      38.119  27.389  32.724  1.00  0.00    -0.237 OA
ATOM     50  O   UNL A   1      39.101  29.547  33.427  1.00  0.00    -0.237 OA
ATOM     51  O   UNL A   1      36.766  29.450  32.643  1.00  0.00    -0.744 OA
ENDBRANCH  44  48
ENDBRANCH  27  41
BRANCH  28  52
ATOM     52  C   UNL A   1      50.133  27.060  26.840  1.00  0.00     0.023 A 
ATOM     53  C   UNL A   1      50.590  27.323  25.538  1.00  0.00     0.031 A 
ATOM     54  C   UNL A   1      51.034  26.445  27.732  1.00  0.00     0.131 A 
ATOM     55  C   UNL A   1      51.883  26.928  25.151  1.00  0.00     0.055 A 
ATOM     56  C   UNL A   1      52.340  26.116  27.363  1.00  0.00     0.041 A 
ATOM     57  F   UNL A   1      50.658  26.150  28.986  1.00  0.00    -0.206 F 
ATOM     58  C   UNL A   1      52.765  26.341  26.060  1.00  0.00     0.022 A 
BRANCH  55  59
ATOM     59  S   UNL A   1      52.356  27.076  23.405  1.00  0.00     0.124 S 
ATOM     60  O   UNL A   1      53.231  25.921  23.235  1.00  0.00    -0.237 OA
ATOM     61  O   UNL A   1      51.062  27.006  22.736  1.00  0.00    -0.237 OA
ATOM     62  O   UNL A   1      53.020  28.377  23.342  1.00  0.00    -0.744 OA
ENDBRANCH  55  59
ENDBRANCH  28  52
BRANCH  40  63
ATOM     63  C   UNL A   1      46.716  32.836  28.742  1.00  0.00     0.023 A 
ATOM     64  C   UNL A   1      46.849  33.710  27.650  1.00  0.00     0.031 A 
ATOM     65  C   UNL A   1      47.036  33.310  30.025  1.00  0.00     0.131 A 
ATOM     66  C   UNL A   1      47.346  35.002  27.855  1.00  0.00     0.055 A 
ATOM     67  C   UNL A   1      47.475  34.617  30.230  1.00  0.00     0.041 A 
ATOM     68  F   UNL A   1      46.923  32.510  31.097  1.00  0.00    -0.206 F 
ATOM     69  C   UNL A   1      47.643  35.467  29.139  1.00  0.00     0.022 A 
BRANCH  66  70
ATOM     70  S   UNL A   1      47.676  36.042  26.408  1.00  0.00     0.124 S 
ATOM     71  O   UNL A   1      46.461  36.846  26.330  1.00  0.00    -0.237 OA
ATOM     72  O   UNL A   1      48.887  36.753  26.804  1.00  0.00    -0.237 OA
ATOM     73  O   UNL A   1      47.852  35.076  25.325  1.00  0.00    -0.744 OA
ENDBRANCH  66  70
ENDBRANCH  40  63
ENDBRANCH  14  15
ENDBRANCH   7   9
ENDBRANCH   6   7
ENDBRANCH   5   6
ENDBRANCH   4   5
ENDBRANCH   3   4
ENDBRANCH   2   3
ENDBRANCH   1   2
BRANCH   1  74
ATOM     74  O   UNL A   1      35.933  22.850  24.207  1.00  0.00    -0.377 OA
BRANCH  74  75
ATOM     75  C   UNL A   1      35.102  23.189  23.097  1.00  0.00     0.188 C 
BRANCH  75  76
ATOM     76  C   UNL A   1      34.271  24.478  23.180  1.00  0.00     0.188 C 
BRANCH  76  77
ATOM     77  O   UNL A   1      33.634  24.783  21.963  1.00  0.00    -0.376 OA
BRANCH  77  78
ATOM     78  C   UNL A   1      32.965  26.027  21.835  1.00  0.00     0.202 C 
BRANCH  78  79
ATOM     79  C   UNL A   1      31.458  26.168  21.513  1.00  0.00     0.261 C 
BRANCH  79  80
ATOM     80  O   UNL A   1      30.892  27.484  21.591  1.00  0.00    -0.459 OA
BRANCH  80  81
ATOM     81  C   UNL A   1      30.394  27.894  22.794  1.00  0.00     0.366 C 
ATOM     82  O   UNL A   1      29.387  28.582  22.921  1.00  0.00    -0.245 OA
BRANCH  81  83
ATOM     83  C   UNL A   1      31.189  27.327  23.993  1.00  0.00     0.313 C 
ATOM     84  C   UNL A   1      30.391  26.230  24.732  1.00  0.00     0.199 C 
ATOM     85  N   UNL A   1      31.718  28.449  24.836  1.00  0.00    -0.332 N 
ATOM     86  N   UNL A   1      30.975  25.889  26.031  1.00  0.00    -0.312 N 
ATOM     87  C   UNL A   1      32.283  27.948  26.104  1.00  0.00     0.283 C 
ATOM     88  H   UNL A   1      30.957  29.095  25.043  1.00  0.00     0.347 HD
ATOM     89  H   UNL A   1      32.460  28.918  24.317  1.00  0.00     0.347 HD
ATOM     90  C   UNL A   1      31.369  26.983  26.897  1.00  0.00     0.183 C 
BRANCH  86  91
ATOM     91  C   UNL A   1      31.372  24.623  26.226  1.00  0.00     0.324 A 
ATOM     92  N   UNL A   1      31.499  23.705  25.309  1.00  0.00    -0.171 NA
ATOM     93  O   UNL A   1      31.622  24.157  27.489  1.00  0.00    -0.315 OA
ATOM     94  C   UNL A   1      31.826  22.597  26.029  1.00  0.00     0.204 A 
ATOM     95  N   UNL A   1      31.900  22.781  27.354  1.00  0.00    -0.055 NA
BRANCH  94  96
ATOM     96  C   UNL A   1      32.083  21.370  25.316  1.00  0.00     0.023 A 
ATOM     97  C   UNL A   1      32.035  21.326  23.921  1.00  0.00     0.012 A 
ATOM     98  C   UNL A   1      32.564  20.269  26.037  1.00  0.00     0.012 A 
ATOM     99  C   UNL A   1      32.482  20.184  23.253  1.00  0.00     0.001 A 
ATOM    100  C   UNL A   1      32.998  19.129  25.369  1.00  0.00     0.001 A 
ATOM    101  C   UNL A   1      32.963  19.090  23.976  1.00  0.00     0.000 A 
ENDBRANCH  94  96
ENDBRANCH  86  91
ENDBRANCH  81  83
ENDBRANCH  80  81
ENDBRANCH  79  80
ENDBRANCH  78  79
ENDBRANCH  77  78
ENDBRANCH  76  77
ENDBRANCH  75  76
ENDBRANCH  74  75
ENDBRANCH   1  74
TORSDOF 25
ENDMDL
MODEL 3
REMARK VINA RESULT:      -9.5      8.363     10.095
REMARK SMILES O=C(OCCOCCOCCOCCOC(=O)[C@@H]1CN(c2nc(-c3ccccc3)no2)CC[NH2+]1)c1ccc(-c2c3nc(c(-c4cc(S(=O)(=O)[O-])ccc4F)c4ccc([nH]4)c(-c4cc(S(=O)(=O)[O-])ccc4F)c4nc(c(-c5cc(S(=O)(=O)[O-])ccc5F)c5ccc2[nH]5)C=C4)C=C3)cc1
REMARK SMILES IDX 8 1 7 2 6 3 5 4 4 5 3 6 2 7 1 8 35 9 36 10 97 11 37 12 96 13
REMARK SMILES IDX 38 14 39 15 40 16 90 17 41 18 95 19 89 20 91 21 42 22 94 23
REMARK SMILES IDX 88 24 87 25 43 27 75 28 55 29 74 30 56 31 59 32 73 33 92 34
REMARK SMILES IDX 57 35 58 36 72 38 93 39 60 40 44 41 45 42 53 43 46 44 52 45
REMARK SMILES IDX 54 46 51 47 47 48 48 49 49 50 50 51 76 52 77 53 85 54 78 55
REMARK SMILES IDX 84 56 86 57 83 58 79 59 80 60 81 61 82 62 61 63 62 64 70 65
REMARK SMILES IDX 63 66 69 67 71 68 68 69 64 70 65 71 66 72 67 73 9 74 10 75
REMARK SMILES IDX 11 76 12 77 13 78 14 79 15 80 16 81 17 82 18 83 19 84 34 85
REMARK SMILES IDX 20 86 33 87 32 90 21 91 22 92 31 93 23 94 30 95 24 96 25 97
REMARK SMILES IDX 29 98 26 99 28 100 27 101
REMARK H PARENT 91 26 59 37 34 88 34 89
REMARK Flexibility Score: inf
ROOT
ATOM      1  C   UNL A   1      33.012  33.726  28.031  1.00  0.00     0.188 C 
ENDROOT
BRANCH   1   2
ATOM      2  C   UNL A   1      33.307  34.954  28.883  1.00  0.00     0.188 C 
BRANCH   2   3
ATOM      3  O   UNL A   1      33.237  34.565  30.251  1.00  0.00    -0.376 OA
BRANCH   3   4
ATOM      4  C   UNL A   1      34.329  34.959  31.071  1.00  0.00     0.202 C 
BRANCH   4   5
ATOM      5  C   UNL A   1      35.324  33.832  31.340  1.00  0.00     0.261 C 
BRANCH   5   6
ATOM      6  O   UNL A   1      36.622  34.114  30.794  1.00  0.00    -0.460 OA
BRANCH   6   7
ATOM      7  C   UNL A   1      37.774  34.305  31.489  1.00  0.00     0.338 C 
ATOM      8  O   UNL A   1      37.720  34.350  32.718  1.00  0.00    -0.246 OA
BRANCH   7   9
ATOM      9  C   UNL A   1      39.116  34.436  30.844  1.00  0.00     0.060 A 
ATOM     10  C   UNL A   1      40.333  34.344  31.518  1.00  0.00     0.016 A 
ATOM     11  C   UNL A   1      39.153  34.569  29.447  1.00  0.00     0.016 A 
ATOM     12  C   UNL A   1      41.548  34.451  30.861  1.00  0.00     0.010 A 
ATOM     13  C   UNL A   1      40.375  34.643  28.766  1.00  0.00     0.010 A 
ATOM     14  C   UNL A   1      41.577  34.605  29.482  1.00  0.00    -0.014 A 
BRANCH  14  15
ATOM     15  C   UNL A   1      42.884  34.889  28.860  1.00  0.00     0.031 A 
ATOM     16  C   UNL A   1      43.778  33.723  28.568  1.00  0.00     0.074 A 
ATOM     17  C   UNL A   1      43.169  36.131  28.426  1.00  0.00     0.049 A 
ATOM     18  N   UNL A   1      45.001  33.709  28.118  1.00  0.00    -0.248 NA
ATOM     19  C   UNL A   1      43.205  32.386  28.804  1.00  0.00     0.031 C 
ATOM     20  C   UNL A   1      42.267  37.284  28.516  1.00  0.00     0.029 A 
ATOM     21  N   UNL A   1      44.277  36.627  27.793  1.00  0.00    -0.354 N 
ATOM     22  C   UNL A   1      45.361  32.368  28.060  1.00  0.00     0.074 A 
ATOM     23  C   UNL A   1      44.225  31.597  28.510  1.00  0.00     0.031 C 
ATOM     24  C   UNL A   1      42.855  38.347  27.944  1.00  0.00     0.029 A 
ATOM     25  C   UNL A   1      44.203  37.978  27.532  1.00  0.00     0.049 A 
ATOM     26  H   UNL A   1      45.052  36.072  27.548  1.00  0.00     0.167 HD
ATOM     27  C   UNL A   1      46.550  31.843  27.683  1.00  0.00     0.034 A 
ATOM     28  C   UNL A   1      45.150  38.817  27.067  1.00  0.00     0.034 A 
ATOM     29  C   UNL A   1      47.652  32.659  27.245  1.00  0.00     0.049 A 
ATOM     30  C   UNL A   1      46.505  38.224  26.761  1.00  0.00     0.074 A 
ATOM     31  C   UNL A   1      48.942  32.283  26.925  1.00  0.00     0.029 A 
ATOM     32  N   UNL A   1      47.579  34.038  27.068  1.00  0.00    -0.354 N 
ATOM     33  N   UNL A   1      46.884  36.964  26.816  1.00  0.00    -0.248 NA
ATOM     34  C   UNL A   1      47.563  39.154  26.354  1.00  0.00     0.031 C 
ATOM     35  C   UNL A   1      49.663  33.441  26.609  1.00  0.00     0.029 A 
ATOM     36  C   UNL A   1      48.807  34.533  26.667  1.00  0.00     0.049 A 
ATOM     37  H   UNL A   1      46.772  34.583  27.208  1.00  0.00     0.167 HD
ATOM     38  C   UNL A   1      48.223  36.952  26.442  1.00  0.00     0.074 A 
ATOM     39  C   UNL A   1      48.572  38.326  26.130  1.00  0.00     0.031 C 
ATOM     40  C   UNL A   1      49.097  35.915  26.371  1.00  0.00     0.034 A 
BRANCH  27  41
ATOM     41  C   UNL A   1      46.725  30.357  27.858  1.00  0.00     0.023 A 
ATOM     42  C   UNL A   1      46.477  29.443  26.816  1.00  0.00     0.031 A 
ATOM     43  C   UNL A   1      47.052  29.840  29.124  1.00  0.00     0.131 A 
ATOM     44  C   UNL A   1      46.492  28.063  27.081  1.00  0.00     0.055 A 
ATOM     45  C   UNL A   1      47.135  28.468  29.363  1.00  0.00     0.041 A 
ATOM     46  F   UNL A   1      47.261  30.665  30.163  1.00  0.00    -0.206 F 
ATOM     47  C   UNL A   1      46.841  27.570  28.341  1.00  0.00     0.022 A 
BRANCH  44  48
ATOM     48  S   UNL A   1      45.919  26.923  25.791  1.00  0.00     0.124 S 
ATOM     49  O   UNL A   1      47.128  26.769  24.978  1.00  0.00    -0.237 OA
ATOM     50  O   UNL A   1      45.509  25.757  26.551  1.00  0.00    -0.237 OA
ATOM     51  O   UNL A   1      44.834  27.661  25.139  1.00  0.00    -0.744 OA
ENDBRANCH  44  48
ENDBRANCH  27  41
BRANCH  28  52
ATOM     52  C   UNL A   1      44.906  40.291  26.970  1.00  0.00     0.023 A 
ATOM     53  C   UNL A   1      44.531  40.897  25.760  1.00  0.00     0.031 A 
ATOM     54  C   UNL A   1      45.123  41.134  28.078  1.00  0.00     0.131 A 
ATOM     55  C   UNL A   1      44.436  42.297  25.672  1.00  0.00     0.055 A 
ATOM     56  C   UNL A   1      44.963  42.520  28.003  1.00  0.00     0.041 A 
ATOM     57  F   UNL A   1      45.499  40.623  29.261  1.00  0.00    -0.206 F 
ATOM     58  C   UNL A   1      44.634  43.110  26.789  1.00  0.00     0.022 A 
BRANCH  55  59
ATOM     59  S   UNL A   1      44.175  43.056  24.044  1.00  0.00     0.124 S 
ATOM     60  O   UNL A   1      43.839  44.428  24.405  1.00  0.00    -0.237 OA
ATOM     61  O   UNL A   1      45.473  42.858  23.408  1.00  0.00    -0.237 OA
ATOM     62  O   UNL A   1      43.078  42.273  23.476  1.00  0.00    -0.744 OA
ENDBRANCH  55  59
ENDBRANCH  28  52
BRANCH  40  63
ATOM     63  C   UNL A   1      50.490  36.247  25.909  1.00  0.00     0.023 A 
ATOM     64  C   UNL A   1      51.552  36.363  26.819  1.00  0.00     0.031 A 
ATOM     65  C   UNL A   1      50.749  36.451  24.544  1.00  0.00     0.131 A 
ATOM     66  C   UNL A   1      52.822  36.731  26.358  1.00  0.00     0.055 A 
ATOM     67  C   UNL A   1      52.029  36.758  24.083  1.00  0.00     0.041 A 
ATOM     68  F   UNL A   1      49.764  36.348  23.637  1.00  0.00    -0.206 F 
ATOM     69  C   UNL A   1      53.071  36.912  24.994  1.00  0.00     0.022 A 
BRANCH  66  70
ATOM     70  S   UNL A   1      54.127  37.048  27.575  1.00  0.00     0.124 S 
ATOM     71  O   UNL A   1      53.370  37.105  28.822  1.00  0.00    -0.237 OA
ATOM     72  O   UNL A   1      54.997  35.889  27.409  1.00  0.00    -0.237 OA
ATOM     73  O   UNL A   1      54.701  38.319  27.137  1.00  0.00    -0.744 OA
ENDBRANCH  66  70
ENDBRANCH  40  63
ENDBRANCH  14  15
ENDBRANCH   7   9
ENDBRANCH   6   7
ENDBRANCH   5   6
ENDBRANCH   4   5
ENDBRANCH   3   4
ENDBRANCH   2   3
ENDBRANCH   1   2
BRANCH   1  74
ATOM     74  O   UNL A   1      34.193  33.036  27.618  1.00  0.00    -0.377 OA
BRANCH  74  75
ATOM     75  C   UNL A   1      34.414  31.732  28.156  1.00  0.00     0.188 C 
BRANCH  75  76
ATOM     76  C   UNL A   1      34.140  30.520  27.253  1.00  0.00     0.188 C 
BRANCH  76  77
ATOM     77  O   UNL A   1      32.853  29.987  27.452  1.00  0.00    -0.376 OA
BRANCH  77  78
ATOM     78  C   UNL A   1      31.926  30.020  26.380  1.00  0.00     0.202 C 
BRANCH  78  79
ATOM     79  C   UNL A   1      31.970  29.055  25.170  1.00  0.00     0.261 C 
BRANCH  79  80
ATOM     80  O   UNL A   1      30.908  28.097  25.059  1.00  0.00    -0.459 OA
BRANCH  80  81
ATOM     81  C   UNL A   1      31.051  26.907  25.712  1.00  0.00     0.366 C 
ATOM     82  O   UNL A   1      30.764  26.734  26.892  1.00  0.00    -0.245 OA
BRANCH  81  83
ATOM     83  C   UNL A   1      31.537  25.770  24.783  1.00  0.00     0.313 C 
ATOM     84  C   UNL A   1      32.931  25.254  25.204  1.00  0.00     0.199 C 
ATOM     85  N   UNL A   1      31.381  26.177  23.348  1.00  0.00    -0.332 N 
ATOM     86  N   UNL A   1      33.546  24.402  24.184  1.00  0.00    -0.312 N 
ATOM     87  C   UNL A   1      32.043  25.217  22.443  1.00  0.00     0.283 C 
ATOM     88  H   UNL A   1      31.799  27.098  23.218  1.00  0.00     0.347 HD
ATOM     89  H   UNL A   1      30.387  26.196  23.126  1.00  0.00     0.347 HD
ATOM     90  C   UNL A   1      33.504  24.864  22.810  1.00  0.00     0.183 C 
BRANCH  86  91
ATOM     91  C   UNL A   1      33.850  23.141  24.522  1.00  0.00     0.324 A 
ATOM     92  N   UNL A   1      33.399  22.060  23.950  1.00  0.00    -0.171 NA
ATOM     93  O   UNL A   1      34.650  22.882  25.603  1.00  0.00    -0.315 OA
ATOM     94  C   UNL A   1      33.924  21.066  24.719  1.00  0.00     0.204 A 
ATOM     95  N   UNL A   1      34.675  21.480  25.749  1.00  0.00    -0.055 NA
BRANCH  94  96
ATOM     96  C   UNL A   1      33.655  19.699  24.345  1.00  0.00     0.023 A 
ATOM     97  C   UNL A   1      32.555  19.375  23.550  1.00  0.00     0.012 A 
ATOM     98  C   UNL A   1      34.620  18.727  24.640  1.00  0.00     0.012 A 
ATOM     99  C   UNL A   1      32.431  18.081  23.040  1.00  0.00     0.001 A 
ATOM    100  C   UNL A   1      34.489  17.435  24.139  1.00  0.00     0.001 A 
ATOM    101  C   UNL A   1      33.398  17.115  23.333  1.00  0.00     0.000 A 
ENDBRANCH  94  96
ENDBRANCH  86  91
ENDBRANCH  81  83
ENDBRANCH  80  81
ENDBRANCH  79  80
ENDBRANCH  78  79
ENDBRANCH  77  78
ENDBRANCH  76  77
ENDBRANCH  75  76
ENDBRANCH  74  75
ENDBRANCH   1  74
TORSDOF 25
ENDMDL
