MODEL 1
REMARK VINA RESULT:      -9.1      0.000      0.000
REMARK SMILES CC1(C)Cc2c(c(N3CCOCC3)nc3sc(C(=O)OCCOCCOCCOCCOC(=O)c4ccc(-c5c6nc(c(-c7cc(S(=O)(=O)[O-])ccc7F)c7ccc([nH]7)c(-c7cc(S(=O)(=O)[O-])ccc7F)c7nc(c(-c8cc(S(=O)(=O)[O-])ccc8F)c8ccc5[nH]8)C=C7)C=C6)cc4)c(N)c23)CS1
REMARK SMILES IDX 27 1 26 2 25 3 24 4 23 5 22 6 21 7 20 8 18 9 19 10 17 11
REMARK SMILES IDX 1 12 2 13 3 14 4 15 102 16 5 17 101 18 6 19 100 20 7 21
REMARK SMILES IDX 15 22 98 23 14 24 16 25 8 26 9 27 13 28 10 29 12 30 11 31
REMARK SMILES IDX 99 32 28 35 29 36 30 37 31 38 32 39 33 40 34 41 35 42 36 43
REMARK SMILES IDX 97 44 37 45 96 46 38 47 39 48 40 49 90 50 41 51 95 52 89 53
REMARK SMILES IDX 91 54 42 55 94 56 88 57 87 58 43 60 75 61 55 62 74 63 56 64
REMARK SMILES IDX 59 65 73 66 92 67 57 68 58 69 72 71 93 72 60 73 44 74 45 75
REMARK SMILES IDX 53 76 46 77 52 78 54 79 51 80 47 81 48 82 49 83 50 84 76 85
REMARK SMILES IDX 77 86 85 87 78 88 84 89 86 90 83 91 79 92 80 93 81 94 82 95
REMARK SMILES IDX 61 96 62 97 70 98 63 99 69 100 71 101 68 102 64 103 65 104
REMARK SMILES IDX 66 105 67 106
REMARK H PARENT 99 33 99 34 91 59 59 70
REMARK Flexibility Score: inf
ROOT
ATOM      1  C   UNL A   1      44.480  24.253  31.835  1.00  0.00     0.188 C 
ENDROOT
BRANCH   1   2
ATOM      2  O   UNL A   1      44.120  23.972  33.186  1.00  0.00    -0.377 OA
BRANCH   2   3
ATOM      3  C   UNL A   1      45.113  23.313  33.951  1.00  0.00     0.188 C 
BRANCH   3   4
ATOM      4  C   UNL A   1      44.610  22.030  34.648  1.00  0.00     0.188 C 
BRANCH   4   5
ATOM      5  O   UNL A   1      45.243  21.470  35.791  1.00  0.00    -0.376 OA
BRANCH   5   6
ATOM      6  C   UNL A   1      46.161  20.394  35.698  1.00  0.00     0.202 C 
BRANCH   6   7
ATOM      7  C   UNL A   1      46.701  19.653  36.934  1.00  0.00     0.261 C 
BRANCH   7   8
ATOM      8  O   UNL A   1      45.773  19.376  37.982  1.00  0.00    -0.459 OA
BRANCH   8   9
ATOM      9  C   UNL A   1      45.156  18.168  37.923  1.00  0.00     0.350 C 
ATOM     10  O   UNL A   1      44.922  17.557  36.877  1.00  0.00    -0.245 OA
BRANCH   9  11
ATOM     11  C   UNL A   1      44.996  17.621  39.252  1.00  0.00     0.138 A 
ATOM     12  C   UNL A   1      49.028  18.170  44.877  1.00  0.00     0.023 C 
ATOM     13  C   UNL A   1      47.605  17.604  44.751  1.00  0.00     0.015 C 
ATOM     14  C   UNL A   1      46.688  18.351  45.731  1.00  0.00     0.023 C 
ATOM     15  C   UNL A   1      47.123  17.732  43.294  1.00  0.00     0.054 C 
ATOM     16  S   UNL A   1      47.709  15.834  45.164  1.00  0.00    -0.150 SA
ATOM     17  C   UNL A   1      45.904  16.951  42.843  1.00  0.00    -0.027 A 
ATOM     18  C   UNL A   1      45.976  15.421  44.906  1.00  0.00     0.109 C 
ATOM     19  C   UNL A   1      45.324  15.932  43.642  1.00  0.00     0.009 A 
ATOM     20  C   UNL A   1      45.368  17.111  41.528  1.00  0.00     0.039 A 
ATOM     21  C   UNL A   1      44.143  15.291  43.211  1.00  0.00     0.134 A 
ATOM     22  C   UNL A   1      44.237  16.368  41.214  1.00  0.00     0.128 A 
ATOM     23  C   UNL A   1      45.786  17.858  40.364  1.00  0.00     0.067 A 
ATOM     24  N   UNL A   1      43.588  15.510  42.014  1.00  0.00    -0.220 NA
ATOM     25  S   UNL A   1      43.690  16.590  39.619  1.00  0.00    -0.106 S 
BRANCH  21  26
ATOM     26  N   UNL A   1      43.577  14.291  43.963  1.00  0.00    -0.352 N 
ATOM     27  C   UNL A   1      42.958  14.489  45.270  1.00  0.00     0.146 C 
ATOM     28  C   UNL A   1      43.248  13.020  43.327  1.00  0.00     0.146 C 
ATOM     29  C   UNL A   1      43.388  13.320  46.179  1.00  0.00     0.181 C 
ATOM     30  C   UNL A   1      43.723  11.914  44.284  1.00  0.00     0.181 C 
ATOM     31  O   UNL A   1      43.106  12.037  45.583  1.00  0.00    -0.378 OA
ENDBRANCH  21  26
BRANCH  23  32
ATOM     32  N   UNL A   1      46.841  18.707  40.326  1.00  0.00    -0.397 N 
ATOM     33  H   UNL A   1      47.493  18.649  39.590  1.00  0.00     0.156 HD
ATOM     34  H   UNL A   1      46.957  19.381  41.033  1.00  0.00     0.156 HD
ENDBRANCH  23  32
ENDBRANCH   9  11
ENDBRANCH   8   9
ENDBRANCH   7   8
ENDBRANCH   6   7
ENDBRANCH   5   6
ENDBRANCH   4   5
ENDBRANCH   3   4
ENDBRANCH   2   3
ENDBRANCH   1   2
BRANCH   1  35
ATOM     35  C   UNL A   1      43.974  23.287  30.732  1.00  0.00     0.188 C 
BRANCH  35  36
ATOM     36  O   UNL A   1      43.362  23.934  29.620  1.00  0.00    -0.376 OA
BRANCH  36  37
ATOM     37  C   UNL A   1      42.495  23.232  28.746  1.00  0.00     0.202 C 
BRANCH  37  38
ATOM     38  C   UNL A   1      42.144  23.942  27.443  1.00  0.00     0.261 C 
BRANCH  38  39
ATOM     39  O   UNL A   1      40.827  24.454  27.420  1.00  0.00    -0.460 OA
BRANCH  39  40
ATOM     40  C   UNL A   1      40.646  25.504  26.606  1.00  0.00     0.338 C 
ATOM     41  O   UNL A   1      40.974  25.588  25.422  1.00  0.00    -0.246 OA
BRANCH  40  42
ATOM     42  C   UNL A   1      40.065  26.588  27.383  1.00  0.00     0.060 A 
ATOM     43  C   UNL A   1      40.301  27.881  26.921  1.00  0.00     0.016 A 
ATOM     44  C   UNL A   1      39.622  26.312  28.688  1.00  0.00     0.016 A 
ATOM     45  C   UNL A   1      40.372  28.878  27.859  1.00  0.00     0.010 A 
ATOM     46  C   UNL A   1      39.714  27.304  29.623  1.00  0.00     0.010 A 
ATOM     47  C   UNL A   1      40.192  28.539  29.205  1.00  0.00    -0.014 A 
BRANCH  47  48
ATOM     48  C   UNL A   1      40.469  29.550  30.192  1.00  0.00     0.031 A 
ATOM     49  C   UNL A   1      39.298  30.399  30.434  1.00  0.00     0.074 A 
ATOM     50  C   UNL A   1      41.650  29.630  30.832  1.00  0.00     0.049 A 
ATOM     51  N   UNL A   1      39.101  31.587  29.977  1.00  0.00    -0.248 NA
ATOM     52  C   UNL A   1      38.114  29.784  31.056  1.00  0.00     0.031 C 
ATOM     53  C   UNL A   1      42.742  28.651  30.818  1.00  0.00     0.029 A 
ATOM     54  N   UNL A   1      42.090  30.571  31.711  1.00  0.00    -0.354 N 
ATOM     55  C   UNL A   1      37.893  31.975  30.530  1.00  0.00     0.074 A 
ATOM     56  C   UNL A   1      37.223  30.770  30.941  1.00  0.00     0.031 C 
ATOM     57  C   UNL A   1      43.608  28.936  31.818  1.00  0.00     0.029 A 
ATOM     58  C   UNL A   1      43.215  30.192  32.434  1.00  0.00     0.049 A 
ATOM     59  H   UNL A   1      41.649  31.444  31.825  1.00  0.00     0.167 HD
ATOM     60  C   UNL A   1      37.718  33.257  30.942  1.00  0.00     0.034 A 
ATOM     61  C   UNL A   1      43.752  30.859  33.489  1.00  0.00     0.034 A 
ATOM     62  C   UNL A   1      38.749  34.123  30.428  1.00  0.00     0.049 A 
ATOM     63  C   UNL A   1      43.368  32.283  33.327  1.00  0.00     0.074 A 
ATOM     64  C   UNL A   1      39.016  34.765  29.238  1.00  0.00     0.029 A 
ATOM     65  N   UNL A   1      39.924  34.075  31.135  1.00  0.00    -0.354 N 
ATOM     66  N   UNL A   1      43.748  33.010  32.311  1.00  0.00    -0.248 NA
ATOM     67  C   UNL A   1      42.245  32.819  34.092  1.00  0.00     0.031 C 
ATOM     68  C   UNL A   1      40.426  34.987  29.204  1.00  0.00     0.029 A 
ATOM     69  C   UNL A   1      40.988  34.512  30.386  1.00  0.00     0.049 A 
ATOM     70  H   UNL A   1      39.996  33.765  32.067  1.00  0.00     0.167 HD
ATOM     71  C   UNL A   1      42.673  33.841  32.064  1.00  0.00     0.074 A 
ATOM     72  C   UNL A   1      41.864  33.804  33.274  1.00  0.00     0.031 C 
ATOM     73  C   UNL A   1      42.350  34.223  30.797  1.00  0.00     0.034 A 
BRANCH  60  74
ATOM     74  C   UNL A   1      36.912  33.625  32.158  1.00  0.00     0.023 A 
ATOM     75  C   UNL A   1      37.477  33.420  33.425  1.00  0.00     0.031 A 
ATOM     76  C   UNL A   1      35.528  33.924  32.130  1.00  0.00     0.131 A 
ATOM     77  C   UNL A   1      36.685  33.520  34.583  1.00  0.00     0.055 A 
ATOM     78  C   UNL A   1      34.762  34.087  33.283  1.00  0.00     0.041 A 
ATOM     79  F   UNL A   1      34.827  33.973  30.989  1.00  0.00    -0.206 F 
ATOM     80  C   UNL A   1      35.337  33.873  34.521  1.00  0.00     0.022 A 
BRANCH  77  81
ATOM     81  S   UNL A   1      37.418  33.088  36.182  1.00  0.00     0.124 S 
ATOM     82  O   UNL A   1      36.377  33.505  37.116  1.00  0.00    -0.237 OA
ATOM     83  O   UNL A   1      37.620  31.649  36.043  1.00  0.00    -0.237 OA
ATOM     84  O   UNL A   1      38.643  33.884  36.219  1.00  0.00    -0.744 OA
ENDBRANCH  77  81
ENDBRANCH  60  74
BRANCH  61  85
ATOM     85  C   UNL A   1      44.254  30.293  34.770  1.00  0.00     0.023 A 
ATOM     86  C   UNL A   1      43.652  29.156  35.351  1.00  0.00     0.031 A 
ATOM     87  C   UNL A   1      45.507  30.681  35.293  1.00  0.00     0.131 A 
ATOM     88  C   UNL A   1      44.313  28.436  36.370  1.00  0.00     0.055 A 
ATOM     89  C   UNL A   1      46.156  29.967  36.304  1.00  0.00     0.041 A 
ATOM     90  F   UNL A   1      46.192  31.712  34.776  1.00  0.00    -0.206 F 
ATOM     91  C   UNL A   1      45.570  28.828  36.834  1.00  0.00     0.022 A 
BRANCH  88  92
ATOM     92  S   UNL A   1      43.605  26.885  37.008  1.00  0.00     0.124 S 
ATOM     93  O   UNL A   1      42.199  27.023  36.646  1.00  0.00    -0.237 OA
ATOM     94  O   UNL A   1      44.363  25.868  36.286  1.00  0.00    -0.237 OA
ATOM     95  O   UNL A   1      43.885  26.952  38.442  1.00  0.00    -0.744 OA
ENDBRANCH  88  92
ENDBRANCH  61  85
BRANCH  73  96
ATOM     96  C   UNL A   1      43.447  34.266  29.767  1.00  0.00     0.023 A 
ATOM     97  C   UNL A   1      43.765  33.238  28.855  1.00  0.00     0.031 A 
ATOM     98  C   UNL A   1      44.173  35.468  29.684  1.00  0.00     0.131 A 
ATOM     99  C   UNL A   1      44.780  33.446  27.896  1.00  0.00     0.055 A 
ATOM    100  C   UNL A   1      45.162  35.674  28.727  1.00  0.00     0.041 A 
ATOM    101  F   UNL A   1      43.907  36.481  30.527  1.00  0.00    -0.206 F 
ATOM    102  C   UNL A   1      45.470  34.662  27.827  1.00  0.00     0.022 A 
BRANCH  99 103
ATOM    103  S   UNL A   1      45.212  32.138  26.701  1.00  0.00     0.124 S 
ATOM    104  O   UNL A   1      46.545  32.525  26.250  1.00  0.00    -0.237 OA
ATOM    105  O   UNL A   1      45.136  30.926  27.512  1.00  0.00    -0.237 OA
ATOM    106  O   UNL A   1      44.169  32.249  25.679  1.00  0.00    -0.744 OA
ENDBRANCH  99 103
ENDBRANCH  73  96
ENDBRANCH  47  48
ENDBRANCH  40  42
ENDBRANCH  39  40
ENDBRANCH  38  39
ENDBRANCH  37  38
ENDBRANCH  36  37
ENDBRANCH  35  36
ENDBRANCH   1  35
TORSDOF 25
ENDMDL
MODEL 2
REMARK VINA RESULT:      -9.0      7.246     11.881
REMARK SMILES CC1(C)Cc2c(c(N3CCOCC3)nc3sc(C(=O)OCCOCCOCCOCCOC(=O)c4ccc(-c5c6nc(c(-c7cc(S(=O)(=O)[O-])ccc7F)c7ccc([nH]7)c(-c7cc(S(=O)(=O)[O-])ccc7F)c7nc(c(-c8cc(S(=O)(=O)[O-])ccc8F)c8ccc5[nH]8)C=C7)C=C6)cc4)c(N)c23)CS1
REMARK SMILES IDX 27 1 26 2 25 3 24 4 23 5 22 6 21 7 20 8 18 9 19 10 17 11
REMARK SMILES IDX 1 12 2 13 3 14 4 15 102 16 5 17 101 18 6 19 100 20 7 21
REMARK SMILES IDX 15 22 98 23 14 24 16 25 8 26 9 27 13 28 10 29 12 30 11 31
REMARK SMILES IDX 99 32 28 35 29 36 30 37 31 38 32 39 33 40 34 41 35 42 36 43
REMARK SMILES IDX 97 44 37 45 96 46 38 47 39 48 40 49 90 50 41 51 95 52 89 53
REMARK SMILES IDX 91 54 42 55 94 56 88 57 87 58 43 60 75 61 55 62 74 63 56 64
REMARK SMILES IDX 59 65 73 66 92 67 57 68 58 69 72 71 93 72 60 73 44 74 45 75
REMARK SMILES IDX 53 76 46 77 52 78 54 79 51 80 47 81 48 82 49 83 50 84 76 85
REMARK SMILES IDX 77 86 85 87 78 88 84 89 86 90 83 91 79 92 80 93 81 94 82 95
REMARK SMILES IDX 61 96 62 97 70 98 63 99 69 100 71 101 68 102 64 103 65 104
REMARK SMILES IDX 66 105 67 106
REMARK H PARENT 99 33 99 34 91 59 59 70
REMARK Flexibility Score: inf
ROOT
ATOM      1  C   UNL A   1      39.027  28.371  29.111  1.00  0.00     0.188 C 
ENDROOT
BRANCH   1   2
ATOM      2  O   UNL A   1      39.320  27.293  28.223  1.00  0.00    -0.377 OA
BRANCH   2   3
ATOM      3  C   UNL A   1      40.192  26.304  28.739  1.00  0.00     0.188 C 
BRANCH   3   4
ATOM      4  C   UNL A   1      41.230  25.796  27.716  1.00  0.00     0.188 C 
BRANCH   4   5
ATOM      5  O   UNL A   1      42.164  24.764  28.006  1.00  0.00    -0.376 OA
BRANCH   5   6
ATOM      6  C   UNL A   1      42.592  23.833  27.027  1.00  0.00     0.202 C 
BRANCH   6   7
ATOM      7  C   UNL A   1      41.803  23.566  25.734  1.00  0.00     0.261 C 
BRANCH   7   8
ATOM      8  O   UNL A   1      41.229  22.269  25.579  1.00  0.00    -0.459 OA
BRANCH   8   9
ATOM      9  C   UNL A   1      40.421  21.854  26.587  1.00  0.00     0.350 C 
ATOM     10  O   UNL A   1      40.778  21.740  27.762  1.00  0.00    -0.245 OA
BRANCH   9  11
ATOM     11  C   UNL A   1      39.053  21.759  26.127  1.00  0.00     0.138 A 
ATOM     12  C   UNL A   1      34.116  26.612  25.603  1.00  0.00     0.023 C 
ATOM     13  C   UNL A   1      34.127  25.173  25.066  1.00  0.00     0.015 C 
ATOM     14  C   UNL A   1      33.874  25.210  23.551  1.00  0.00     0.023 C 
ATOM     15  C   UNL A   1      35.468  24.500  25.412  1.00  0.00     0.054 C 
ATOM     16  S   UNL A   1      32.799  24.281  25.934  1.00  0.00    -0.150 SA
ATOM     17  C   UNL A   1      35.596  22.993  25.292  1.00  0.00    -0.027 A 
ATOM     18  C   UNL A   1      33.050  22.669  25.173  1.00  0.00     0.109 C 
ATOM     19  C   UNL A   1      34.469  22.155  25.094  1.00  0.00     0.009 A 
ATOM     20  C   UNL A   1      36.847  22.338  25.514  1.00  0.00     0.039 A 
ATOM     21  C   UNL A   1      34.652  20.767  24.909  1.00  0.00     0.134 A 
ATOM     22  C   UNL A   1      36.870  20.957  25.360  1.00  0.00     0.128 A 
ATOM     23  C   UNL A   1      38.149  22.792  25.945  1.00  0.00     0.067 A 
ATOM     24  N   UNL A   1      35.841  20.165  25.026  1.00  0.00    -0.220 NA
ATOM     25  S   UNL A   1      38.386  20.256  25.681  1.00  0.00    -0.106 S 
BRANCH  21  26
ATOM     26  N   UNL A   1      33.572  19.938  24.733  1.00  0.00    -0.352 N 
ATOM     27  C   UNL A   1      32.910  19.204  25.809  1.00  0.00     0.146 C 
ATOM     28  C   UNL A   1      32.800  20.025  23.499  1.00  0.00     0.146 C 
ATOM     29  C   UNL A   1      32.592  17.788  25.287  1.00  0.00     0.181 C 
ATOM     30  C   UNL A   1      32.542  18.580  23.040  1.00  0.00     0.181 C 
ATOM     31  O   UNL A   1      31.849  17.819  24.052  1.00  0.00    -0.378 OA
ENDBRANCH  21  26
BRANCH  23  32
ATOM     32  N   UNL A   1      38.485  24.086  26.166  1.00  0.00    -0.397 N 
ATOM     33  H   UNL A   1      37.936  24.640  26.766  1.00  0.00     0.156 HD
ATOM     34  H   UNL A   1      39.276  24.471  25.726  1.00  0.00     0.156 HD
ENDBRANCH  23  32
ENDBRANCH   9  11
ENDBRANCH   8   9
ENDBRANCH   7   8
ENDBRANCH   6   7
ENDBRANCH   5   6
ENDBRANCH   4   5
ENDBRANCH   3   4
ENDBRANCH   2   3
ENDBRANCH   1   2
BRANCH   1  35
ATOM     35  C   UNL A   1      37.570  28.899  29.157  1.00  0.00     0.188 C 
BRANCH  35  36
ATOM     36  O   UNL A   1      37.375  30.144  28.493  1.00  0.00    -0.376 OA
BRANCH  36  37
ATOM     37  C   UNL A   1      36.298  30.338  27.592  1.00  0.00     0.202 C 
BRANCH  37  38
ATOM     38  C   UNL A   1      35.356  31.492  27.917  1.00  0.00     0.261 C 
BRANCH  38  39
ATOM     39  O   UNL A   1      34.996  31.555  29.282  1.00  0.00    -0.460 OA
BRANCH  39  40
ATOM     40  C   UNL A   1      34.645  32.775  29.715  1.00  0.00     0.338 C 
ATOM     41  O   UNL A   1      33.954  33.601  29.120  1.00  0.00    -0.246 OA
BRANCH  40  42
ATOM     42  C   UNL A   1      35.298  33.009  30.994  1.00  0.00     0.060 A 
ATOM     43  C   UNL A   1      36.269  34.007  31.024  1.00  0.00     0.016 A 
ATOM     44  C   UNL A   1      35.181  32.028  31.994  1.00  0.00     0.016 A 
ATOM     45  C   UNL A   1      37.306  33.848  31.907  1.00  0.00     0.010 A 
ATOM     46  C   UNL A   1      36.225  31.860  32.858  1.00  0.00     0.010 A 
ATOM     47  C   UNL A   1      37.315  32.710  32.722  1.00  0.00    -0.014 A 
BRANCH  47  48
ATOM     48  C   UNL A   1      38.503  32.450  33.493  1.00  0.00     0.031 A 
ATOM     49  C   UNL A   1      38.522  33.238  34.731  1.00  0.00     0.074 A 
ATOM     50  C   UNL A   1      39.425  31.545  33.118  1.00  0.00     0.049 A 
ATOM     51  N   UNL A   1      39.200  34.311  34.949  1.00  0.00    -0.248 NA
ATOM     52  C   UNL A   1      37.508  32.940  35.756  1.00  0.00     0.031 C 
ATOM     53  C   UNL A   1      39.317  30.554  32.042  1.00  0.00     0.029 A 
ATOM     54  N   UNL A   1      40.627  31.256  33.685  1.00  0.00    -0.354 N 
ATOM     55  C   UNL A   1      38.922  34.634  36.267  1.00  0.00     0.074 A 
ATOM     56  C   UNL A   1      37.707  33.944  36.612  1.00  0.00     0.031 C 
ATOM     57  C   UNL A   1      40.300  29.635  32.184  1.00  0.00     0.029 A 
ATOM     58  C   UNL A   1      41.186  30.057  33.256  1.00  0.00     0.049 A 
ATOM     59  H   UNL A   1      41.064  31.845  34.342  1.00  0.00     0.167 HD
ATOM     60  C   UNL A   1      39.904  35.126  37.065  1.00  0.00     0.034 A 
ATOM     61  C   UNL A   1      42.280  29.449  33.782  1.00  0.00     0.034 A 
ATOM     62  C   UNL A   1      41.047  35.550  36.295  1.00  0.00     0.049 A 
ATOM     63  C   UNL A   1      43.102  30.520  34.397  1.00  0.00     0.074 A 
ATOM     64  C   UNL A   1      41.396  36.651  35.544  1.00  0.00     0.029 A 
ATOM     65  N   UNL A   1      41.884  34.526  35.927  1.00  0.00    -0.354 N 
ATOM     66  N   UNL A   1      43.627  31.498  33.708  1.00  0.00    -0.248 NA
ATOM     67  C   UNL A   1      43.043  30.737  35.840  1.00  0.00     0.031 C 
ATOM     68  C   UNL A   1      42.391  36.213  34.619  1.00  0.00     0.029 A 
ATOM     69  C   UNL A   1      42.659  34.866  34.846  1.00  0.00     0.049 A 
ATOM     70  H   UNL A   1      41.925  33.655  36.383  1.00  0.00     0.167 HD
ATOM     71  C   UNL A   1      43.566  32.586  34.555  1.00  0.00     0.074 A 
ATOM     72  C   UNL A   1      43.364  32.033  35.887  1.00  0.00     0.031 C 
ATOM     73  C   UNL A   1      43.347  33.844  34.079  1.00  0.00     0.034 A 
BRANCH  60  74
ATOM     74  C   UNL A   1      40.017  34.794  38.528  1.00  0.00     0.023 A 
ATOM     75  C   UNL A   1      39.901  35.834  39.463  1.00  0.00     0.031 A 
ATOM     76  C   UNL A   1      40.487  33.554  39.025  1.00  0.00     0.131 A 
ATOM     77  C   UNL A   1      40.234  35.618  40.812  1.00  0.00     0.055 A 
ATOM     78  C   UNL A   1      40.753  33.327  40.374  1.00  0.00     0.041 A 
ATOM     79  F   UNL A   1      40.807  32.533  38.218  1.00  0.00    -0.206 F 
ATOM     80  C   UNL A   1      40.639  34.366  41.277  1.00  0.00     0.022 A 
BRANCH  77  81
ATOM     81  S   UNL A   1      40.226  37.028  41.949  1.00  0.00     0.124 S 
ATOM     82  O   UNL A   1      41.593  37.521  41.832  1.00  0.00    -0.237 OA
ATOM     83  O   UNL A   1      39.184  37.874  41.375  1.00  0.00    -0.237 OA
ATOM     84  O   UNL A   1      39.891  36.422  43.236  1.00  0.00    -0.744 OA
ENDBRANCH  77  81
ENDBRANCH  60  74
BRANCH  61  85
ATOM     85  C   UNL A   1      42.468  28.004  34.086  1.00  0.00     0.023 A 
ATOM     86  C   UNL A   1      43.321  27.199  33.301  1.00  0.00     0.031 A 
ATOM     87  C   UNL A   1      42.043  27.461  35.318  1.00  0.00     0.131 A 
ATOM     88  C   UNL A   1      43.748  25.938  33.771  1.00  0.00     0.055 A 
ATOM     89  C   UNL A   1      42.466  26.211  35.777  1.00  0.00     0.041 A 
ATOM     90  F   UNL A   1      41.278  28.165  36.166  1.00  0.00    -0.206 F 
ATOM     91  C   UNL A   1      43.337  25.451  35.013  1.00  0.00     0.022 A 
BRANCH  88  92
ATOM     92  S   UNL A   1      44.969  24.970  32.828  1.00  0.00     0.124 S 
ATOM     93  O   UNL A   1      44.749  23.623  33.343  1.00  0.00    -0.237 OA
ATOM     94  O   UNL A   1      44.567  25.209  31.447  1.00  0.00    -0.237 OA
ATOM     95  O   UNL A   1      46.244  25.577  33.207  1.00  0.00    -0.744 OA
ENDBRANCH  88  92
ENDBRANCH  61  85
BRANCH  73  96
ATOM     96  C   UNL A   1      43.768  34.150  32.667  1.00  0.00     0.023 A 
ATOM     97  C   UNL A   1      45.087  34.401  32.234  1.00  0.00     0.031 A 
ATOM     98  C   UNL A   1      42.750  34.125  31.697  1.00  0.00     0.131 A 
ATOM     99  C   UNL A   1      45.343  34.606  30.861  1.00  0.00     0.055 A 
ATOM    100  C   UNL A   1      43.009  34.313  30.342  1.00  0.00     0.041 A 
ATOM    101  F   UNL A   1      41.477  33.886  32.055  1.00  0.00    -0.206 F 
ATOM    102  C   UNL A   1      44.309  34.554  29.918  1.00  0.00     0.022 A 
BRANCH  99 103
ATOM    103  S   UNL A   1      47.038  34.930  30.269  1.00  0.00     0.124 S 
ATOM    104  O   UNL A   1      47.810  35.019  31.503  1.00  0.00    -0.237 OA
ATOM    105  O   UNL A   1      47.308  33.770  29.424  1.00  0.00    -0.237 OA
ATOM    106  O   UNL A   1      46.910  36.194  29.539  1.00  0.00    -0.744 OA
ENDBRANCH  99 103
ENDBRANCH  73  96
ENDBRANCH  47  48
ENDBRANCH  40  42
ENDBRANCH  39  40
ENDBRANCH  38  39
ENDBRANCH  37  38
ENDBRANCH  36  37
ENDBRANCH  35  36
ENDBRANCH   1  35
TORSDOF 25
ENDMDL
MODEL 3
REMARK VINA RESULT:      -8.9      3.179      4.363
REMARK SMILES CC1(C)Cc2c(c(N3CCOCC3)nc3sc(C(=O)OCCOCCOCCOCCOC(=O)c4ccc(-c5c6nc(c(-c7cc(S(=O)(=O)[O-])ccc7F)c7ccc([nH]7)c(-c7cc(S(=O)(=O)[O-])ccc7F)c7nc(c(-c8cc(S(=O)(=O)[O-])ccc8F)c8ccc5[nH]8)C=C7)C=C6)cc4)c(N)c23)CS1
REMARK SMILES IDX 27 1 26 2 25 3 24 4 23 5 22 6 21 7 20 8 18 9 19 10 17 11
REMARK SMILES IDX 1 12 2 13 3 14 4 15 102 16 5 17 101 18 6 19 100 20 7 21
REMARK SMILES IDX 15 22 98 23 14 24 16 25 8 26 9 27 13 28 10 29 12 30 11 31
REMARK SMILES IDX 99 32 28 35 29 36 30 37 31 38 32 39 33 40 34 41 35 42 36 43
REMARK SMILES IDX 97 44 37 45 96 46 38 47 39 48 40 49 90 50 41 51 95 52 89 53
REMARK SMILES IDX 91 54 42 55 94 56 88 57 87 58 43 60 75 61 55 62 74 63 56 64
REMARK SMILES IDX 59 65 73 66 92 67 57 68 58 69 72 71 93 72 60 73 44 74 45 75
REMARK SMILES IDX 53 76 46 77 52 78 54 79 51 80 47 81 48 82 49 83 50 84 76 85
REMARK SMILES IDX 77 86 85 87 78 88 84 89 86 90 83 91 79 92 80 93 81 94 82 95
REMARK SMILES IDX 61 96 62 97 70 98 63 99 69 100 71 101 68 102 64 103 65 104
REMARK SMILES IDX 66 105 67 106
REMARK H PARENT 99 33 99 34 91 59 59 70
REMARK Flexibility Score: inf
ROOT
ATOM      1  C   UNL A   1      44.525  24.504  31.503  1.00  0.00     0.188 C 
ENDROOT
BRANCH   1   2
ATOM      2  O   UNL A   1      44.040  24.259  32.822  1.00  0.00    -0.377 OA
BRANCH   2   3
ATOM      3  C   UNL A   1      44.942  23.590  33.683  1.00  0.00     0.188 C 
BRANCH   3   4
ATOM      4  C   UNL A   1      44.437  22.211  34.162  1.00  0.00     0.188 C 
BRANCH   4   5
ATOM      5  O   UNL A   1      44.903  21.585  35.350  1.00  0.00    -0.376 OA
BRANCH   5   6
ATOM      6  C   UNL A   1      45.982  20.665  35.348  1.00  0.00     0.202 C 
BRANCH   6   7
ATOM      7  C   UNL A   1      47.423  21.077  34.998  1.00  0.00     0.261 C 
BRANCH   7   8
ATOM      8  O   UNL A   1      47.907  22.294  35.563  1.00  0.00    -0.459 OA
BRANCH   8   9
ATOM      9  C   UNL A   1      47.448  22.595  36.804  1.00  0.00     0.350 C 
ATOM     10  O   UNL A   1      46.504  23.357  37.030  1.00  0.00    -0.245 OA
BRANCH   9  11
ATOM     11  C   UNL A   1      48.084  21.754  37.793  1.00  0.00     0.138 A 
ATOM     12  C   UNL A   1      45.361  18.004  42.963  1.00  0.00     0.023 C 
ATOM     13  C   UNL A   1      46.797  18.009  42.415  1.00  0.00     0.015 C 
ATOM     14  C   UNL A   1      47.174  16.577  42.006  1.00  0.00     0.023 C 
ATOM     15  C   UNL A   1      46.900  18.995  41.237  1.00  0.00     0.054 C 
ATOM     16  S   UNL A   1      47.866  18.613  43.759  1.00  0.00    -0.150 SA
ATOM     17  C   UNL A   1      48.268  19.430  40.749  1.00  0.00    -0.027 A 
ATOM     18  C   UNL A   1      49.430  18.561  42.869  1.00  0.00     0.109 C 
ATOM     19  C   UNL A   1      49.453  19.146  41.476  1.00  0.00     0.009 A 
ATOM     20  C   UNL A   1      48.411  20.269  39.600  1.00  0.00     0.039 A 
ATOM     21  C   UNL A   1      50.708  19.503  40.937  1.00  0.00     0.134 A 
ATOM     22  C   UNL A   1      49.706  20.596  39.217  1.00  0.00     0.128 A 
ATOM     23  C   UNL A   1      47.472  20.944  38.734  1.00  0.00     0.067 A 
ATOM     24  N   UNL A   1      50.845  20.211  39.811  1.00  0.00    -0.220 NA
ATOM     25  S   UNL A   1      49.782  21.628  37.868  1.00  0.00    -0.106 S 
BRANCH  21  26
ATOM     26  N   UNL A   1      51.863  19.252  41.635  1.00  0.00    -0.352 N 
ATOM     27  C   UNL A   1      52.699  18.069  41.451  1.00  0.00     0.146 C 
ATOM     28  C   UNL A   1      52.511  20.342  42.355  1.00  0.00     0.146 C 
ATOM     29  C   UNL A   1      53.145  17.585  42.846  1.00  0.00     0.181 C 
ATOM     30  C   UNL A   1      52.906  19.784  43.733  1.00  0.00     0.181 C 
ATOM     31  O   UNL A   1      53.771  18.634  43.611  1.00  0.00    -0.378 OA
ENDBRANCH  21  26
BRANCH  23  32
ATOM     32  N   UNL A   1      46.124  20.827  38.811  1.00  0.00    -0.397 N 
ATOM     33  H   UNL A   1      45.708  19.935  38.812  1.00  0.00     0.156 HD
ATOM     34  H   UNL A   1      45.562  21.633  38.866  1.00  0.00     0.156 HD
ENDBRANCH  23  32
ENDBRANCH   9  11
ENDBRANCH   8   9
ENDBRANCH   7   8
ENDBRANCH   6   7
ENDBRANCH   5   6
ENDBRANCH   4   5
ENDBRANCH   3   4
ENDBRANCH   2   3
ENDBRANCH   1   2
BRANCH   1  35
ATOM     35  C   UNL A   1      44.037  23.570  30.364  1.00  0.00     0.188 C 
BRANCH  35  36
ATOM     36  O   UNL A   1      43.423  24.247  29.272  1.00  0.00    -0.376 OA
BRANCH  36  37
ATOM     37  C   UNL A   1      42.620  23.553  28.333  1.00  0.00     0.202 C 
BRANCH  37  38
ATOM     38  C   UNL A   1      42.553  24.158  26.935  1.00  0.00     0.261 C 
BRANCH  38  39
ATOM     39  O   UNL A   1      41.256  24.587  26.572  1.00  0.00    -0.460 OA
BRANCH  39  40
ATOM     40  C   UNL A   1      41.221  25.707  25.834  1.00  0.00     0.338 C 
ATOM     41  O   UNL A   1      41.793  25.906  24.763  1.00  0.00    -0.246 OA
BRANCH  40  42
ATOM     42  C   UNL A   1      40.451  26.706  26.561  1.00  0.00     0.060 A 
ATOM     43  C   UNL A   1      40.802  28.037  26.348  1.00  0.00     0.016 A 
ATOM     44  C   UNL A   1      39.675  26.286  27.654  1.00  0.00     0.016 A 
ATOM     45  C   UNL A   1      40.618  28.908  27.390  1.00  0.00     0.010 A 
ATOM     46  C   UNL A   1      39.511  27.151  28.699  1.00  0.00     0.010 A 
ATOM     47  C   UNL A   1      40.083  28.411  28.585  1.00  0.00    -0.014 A 
BRANCH  47  48
ATOM     48  C   UNL A   1      40.085  29.283  29.731  1.00  0.00     0.031 A 
ATOM     49  C   UNL A   1      38.866  30.098  29.787  1.00  0.00     0.074 A 
ATOM     50  C   UNL A   1      41.072  29.274  30.644  1.00  0.00     0.049 A 
ATOM     51  N   UNL A   1      38.753  31.336  29.452  1.00  0.00    -0.248 NA
ATOM     52  C   UNL A   1      37.585  29.411  30.017  1.00  0.00     0.031 C 
ATOM     53  C   UNL A   1      42.162  28.300  30.772  1.00  0.00     0.029 A 
ATOM     54  N   UNL A   1      41.259  30.089  31.718  1.00  0.00    -0.354 N 
ATOM     55  C   UNL A   1      37.436  31.653  29.739  1.00  0.00     0.074 A 
ATOM     56  C   UNL A   1      36.720  30.407  29.816  1.00  0.00     0.031 C 
ATOM     57  C   UNL A   1      42.752  28.448  31.981  1.00  0.00     0.029 A 
ATOM     58  C   UNL A   1      42.186  29.614  32.639  1.00  0.00     0.049 A 
ATOM     59  H   UNL A   1      40.780  30.941  31.831  1.00  0.00     0.167 HD
ATOM     60  C   UNL A   1      37.130  32.871  30.257  1.00  0.00     0.034 A 
ATOM     61  C   UNL A   1      42.433  30.134  33.869  1.00  0.00     0.034 A 
ATOM     62  C   UNL A   1      38.231  33.792  30.125  1.00  0.00     0.049 A 
ATOM     63  C   UNL A   1      42.059  31.568  33.802  1.00  0.00     0.074 A 
ATOM     64  C   UNL A   1      38.759  34.583  29.129  1.00  0.00     0.029 A 
ATOM     65  N   UNL A   1      39.200  33.647  31.086  1.00  0.00    -0.354 N 
ATOM     66  N   UNL A   1      42.653  32.422  33.012  1.00  0.00    -0.248 NA
ATOM     67  C   UNL A   1      40.770  32.004  34.333  1.00  0.00     0.031 C 
ATOM     68  C   UNL A   1      40.129  34.803  29.469  1.00  0.00     0.029 A 
ATOM     69  C   UNL A   1      40.400  34.175  30.681  1.00  0.00     0.049 A 
ATOM     70  H   UNL A   1      39.052  33.217  31.959  1.00  0.00     0.167 HD
ATOM     71  C   UNL A   1      41.648  33.282  32.619  1.00  0.00     0.074 A 
ATOM     72  C   UNL A   1      40.570  33.089  33.580  1.00  0.00     0.031 C 
ATOM     73  C   UNL A   1      41.630  33.829  31.371  1.00  0.00     0.034 A 
BRANCH  60  74
ATOM     74  C   UNL A   1      36.044  33.079  31.276  1.00  0.00     0.023 A 
ATOM     75  C   UNL A   1      35.078  34.069  31.036  1.00  0.00     0.031 A 
ATOM     76  C   UNL A   1      36.065  32.529  32.581  1.00  0.00     0.131 A 
ATOM     77  C   UNL A   1      34.194  34.463  32.056  1.00  0.00     0.055 A 
ATOM     78  C   UNL A   1      35.144  32.876  33.569  1.00  0.00     0.041 A 
ATOM     79  F   UNL A   1      37.038  31.706  32.997  1.00  0.00    -0.206 F 
ATOM     80  C   UNL A   1      34.207  33.858  33.313  1.00  0.00     0.022 A 
BRANCH  77  81
ATOM     81  S   UNL A   1      33.076  35.855  31.751  1.00  0.00     0.124 S 
ATOM     82  O   UNL A   1      33.625  36.883  32.628  1.00  0.00    -0.237 OA
ATOM     83  O   UNL A   1      33.246  36.072  30.318  1.00  0.00    -0.237 OA
ATOM     84  O   UNL A   1      31.770  35.332  32.147  1.00  0.00    -0.744 OA
ENDBRANCH  77  81
ENDBRANCH  60  74
BRANCH  61  85
ATOM     85  C   UNL A   1      42.625  29.403  35.151  1.00  0.00     0.023 A 
ATOM     86  C   UNL A   1      41.922  28.209  35.421  1.00  0.00     0.031 A 
ATOM     87  C   UNL A   1      43.711  29.704  36.002  1.00  0.00     0.131 A 
ATOM     88  C   UNL A   1      42.335  27.357  36.469  1.00  0.00     0.055 A 
ATOM     89  C   UNL A   1      44.112  28.859  37.040  1.00  0.00     0.041 A 
ATOM     90  F   UNL A   1      44.480  30.784  35.799  1.00  0.00    -0.206 F 
ATOM     91  C   UNL A   1      43.437  27.669  37.265  1.00  0.00     0.022 A 
BRANCH  88  92
ATOM     92  S   UNL A   1      41.523  25.745  36.717  1.00  0.00     0.124 S 
ATOM     93  O   UNL A   1      40.942  25.495  35.403  1.00  0.00    -0.237 OA
ATOM     94  O   UNL A   1      42.634  24.885  37.108  1.00  0.00    -0.237 OA
ATOM     95  O   UNL A   1      40.556  26.017  37.780  1.00  0.00    -0.744 OA
ENDBRANCH  88  92
ENDBRANCH  61  85
BRANCH  73  96
ATOM     96  C   UNL A   1      42.942  34.002  30.654  1.00  0.00     0.023 A 
ATOM     97  C   UNL A   1      43.872  35.040  30.873  1.00  0.00     0.031 A 
ATOM     98  C   UNL A   1      43.280  32.999  29.728  1.00  0.00     0.131 A 
ATOM     99  C   UNL A   1      45.099  35.036  30.173  1.00  0.00     0.055 A 
ATOM    100  C   UNL A   1      44.497  32.991  29.052  1.00  0.00     0.041 A 
ATOM    101  F   UNL A   1      42.432  31.985  29.486  1.00  0.00    -0.206 F 
ATOM    102  C   UNL A   1      45.413  34.012  29.272  1.00  0.00     0.022 A 
BRANCH  99 103
ATOM    103  S   UNL A   1      46.323  36.362  30.435  1.00  0.00     0.124 S 
ATOM    104  O   UNL A   1      47.307  35.739  31.313  1.00  0.00    -0.237 OA
ATOM    105  O   UNL A   1      46.770  36.658  29.077  1.00  0.00    -0.237 OA
ATOM    106  O   UNL A   1      45.541  37.432  31.061  1.00  0.00    -0.744 OA
ENDBRANCH  99 103
ENDBRANCH  73  96
ENDBRANCH  47  48
ENDBRANCH  40  42
ENDBRANCH  39  40
ENDBRANCH  38  39
ENDBRANCH  37  38
ENDBRANCH  36  37
ENDBRANCH  35  36
ENDBRANCH   1  35
TORSDOF 25
ENDMDL
