MODEL 1
REMARK VINA RESULT:     -10.5      0.000      0.000
REMARK SMILES O=C(OCCOCCOCCOCCOC(=O)[C@H]1[C@H]2CC[C@H](CC2)[C@@H]1C(=O)Nc1sc2c(c1C(=O)N1CCCCC1)CCCC2)c1ccc(-c2c3nc(c(-c4cc(S(=O)(=O)[O-])ccc4F)c4ccc([nH]4)c(-c4cc(S(=O)(=O)[O-])ccc4F)c4nc(c(-c5cc(S(=O)(=O)[O-])ccc5F)c5ccc2[nH]5)C=C4)C=C3)cc1
REMARK SMILES IDX 9 1 8 2 7 3 6 4 5 5 4 6 3 7 2 8 1 9 46 10 47 11 108 12 48 13
REMARK SMILES IDX 107 14 49 15 50 16 51 17 101 18 52 19 106 20 100 21 102 22
REMARK SMILES IDX 53 23 105 24 99 25 98 26 54 28 86 29 66 30 85 31 67 32 70 33
REMARK SMILES IDX 84 34 103 35 68 36 69 37 83 39 104 40 71 41 55 42 56 43
REMARK SMILES IDX 64 44 57 45 63 46 65 47 62 48 58 49 59 50 60 51 61 52 87 53
REMARK SMILES IDX 88 54 96 55 89 56 95 57 97 58 94 59 90 60 91 61 92 62 93 63
REMARK SMILES IDX 72 64 73 65 81 66 74 67 80 68 82 69 79 70 75 71 76 72 77 73
REMARK SMILES IDX 78 74 10 75 11 76 12 77 13 78 14 79 15 80 16 81 17 82 18 83
REMARK SMILES IDX 19 84 25 85 24 86 20 87 22 88 23 89 21 90 26 91 27 92 28 93
REMARK SMILES IDX 29 95 30 96 33 97 31 98 32 99 45 100 42 101 44 102 43 103
REMARK SMILES IDX 34 104 35 105 36 106 37 107 41 108 38 109 40 110 39 111
REMARK H PARENT 102 27 70 38 28 94
REMARK Flexibility Score: inf
ROOT
ATOM      1  O   UNL A   1      35.541  21.613  26.106  1.00  0.00    -0.377 OA
ENDROOT
BRANCH   1   2
ATOM      2  C   UNL A   1      35.959  20.525  25.279  1.00  0.00     0.188 C 
BRANCH   2   3
ATOM      3  C   UNL A   1      37.418  20.604  24.821  1.00  0.00     0.188 C 
BRANCH   3   4
ATOM      4  O   UNL A   1      38.141  21.429  25.720  1.00  0.00    -0.376 OA
BRANCH   4   5
ATOM      5  C   UNL A   1      39.516  21.186  25.963  1.00  0.00     0.202 C 
BRANCH   5   6
ATOM      6  C   UNL A   1      39.926  19.722  26.059  1.00  0.00     0.261 C 
BRANCH   6   7
ATOM      7  O   UNL A   1      41.201  19.407  25.460  1.00  0.00    -0.460 OA
BRANCH   7   8
ATOM      8  C   UNL A   1      42.441  19.803  25.843  1.00  0.00     0.338 C 
ATOM      9  O   UNL A   1      43.363  18.988  25.851  1.00  0.00    -0.246 OA
BRANCH   8  10
ATOM     10  C   UNL A   1      42.735  21.207  26.207  1.00  0.00     0.060 A 
ATOM     11  C   UNL A   1      42.763  22.234  25.277  1.00  0.00     0.016 A 
ATOM     12  C   UNL A   1      42.883  21.545  27.554  1.00  0.00     0.016 A 
ATOM     13  C   UNL A   1      43.214  23.492  25.597  1.00  0.00     0.010 A 
ATOM     14  C   UNL A   1      43.163  22.868  27.918  1.00  0.00     0.010 A 
ATOM     15  C   UNL A   1      43.399  23.834  26.927  1.00  0.00    -0.014 A 
BRANCH  15  16
ATOM     16  C   UNL A   1      43.964  25.170  27.207  1.00  0.00     0.031 A 
ATOM     17  C   UNL A   1      43.063  26.186  27.843  1.00  0.00     0.074 A 
ATOM     18  C   UNL A   1      45.289  25.383  27.073  1.00  0.00     0.049 A 
ATOM     19  N   UNL A   1      43.286  27.445  28.097  1.00  0.00    -0.248 NA
ATOM     20  C   UNL A   1      41.728  25.717  28.252  1.00  0.00     0.031 C 
ATOM     21  C   UNL A   1      46.267  24.386  26.614  1.00  0.00     0.029 A 
ATOM     22  N   UNL A   1      46.057  26.480  27.356  1.00  0.00    -0.354 N 
ATOM     23  C   UNL A   1      42.107  27.927  28.653  1.00  0.00     0.074 A 
ATOM     24  C   UNL A   1      41.164  26.833  28.680  1.00  0.00     0.031 C 
ATOM     25  C   UNL A   1      47.502  24.899  26.710  1.00  0.00     0.029 A 
ATOM     26  C   UNL A   1      47.399  26.296  27.101  1.00  0.00     0.049 A 
ATOM     27  H   UNL A   1      45.686  27.320  27.711  1.00  0.00     0.167 HD
ATOM     28  C   UNL A   1      41.846  29.178  29.097  1.00  0.00     0.034 A 
ATOM     29  C   UNL A   1      48.413  27.181  27.121  1.00  0.00     0.034 A 
ATOM     30  C   UNL A   1      42.828  30.229  29.053  1.00  0.00     0.049 A 
ATOM     31  C   UNL A   1      48.067  28.600  27.498  1.00  0.00     0.074 A 
ATOM     32  C   UNL A   1      42.683  31.571  29.349  1.00  0.00     0.029 A 
ATOM     33  N   UNL A   1      44.160  30.040  28.693  1.00  0.00    -0.354 N 
ATOM     34  N   UNL A   1      46.910  29.090  27.887  1.00  0.00    -0.248 NA
ATOM     35  C   UNL A   1      49.148  29.585  27.425  1.00  0.00     0.031 C 
ATOM     36  C   UNL A   1      43.911  32.200  29.115  1.00  0.00     0.029 A 
ATOM     37  C   UNL A   1      44.844  31.241  28.747  1.00  0.00     0.049 A 
ATOM     38  H   UNL A   1      44.557  29.176  28.438  1.00  0.00     0.167 HD
ATOM     39  C   UNL A   1      47.129  30.444  28.113  1.00  0.00     0.074 A 
ATOM     40  C   UNL A   1      48.539  30.675  27.861  1.00  0.00     0.031 C 
ATOM     41  C   UNL A   1      46.252  31.417  28.478  1.00  0.00     0.034 A 
BRANCH  28  42
ATOM     42  C   UNL A   1      40.438  29.461  29.552  1.00  0.00     0.023 A 
ATOM     43  C   UNL A   1      40.091  29.515  30.915  1.00  0.00     0.031 A 
ATOM     44  C   UNL A   1      39.405  29.573  28.605  1.00  0.00     0.131 A 
ATOM     45  C   UNL A   1      38.740  29.598  31.290  1.00  0.00     0.055 A 
ATOM     46  C   UNL A   1      38.071  29.735  28.985  1.00  0.00     0.041 A 
ATOM     47  F   UNL A   1      39.670  29.491  27.292  1.00  0.00    -0.206 F 
ATOM     48  C   UNL A   1      37.730  29.733  30.334  1.00  0.00     0.022 A 
BRANCH  45  49
ATOM     49  S   UNL A   1      38.306  29.376  33.038  1.00  0.00     0.124 S 
ATOM     50  O   UNL A   1      37.510  28.150  32.989  1.00  0.00    -0.237 OA
ATOM     51  O   UNL A   1      39.610  29.265  33.678  1.00  0.00    -0.237 OA
ATOM     52  O   UNL A   1      37.553  30.586  33.361  1.00  0.00    -0.744 OA
ENDBRANCH  45  49
ENDBRANCH  28  42
BRANCH  29  53
ATOM     53  C   UNL A   1      49.788  26.801  26.670  1.00  0.00     0.023 A 
ATOM     54  C   UNL A   1      50.296  27.215  25.427  1.00  0.00     0.031 A 
ATOM     55  C   UNL A   1      50.592  25.942  27.445  1.00  0.00     0.131 A 
ATOM     56  C   UNL A   1      51.535  26.725  24.975  1.00  0.00     0.055 A 
ATOM     57  C   UNL A   1      51.853  25.515  27.024  1.00  0.00     0.041 A 
ATOM     58  F   UNL A   1      50.163  25.496  28.637  1.00  0.00    -0.206 F 
ATOM     59  C   UNL A   1      52.322  25.891  25.770  1.00  0.00     0.022 A 
BRANCH  56  60
ATOM     60  S   UNL A   1      52.043  27.088  23.271  1.00  0.00     0.124 S 
ATOM     61  O   UNL A   1      52.957  25.987  22.991  1.00  0.00    -0.237 OA
ATOM     62  O   UNL A   1      50.768  27.059  22.562  1.00  0.00    -0.237 OA
ATOM     63  O   UNL A   1      52.668  28.405  23.376  1.00  0.00    -0.744 OA
ENDBRANCH  56  60
ENDBRANCH  29  53
BRANCH  41  64
ATOM     64  C   UNL A   1      46.831  32.795  28.655  1.00  0.00     0.023 A 
ATOM     65  C   UNL A   1      46.832  33.726  27.603  1.00  0.00     0.031 A 
ATOM     66  C   UNL A   1      47.412  33.166  29.878  1.00  0.00     0.131 A 
ATOM     67  C   UNL A   1      47.476  34.958  27.771  1.00  0.00     0.055 A 
ATOM     68  C   UNL A   1      47.984  34.423  30.062  1.00  0.00     0.041 A 
ATOM     69  F   UNL A   1      47.436  32.308  30.912  1.00  0.00    -0.206 F 
ATOM     70  C   UNL A   1      48.034  35.321  28.999  1.00  0.00     0.022 A 
BRANCH  67  71
ATOM     71  S   UNL A   1      47.681  36.027  26.321  1.00  0.00     0.124 S 
ATOM     72  O   UNL A   1      48.638  35.269  25.520  1.00  0.00    -0.237 OA
ATOM     73  O   UNL A   1      46.324  36.100  25.793  1.00  0.00    -0.237 OA
ATOM     74  O   UNL A   1      48.195  37.273  26.887  1.00  0.00    -0.744 OA
ENDBRANCH  67  71
ENDBRANCH  41  64
ENDBRANCH  15  16
ENDBRANCH   8  10
ENDBRANCH   7   8
ENDBRANCH   6   7
ENDBRANCH   5   6
ENDBRANCH   4   5
ENDBRANCH   3   4
ENDBRANCH   2   3
ENDBRANCH   1   2
BRANCH   1  75
ATOM     75  C   UNL A   1      34.259  21.461  26.715  1.00  0.00     0.188 C 
BRANCH  75  76
ATOM     76  C   UNL A   1      33.935  22.277  27.985  1.00  0.00     0.188 C 
BRANCH  76  77
ATOM     77  O   UNL A   1      32.546  22.526  28.178  1.00  0.00    -0.376 OA
BRANCH  77  78
ATOM     78  C   UNL A   1      31.935  23.360  27.196  1.00  0.00     0.202 C 
BRANCH  78  79
ATOM     79  C   UNL A   1      30.659  22.809  26.528  1.00  0.00     0.261 C 
BRANCH  79  80
ATOM     80  O   UNL A   1      30.746  22.657  25.100  1.00  0.00    -0.463 OA
BRANCH  80  81
ATOM     81  C   UNL A   1      31.027  23.748  24.356  1.00  0.00     0.310 C 
ATOM     82  O   UNL A   1      30.165  24.470  23.837  1.00  0.00    -0.252 OA
BRANCH  81  83
ATOM     83  C   UNL A   1      32.533  24.006  24.300  1.00  0.00     0.115 C 
ATOM     84  C   UNL A   1      33.260  22.942  23.455  1.00  0.00     0.004 C 
ATOM     85  C   UNL A   1      32.837  25.444  23.772  1.00  0.00     0.096 C 
ATOM     86  C   UNL A   1      32.774  22.997  22.002  1.00  0.00     0.005 C 
ATOM     87  C   UNL A   1      34.762  23.288  23.476  1.00  0.00     0.005 C 
ATOM     88  C   UNL A   1      33.653  25.317  22.459  1.00  0.00     0.002 C 
ATOM     89  C   UNL A   1      32.848  24.439  21.481  1.00  0.00     0.005 C 
ATOM     90  C   UNL A   1      34.999  24.618  22.744  1.00  0.00     0.005 C 
BRANCH  85  91
ATOM     91  C   UNL A   1      33.621  26.383  24.723  1.00  0.00     0.229 C 
ATOM     92  O   UNL A   1      34.609  25.975  25.342  1.00  0.00    -0.274 OA
ATOM     93  N   UNL A   1      33.390  27.738  24.730  1.00  0.00    -0.317 N 
ATOM     94  H   UNL A   1      34.123  28.286  25.090  1.00  0.00     0.170 HD
BRANCH  93  95
ATOM     95  C   UNL A   1      32.281  28.443  24.303  1.00  0.00     0.108 A 
ATOM     96  S   UNL A   1      31.731  28.185  22.718  1.00  0.00    -0.122 S 
ATOM     97  C   UNL A   1      31.423  29.249  25.056  1.00  0.00     0.078 A 
ATOM     98  C   UNL A   1      30.612  29.436  22.851  1.00  0.00     0.011 A 
ATOM     99  C   UNL A   1      30.470  29.889  24.151  1.00  0.00    -0.019 A 
ATOM    100  C   UNL A   1      29.860  29.937  21.655  1.00  0.00     0.047 C 
ATOM    101  C   UNL A   1      29.472  30.965  24.457  1.00  0.00     0.037 C 
ATOM    102  C   UNL A   1      29.291  31.329  21.946  1.00  0.00     0.006 C 
ATOM    103  C   UNL A   1      28.556  31.334  23.283  1.00  0.00     0.005 C 
BRANCH  97 104
ATOM    104  C   UNL A   1      31.656  29.462  26.503  1.00  0.00     0.257 C 
ATOM    105  O   UNL A   1      31.438  28.566  27.329  1.00  0.00    -0.269 OA
ATOM    106  N   UNL A   1      32.294  30.636  26.894  1.00  0.00    -0.339 N 
ATOM    107  C   UNL A   1      33.468  30.489  27.739  1.00  0.00     0.120 C 
ATOM    108  C   UNL A   1      31.515  31.832  27.196  1.00  0.00     0.120 C 
ATOM    109  C   UNL A   1      34.414  31.658  27.502  1.00  0.00     0.022 C 
ATOM    110  C   UNL A   1      32.368  33.098  27.041  1.00  0.00     0.022 C 
ATOM    111  C   UNL A   1      33.718  32.996  27.758  1.00  0.00     0.004 C 
ENDBRANCH  97 104
ENDBRANCH  93  95
ENDBRANCH  85  91
ENDBRANCH  81  83
ENDBRANCH  80  81
ENDBRANCH  79  80
ENDBRANCH  78  79
ENDBRANCH  77  78
ENDBRANCH  76  77
ENDBRANCH  75  76
ENDBRANCH   1  75
TORSDOF 26
ENDMDL
MODEL 2
REMARK VINA RESULT:     -10.4      1.207      6.996
REMARK SMILES O=C(OCCOCCOCCOCCOC(=O)[C@H]1[C@H]2CC[C@H](CC2)[C@@H]1C(=O)Nc1sc2c(c1C(=O)N1CCCCC1)CCCC2)c1ccc(-c2c3nc(c(-c4cc(S(=O)(=O)[O-])ccc4F)c4ccc([nH]4)c(-c4cc(S(=O)(=O)[O-])ccc4F)c4nc(c(-c5cc(S(=O)(=O)[O-])ccc5F)c5ccc2[nH]5)C=C4)C=C3)cc1
REMARK SMILES IDX 9 1 8 2 7 3 6 4 5 5 4 6 3 7 2 8 1 9 46 10 47 11 108 12 48 13
REMARK SMILES IDX 107 14 49 15 50 16 51 17 101 18 52 19 106 20 100 21 102 22
REMARK SMILES IDX 53 23 105 24 99 25 98 26 54 28 86 29 66 30 85 31 67 32 70 33
REMARK SMILES IDX 84 34 103 35 68 36 69 37 83 39 104 40 71 41 55 42 56 43
REMARK SMILES IDX 64 44 57 45 63 46 65 47 62 48 58 49 59 50 60 51 61 52 87 53
REMARK SMILES IDX 88 54 96 55 89 56 95 57 97 58 94 59 90 60 91 61 92 62 93 63
REMARK SMILES IDX 72 64 73 65 81 66 74 67 80 68 82 69 79 70 75 71 76 72 77 73
REMARK SMILES IDX 78 74 10 75 11 76 12 77 13 78 14 79 15 80 16 81 17 82 18 83
REMARK SMILES IDX 19 84 25 85 24 86 20 87 22 88 23 89 21 90 26 91 27 92 28 93
REMARK SMILES IDX 29 95 30 96 33 97 31 98 32 99 45 100 42 101 44 102 43 103
REMARK SMILES IDX 34 104 35 105 36 106 37 107 41 108 38 109 40 110 39 111
REMARK H PARENT 102 27 70 38 28 94
REMARK Flexibility Score: inf
ROOT
ATOM      1  O   UNL A   1      35.566  21.409  26.168  1.00  0.00    -0.377 OA
ENDROOT
BRANCH   1   2
ATOM      2  C   UNL A   1      35.836  20.403  25.190  1.00  0.00     0.188 C 
BRANCH   2   3
ATOM      3  C   UNL A   1      37.322  20.217  24.870  1.00  0.00     0.188 C 
BRANCH   3   4
ATOM      4  O   UNL A   1      38.066  21.236  25.517  1.00  0.00    -0.376 OA
BRANCH   4   5
ATOM      5  C   UNL A   1      39.421  21.015  25.870  1.00  0.00     0.202 C 
BRANCH   5   6
ATOM      6  C   UNL A   1      39.838  19.559  26.031  1.00  0.00     0.261 C 
BRANCH   6   7
ATOM      7  O   UNL A   1      41.173  19.254  25.574  1.00  0.00    -0.460 OA
BRANCH   7   8
ATOM      8  C   UNL A   1      42.354  19.777  25.991  1.00  0.00     0.338 C 
ATOM      9  O   UNL A   1      43.351  19.059  26.044  1.00  0.00    -0.246 OA
BRANCH   8  10
ATOM     10  C   UNL A   1      42.494  21.209  26.340  1.00  0.00     0.060 A 
ATOM     11  C   UNL A   1      42.373  22.225  25.405  1.00  0.00     0.016 A 
ATOM     12  C   UNL A   1      42.646  21.572  27.680  1.00  0.00     0.016 A 
ATOM     13  C   UNL A   1      42.685  23.530  25.705  1.00  0.00     0.010 A 
ATOM     14  C   UNL A   1      42.782  22.921  28.029  1.00  0.00     0.010 A 
ATOM     15  C   UNL A   1      42.871  23.901  27.027  1.00  0.00    -0.014 A 
BRANCH  15  16
ATOM     16  C   UNL A   1      43.286  25.295  27.283  1.00  0.00     0.031 A 
ATOM     17  C   UNL A   1      44.634  25.722  26.785  1.00  0.00     0.074 A 
ATOM     18  C   UNL A   1      42.396  26.184  27.769  1.00  0.00     0.049 A 
ATOM     19  N   UNL A   1      45.264  26.848  26.966  1.00  0.00    -0.248 NA
ATOM     20  C   UNL A   1      45.373  24.744  25.967  1.00  0.00     0.031 C 
ATOM     21  C   UNL A   1      41.002  25.883  28.126  1.00  0.00     0.029 A 
ATOM     22  N   UNL A   1      42.502  27.530  27.998  1.00  0.00    -0.354 N 
ATOM     23  C   UNL A   1      46.487  26.698  26.323  1.00  0.00     0.074 A 
ATOM     24  C   UNL A   1      46.522  25.366  25.767  1.00  0.00     0.031 C 
ATOM     25  C   UNL A   1      40.374  27.018  28.465  1.00  0.00     0.029 A 
ATOM     26  C   UNL A   1      41.346  28.101  28.484  1.00  0.00     0.049 A 
ATOM     27  H   UNL A   1      43.326  28.041  27.830  1.00  0.00     0.167 HD
ATOM     28  C   UNL A   1      47.488  27.603  26.216  1.00  0.00     0.034 A 
ATOM     29  C   UNL A   1      41.124  29.344  28.953  1.00  0.00     0.034 A 
ATOM     30  C   UNL A   1      47.396  28.921  26.784  1.00  0.00     0.049 A 
ATOM     31  C   UNL A   1      42.297  30.292  28.937  1.00  0.00     0.074 A 
ATOM     32  C   UNL A   1      48.364  29.904  26.867  1.00  0.00     0.029 A 
ATOM     33  N   UNL A   1      46.243  29.444  27.364  1.00  0.00    -0.354 N 
ATOM     34  N   UNL A   1      43.507  30.100  28.458  1.00  0.00    -0.248 NA
ATOM     35  C   UNL A   1      42.086  31.612  29.535  1.00  0.00     0.031 C 
ATOM     36  C   UNL A   1      47.812  30.997  27.545  1.00  0.00     0.029 A 
ATOM     37  C   UNL A   1      46.478  30.729  27.818  1.00  0.00     0.049 A 
ATOM     38  H   UNL A   1      45.385  28.967  27.440  1.00  0.00     0.167 HD
ATOM     39  C   UNL A   1      44.200  31.281  28.691  1.00  0.00     0.074 A 
ATOM     40  C   UNL A   1      43.254  32.191  29.311  1.00  0.00     0.031 C 
ATOM     41  C   UNL A   1      45.498  31.592  28.437  1.00  0.00     0.034 A 
BRANCH  28  42
ATOM     42  C   UNL A   1      48.762  27.137  25.558  1.00  0.00     0.023 A 
ATOM     43  C   UNL A   1      49.824  26.583  26.296  1.00  0.00     0.031 A 
ATOM     44  C   UNL A   1      48.956  27.350  24.182  1.00  0.00     0.131 A 
ATOM     45  C   UNL A   1      51.056  26.335  25.669  1.00  0.00     0.055 A 
ATOM     46  C   UNL A   1      50.158  27.026  23.549  1.00  0.00     0.041 A 
ATOM     47  F   UNL A   1      47.993  27.910  23.435  1.00  0.00    -0.206 F 
ATOM     48  C   UNL A   1      51.222  26.529  24.296  1.00  0.00     0.022 A 
BRANCH  45  49
ATOM     49  S   UNL A   1      52.484  25.895  26.700  1.00  0.00     0.124 S 
ATOM     50  O   UNL A   1      51.901  25.933  28.040  1.00  0.00    -0.237 OA
ATOM     51  O   UNL A   1      52.846  24.577  26.197  1.00  0.00    -0.237 OA
ATOM     52  O   UNL A   1      53.449  26.957  26.419  1.00  0.00    -0.744 OA
ENDBRANCH  45  49
ENDBRANCH  28  42
BRANCH  29  53
ATOM     53  C   UNL A   1      39.816  29.722  29.572  1.00  0.00     0.023 A 
ATOM     54  C   UNL A   1      39.625  29.697  30.963  1.00  0.00     0.031 A 
ATOM     55  C   UNL A   1      38.701  30.038  28.770  1.00  0.00     0.131 A 
ATOM     56  C   UNL A   1      38.345  29.922  31.501  1.00  0.00     0.055 A 
ATOM     57  C   UNL A   1      37.449  30.331  29.313  1.00  0.00     0.041 A 
ATOM     58  F   UNL A   1      38.809  30.066  27.432  1.00  0.00    -0.206 F 
ATOM     59  C   UNL A   1      37.260  30.253  30.688  1.00  0.00     0.022 A 
BRANCH  56  60
ATOM     60  S   UNL A   1      38.087  29.644  33.276  1.00  0.00     0.124 S 
ATOM     61  O   UNL A   1      39.457  29.588  33.772  1.00  0.00    -0.237 OA
ATOM     62  O   UNL A   1      37.315  30.822  33.658  1.00  0.00    -0.237 OA
ATOM     63  O   UNL A   1      37.356  28.379  33.320  1.00  0.00    -0.744 OA
ENDBRANCH  56  60
ENDBRANCH  29  53
BRANCH  41  64
ATOM     64  C   UNL A   1      45.929  32.986  28.805  1.00  0.00     0.023 A 
ATOM     65  C   UNL A   1      45.704  34.072  27.940  1.00  0.00     0.031 A 
ATOM     66  C   UNL A   1      46.596  33.224  30.017  1.00  0.00     0.131 A 
ATOM     67  C   UNL A   1      46.215  35.333  28.268  1.00  0.00     0.055 A 
ATOM     68  C   UNL A   1      47.035  34.498  30.371  1.00  0.00     0.041 A 
ATOM     69  F   UNL A   1      46.835  32.217  30.874  1.00  0.00    -0.206 F 
ATOM     70  C   UNL A   1      46.861  35.558  29.486  1.00  0.00     0.022 A 
BRANCH  67  71
ATOM     71  S   UNL A   1      46.132  36.646  27.021  1.00  0.00     0.124 S 
ATOM     72  O   UNL A   1      46.719  35.993  25.855  1.00  0.00    -0.237 OA
ATOM     73  O   UNL A   1      44.700  36.916  26.947  1.00  0.00    -0.237 OA
ATOM     74  O   UNL A   1      46.936  37.720  27.602  1.00  0.00    -0.744 OA
ENDBRANCH  67  71
ENDBRANCH  41  64
ENDBRANCH  15  16
ENDBRANCH   8  10
ENDBRANCH   7   8
ENDBRANCH   6   7
ENDBRANCH   5   6
ENDBRANCH   4   5
ENDBRANCH   3   4
ENDBRANCH   2   3
ENDBRANCH   1   2
BRANCH   1  75
ATOM     75  C   UNL A   1      34.189  21.582  26.503  1.00  0.00     0.188 C 
BRANCH  75  76
ATOM     76  C   UNL A   1      33.799  21.765  27.986  1.00  0.00     0.188 C 
BRANCH  76  77
ATOM     77  O   UNL A   1      32.614  22.528  28.187  1.00  0.00    -0.376 OA
BRANCH  77  78
ATOM     78  C   UNL A   1      32.173  23.275  27.056  1.00  0.00     0.202 C 
BRANCH  78  79
ATOM     79  C   UNL A   1      30.751  22.969  26.546  1.00  0.00     0.261 C 
BRANCH  79  80
ATOM     80  O   UNL A   1      30.648  22.792  25.121  1.00  0.00    -0.463 OA
BRANCH  80  81
ATOM     81  C   UNL A   1      30.951  23.837  24.323  1.00  0.00     0.310 C 
ATOM     82  O   UNL A   1      30.106  24.539  23.752  1.00  0.00    -0.252 OA
BRANCH  81  83
ATOM     83  C   UNL A   1      32.461  24.074  24.273  1.00  0.00     0.115 C 
ATOM     84  C   UNL A   1      33.176  23.006  23.422  1.00  0.00     0.004 C 
ATOM     85  C   UNL A   1      32.787  25.512  23.756  1.00  0.00     0.096 C 
ATOM     86  C   UNL A   1      32.695  23.079  21.968  1.00  0.00     0.005 C 
ATOM     87  C   UNL A   1      34.683  23.331  23.450  1.00  0.00     0.005 C 
ATOM     88  C   UNL A   1      33.605  25.383  22.445  1.00  0.00     0.002 C 
ATOM     89  C   UNL A   1      32.791  24.524  21.458  1.00  0.00     0.005 C 
ATOM     90  C   UNL A   1      34.940  24.663  22.729  1.00  0.00     0.005 C 
BRANCH  85  91
ATOM     91  C   UNL A   1      33.581  26.432  24.717  1.00  0.00     0.229 C 
ATOM     92  O   UNL A   1      34.569  26.010  25.326  1.00  0.00    -0.274 OA
ATOM     93  N   UNL A   1      33.359  27.788  24.742  1.00  0.00    -0.317 N 
ATOM     94  H   UNL A   1      34.097  28.327  25.107  1.00  0.00     0.170 HD
BRANCH  93  95
ATOM     95  C   UNL A   1      32.253  28.507  24.330  1.00  0.00     0.108 A 
ATOM     96  S   UNL A   1      31.682  28.258  22.750  1.00  0.00    -0.122 S 
ATOM     97  C   UNL A   1      31.412  29.320  25.094  1.00  0.00     0.078 A 
ATOM     98  C   UNL A   1      30.578  29.522  22.899  1.00  0.00     0.011 A 
ATOM     99  C   UNL A   1      30.456  29.973  24.201  1.00  0.00    -0.019 A 
ATOM    100  C   UNL A   1      29.819  30.033  21.712  1.00  0.00     0.047 C 
ATOM    101  C   UNL A   1      29.474  31.059  24.521  1.00  0.00     0.037 C 
ATOM    102  C   UNL A   1      29.268  31.430  22.013  1.00  0.00     0.006 C 
ATOM    103  C   UNL A   1      28.548  31.441  23.358  1.00  0.00     0.005 C 
BRANCH  97 104
ATOM    104  C   UNL A   1      31.664  29.528  26.539  1.00  0.00     0.257 C 
ATOM    105  O   UNL A   1      31.458  28.627  27.364  1.00  0.00    -0.269 OA
ATOM    106  N   UNL A   1      32.305  30.701  26.927  1.00  0.00    -0.339 N 
ATOM    107  C   UNL A   1      33.491  30.552  27.756  1.00  0.00     0.120 C 
ATOM    108  C   UNL A   1      31.528  31.894  27.244  1.00  0.00     0.120 C 
ATOM    109  C   UNL A   1      34.431  31.724  27.511  1.00  0.00     0.022 C 
ATOM    110  C   UNL A   1      32.377  33.162  27.083  1.00  0.00     0.022 C 
ATOM    111  C   UNL A   1      33.736  33.059  27.782  1.00  0.00     0.004 C 
ENDBRANCH  97 104
ENDBRANCH  93  95
ENDBRANCH  85  91
ENDBRANCH  81  83
ENDBRANCH  80  81
ENDBRANCH  79  80
ENDBRANCH  78  79
ENDBRANCH  77  78
ENDBRANCH  76  77
ENDBRANCH  75  76
ENDBRANCH   1  75
TORSDOF 26
ENDMDL
MODEL 3
REMARK VINA RESULT:     -10.2      9.588     15.390
REMARK SMILES O=C(OCCOCCOCCOCCOC(=O)[C@H]1[C@H]2CC[C@H](CC2)[C@@H]1C(=O)Nc1sc2c(c1C(=O)N1CCCCC1)CCCC2)c1ccc(-c2c3nc(c(-c4cc(S(=O)(=O)[O-])ccc4F)c4ccc([nH]4)c(-c4cc(S(=O)(=O)[O-])ccc4F)c4nc(c(-c5cc(S(=O)(=O)[O-])ccc5F)c5ccc2[nH]5)C=C4)C=C3)cc1
REMARK SMILES IDX 9 1 8 2 7 3 6 4 5 5 4 6 3 7 2 8 1 9 46 10 47 11 108 12 48 13
REMARK SMILES IDX 107 14 49 15 50 16 51 17 101 18 52 19 106 20 100 21 102 22
REMARK SMILES IDX 53 23 105 24 99 25 98 26 54 28 86 29 66 30 85 31 67 32 70 33
REMARK SMILES IDX 84 34 103 35 68 36 69 37 83 39 104 40 71 41 55 42 56 43
REMARK SMILES IDX 64 44 57 45 63 46 65 47 62 48 58 49 59 50 60 51 61 52 87 53
REMARK SMILES IDX 88 54 96 55 89 56 95 57 97 58 94 59 90 60 91 61 92 62 93 63
REMARK SMILES IDX 72 64 73 65 81 66 74 67 80 68 82 69 79 70 75 71 76 72 77 73
REMARK SMILES IDX 78 74 10 75 11 76 12 77 13 78 14 79 15 80 16 81 17 82 18 83
REMARK SMILES IDX 19 84 25 85 24 86 20 87 22 88 23 89 21 90 26 91 27 92 28 93
REMARK SMILES IDX 29 95 30 96 33 97 31 98 32 99 45 100 42 101 44 102 43 103
REMARK SMILES IDX 34 104 35 105 36 106 37 107 41 108 38 109 40 110 39 111
REMARK H PARENT 102 27 70 38 28 94
REMARK Flexibility Score: inf
ROOT
ATOM      1  O   UNL A   1      34.867  32.800  29.221  1.00  0.00    -0.377 OA
ENDROOT
BRANCH   1   2
ATOM      2  C   UNL A   1      35.793  32.561  30.283  1.00  0.00     0.188 C 
BRANCH   2   3
ATOM      3  C   UNL A   1      35.906  31.094  30.705  1.00  0.00     0.188 C 
BRANCH   3   4
ATOM      4  O   UNL A   1      36.253  31.033  32.079  1.00  0.00    -0.376 OA
BRANCH   4   5
ATOM      5  C   UNL A   1      36.907  29.887  32.599  1.00  0.00     0.202 C 
BRANCH   5   6
ATOM      6  C   UNL A   1      38.393  30.043  32.891  1.00  0.00     0.261 C 
BRANCH   6   7
ATOM      7  O   UNL A   1      39.120  30.843  31.934  1.00  0.00    -0.460 OA
BRANCH   7   8
ATOM      8  C   UNL A   1      39.416  32.166  31.985  1.00  0.00     0.338 C 
ATOM      9  O   UNL A   1      39.417  32.828  30.948  1.00  0.00    -0.246 OA
BRANCH   8  10
ATOM     10  C   UNL A   1      39.691  32.857  33.265  1.00  0.00     0.060 A 
ATOM     11  C   UNL A   1      40.724  32.487  34.111  1.00  0.00     0.016 A 
ATOM     12  C   UNL A   1      38.956  33.998  33.594  1.00  0.00     0.016 A 
ATOM     13  C   UNL A   1      40.852  33.015  35.374  1.00  0.00     0.010 A 
ATOM     14  C   UNL A   1      39.199  34.664  34.802  1.00  0.00     0.010 A 
ATOM     15  C   UNL A   1      40.107  34.127  35.729  1.00  0.00    -0.014 A 
BRANCH  15  16
ATOM     16  C   UNL A   1      40.224  34.600  37.124  1.00  0.00     0.031 A 
ATOM     17  C   UNL A   1      41.248  35.655  37.417  1.00  0.00     0.074 A 
ATOM     18  C   UNL A   1      39.305  34.231  38.040  1.00  0.00     0.049 A 
ATOM     19  N   UNL A   1      41.611  36.159  38.562  1.00  0.00    -0.248 NA
ATOM     20  C   UNL A   1      41.960  36.220  36.257  1.00  0.00     0.031 C 
ATOM     21  C   UNL A   1      38.170  33.331  37.789  1.00  0.00     0.029 A 
ATOM     22  N   UNL A   1      39.139  34.602  39.347  1.00  0.00    -0.354 N 
ATOM     23  C   UNL A   1      42.622  37.067  38.265  1.00  0.00     0.074 A 
ATOM     24  C   UNL A   1      42.830  37.029  36.836  1.00  0.00     0.031 C 
ATOM     25  C   UNL A   1      37.398  33.274  38.884  1.00  0.00     0.029 A 
ATOM     26  C   UNL A   1      38.048  34.017  39.953  1.00  0.00     0.049 A 
ATOM     27  H   UNL A   1      39.740  35.229  39.809  1.00  0.00     0.167 HD
ATOM     28  C   UNL A   1      43.309  37.857  39.122  1.00  0.00     0.034 A 
ATOM     29  C   UNL A   1      37.664  34.031  41.243  1.00  0.00     0.034 A 
ATOM     30  C   UNL A   1      43.054  37.860  40.538  1.00  0.00     0.049 A 
ATOM     31  C   UNL A   1      38.525  34.819  42.198  1.00  0.00     0.074 A 
ATOM     32  C   UNL A   1      43.741  38.508  41.546  1.00  0.00     0.029 A 
ATOM     33  N   UNL A   1      42.002  37.177  41.144  1.00  0.00    -0.354 N 
ATOM     34  N   UNL A   1      39.575  35.566  41.936  1.00  0.00    -0.248 NA
ATOM     35  C   UNL A   1      38.166  34.756  43.617  1.00  0.00     0.031 C 
ATOM     36  C   UNL A   1      43.139  38.171  42.764  1.00  0.00     0.029 A 
ATOM     37  C   UNL A   1      42.030  37.376  42.512  1.00  0.00     0.049 A 
ATOM     38  H   UNL A   1      41.337  36.631  40.667  1.00  0.00     0.167 HD
ATOM     39  C   UNL A   1      39.998  36.070  43.160  1.00  0.00     0.074 A 
ATOM     40  C   UNL A   1      39.058  35.576  44.149  1.00  0.00     0.031 C 
ATOM     41  C   UNL A   1      41.069  36.853  43.455  1.00  0.00     0.034 A 
BRANCH  28  42
ATOM     42  C   UNL A   1      44.438  38.671  38.543  1.00  0.00     0.023 A 
ATOM     43  C   UNL A   1      44.237  39.966  38.030  1.00  0.00     0.031 A 
ATOM     44  C   UNL A   1      45.715  38.099  38.405  1.00  0.00     0.131 A 
ATOM     45  C   UNL A   1      45.273  40.612  37.336  1.00  0.00     0.055 A 
ATOM     46  C   UNL A   1      46.764  38.780  37.784  1.00  0.00     0.041 A 
ATOM     47  F   UNL A   1      45.955  36.853  38.841  1.00  0.00    -0.206 F 
ATOM     48  C   UNL A   1      46.543  40.037  37.232  1.00  0.00     0.022 A 
BRANCH  45  49
ATOM     49  S   UNL A   1      44.899  42.147  36.443  1.00  0.00     0.124 S 
ATOM     50  O   UNL A   1      44.775  41.663  35.069  1.00  0.00    -0.237 OA
ATOM     51  O   UNL A   1      43.666  42.592  37.077  1.00  0.00    -0.237 OA
ATOM     52  O   UNL A   1      46.070  42.985  36.696  1.00  0.00    -0.744 OA
ENDBRANCH  45  49
ENDBRANCH  28  42
BRANCH  29  53
ATOM     53  C   UNL A   1      36.513  33.204  41.723  1.00  0.00     0.023 A 
ATOM     54  C   UNL A   1      35.204  33.712  41.756  1.00  0.00     0.031 A 
ATOM     55  C   UNL A   1      36.718  31.908  42.237  1.00  0.00     0.131 A 
ATOM     56  C   UNL A   1      34.171  32.958  42.342  1.00  0.00     0.055 A 
ATOM     57  C   UNL A   1      35.676  31.134  42.752  1.00  0.00     0.041 A 
ATOM     58  F   UNL A   1      37.946  31.365  42.249  1.00  0.00    -0.206 F 
ATOM     59  C   UNL A   1      34.395  31.668  42.826  1.00  0.00     0.022 A 
BRANCH  56  60
ATOM     60  S   UNL A   1      32.552  33.742  42.584  1.00  0.00     0.124 S 
ATOM     61  O   UNL A   1      32.884  35.156  42.463  1.00  0.00    -0.237 OA
ATOM     62  O   UNL A   1      31.773  33.170  41.491  1.00  0.00    -0.237 OA
ATOM     63  O   UNL A   1      32.160  33.306  43.923  1.00  0.00    -0.744 OA
ENDBRANCH  56  60
ENDBRANCH  29  53
BRANCH  41  64
ATOM     64  C   UNL A   1      41.230  37.236  44.902  1.00  0.00     0.023 A 
ATOM     65  C   UNL A   1      40.693  38.433  45.404  1.00  0.00     0.031 A 
ATOM     66  C   UNL A   1      41.953  36.408  45.776  1.00  0.00     0.131 A 
ATOM     67  C   UNL A   1      40.956  38.807  46.728  1.00  0.00     0.055 A 
ATOM     68  C   UNL A   1      42.146  36.750  47.112  1.00  0.00     0.041 A 
ATOM     69  F   UNL A   1      42.486  35.254  45.340  1.00  0.00    -0.206 F 
ATOM     70  C   UNL A   1      41.662  37.965  47.590  1.00  0.00     0.022 A 
BRANCH  67  71
ATOM     71  S   UNL A   1      40.469  40.468  47.265  1.00  0.00     0.124 S 
ATOM     72  O   UNL A   1      39.019  40.427  47.099  1.00  0.00    -0.237 OA
ATOM     73  O   UNL A   1      40.953  40.505  48.641  1.00  0.00    -0.237 OA
ATOM     74  O   UNL A   1      41.176  41.348  46.336  1.00  0.00    -0.744 OA
ENDBRANCH  67  71
ENDBRANCH  41  64
ENDBRANCH  15  16
ENDBRANCH   8  10
ENDBRANCH   7   8
ENDBRANCH   6   7
ENDBRANCH   5   6
ENDBRANCH   4   5
ENDBRANCH   3   4
ENDBRANCH   2   3
ENDBRANCH   1   2
BRANCH   1  75
ATOM     75  C   UNL A   1      34.962  31.905  28.113  1.00  0.00     0.188 C 
BRANCH  75  76
ATOM     76  C   UNL A   1      33.664  31.429  27.426  1.00  0.00     0.188 C 
BRANCH  76  77
ATOM     77  O   UNL A   1      33.332  30.070  27.688  1.00  0.00    -0.376 OA
BRANCH  77  78
ATOM     78  C   UNL A   1      32.355  29.503  26.818  1.00  0.00     0.202 C 
BRANCH  78  79
ATOM     79  C   UNL A   1      32.613  29.655  25.306  1.00  0.00     0.261 C 
BRANCH  79  80
ATOM     80  O   UNL A   1      32.110  28.576  24.498  1.00  0.00    -0.463 OA
BRANCH  80  81
ATOM     81  C   UNL A   1      32.706  27.368  24.599  1.00  0.00     0.310 C 
ATOM     82  O   UNL A   1      33.922  27.211  24.769  1.00  0.00    -0.252 OA
BRANCH  81  83
ATOM     83  C   UNL A   1      31.677  26.238  24.544  1.00  0.00     0.115 C 
ATOM     84  C   UNL A   1      30.992  26.160  23.165  1.00  0.00     0.004 C 
ATOM     85  C   UNL A   1      32.327  24.869  24.924  1.00  0.00     0.096 C 
ATOM     86  C   UNL A   1      32.024  25.838  22.079  1.00  0.00     0.005 C 
ATOM     87  C   UNL A   1      29.973  25.005  23.225  1.00  0.00     0.005 C 
ATOM     88  C   UNL A   1      32.202  23.918  23.705  1.00  0.00     0.002 C 
ATOM     89  C   UNL A   1      32.851  24.612  22.492  1.00  0.00     0.005 C 
ATOM     90  C   UNL A   1      30.714  23.668  23.385  1.00  0.00     0.005 C 
BRANCH  85  91
ATOM     91  C   UNL A   1      31.734  24.137  26.154  1.00  0.00     0.229 C 
ATOM     92  O   UNL A   1      30.687  24.528  26.680  1.00  0.00    -0.274 OA
ATOM     93  N   UNL A   1      32.216  22.912  26.549  1.00  0.00    -0.317 N 
ATOM     94  H   UNL A   1      31.600  22.376  27.097  1.00  0.00     0.170 HD
BRANCH  93  95
ATOM     95  C   UNL A   1      33.439  22.322  26.288  1.00  0.00     0.108 A 
ATOM     96  S   UNL A   1      34.833  23.065  26.910  1.00  0.00    -0.122 S 
ATOM     97  C   UNL A   1      33.695  21.081  25.700  1.00  0.00     0.078 A 
ATOM     98  C   UNL A   1      35.832  22.005  26.065  1.00  0.00     0.011 A 
ATOM     99  C   UNL A   1      35.138  20.942  25.513  1.00  0.00    -0.019 A 
ATOM    100  C   UNL A   1      37.312  22.229  25.985  1.00  0.00     0.047 C 
ATOM    101  C   UNL A   1      35.884  19.873  24.773  1.00  0.00     0.037 C 
ATOM    102  C   UNL A   1      37.895  21.430  24.816  1.00  0.00     0.006 C 
ATOM    103  C   UNL A   1      37.411  19.984  24.865  1.00  0.00     0.005 C 
BRANCH  97 104
ATOM    104  C   UNL A   1      32.585  20.216  25.236  1.00  0.00     0.257 C 
ATOM    105  O   UNL A   1      31.450  20.673  25.047  1.00  0.00    -0.269 OA
ATOM    106  N   UNL A   1      32.890  18.915  24.850  1.00  0.00    -0.339 N 
ATOM    107  C   UNL A   1      32.440  18.504  23.530  1.00  0.00     0.120 C 
ATOM    108  C   UNL A   1      32.867  17.832  25.828  1.00  0.00     0.120 C 
ATOM    109  C   UNL A   1      33.382  17.443  22.979  1.00  0.00     0.022 C 
ATOM    110  C   UNL A   1      33.748  16.661  25.373  1.00  0.00     0.022 C 
ATOM    111  C   UNL A   1      33.478  16.243  23.924  1.00  0.00     0.004 C 
ENDBRANCH  97 104
ENDBRANCH  93  95
ENDBRANCH  85  91
ENDBRANCH  81  83
ENDBRANCH  80  81
ENDBRANCH  79  80
ENDBRANCH  78  79
ENDBRANCH  77  78
ENDBRANCH  76  77
ENDBRANCH  75  76
ENDBRANCH   1  75
TORSDOF 26
ENDMDL
