MODEL 1
REMARK VINA RESULT:     -10.4      0.000      0.000
REMARK SMILES C[C@@H](C(=O)OCCOCCOCCOCCOC(=O)c1ccc(-c2c3nc(c(-c4cc(S(=O)(=O)[O-])ccc4F)c4ccc([nH]4)c(-c4cc(S(=O)(=O)[O-])ccc4F)c4nc(c(-c5cc(S(=O)(=O)[O-])ccc5F)c5ccc2[nH]5)C=C4)C=C3)cc1)N1C(=O)/C(=C/c2nc3ccccc3[nH]2)SC1=S
REMARK SMILES IDX 12 1 11 2 10 3 9 4 8 5 7 6 6 7 5 8 3 9 4 10 2 11 1 12 83 13
REMARK SMILES IDX 84 14 98 15 85 16 86 17 97 18 99 19 87 20 88 21 89 22 96 23
REMARK SMILES IDX 90 24 95 25 91 27 94 28 92 29 93 30 13 31 14 32 15 33 16 34
REMARK SMILES IDX 17 35 18 36 19 37 20 38 21 39 82 40 22 41 81 42 23 43 24 44
REMARK SMILES IDX 25 45 75 46 26 47 80 48 74 49 76 50 27 51 79 52 73 53 72 54
REMARK SMILES IDX 28 56 60 57 40 58 59 59 41 60 44 61 58 62 77 63 42 64 43 65
REMARK SMILES IDX 57 67 78 68 45 69 29 70 30 71 38 72 31 73 37 74 39 75 36 76
REMARK SMILES IDX 32 77 33 78 34 79 35 80 61 81 62 82 70 83 63 84 69 85 71 86
REMARK SMILES IDX 68 87 64 88 65 89 66 90 67 91 46 92 47 93 55 94 48 95 54 96
REMARK SMILES IDX 56 97 53 98 49 99 50 100 51 101 52 102
REMARK H PARENT 96 26 76 55 44 66
REMARK Flexibility Score: inf
ROOT
ATOM      1  C   UNL A   1      40.004  22.084  26.780  1.00  0.00     0.188 C 
ENDROOT
BRANCH   1   2
ATOM      2  O   UNL A   1      38.749  22.636  26.414  1.00  0.00    -0.377 OA
BRANCH   2   3
ATOM      3  C   UNL A   1      38.082  21.977  25.362  1.00  0.00     0.188 C 
BRANCH   3   4
ATOM      4  C   UNL A   1      36.646  21.514  25.699  1.00  0.00     0.188 C 
BRANCH   4   5
ATOM      5  O   UNL A   1      35.918  20.711  24.785  1.00  0.00    -0.376 OA
BRANCH   5   6
ATOM      6  C   UNL A   1      34.504  20.800  24.742  1.00  0.00     0.202 C 
BRANCH   6   7
ATOM      7  C   UNL A   1      33.782  21.691  23.707  1.00  0.00     0.261 C 
BRANCH   7   8
ATOM      8  O   UNL A   1      32.389  22.012  23.920  1.00  0.00    -0.462 OA
BRANCH   8   9
ATOM      9  C   UNL A   1      32.092  22.885  24.917  1.00  0.00     0.329 C 
ATOM     10  O   UNL A   1      31.079  22.816  25.607  1.00  0.00    -0.250 OA
BRANCH   9  11
ATOM     11  C   UNL A   1      33.143  24.010  25.110  1.00  0.00     0.199 C 
ATOM     12  C   UNL A   1      33.907  24.138  26.422  1.00  0.00     0.044 C 
BRANCH  11  13
ATOM     13  N   UNL A   1      32.564  25.273  24.593  1.00  0.00    -0.279 N 
ATOM     14  C   UNL A   1      31.908  26.129  25.467  1.00  0.00     0.267 C 
ATOM     15  C   UNL A   1      32.656  25.781  23.313  1.00  0.00     0.149 C 
ATOM     16  O   UNL A   1      31.512  25.874  26.594  1.00  0.00    -0.268 OA
ATOM     17  C   UNL A   1      31.624  27.409  24.762  1.00  0.00     0.084 C 
ATOM     18  S   UNL A   1      32.713  27.524  23.434  1.00  0.00    -0.054 SA
ATOM     19  S   UNL A   1      32.480  25.049  21.831  1.00  0.00    -0.052 S 
ATOM     20  C   UNL A   1      30.548  28.172  24.999  1.00  0.00     0.068 C 
BRANCH  20  21
ATOM     21  C   UNL A   1      30.188  29.172  24.063  1.00  0.00     0.132 A 
ATOM     22  N   UNL A   1      30.222  30.484  24.191  1.00  0.00    -0.229 NA
ATOM     23  N   UNL A   1      29.621  28.819  22.865  1.00  0.00    -0.338 N 
ATOM     24  C   UNL A   1      29.477  30.979  23.160  1.00  0.00     0.089 A 
ATOM     25  C   UNL A   1      29.097  29.957  22.299  1.00  0.00     0.066 A 
ATOM     26  H   UNL A   1      29.595  27.914  22.480  1.00  0.00     0.168 HD
ATOM     27  C   UNL A   1      29.055  32.292  22.917  1.00  0.00     0.030 A 
ATOM     28  C   UNL A   1      28.316  30.175  21.164  1.00  0.00     0.028 A 
ATOM     29  C   UNL A   1      28.251  32.534  21.800  1.00  0.00     0.002 A 
ATOM     30  C   UNL A   1      27.896  31.493  20.937  1.00  0.00     0.002 A 
ENDBRANCH  20  21
ENDBRANCH  11  13
ENDBRANCH   9  11
ENDBRANCH   8   9
ENDBRANCH   7   8
ENDBRANCH   6   7
ENDBRANCH   5   6
ENDBRANCH   4   5
ENDBRANCH   3   4
ENDBRANCH   2   3
ENDBRANCH   1   2
BRANCH   1  31
ATOM     31  C   UNL A   1      40.238  20.585  26.498  1.00  0.00     0.188 C 
BRANCH  31  32
ATOM     32  O   UNL A   1      41.480  20.289  25.865  1.00  0.00    -0.376 OA
BRANCH  32  33
ATOM     33  C   UNL A   1      42.671  20.880  26.368  1.00  0.00     0.202 C 
BRANCH  33  34
ATOM     34  C   UNL A   1      43.434  21.818  25.419  1.00  0.00     0.261 C 
BRANCH  34  35
ATOM     35  O   UNL A   1      44.408  22.674  26.034  1.00  0.00    -0.460 OA
BRANCH  35  36
ATOM     36  C   UNL A   1      44.513  23.937  25.553  1.00  0.00     0.338 C 
ATOM     37  O   UNL A   1      44.988  24.277  24.497  1.00  0.00    -0.246 OA
BRANCH  36  38
ATOM     38  C   UNL A   1      43.734  24.812  26.460  1.00  0.00     0.060 A 
ATOM     39  C   UNL A   1      43.786  26.197  26.261  1.00  0.00     0.016 A 
ATOM     40  C   UNL A   1      42.936  24.268  27.468  1.00  0.00     0.016 A 
ATOM     41  C   UNL A   1      43.055  27.048  27.089  1.00  0.00     0.010 A 
ATOM     42  C   UNL A   1      42.230  25.122  28.317  1.00  0.00     0.010 A 
ATOM     43  C   UNL A   1      42.313  26.517  28.150  1.00  0.00    -0.014 A 
BRANCH  43  44
ATOM     44  C   UNL A   1      41.825  27.421  29.218  1.00  0.00     0.031 A 
ATOM     45  C   UNL A   1      42.574  27.428  30.523  1.00  0.00     0.074 A 
ATOM     46  C   UNL A   1      40.773  28.237  29.028  1.00  0.00     0.049 A 
ATOM     47  N   UNL A   1      42.323  28.085  31.624  1.00  0.00    -0.248 NA
ATOM     48  C   UNL A   1      43.768  26.570  30.591  1.00  0.00     0.031 C 
ATOM     49  C   UNL A   1      40.013  28.362  27.785  1.00  0.00     0.029 A 
ATOM     50  N   UNL A   1      40.161  29.115  29.887  1.00  0.00    -0.354 N 
ATOM     51  C   UNL A   1      43.323  27.715  32.518  1.00  0.00     0.074 A 
ATOM     52  C   UNL A   1      44.160  26.750  31.841  1.00  0.00     0.031 C 
ATOM     53  C   UNL A   1      39.030  29.262  27.966  1.00  0.00     0.029 A 
ATOM     54  C   UNL A   1      39.062  29.741  29.347  1.00  0.00     0.049 A 
ATOM     55  H   UNL A   1      40.478  29.281  30.804  1.00  0.00     0.167 HD
ATOM     56  C   UNL A   1      43.524  28.146  33.786  1.00  0.00     0.034 A 
ATOM     57  C   UNL A   1      38.172  30.582  29.916  1.00  0.00     0.034 A 
ATOM     58  C   UNL A   1      42.667  29.097  34.450  1.00  0.00     0.049 A 
ATOM     59  C   UNL A   1      38.356  30.965  31.368  1.00  0.00     0.074 A 
ATOM     60  C   UNL A   1      42.780  29.612  35.729  1.00  0.00     0.029 A 
ATOM     61  N   UNL A   1      41.527  29.664  33.893  1.00  0.00    -0.354 N 
ATOM     62  N   UNL A   1      39.306  30.614  32.205  1.00  0.00    -0.248 NA
ATOM     63  C   UNL A   1      37.348  31.862  31.950  1.00  0.00     0.031 C 
ATOM     64  C   UNL A   1      41.666  30.419  35.975  1.00  0.00     0.029 A 
ATOM     65  C   UNL A   1      40.906  30.489  34.818  1.00  0.00     0.049 A 
ATOM     66  H   UNL A   1      41.207  29.503  32.977  1.00  0.00     0.167 HD
ATOM     67  C   UNL A   1      39.030  31.280  33.397  1.00  0.00     0.074 A 
ATOM     68  C   UNL A   1      37.832  32.061  33.167  1.00  0.00     0.031 C 
ATOM     69  C   UNL A   1      39.707  31.257  34.576  1.00  0.00     0.034 A 
BRANCH  56  70
ATOM     70  C   UNL A   1      44.672  27.538  34.552  1.00  0.00     0.023 A 
ATOM     71  C   UNL A   1      44.539  26.333  35.264  1.00  0.00     0.031 A 
ATOM     72  C   UNL A   1      45.916  28.195  34.597  1.00  0.00     0.131 A 
ATOM     73  C   UNL A   1      45.605  25.860  36.044  1.00  0.00     0.055 A 
ATOM     74  C   UNL A   1      46.999  27.674  35.307  1.00  0.00     0.041 A 
ATOM     75  F   UNL A   1      46.094  29.364  33.964  1.00  0.00    -0.206 F 
ATOM     76  C   UNL A   1      46.843  26.507  36.048  1.00  0.00     0.022 A 
BRANCH  73  77
ATOM     77  S   UNL A   1      45.306  24.469  37.171  1.00  0.00     0.124 S 
ATOM     78  O   UNL A   1      44.259  25.011  38.034  1.00  0.00    -0.237 OA
ATOM     79  O   UNL A   1      44.897  23.407  36.260  1.00  0.00    -0.237 OA
ATOM     80  O   UNL A   1      46.600  24.272  37.822  1.00  0.00    -0.744 OA
ENDBRANCH  73  77
ENDBRANCH  56  70
BRANCH  57  81
ATOM     81  C   UNL A   1      37.000  31.091  29.143  1.00  0.00     0.023 A 
ATOM     82  C   UNL A   1      36.020  30.216  28.646  1.00  0.00     0.031 A 
ATOM     83  C   UNL A   1      36.882  32.456  28.825  1.00  0.00     0.131 A 
ATOM     84  C   UNL A   1      35.000  30.706  27.815  1.00  0.00     0.055 A 
ATOM     85  C   UNL A   1      35.830  32.948  28.050  1.00  0.00     0.041 A 
ATOM     86  F   UNL A   1      37.793  33.339  29.265  1.00  0.00    -0.206 F 
ATOM     87  C   UNL A   1      34.889  32.067  27.527  1.00  0.00     0.022 A 
BRANCH  84  88
ATOM     88  S   UNL A   1      33.877  29.518  27.027  1.00  0.00     0.124 S 
ATOM     89  O   UNL A   1      34.798  28.734  26.214  1.00  0.00    -0.237 OA
ATOM     90  O   UNL A   1      33.299  28.838  28.182  1.00  0.00    -0.237 OA
ATOM     91  O   UNL A   1      32.952  30.369  26.281  1.00  0.00    -0.744 OA
ENDBRANCH  84  88
ENDBRANCH  57  81
BRANCH  69  92
ATOM     92  C   UNL A   1      39.199  32.148  35.686  1.00  0.00     0.023 A 
ATOM     93  C   UNL A   1      39.632  33.477  35.833  1.00  0.00     0.031 A 
ATOM     94  C   UNL A   1      38.262  31.654  36.612  1.00  0.00     0.131 A 
ATOM     95  C   UNL A   1      39.174  34.246  36.914  1.00  0.00     0.055 A 
ATOM     96  C   UNL A   1      37.757  32.446  37.644  1.00  0.00     0.041 A 
ATOM     97  F   UNL A   1      37.815  30.390  36.524  1.00  0.00    -0.206 F 
ATOM     98  C   UNL A   1      38.224  33.745  37.808  1.00  0.00     0.022 A 
BRANCH  95  99
ATOM     99  S   UNL A   1      39.914  35.877  37.199  1.00  0.00     0.124 S 
ATOM    100  O   UNL A   1      39.647  36.556  35.934  1.00  0.00    -0.237 OA
ATOM    101  O   UNL A   1      39.167  36.363  38.352  1.00  0.00    -0.237 OA
ATOM    102  O   UNL A   1      41.322  35.575  37.454  1.00  0.00    -0.744 OA
ENDBRANCH  95  99
ENDBRANCH  69  92
ENDBRANCH  43  44
ENDBRANCH  36  38
ENDBRANCH  35  36
ENDBRANCH  34  35
ENDBRANCH  33  34
ENDBRANCH  32  33
ENDBRANCH  31  32
ENDBRANCH   1  31
TORSDOF 25
ENDMDL
MODEL 2
REMARK VINA RESULT:      -9.6      5.688      7.276
REMARK SMILES C[C@@H](C(=O)OCCOCCOCCOCCOC(=O)c1ccc(-c2c3nc(c(-c4cc(S(=O)(=O)[O-])ccc4F)c4ccc([nH]4)c(-c4cc(S(=O)(=O)[O-])ccc4F)c4nc(c(-c5cc(S(=O)(=O)[O-])ccc5F)c5ccc2[nH]5)C=C4)C=C3)cc1)N1C(=O)/C(=C/c2nc3ccccc3[nH]2)SC1=S
REMARK SMILES IDX 12 1 11 2 10 3 9 4 8 5 7 6 6 7 5 8 3 9 4 10 2 11 1 12 83 13
REMARK SMILES IDX 84 14 98 15 85 16 86 17 97 18 99 19 87 20 88 21 89 22 96 23
REMARK SMILES IDX 90 24 95 25 91 27 94 28 92 29 93 30 13 31 14 32 15 33 16 34
REMARK SMILES IDX 17 35 18 36 19 37 20 38 21 39 82 40 22 41 81 42 23 43 24 44
REMARK SMILES IDX 25 45 75 46 26 47 80 48 74 49 76 50 27 51 79 52 73 53 72 54
REMARK SMILES IDX 28 56 60 57 40 58 59 59 41 60 44 61 58 62 77 63 42 64 43 65
REMARK SMILES IDX 57 67 78 68 45 69 29 70 30 71 38 72 31 73 37 74 39 75 36 76
REMARK SMILES IDX 32 77 33 78 34 79 35 80 61 81 62 82 70 83 63 84 69 85 71 86
REMARK SMILES IDX 68 87 64 88 65 89 66 90 67 91 46 92 47 93 55 94 48 95 54 96
REMARK SMILES IDX 56 97 53 98 49 99 50 100 51 101 52 102
REMARK H PARENT 96 26 76 55 44 66
REMARK Flexibility Score: inf
ROOT
ATOM      1  C   UNL A   1      39.614  22.180  26.434  1.00  0.00     0.188 C 
ENDROOT
BRANCH   1   2
ATOM      2  O   UNL A   1      39.210  23.415  27.004  1.00  0.00    -0.377 OA
BRANCH   2   3
ATOM      3  C   UNL A   1      38.163  24.078  26.334  1.00  0.00     0.188 C 
BRANCH   3   4
ATOM      4  C   UNL A   1      37.221  23.152  25.533  1.00  0.00     0.188 C 
BRANCH   4   5
ATOM      5  O   UNL A   1      35.875  22.970  25.941  1.00  0.00    -0.376 OA
BRANCH   5   6
ATOM      6  C   UNL A   1      35.242  21.717  25.741  1.00  0.00     0.202 C 
BRANCH   6   7
ATOM      7  C   UNL A   1      33.825  21.433  26.287  1.00  0.00     0.261 C 
BRANCH   7   8
ATOM      8  O   UNL A   1      32.783  22.405  26.051  1.00  0.00    -0.462 OA
BRANCH   8   9
ATOM      9  C   UNL A   1      32.215  22.429  24.818  1.00  0.00     0.329 C 
ATOM     10  O   UNL A   1      32.420  21.581  23.954  1.00  0.00    -0.250 OA
BRANCH   9  11
ATOM     11  C   UNL A   1      31.284  23.645  24.572  1.00  0.00     0.199 C 
ATOM     12  C   UNL A   1      30.534  23.791  23.253  1.00  0.00     0.044 C 
BRANCH  11  13
ATOM     13  N   UNL A   1      31.989  24.865  25.034  1.00  0.00    -0.279 N 
ATOM     14  C   UNL A   1      31.535  25.525  26.168  1.00  0.00     0.267 C 
ATOM     15  C   UNL A   1      33.139  25.422  24.513  1.00  0.00     0.149 C 
ATOM     16  O   UNL A   1      30.457  25.384  26.724  1.00  0.00    -0.268 OA
ATOM     17  C   UNL A   1      32.530  26.566  26.547  1.00  0.00     0.084 C 
ATOM     18  S   UNL A   1      34.036  26.129  25.837  1.00  0.00    -0.054 SA
ATOM     19  S   UNL A   1      33.604  25.702  22.942  1.00  0.00    -0.052 S 
ATOM     20  C   UNL A   1      32.211  27.735  27.119  1.00  0.00     0.068 C 
BRANCH  20  21
ATOM     21  C   UNL A   1      33.162  28.784  27.130  1.00  0.00     0.132 A 
ATOM     22  N   UNL A   1      34.478  28.715  27.089  1.00  0.00    -0.229 NA
ATOM     23  N   UNL A   1      32.752  30.080  27.306  1.00  0.00    -0.338 N 
ATOM     24  C   UNL A   1      34.928  29.951  27.455  1.00  0.00     0.089 A 
ATOM     25  C   UNL A   1      33.865  30.838  27.584  1.00  0.00     0.066 A 
ATOM     26  H   UNL A   1      31.826  30.410  27.243  1.00  0.00     0.168 HD
ATOM     27  C   UNL A   1      36.232  30.377  27.732  1.00  0.00     0.030 A 
ATOM     28  C   UNL A   1      34.033  32.170  27.961  1.00  0.00     0.028 A 
ATOM     29  C   UNL A   1      36.425  31.702  28.136  1.00  0.00     0.002 A 
ATOM     30  C   UNL A   1      35.344  32.581  28.240  1.00  0.00     0.002 A 
ENDBRANCH  20  21
ENDBRANCH  11  13
ENDBRANCH   9  11
ENDBRANCH   8   9
ENDBRANCH   7   8
ENDBRANCH   6   7
ENDBRANCH   5   6
ENDBRANCH   4   5
ENDBRANCH   3   4
ENDBRANCH   2   3
ENDBRANCH   1   2
BRANCH   1  31
ATOM     31  C   UNL A   1      40.891  21.516  26.990  1.00  0.00     0.188 C 
BRANCH  31  32
ATOM     32  O   UNL A   1      41.508  22.228  28.060  1.00  0.00    -0.376 OA
BRANCH  32  33
ATOM     33  C   UNL A   1      42.825  22.733  27.886  1.00  0.00     0.202 C 
BRANCH  33  34
ATOM     34  C   UNL A   1      43.146  23.379  26.529  1.00  0.00     0.261 C 
BRANCH  34  35
ATOM     35  O   UNL A   1      43.464  24.778  26.560  1.00  0.00    -0.460 OA
BRANCH  35  36
ATOM     36  C   UNL A   1      42.619  25.619  25.917  1.00  0.00     0.338 C 
ATOM     37  O   UNL A   1      41.715  25.318  25.175  1.00  0.00    -0.246 OA
BRANCH  36  38
ATOM     38  C   UNL A   1      42.856  26.975  26.465  1.00  0.00     0.060 A 
ATOM     39  C   UNL A   1      43.875  27.145  27.411  1.00  0.00     0.016 A 
ATOM     40  C   UNL A   1      42.107  28.067  26.023  1.00  0.00     0.016 A 
ATOM     41  C   UNL A   1      44.133  28.410  27.938  1.00  0.00     0.010 A 
ATOM     42  C   UNL A   1      42.344  29.327  26.576  1.00  0.00     0.010 A 
ATOM     43  C   UNL A   1      43.336  29.497  27.558  1.00  0.00    -0.014 A 
BRANCH  43  44
ATOM     44  C   UNL A   1      43.383  30.744  28.357  1.00  0.00     0.031 A 
ATOM     45  C   UNL A   1      44.464  31.739  28.035  1.00  0.00     0.074 A 
ATOM     46  C   UNL A   1      42.477  31.004  29.316  1.00  0.00     0.049 A 
ATOM     47  N   UNL A   1      44.752  32.874  28.615  1.00  0.00    -0.248 NA
ATOM     48  C   UNL A   1      45.343  31.400  26.904  1.00  0.00     0.031 C 
ATOM     49  C   UNL A   1      41.348  30.143  29.669  1.00  0.00     0.029 A 
ATOM     50  N   UNL A   1      42.366  32.072  30.171  1.00  0.00    -0.354 N 
ATOM     51  C   UNL A   1      45.848  33.382  27.924  1.00  0.00     0.074 A 
ATOM     52  C   UNL A   1      46.193  32.413  26.908  1.00  0.00     0.031 C 
ATOM     53  C   UNL A   1      40.664  30.717  30.675  1.00  0.00     0.029 A 
ATOM     54  C   UNL A   1      41.328  31.959  31.066  1.00  0.00     0.049 A 
ATOM     55  H   UNL A   1      42.974  32.846  30.146  1.00  0.00     0.167 HD
ATOM     56  C   UNL A   1      46.502  34.552  28.120  1.00  0.00     0.034 A 
ATOM     57  C   UNL A   1      40.978  32.755  32.098  1.00  0.00     0.034 A 
ATOM     58  C   UNL A   1      46.152  35.498  29.150  1.00  0.00     0.049 A 
ATOM     59  C   UNL A   1      41.791  34.003  32.365  1.00  0.00     0.074 A 
ATOM     60  C   UNL A   1      46.738  36.718  29.434  1.00  0.00     0.029 A 
ATOM     61  N   UNL A   1      45.133  35.321  30.079  1.00  0.00    -0.354 N 
ATOM     62  N   UNL A   1      42.824  34.478  31.704  1.00  0.00    -0.248 NA
ATOM     63  C   UNL A   1      41.388  34.825  33.513  1.00  0.00     0.031 C 
ATOM     64  C   UNL A   1      46.134  37.237  30.582  1.00  0.00     0.029 A 
ATOM     65  C   UNL A   1      45.104  36.390  30.961  1.00  0.00     0.049 A 
ATOM     66  H   UNL A   1      44.522  34.550  30.107  1.00  0.00     0.167 HD
ATOM     67  C   UNL A   1      43.164  35.673  32.336  1.00  0.00     0.074 A 
ATOM     68  C   UNL A   1      42.221  35.851  33.420  1.00  0.00     0.031 C 
ATOM     69  C   UNL A   1      44.160  36.550  32.043  1.00  0.00     0.034 A 
BRANCH  56  70
ATOM     70  C   UNL A   1      47.698  34.833  27.245  1.00  0.00     0.023 A 
ATOM     71  C   UNL A   1      49.007  34.514  27.647  1.00  0.00     0.031 A 
ATOM     72  C   UNL A   1      47.528  35.463  25.999  1.00  0.00     0.131 A 
ATOM     73  C   UNL A   1      50.096  34.887  26.844  1.00  0.00     0.055 A 
ATOM     74  C   UNL A   1      48.610  35.755  25.166  1.00  0.00     0.041 A 
ATOM     75  F   UNL A   1      46.306  35.819  25.575  1.00  0.00    -0.206 F 
ATOM     76  C   UNL A   1      49.904  35.480  25.594  1.00  0.00     0.022 A 
BRANCH  73  77
ATOM     77  S   UNL A   1      51.770  34.722  27.523  1.00  0.00     0.124 S 
ATOM     78  O   UNL A   1      51.868  33.277  27.718  1.00  0.00    -0.237 OA
ATOM     79  O   UNL A   1      52.598  35.280  26.460  1.00  0.00    -0.237 OA
ATOM     80  O   UNL A   1      51.720  35.507  28.755  1.00  0.00    -0.744 OA
ENDBRANCH  73  77
ENDBRANCH  56  70
BRANCH  57  81
ATOM     81  C   UNL A   1      39.839  32.392  32.991  1.00  0.00     0.023 A 
ATOM     82  C   UNL A   1      38.576  32.986  32.837  1.00  0.00     0.031 A 
ATOM     83  C   UNL A   1      40.016  31.497  34.063  1.00  0.00     0.131 A 
ATOM     84  C   UNL A   1      37.559  32.723  33.769  1.00  0.00     0.055 A 
ATOM     85  C   UNL A   1      38.982  31.190  34.950  1.00  0.00     0.041 A 
ATOM     86  F   UNL A   1      41.204  30.905  34.265  1.00  0.00    -0.206 F 
ATOM     87  C   UNL A   1      37.749  31.817  34.814  1.00  0.00     0.022 A 
BRANCH  84  88
ATOM     88  S   UNL A   1      36.012  33.664  33.655  1.00  0.00     0.124 S 
ATOM     89  O   UNL A   1      35.336  32.990  32.553  1.00  0.00    -0.237 OA
ATOM     90  O   UNL A   1      35.437  33.462  34.982  1.00  0.00    -0.237 OA
ATOM     91  O   UNL A   1      36.463  35.026  33.374  1.00  0.00    -0.744 OA
ENDBRANCH  84  88
ENDBRANCH  57  81
BRANCH  69  92
ATOM     92  C   UNL A   1      44.242  37.810  32.874  1.00  0.00     0.023 A 
ATOM     93  C   UNL A   1      43.449  38.937  32.600  1.00  0.00     0.031 A 
ATOM     94  C   UNL A   1      45.132  37.879  33.962  1.00  0.00     0.131 A 
ATOM     95  C   UNL A   1      43.603  40.104  33.365  1.00  0.00     0.055 A 
ATOM     96  C   UNL A   1      45.229  39.017  34.763  1.00  0.00     0.041 A 
ATOM     97  F   UNL A   1      45.918  36.834  34.270  1.00  0.00    -0.206 F 
ATOM     98  C   UNL A   1      44.473  40.143  34.458  1.00  0.00     0.022 A 
BRANCH  95  99
ATOM     99  S   UNL A   1      42.725  41.605  32.852  1.00  0.00     0.124 S 
ATOM    100  O   UNL A   1      41.906  41.115  31.748  1.00  0.00    -0.237 OA
ATOM    101  O   UNL A   1      42.004  41.977  34.064  1.00  0.00    -0.237 OA
ATOM    102  O   UNL A   1      43.802  42.517  32.466  1.00  0.00    -0.744 OA
ENDBRANCH  95  99
ENDBRANCH  69  92
ENDBRANCH  43  44
ENDBRANCH  36  38
ENDBRANCH  35  36
ENDBRANCH  34  35
ENDBRANCH  33  34
ENDBRANCH  32  33
ENDBRANCH  31  32
ENDBRANCH   1  31
TORSDOF 25
ENDMDL
MODEL 3
REMARK VINA RESULT:      -9.5      2.806      3.689
REMARK SMILES C[C@@H](C(=O)OCCOCCOCCOCCOC(=O)c1ccc(-c2c3nc(c(-c4cc(S(=O)(=O)[O-])ccc4F)c4ccc([nH]4)c(-c4cc(S(=O)(=O)[O-])ccc4F)c4nc(c(-c5cc(S(=O)(=O)[O-])ccc5F)c5ccc2[nH]5)C=C4)C=C3)cc1)N1C(=O)/C(=C/c2nc3ccccc3[nH]2)SC1=S
REMARK SMILES IDX 12 1 11 2 10 3 9 4 8 5 7 6 6 7 5 8 3 9 4 10 2 11 1 12 83 13
REMARK SMILES IDX 84 14 98 15 85 16 86 17 97 18 99 19 87 20 88 21 89 22 96 23
REMARK SMILES IDX 90 24 95 25 91 27 94 28 92 29 93 30 13 31 14 32 15 33 16 34
REMARK SMILES IDX 17 35 18 36 19 37 20 38 21 39 82 40 22 41 81 42 23 43 24 44
REMARK SMILES IDX 25 45 75 46 26 47 80 48 74 49 76 50 27 51 79 52 73 53 72 54
REMARK SMILES IDX 28 56 60 57 40 58 59 59 41 60 44 61 58 62 77 63 42 64 43 65
REMARK SMILES IDX 57 67 78 68 45 69 29 70 30 71 38 72 31 73 37 74 39 75 36 76
REMARK SMILES IDX 32 77 33 78 34 79 35 80 61 81 62 82 70 83 63 84 69 85 71 86
REMARK SMILES IDX 68 87 64 88 65 89 66 90 67 91 46 92 47 93 55 94 48 95 54 96
REMARK SMILES IDX 56 97 53 98 49 99 50 100 51 101 52 102
REMARK H PARENT 96 26 76 55 44 66
REMARK Flexibility Score: inf
ROOT
ATOM      1  C   UNL A   1      42.037  19.973  26.707  1.00  0.00     0.188 C 
ENDROOT
BRANCH   1   2
ATOM      2  O   UNL A   1      40.638  20.003  26.941  1.00  0.00    -0.377 OA
BRANCH   2   3
ATOM      3  C   UNL A   1      39.863  20.569  25.908  1.00  0.00     0.188 C 
BRANCH   3   4
ATOM      4  C   UNL A   1      39.165  21.896  26.279  1.00  0.00     0.188 C 
BRANCH   4   5
ATOM      5  O   UNL A   1      38.115  22.404  25.473  1.00  0.00    -0.376 OA
BRANCH   5   6
ATOM      6  C   UNL A   1      36.995  21.587  25.179  1.00  0.00     0.202 C 
BRANCH   6   7
ATOM      7  C   UNL A   1      35.563  22.005  25.582  1.00  0.00     0.261 C 
BRANCH   7   8
ATOM      8  O   UNL A   1      34.799  22.829  24.673  1.00  0.00    -0.462 OA
BRANCH   8   9
ATOM      9  C   UNL A   1      33.732  23.498  25.180  1.00  0.00     0.329 C 
ATOM     10  O   UNL A   1      33.774  24.182  26.199  1.00  0.00    -0.250 OA
BRANCH   9  11
ATOM     11  C   UNL A   1      32.424  23.315  24.367  1.00  0.00     0.199 C 
ATOM     12  C   UNL A   1      32.368  22.334  23.201  1.00  0.00     0.044 C 
BRANCH  11  13
ATOM     13  N   UNL A   1      31.866  24.660  24.085  1.00  0.00    -0.279 N 
ATOM     14  C   UNL A   1      32.534  25.503  23.206  1.00  0.00     0.267 C 
ATOM     15  C   UNL A   1      30.675  25.191  24.536  1.00  0.00     0.149 C 
ATOM     16  O   UNL A   1      33.681  25.390  22.801  1.00  0.00    -0.268 OA
ATOM     17  C   UNL A   1      31.668  26.680  22.920  1.00  0.00     0.084 C 
ATOM     18  S   UNL A   1      30.046  26.233  23.282  1.00  0.00    -0.054 SA
ATOM     19  S   UNL A   1      29.972  25.173  26.042  1.00  0.00    -0.052 S 
ATOM     20  C   UNL A   1      32.136  27.912  22.675  1.00  0.00     0.068 C 
BRANCH  20  21
ATOM     21  C   UNL A   1      31.254  29.016  22.752  1.00  0.00     0.132 A 
ATOM     22  N   UNL A   1      30.736  29.596  23.817  1.00  0.00    -0.229 NA
ATOM     23  N   UNL A   1      30.733  29.560  21.607  1.00  0.00    -0.338 N 
ATOM     24  C   UNL A   1      29.714  30.376  23.359  1.00  0.00     0.089 A 
ATOM     25  C   UNL A   1      29.695  30.387  21.969  1.00  0.00     0.066 A 
ATOM     26  H   UNL A   1      31.046  29.390  20.689  1.00  0.00     0.168 HD
ATOM     27  C   UNL A   1      28.738  31.077  24.077  1.00  0.00     0.030 A 
ATOM     28  C   UNL A   1      28.746  31.093  21.231  1.00  0.00     0.028 A 
ATOM     29  C   UNL A   1      27.760  31.773  23.361  1.00  0.00     0.002 A 
ATOM     30  C   UNL A   1      27.771  31.785  21.963  1.00  0.00     0.002 A 
ENDBRANCH  20  21
ENDBRANCH  11  13
ENDBRANCH   9  11
ENDBRANCH   8   9
ENDBRANCH   7   8
ENDBRANCH   6   7
ENDBRANCH   5   6
ENDBRANCH   4   5
ENDBRANCH   3   4
ENDBRANCH   2   3
ENDBRANCH   1   2
BRANCH   1  31
ATOM     31  C   UNL A   1      42.625  18.717  26.031  1.00  0.00     0.188 C 
BRANCH  31  32
ATOM     32  O   UNL A   1      43.295  18.969  24.797  1.00  0.00    -0.376 OA
BRANCH  32  33
ATOM     33  C   UNL A   1      44.715  18.953  24.766  1.00  0.00     0.202 C 
BRANCH  33  34
ATOM     34  C   UNL A   1      45.412  20.215  24.234  1.00  0.00     0.261 C 
BRANCH  34  35
ATOM     35  O   UNL A   1      45.208  21.413  24.996  1.00  0.00    -0.460 OA
BRANCH  35  36
ATOM     36  C   UNL A   1      44.549  22.429  24.389  1.00  0.00     0.338 C 
ATOM     37  O   UNL A   1      44.160  22.467  23.247  1.00  0.00    -0.246 OA
BRANCH  36  38
ATOM     38  C   UNL A   1      44.189  23.404  25.445  1.00  0.00     0.060 A 
ATOM     39  C   UNL A   1      44.476  24.758  25.233  1.00  0.00     0.016 A 
ATOM     40  C   UNL A   1      43.545  22.988  26.613  1.00  0.00     0.016 A 
ATOM     41  C   UNL A   1      44.138  25.702  26.201  1.00  0.00     0.010 A 
ATOM     42  C   UNL A   1      43.237  23.930  27.596  1.00  0.00     0.010 A 
ATOM     43  C   UNL A   1      43.562  25.286  27.407  1.00  0.00    -0.014 A 
BRANCH  43  44
ATOM     44  C   UNL A   1      43.521  26.225  28.553  1.00  0.00     0.031 A 
ATOM     45  C   UNL A   1      44.727  26.281  29.452  1.00  0.00     0.074 A 
ATOM     46  C   UNL A   1      42.465  27.027  28.774  1.00  0.00     0.049 A 
ATOM     47  N   UNL A   1      44.922  26.975  30.542  1.00  0.00    -0.248 NA
ATOM     48  C   UNL A   1      45.866  25.433  29.064  1.00  0.00     0.031 C 
ATOM     49  C   UNL A   1      41.272  27.104  27.932  1.00  0.00     0.029 A 
ATOM     50  N   UNL A   1      42.228  27.931  29.778  1.00  0.00    -0.354 N 
ATOM     51  C   UNL A   1      46.201  26.642  30.975  1.00  0.00     0.074 A 
ATOM     52  C   UNL A   1      46.719  25.659  30.049  1.00  0.00     0.031 C 
ATOM     53  C   UNL A   1      40.424  28.004  28.463  1.00  0.00     0.029 A 
ATOM     54  C   UNL A   1      40.993  28.532  29.702  1.00  0.00     0.049 A 
ATOM     55  H   UNL A   1      42.881  28.131  30.488  1.00  0.00     0.167 HD
ATOM     56  C   UNL A   1      46.882  27.118  32.045  1.00  0.00     0.034 A 
ATOM     57  C   UNL A   1      40.387  29.387  30.553  1.00  0.00     0.034 A 
ATOM     58  C   UNL A   1      46.342  28.087  32.966  1.00  0.00     0.049 A 
ATOM     59  C   UNL A   1      41.125  29.821  31.800  1.00  0.00     0.074 A 
ATOM     60  C   UNL A   1      46.944  28.647  34.078  1.00  0.00     0.029 A 
ATOM     61  N   UNL A   1      45.063  28.628  32.892  1.00  0.00    -0.354 N 
ATOM     62  N   UNL A   1      42.337  29.505  32.199  1.00  0.00    -0.248 NA
ATOM     63  C   UNL A   1      40.415  30.733  32.707  1.00  0.00     0.031 C 
ATOM     64  C   UNL A   1      46.005  29.456  34.723  1.00  0.00     0.029 A 
ATOM     65  C   UNL A   1      44.846  29.481  33.962  1.00  0.00     0.049 A 
ATOM     66  H   UNL A   1      44.408  28.433  32.184  1.00  0.00     0.167 HD
ATOM     67  C   UNL A   1      42.544  30.211  33.383  1.00  0.00     0.074 A 
ATOM     68  C   UNL A   1      41.339  30.977  33.624  1.00  0.00     0.031 C 
ATOM     69  C   UNL A   1      43.635  30.233  34.195  1.00  0.00     0.034 A 
BRANCH  56  70
ATOM     70  C   UNL A   1      48.252  26.544  32.308  1.00  0.00     0.023 A 
ATOM     71  C   UNL A   1      48.433  25.342  33.014  1.00  0.00     0.031 A 
ATOM     72  C   UNL A   1      49.400  27.231  31.872  1.00  0.00     0.131 A 
ATOM     73  C   UNL A   1      49.729  24.901  33.323  1.00  0.00     0.055 A 
ATOM     74  C   UNL A   1      50.686  26.742  32.109  1.00  0.00     0.041 A 
ATOM     75  F   UNL A   1      49.291  28.398  31.221  1.00  0.00    -0.206 F 
ATOM     76  C   UNL A   1      50.856  25.577  32.851  1.00  0.00     0.022 A 
BRANCH  73  77
ATOM     77  S   UNL A   1      49.921  23.513  34.475  1.00  0.00     0.124 S 
ATOM     78  O   UNL A   1      50.530  22.499  33.616  1.00  0.00    -0.237 OA
ATOM     79  O   UNL A   1      50.783  24.076  35.507  1.00  0.00    -0.237 OA
ATOM     80  O   UNL A   1      48.551  23.223  34.893  1.00  0.00    -0.744 OA
ENDBRANCH  73  77
ENDBRANCH  56  70
BRANCH  57  81
ATOM     81  C   UNL A   1      38.995  29.862  30.295  1.00  0.00     0.023 A 
ATOM     82  C   UNL A   1      38.736  31.193  29.930  1.00  0.00     0.031 A 
ATOM     83  C   UNL A   1      37.893  29.008  30.484  1.00  0.00     0.131 A 
ATOM     84  C   UNL A   1      37.412  31.645  29.820  1.00  0.00     0.055 A 
ATOM     85  C   UNL A   1      36.578  29.446  30.311  1.00  0.00     0.041 A 
ATOM     86  F   UNL A   1      38.078  27.727  30.842  1.00  0.00    -0.206 F 
ATOM     87  C   UNL A   1      36.332  30.777  29.992  1.00  0.00     0.022 A 
BRANCH  84  88
ATOM     88  S   UNL A   1      37.118  33.415  29.549  1.00  0.00     0.124 S 
ATOM     89  O   UNL A   1      37.149  33.931  30.913  1.00  0.00    -0.237 OA
ATOM     90  O   UNL A   1      38.244  33.781  28.697  1.00  0.00    -0.237 OA
ATOM     91  O   UNL A   1      35.809  33.446  28.899  1.00  0.00    -0.744 OA
ENDBRANCH  84  88
ENDBRANCH  57  81
BRANCH  69  92
ATOM     92  C   UNL A   1      43.593  31.160  35.388  1.00  0.00     0.023 A 
ATOM     93  C   UNL A   1      43.905  32.526  35.283  1.00  0.00     0.031 A 
ATOM     94  C   UNL A   1      43.232  30.661  36.653  1.00  0.00     0.131 A 
ATOM     95  C   UNL A   1      43.907  33.333  36.431  1.00  0.00     0.055 A 
ATOM     96  C   UNL A   1      43.168  31.484  37.779  1.00  0.00     0.041 A 
ATOM     97  F   UNL A   1      42.927  29.363  36.815  1.00  0.00    -0.206 F 
ATOM     98  C   UNL A   1      43.520  32.825  37.674  1.00  0.00     0.022 A 
BRANCH  95  99
ATOM     99  S   UNL A   1      44.522  35.034  36.300  1.00  0.00     0.124 S 
ATOM    100  O   UNL A   1      45.006  35.075  34.924  1.00  0.00    -0.237 OA
ATOM    101  O   UNL A   1      43.327  35.822  36.578  1.00  0.00    -0.237 OA
ATOM    102  O   UNL A   1      45.563  35.103  37.325  1.00  0.00    -0.744 OA
ENDBRANCH  95  99
ENDBRANCH  69  92
ENDBRANCH  43  44
ENDBRANCH  36  38
ENDBRANCH  35  36
ENDBRANCH  34  35
ENDBRANCH  33  34
ENDBRANCH  32  33
ENDBRANCH  31  32
ENDBRANCH   1  31
TORSDOF 25
ENDMDL
