MODEL 1
REMARK VINA RESULT:      -8.0      0.000      0.000
REMARK SMILES C[NH2+][C@@]1(C(=O)OCCOCCOCCOCCOC(=O)c2ccc(-c3c4nc(c(-c5cc(S(=O)(=O)[O-])ccc5F)c5ccc([nH]5)c(-c5cc(S(=O)(=O)[O-])ccc5F)c5nc(c(-c6cc(S(=O)(=O)[O-])ccc6F)c6ccc3[nH]6)C=C5)C=C4)cc2)CC[C@H]([NH+]2CC[NH+](C)CC2)C1
REMARK SMILES IDX 13 1 12 2 11 3 10 4 9 5 8 6 7 7 6 8 4 9 5 10 3 11 84 12
REMARK SMILES IDX 94 13 85 14 86 15 2 16 1 17 87 20 88 21 93 22 89 24 92 25
REMARK SMILES IDX 90 26 91 27 14 29 15 30 16 31 17 32 18 33 19 34 20 35 21 36
REMARK SMILES IDX 22 37 83 38 23 39 82 40 24 41 25 42 26 43 76 44 27 45 81 46
REMARK SMILES IDX 75 47 77 48 28 49 80 50 74 51 73 52 29 54 61 55 41 56 60 57
REMARK SMILES IDX 42 58 45 59 59 60 78 61 43 62 44 63 58 65 79 66 46 67 30 68
REMARK SMILES IDX 31 69 39 70 32 71 38 72 40 73 37 74 33 75 34 76 35 77 36 78
REMARK SMILES IDX 62 79 63 80 71 81 64 82 70 83 72 84 69 85 65 86 66 87 67 88
REMARK SMILES IDX 68 89 47 90 48 91 56 92 49 93 55 94 57 95 54 96 50 97 51 98
REMARK SMILES IDX 52 99 53 100
REMARK H PARENT 2 18 2 19 87 23 90 28 77 53 45 64
REMARK Flexibility Score: inf
ROOT
ATOM      1  C   UNL A   1      34.919  32.263  29.541  1.00  0.00     0.188 C 
ENDROOT
BRANCH   1   2
ATOM      2  O   UNL A   1      35.807  31.213  29.251  1.00  0.00    -0.377 OA
BRANCH   2   3
ATOM      3  C   UNL A   1      35.924  30.779  27.917  1.00  0.00     0.188 C 
BRANCH   3   4
ATOM      4  C   UNL A   1      35.116  29.640  27.298  1.00  0.00     0.188 C 
BRANCH   4   5
ATOM      5  O   UNL A   1      33.884  29.900  26.660  1.00  0.00    -0.376 OA
BRANCH   5   6
ATOM      6  C   UNL A   1      32.989  28.897  26.206  1.00  0.00     0.202 C 
BRANCH   6   7
ATOM      7  C   UNL A   1      32.378  28.892  24.799  1.00  0.00     0.261 C 
BRANCH   7   8
ATOM      8  O   UNL A   1      31.195  28.083  24.649  1.00  0.00    -0.459 OA
BRANCH   8   9
ATOM      9  C   UNL A   1      31.319  27.011  23.822  1.00  0.00     0.368 C 
ATOM     10  O   UNL A   1      31.989  27.047  22.789  1.00  0.00    -0.245 OA
BRANCH   9  11
ATOM     11  C   UNL A   1      30.662  25.670  24.320  1.00  0.00     0.200 C 
ATOM     12  C   UNL A   1      30.414  25.823  25.837  1.00  0.00     0.087 C 
ATOM     13  C   UNL A   1      31.418  24.321  24.309  1.00  0.00     0.146 C 
ATOM     14  C   UNL A   1      31.706  25.364  26.498  1.00  0.00     0.072 C 
ATOM     15  C   UNL A   1      32.234  24.222  25.623  1.00  0.00     0.191 C 
BRANCH  11  16
ATOM     16  N   UNL A   1      29.300  25.569  23.703  1.00  0.00    -0.334 N 
ATOM     17  C   UNL A   1      28.416  26.696  23.954  1.00  0.00     0.331 C 
ATOM     18  H   UNL A   1      29.417  25.480  22.694  1.00  0.00     0.347 HD
ATOM     19  H   UNL A   1      28.854  24.761  24.138  1.00  0.00     0.347 HD
ENDBRANCH  11  16
BRANCH  15  20
ATOM     20  N   UNL A   1      33.682  24.009  25.483  1.00  0.00    -0.323 N 
ATOM     21  C   UNL A   1      34.129  23.546  24.155  1.00  0.00     0.324 C 
ATOM     22  C   UNL A   1      34.371  23.199  26.492  1.00  0.00     0.324 C 
ATOM     23  H   UNL A   1      33.967  24.976  25.638  1.00  0.00     0.348 HD
ATOM     24  C   UNL A   1      34.032  22.018  23.909  1.00  0.00     0.324 C 
ATOM     25  C   UNL A   1      34.175  21.680  26.340  1.00  0.00     0.324 C 
ATOM     26  N   UNL A   1      34.520  21.166  25.009  1.00  0.00    -0.328 N 
ATOM     27  C   UNL A   1      34.038  19.792  24.855  1.00  0.00     0.333 C 
ATOM     28  H   UNL A   1      35.538  21.178  24.949  1.00  0.00     0.348 HD
ENDBRANCH  15  20
ENDBRANCH   9  11
ENDBRANCH   8   9
ENDBRANCH   7   8
ENDBRANCH   6   7
ENDBRANCH   5   6
ENDBRANCH   4   5
ENDBRANCH   3   4
ENDBRANCH   2   3
ENDBRANCH   1   2
BRANCH   1  29
ATOM     29  C   UNL A   1      34.668  33.193  28.350  1.00  0.00     0.188 C 
BRANCH  29  30
ATOM     30  O   UNL A   1      34.753  34.609  28.482  1.00  0.00    -0.376 OA
BRANCH  30  31
ATOM     31  C   UNL A   1      33.603  35.403  28.718  1.00  0.00     0.202 C 
BRANCH  31  32
ATOM     32  C   UNL A   1      32.957  35.468  30.113  1.00  0.00     0.261 C 
BRANCH  32  33
ATOM     33  O   UNL A   1      33.488  34.610  31.124  1.00  0.00    -0.460 OA
BRANCH  33  34
ATOM     34  C   UNL A   1      33.794  35.218  32.289  1.00  0.00     0.338 C 
ATOM     35  O   UNL A   1      33.130  36.069  32.872  1.00  0.00    -0.246 OA
BRANCH  34  36
ATOM     36  C   UNL A   1      35.012  34.606  32.851  1.00  0.00     0.060 A 
ATOM     37  C   UNL A   1      36.252  35.189  32.564  1.00  0.00     0.016 A 
ATOM     38  C   UNL A   1      34.939  33.428  33.598  1.00  0.00     0.016 A 
ATOM     39  C   UNL A   1      37.427  34.582  32.994  1.00  0.00     0.010 A 
ATOM     40  C   UNL A   1      36.122  32.800  34.000  1.00  0.00     0.010 A 
ATOM     41  C   UNL A   1      37.369  33.357  33.665  1.00  0.00    -0.014 A 
BRANCH  41  42
ATOM     42  C   UNL A   1      38.609  32.558  33.802  1.00  0.00     0.031 A 
ATOM     43  C   UNL A   1      39.385  32.671  35.086  1.00  0.00     0.074 A 
ATOM     44  C   UNL A   1      39.001  31.712  32.835  1.00  0.00     0.049 A 
ATOM     45  N   UNL A   1      40.520  32.119  35.426  1.00  0.00    -0.248 NA
ATOM     46  C   UNL A   1      38.797  33.528  36.129  1.00  0.00     0.031 C 
ATOM     47  C   UNL A   1      38.284  31.471  31.584  1.00  0.00     0.029 A 
ATOM     48  N   UNL A   1      40.103  30.900  32.755  1.00  0.00    -0.354 N 
ATOM     49  C   UNL A   1      40.787  32.568  36.715  1.00  0.00     0.074 A 
ATOM     50  C   UNL A   1      39.713  33.466  37.081  1.00  0.00     0.031 C 
ATOM     51  C   UNL A   1      38.973  30.578  30.854  1.00  0.00     0.029 A 
ATOM     52  C   UNL A   1      40.200  30.220  31.564  1.00  0.00     0.049 A 
ATOM     53  H   UNL A   1      40.761  30.810  33.482  1.00  0.00     0.167 HD
ATOM     54  C   UNL A   1      41.833  32.254  37.519  1.00  0.00     0.034 A 
ATOM     55  C   UNL A   1      41.187  29.432  31.092  1.00  0.00     0.034 A 
ATOM     56  C   UNL A   1      42.899  31.367  37.126  1.00  0.00     0.049 A 
ATOM     57  C   UNL A   1      42.396  29.180  31.963  1.00  0.00     0.074 A 
ATOM     58  C   UNL A   1      44.008  30.975  37.853  1.00  0.00     0.029 A 
ATOM     59  N   UNL A   1      42.997  30.743  35.887  1.00  0.00    -0.354 N 
ATOM     60  N   UNL A   1      42.648  29.618  33.177  1.00  0.00    -0.248 NA
ATOM     61  C   UNL A   1      43.451  28.326  31.403  1.00  0.00     0.031 C 
ATOM     62  C   UNL A   1      44.816  30.185  37.028  1.00  0.00     0.029 A 
ATOM     63  C   UNL A   1      44.166  30.002  35.818  1.00  0.00     0.049 A 
ATOM     64  H   UNL A   1      42.332  30.817  35.164  1.00  0.00     0.167 HD
ATOM     65  C   UNL A   1      43.873  29.060  33.537  1.00  0.00     0.074 A 
ATOM     66  C   UNL A   1      44.301  28.247  32.417  1.00  0.00     0.031 C 
ATOM     67  C   UNL A   1      44.581  29.202  34.688  1.00  0.00     0.034 A 
BRANCH  54  68
ATOM     68  C   UNL A   1      41.899  32.929  38.869  1.00  0.00     0.023 A 
ATOM     69  C   UNL A   1      41.395  32.321  40.032  1.00  0.00     0.031 A 
ATOM     70  C   UNL A   1      42.446  34.220  38.986  1.00  0.00     0.131 A 
ATOM     71  C   UNL A   1      41.384  33.029  41.245  1.00  0.00     0.055 A 
ATOM     72  C   UNL A   1      42.509  34.886  40.211  1.00  0.00     0.041 A 
ATOM     73  F   UNL A   1      42.916  34.864  37.907  1.00  0.00    -0.206 F 
ATOM     74  C   UNL A   1      41.962  34.297  41.347  1.00  0.00     0.022 A 
BRANCH  71  75
ATOM     75  S   UNL A   1      40.470  32.334  42.648  1.00  0.00     0.124 S 
ATOM     76  O   UNL A   1      39.270  31.818  41.993  1.00  0.00    -0.237 OA
ATOM     77  O   UNL A   1      41.397  31.334  43.164  1.00  0.00    -0.237 OA
ATOM     78  O   UNL A   1      40.249  33.487  43.518  1.00  0.00    -0.744 OA
ENDBRANCH  71  75
ENDBRANCH  54  68
BRANCH  55  79
ATOM     79  C   UNL A   1      41.109  28.862  29.714  1.00  0.00     0.023 A 
ATOM     80  C   UNL A   1      40.604  27.573  29.486  1.00  0.00     0.031 A 
ATOM     81  C   UNL A   1      41.594  29.584  28.608  1.00  0.00     0.131 A 
ATOM     82  C   UNL A   1      40.642  27.026  28.193  1.00  0.00     0.055 A 
ATOM     83  C   UNL A   1      41.573  29.060  27.315  1.00  0.00     0.041 A 
ATOM     84  F   UNL A   1      42.098  30.819  28.769  1.00  0.00    -0.206 F 
ATOM     85  C   UNL A   1      41.108  27.766  27.104  1.00  0.00     0.022 A 
BRANCH  82  86
ATOM     86  S   UNL A   1      40.165  25.290  27.968  1.00  0.00     0.124 S 
ATOM     87  O   UNL A   1      39.940  25.227  26.529  1.00  0.00    -0.237 OA
ATOM     88  O   UNL A   1      41.342  24.586  28.466  1.00  0.00    -0.237 OA
ATOM     89  O   UNL A   1      38.967  25.157  28.794  1.00  0.00    -0.744 OA
ENDBRANCH  82  86
ENDBRANCH  55  79
BRANCH  67  90
ATOM     90  C   UNL A   1      45.864  28.413  34.812  1.00  0.00     0.023 A 
ATOM     91  C   UNL A   1      45.886  27.104  35.324  1.00  0.00     0.031 A 
ATOM     92  C   UNL A   1      47.085  28.987  34.411  1.00  0.00     0.131 A 
ATOM     93  C   UNL A   1      47.111  26.435  35.477  1.00  0.00     0.055 A 
ATOM     94  C   UNL A   1      48.290  28.290  34.501  1.00  0.00     0.041 A 
ATOM     95  F   UNL A   1      47.125  30.234  33.919  1.00  0.00    -0.206 F 
ATOM     96  C   UNL A   1      48.310  27.011  35.050  1.00  0.00     0.022 A 
BRANCH  93  97
ATOM     97  S   UNL A   1      47.130  24.841  36.342  1.00  0.00     0.124 S 
ATOM     98  O   UNL A   1      48.505  24.399  36.132  1.00  0.00    -0.237 OA
ATOM     99  O   UNL A   1      46.784  25.222  37.707  1.00  0.00    -0.237 OA
ATOM    100  O   UNL A   1      46.113  24.058  35.642  1.00  0.00    -0.744 OA
ENDBRANCH  93  97
ENDBRANCH  67  90
ENDBRANCH  41  42
ENDBRANCH  34  36
ENDBRANCH  33  34
ENDBRANCH  32  33
ENDBRANCH  31  32
ENDBRANCH  30  31
ENDBRANCH  29  30
ENDBRANCH   1  29
TORSDOF 25
ENDMDL
MODEL 2
REMARK VINA RESULT:      -7.9      5.950     10.802
REMARK SMILES C[NH2+][C@@]1(C(=O)OCCOCCOCCOCCOC(=O)c2ccc(-c3c4nc(c(-c5cc(S(=O)(=O)[O-])ccc5F)c5ccc([nH]5)c(-c5cc(S(=O)(=O)[O-])ccc5F)c5nc(c(-c6cc(S(=O)(=O)[O-])ccc6F)c6ccc3[nH]6)C=C5)C=C4)cc2)CC[C@H]([NH+]2CC[NH+](C)CC2)C1
REMARK SMILES IDX 13 1 12 2 11 3 10 4 9 5 8 6 7 7 6 8 4 9 5 10 3 11 84 12
REMARK SMILES IDX 94 13 85 14 86 15 2 16 1 17 87 20 88 21 93 22 89 24 92 25
REMARK SMILES IDX 90 26 91 27 14 29 15 30 16 31 17 32 18 33 19 34 20 35 21 36
REMARK SMILES IDX 22 37 83 38 23 39 82 40 24 41 25 42 26 43 76 44 27 45 81 46
REMARK SMILES IDX 75 47 77 48 28 49 80 50 74 51 73 52 29 54 61 55 41 56 60 57
REMARK SMILES IDX 42 58 45 59 59 60 78 61 43 62 44 63 58 65 79 66 46 67 30 68
REMARK SMILES IDX 31 69 39 70 32 71 38 72 40 73 37 74 33 75 34 76 35 77 36 78
REMARK SMILES IDX 62 79 63 80 71 81 64 82 70 83 72 84 69 85 65 86 66 87 67 88
REMARK SMILES IDX 68 89 47 90 48 91 56 92 49 93 55 94 57 95 54 96 50 97 51 98
REMARK SMILES IDX 52 99 53 100
REMARK H PARENT 2 18 2 19 87 23 90 28 77 53 45 64
REMARK Flexibility Score: inf
ROOT
ATOM      1  C   UNL A   1      39.590  22.897  26.789  1.00  0.00     0.188 C 
ENDROOT
BRANCH   1   2
ATOM      2  O   UNL A   1      38.324  22.852  26.179  1.00  0.00    -0.377 OA
BRANCH   2   3
ATOM      3  C   UNL A   1      38.017  21.760  25.345  1.00  0.00     0.188 C 
BRANCH   3   4
ATOM      4  C   UNL A   1      36.644  21.096  25.251  1.00  0.00     0.188 C 
BRANCH   4   5
ATOM      5  O   UNL A   1      35.555  21.779  24.669  1.00  0.00    -0.376 OA
BRANCH   5   6
ATOM      6  C   UNL A   1      35.028  23.005  25.151  1.00  0.00     0.202 C 
BRANCH   6   7
ATOM      7  C   UNL A   1      34.825  24.239  24.263  1.00  0.00     0.261 C 
BRANCH   7   8
ATOM      8  O   UNL A   1      33.457  24.665  24.113  1.00  0.00    -0.459 OA
BRANCH   8   9
ATOM      9  C   UNL A   1      32.814  24.985  25.267  1.00  0.00     0.368 C 
ATOM     10  O   UNL A   1      33.397  25.474  26.235  1.00  0.00    -0.245 OA
BRANCH   9  11
ATOM     11  C   UNL A   1      31.248  24.818  25.259  1.00  0.00     0.200 C 
ATOM     12  C   UNL A   1      30.824  24.593  23.791  1.00  0.00     0.087 C 
ATOM     13  C   UNL A   1      30.288  25.968  25.639  1.00  0.00     0.146 C 
ATOM     14  C   UNL A   1      30.616  25.988  23.220  1.00  0.00     0.072 C 
ATOM     15  C   UNL A   1      30.042  26.823  24.370  1.00  0.00     0.191 C 
BRANCH  11  16
ATOM     16  N   UNL A   1      30.920  23.538  25.968  1.00  0.00    -0.334 N 
ATOM     17  C   UNL A   1      31.408  22.327  25.328  1.00  0.00     0.331 C 
ATOM     18  H   UNL A   1      31.323  23.584  26.903  1.00  0.00     0.347 HD
ATOM     19  H   UNL A   1      29.902  23.468  25.962  1.00  0.00     0.347 HD
ENDBRANCH  11  16
BRANCH  15  20
ATOM     20  N   UNL A   1      30.357  28.255  24.470  1.00  0.00    -0.323 N 
ATOM     21  C   UNL A   1      30.388  28.988  23.190  1.00  0.00     0.324 C 
ATOM     22  C   UNL A   1      31.536  28.659  25.243  1.00  0.00     0.324 C 
ATOM     23  H   UNL A   1      29.540  28.526  25.017  1.00  0.00     0.348 HD
ATOM     24  C   UNL A   1      31.719  28.903  22.399  1.00  0.00     0.324 C 
ATOM     25  C   UNL A   1      32.879  28.456  24.520  1.00  0.00     0.324 C 
ATOM     26  N   UNL A   1      32.945  29.090  23.198  1.00  0.00    -0.328 N 
ATOM     27  C   UNL A   1      34.119  28.614  22.465  1.00  0.00     0.333 C 
ATOM     28  H   UNL A   1      33.029  30.093  23.360  1.00  0.00     0.348 HD
ENDBRANCH  15  20
ENDBRANCH   9  11
ENDBRANCH   8   9
ENDBRANCH   7   8
ENDBRANCH   6   7
ENDBRANCH   5   6
ENDBRANCH   4   5
ENDBRANCH   3   4
ENDBRANCH   2   3
ENDBRANCH   1   2
BRANCH   1  29
ATOM     29  C   UNL A   1      40.335  21.559  26.742  1.00  0.00     0.188 C 
BRANCH  29  30
ATOM     30  O   UNL A   1      41.301  21.283  25.732  1.00  0.00    -0.376 OA
BRANCH  30  31
ATOM     31  C   UNL A   1      42.434  22.112  25.541  1.00  0.00     0.202 C 
BRANCH  31  32
ATOM     32  C   UNL A   1      43.843  21.634  25.936  1.00  0.00     0.261 C 
BRANCH  32  33
ATOM     33  O   UNL A   1      44.613  22.488  26.783  1.00  0.00    -0.460 OA
BRANCH  33  34
ATOM     34  C   UNL A   1      43.946  23.002  27.838  1.00  0.00     0.338 C 
ATOM     35  O   UNL A   1      43.235  22.389  28.628  1.00  0.00    -0.246 OA
BRANCH  34  36
ATOM     36  C   UNL A   1      44.306  24.422  27.996  1.00  0.00     0.060 A 
ATOM     37  C   UNL A   1      44.683  24.884  29.263  1.00  0.00     0.016 A 
ATOM     38  C   UNL A   1      44.205  25.307  26.920  1.00  0.00     0.016 A 
ATOM     39  C   UNL A   1      44.932  26.237  29.469  1.00  0.00     0.010 A 
ATOM     40  C   UNL A   1      44.422  26.672  27.136  1.00  0.00     0.010 A 
ATOM     41  C   UNL A   1      44.748  27.143  28.420  1.00  0.00    -0.014 A 
BRANCH  41  42
ATOM     42  C   UNL A   1      44.670  28.589  28.732  1.00  0.00     0.031 A 
ATOM     43  C   UNL A   1      43.339  29.152  29.152  1.00  0.00     0.074 A 
ATOM     44  C   UNL A   1      45.765  29.367  28.700  1.00  0.00     0.049 A 
ATOM     45  N   UNL A   1      43.004  30.385  29.425  1.00  0.00    -0.248 NA
ATOM     46  C   UNL A   1      42.235  28.186  29.279  1.00  0.00     0.031 C 
ATOM     47  C   UNL A   1      47.116  28.909  28.378  1.00  0.00     0.029 A 
ATOM     48  N   UNL A   1      45.912  30.709  28.939  1.00  0.00    -0.354 N 
ATOM     49  C   UNL A   1      41.651  30.346  29.747  1.00  0.00     0.074 A 
ATOM     50  C   UNL A   1      41.221  28.972  29.598  1.00  0.00     0.031 C 
ATOM     51  C   UNL A   1      47.954  29.959  28.429  1.00  0.00     0.029 A 
ATOM     52  C   UNL A   1      47.192  31.168  28.740  1.00  0.00     0.049 A 
ATOM     53  H   UNL A   1      45.170  31.290  29.227  1.00  0.00     0.167 HD
ATOM     54  C   UNL A   1      40.844  31.365  30.133  1.00  0.00     0.034 A 
ATOM     55  C   UNL A   1      47.679  32.425  28.770  1.00  0.00     0.034 A 
ATOM     56  C   UNL A   1      41.294  32.729  30.259  1.00  0.00     0.049 A 
ATOM     57  C   UNL A   1      46.739  33.562  29.098  1.00  0.00     0.074 A 
ATOM     58  C   UNL A   1      40.570  33.843  30.641  1.00  0.00     0.029 A 
ATOM     59  N   UNL A   1      42.585  33.168  29.991  1.00  0.00    -0.354 N 
ATOM     60  N   UNL A   1      45.457  33.519  29.390  1.00  0.00    -0.248 NA
ATOM     61  C   UNL A   1      47.311  34.913  29.107  1.00  0.00     0.031 C 
ATOM     62  C   UNL A   1      41.398  34.965  30.523  1.00  0.00     0.029 A 
ATOM     63  C   UNL A   1      42.667  34.541  30.161  1.00  0.00     0.049 A 
ATOM     64  H   UNL A   1      43.333  32.588  29.718  1.00  0.00     0.167 HD
ATOM     65  C   UNL A   1      45.082  34.835  29.651  1.00  0.00     0.074 A 
ATOM     66  C   UNL A   1      46.274  35.643  29.495  1.00  0.00     0.031 C 
ATOM     67  C   UNL A   1      43.865  35.333  29.994  1.00  0.00     0.034 A 
BRANCH  54  68
ATOM     68  C   UNL A   1      39.389  31.046  30.377  1.00  0.00     0.023 A 
ATOM     69  C   UNL A   1      38.400  31.286  29.406  1.00  0.00     0.031 A 
ATOM     70  C   UNL A   1      38.979  30.523  31.617  1.00  0.00     0.131 A 
ATOM     71  C   UNL A   1      37.047  31.071  29.716  1.00  0.00     0.055 A 
ATOM     72  C   UNL A   1      37.641  30.232  31.889  1.00  0.00     0.041 A 
ATOM     73  F   UNL A   1      39.872  30.299  32.592  1.00  0.00    -0.206 F 
ATOM     74  C   UNL A   1      36.664  30.520  30.942  1.00  0.00     0.022 A 
BRANCH  71  75
ATOM     75  S   UNL A   1      35.785  31.661  28.555  1.00  0.00     0.124 S 
ATOM     76  O   UNL A   1      36.411  32.874  28.031  1.00  0.00    -0.237 OA
ATOM     77  O   UNL A   1      35.670  30.547  27.621  1.00  0.00    -0.237 OA
ATOM     78  O   UNL A   1      34.618  31.888  29.404  1.00  0.00    -0.744 OA
ENDBRANCH  71  75
ENDBRANCH  54  68
BRANCH  55  79
ATOM     79  C   UNL A   1      49.109  32.691  28.433  1.00  0.00     0.023 A 
ATOM     80  C   UNL A   1      49.482  33.178  27.171  1.00  0.00     0.031 A 
ATOM     81  C   UNL A   1      50.132  32.406  29.356  1.00  0.00     0.131 A 
ATOM     82  C   UNL A   1      50.841  33.319  26.848  1.00  0.00     0.055 A 
ATOM     83  C   UNL A   1      51.479  32.606  29.052  1.00  0.00     0.041 A 
ATOM     84  F   UNL A   1      49.835  31.928  30.575  1.00  0.00    -0.206 F 
ATOM     85  C   UNL A   1      51.842  33.051  27.786  1.00  0.00     0.022 A 
BRANCH  82  86
ATOM     86  S   UNL A   1      51.291  33.763  25.148  1.00  0.00     0.124 S 
ATOM     87  O   UNL A   1      51.538  32.454  24.555  1.00  0.00    -0.237 OA
ATOM     88  O   UNL A   1      50.092  34.459  24.690  1.00  0.00    -0.237 OA
ATOM     89  O   UNL A   1      52.472  34.606  25.317  1.00  0.00    -0.744 OA
ENDBRANCH  82  86
ENDBRANCH  55  79
BRANCH  67  90
ATOM     90  C   UNL A   1      43.780  36.815  30.278  1.00  0.00     0.023 A 
ATOM     91  C   UNL A   1      43.461  37.748  29.276  1.00  0.00     0.031 A 
ATOM     92  C   UNL A   1      44.026  37.298  31.577  1.00  0.00     0.131 A 
ATOM     93  C   UNL A   1      43.455  39.119  29.576  1.00  0.00     0.055 A 
ATOM     94  C   UNL A   1      43.949  38.656  31.884  1.00  0.00     0.041 A 
ATOM     95  F   UNL A   1      44.339  36.454  32.572  1.00  0.00    -0.206 F 
ATOM     96  C   UNL A   1      43.676  39.578  30.877  1.00  0.00     0.022 A 
BRANCH  93  97
ATOM     97  S   UNL A   1      43.259  40.306  28.219  1.00  0.00     0.124 S 
ATOM     98  O   UNL A   1      44.040  39.681  27.155  1.00  0.00    -0.237 OA
ATOM     99  O   UNL A   1      41.813  40.321  28.022  1.00  0.00    -0.237 OA
ATOM    100  O   UNL A   1      43.823  41.541  28.758  1.00  0.00    -0.744 OA
ENDBRANCH  93  97
ENDBRANCH  67  90
ENDBRANCH  41  42
ENDBRANCH  34  36
ENDBRANCH  33  34
ENDBRANCH  32  33
ENDBRANCH  31  32
ENDBRANCH  30  31
ENDBRANCH  29  30
ENDBRANCH   1  29
TORSDOF 25
ENDMDL
MODEL 3
REMARK VINA RESULT:      -7.7      6.342     10.559
REMARK SMILES C[NH2+][C@@]1(C(=O)OCCOCCOCCOCCOC(=O)c2ccc(-c3c4nc(c(-c5cc(S(=O)(=O)[O-])ccc5F)c5ccc([nH]5)c(-c5cc(S(=O)(=O)[O-])ccc5F)c5nc(c(-c6cc(S(=O)(=O)[O-])ccc6F)c6ccc3[nH]6)C=C5)C=C4)cc2)CC[C@H]([NH+]2CC[NH+](C)CC2)C1
REMARK SMILES IDX 13 1 12 2 11 3 10 4 9 5 8 6 7 7 6 8 4 9 5 10 3 11 84 12
REMARK SMILES IDX 94 13 85 14 86 15 2 16 1 17 87 20 88 21 93 22 89 24 92 25
REMARK SMILES IDX 90 26 91 27 14 29 15 30 16 31 17 32 18 33 19 34 20 35 21 36
REMARK SMILES IDX 22 37 83 38 23 39 82 40 24 41 25 42 26 43 76 44 27 45 81 46
REMARK SMILES IDX 75 47 77 48 28 49 80 50 74 51 73 52 29 54 61 55 41 56 60 57
REMARK SMILES IDX 42 58 45 59 59 60 78 61 43 62 44 63 58 65 79 66 46 67 30 68
REMARK SMILES IDX 31 69 39 70 32 71 38 72 40 73 37 74 33 75 34 76 35 77 36 78
REMARK SMILES IDX 62 79 63 80 71 81 64 82 70 83 72 84 69 85 65 86 66 87 67 88
REMARK SMILES IDX 68 89 47 90 48 91 56 92 49 93 55 94 57 95 54 96 50 97 51 98
REMARK SMILES IDX 52 99 53 100
REMARK H PARENT 2 18 2 19 87 23 90 28 77 53 45 64
REMARK Flexibility Score: inf
ROOT
ATOM      1  C   UNL A   1      40.416  27.237  28.731  1.00  0.00     0.188 C 
ENDROOT
BRANCH   1   2
ATOM      2  O   UNL A   1      39.544  27.739  29.712  1.00  0.00    -0.377 OA
BRANCH   2   3
ATOM      3  C   UNL A   1      38.829  28.920  29.438  1.00  0.00     0.188 C 
BRANCH   3   4
ATOM      4  C   UNL A   1      37.855  29.097  28.274  1.00  0.00     0.188 C 
BRANCH   4   5
ATOM      5  O   UNL A   1      36.549  29.583  28.500  1.00  0.00    -0.376 OA
BRANCH   5   6
ATOM      6  C   UNL A   1      35.888  30.524  27.669  1.00  0.00     0.202 C 
BRANCH   6   7
ATOM      7  C   UNL A   1      34.426  30.377  27.230  1.00  0.00     0.261 C 
BRANCH   7   8
ATOM      8  O   UNL A   1      34.042  29.049  26.822  1.00  0.00    -0.459 OA
BRANCH   8   9
ATOM      9  C   UNL A   1      33.474  28.957  25.590  1.00  0.00     0.368 C 
ATOM     10  O   UNL A   1      34.142  28.874  24.559  1.00  0.00    -0.245 OA
BRANCH   9  11
ATOM     11  C   UNL A   1      31.905  28.831  25.556  1.00  0.00     0.200 C 
ATOM     12  C   UNL A   1      31.417  28.851  27.021  1.00  0.00     0.087 C 
ATOM     13  C   UNL A   1      31.185  27.558  25.054  1.00  0.00     0.146 C 
ATOM     14  C   UNL A   1      31.463  27.399  27.474  1.00  0.00     0.072 C 
ATOM     15  C   UNL A   1      31.079  26.570  26.244  1.00  0.00     0.191 C 
BRANCH  11  16
ATOM     16  N   UNL A   1      31.357  30.081  24.937  1.00  0.00    -0.334 N 
ATOM     17  C   UNL A   1      30.399  29.878  23.863  1.00  0.00     0.331 C 
ATOM     18  H   UNL A   1      30.898  30.620  25.671  1.00  0.00     0.347 HD
ATOM     19  H   UNL A   1      32.155  30.557  24.516  1.00  0.00     0.347 HD
ENDBRANCH  11  16
BRANCH  15  20
ATOM     20  N   UNL A   1      31.659  25.235  26.044  1.00  0.00    -0.323 N 
ATOM     21  C   UNL A   1      33.112  25.208  25.785  1.00  0.00     0.324 C 
ATOM     22  C   UNL A   1      31.019  24.330  25.084  1.00  0.00     0.324 C 
ATOM     23  H   UNL A   1      31.456  24.869  26.974  1.00  0.00     0.348 HD
ATOM     24  C   UNL A   1      33.536  25.448  24.313  1.00  0.00     0.324 C 
ATOM     25  C   UNL A   1      31.324  24.638  23.608  1.00  0.00     0.324 C 
ATOM     26  N   UNL A   1      32.757  24.712  23.300  1.00  0.00    -0.328 N 
ATOM     27  C   UNL A   1      32.961  25.287  21.969  1.00  0.00     0.333 C 
ATOM     28  H   UNL A   1      33.107  23.753  23.313  1.00  0.00     0.348 HD
ENDBRANCH  15  20
ENDBRANCH   9  11
ENDBRANCH   8   9
ENDBRANCH   7   8
ENDBRANCH   6   7
ENDBRANCH   5   6
ENDBRANCH   4   5
ENDBRANCH   3   4
ENDBRANCH   2   3
ENDBRANCH   1   2
BRANCH   1  29
ATOM     29  C   UNL A   1      39.805  26.105  27.897  1.00  0.00     0.188 C 
BRANCH  29  30
ATOM     30  O   UNL A   1      40.321  25.767  26.613  1.00  0.00    -0.376 OA
BRANCH  30  31
ATOM     31  C   UNL A   1      41.022  24.556  26.389  1.00  0.00     0.202 C 
BRANCH  31  32
ATOM     32  C   UNL A   1      42.439  24.344  26.949  1.00  0.00     0.261 C 
BRANCH  32  33
ATOM     33  O   UNL A   1      43.190  25.510  27.294  1.00  0.00    -0.460 OA
BRANCH  33  34
ATOM     34  C   UNL A   1      43.587  26.266  26.248  1.00  0.00     0.338 C 
ATOM     35  O   UNL A   1      43.672  25.914  25.076  1.00  0.00    -0.246 OA
BRANCH  34  36
ATOM     36  C   UNL A   1      43.784  27.655  26.700  1.00  0.00     0.060 A 
ATOM     37  C   UNL A   1      44.827  27.931  27.593  1.00  0.00     0.016 A 
ATOM     38  C   UNL A   1      42.907  28.666  26.301  1.00  0.00     0.016 A 
ATOM     39  C   UNL A   1      44.980  29.210  28.116  1.00  0.00     0.010 A 
ATOM     40  C   UNL A   1      43.040  29.943  26.854  1.00  0.00     0.010 A 
ATOM     41  C   UNL A   1      44.054  30.207  27.792  1.00  0.00    -0.014 A 
BRANCH  41  42
ATOM     42  C   UNL A   1      44.016  31.440  28.612  1.00  0.00     0.031 A 
ATOM     43  C   UNL A   1      44.962  32.555  28.259  1.00  0.00     0.074 A 
ATOM     44  C   UNL A   1      43.124  31.585  29.607  1.00  0.00     0.049 A 
ATOM     45  N   UNL A   1      45.156  33.703  28.852  1.00  0.00    -0.248 NA
ATOM     46  C   UNL A   1      45.806  32.340  27.072  1.00  0.00     0.031 C 
ATOM     47  C   UNL A   1      42.114  30.598  29.985  1.00  0.00     0.029 A 
ATOM     48  N   UNL A   1      42.927  32.623  30.482  1.00  0.00    -0.354 N 
ATOM     49  C   UNL A   1      46.149  34.344  28.118  1.00  0.00     0.074 A 
ATOM     50  C   UNL A   1      46.542  33.440  27.058  1.00  0.00     0.031 C 
ATOM     51  C   UNL A   1      41.411  31.074  31.026  1.00  0.00     0.029 A 
ATOM     52  C   UNL A   1      41.950  32.376  31.417  1.00  0.00     0.049 A 
ATOM     53  H   UNL A   1      43.437  33.465  30.444  1.00  0.00     0.167 HD
ATOM     54  C   UNL A   1      46.681  35.576  28.311  1.00  0.00     0.034 A 
ATOM     55  C   UNL A   1      41.565  33.105  32.484  1.00  0.00     0.034 A 
ATOM     56  C   UNL A   1      46.283  36.453  29.383  1.00  0.00     0.049 A 
ATOM     57  C   UNL A   1      42.246  34.429  32.744  1.00  0.00     0.074 A 
ATOM     58  C   UNL A   1      46.750  37.721  29.678  1.00  0.00     0.029 A 
ATOM     59  N   UNL A   1      45.331  36.146  30.349  1.00  0.00    -0.354 N 
ATOM     60  N   UNL A   1      43.192  35.024  32.051  1.00  0.00    -0.248 NA
ATOM     61  C   UNL A   1      41.803  35.182  33.923  1.00  0.00     0.031 C 
ATOM     62  C   UNL A   1      46.144  38.145  30.866  1.00  0.00     0.029 A 
ATOM     63  C   UNL A   1      45.226  37.184  31.261  1.00  0.00     0.049 A 
ATOM     64  H   UNL A   1      44.808  35.312  30.380  1.00  0.00     0.167 HD
ATOM     65  C   UNL A   1      43.431  36.237  32.695  1.00  0.00     0.074 A 
ATOM     66  C   UNL A   1      42.520  36.293  33.820  1.00  0.00     0.031 C 
ATOM     67  C   UNL A   1      44.316  37.219  32.384  1.00  0.00     0.034 A 
BRANCH  54  68
ATOM     68  C   UNL A   1      47.791  36.008  27.382  1.00  0.00     0.023 A 
ATOM     69  C   UNL A   1      49.129  35.628  27.591  1.00  0.00     0.031 A 
ATOM     70  C   UNL A   1      47.509  36.844  26.286  1.00  0.00     0.131 A 
ATOM     71  C   UNL A   1      50.140  36.138  26.761  1.00  0.00     0.055 A 
ATOM     72  C   UNL A   1      48.509  37.280  25.415  1.00  0.00     0.041 A 
ATOM     73  F   UNL A   1      46.257  37.264  26.052  1.00  0.00    -0.206 F 
ATOM     74  C   UNL A   1      49.836  36.941  25.659  1.00  0.00     0.022 A 
BRANCH  71  75
ATOM     75  S   UNL A   1      51.870  35.864  27.232  1.00  0.00     0.124 S 
ATOM     76  O   UNL A   1      52.539  36.975  26.558  1.00  0.00    -0.237 OA
ATOM     77  O   UNL A   1      51.817  35.937  28.687  1.00  0.00    -0.237 OA
ATOM     78  O   UNL A   1      52.168  34.542  26.684  1.00  0.00    -0.744 OA
ENDBRANCH  71  75
ENDBRANCH  54  68
BRANCH  55  79
ATOM     79  C   UNL A   1      40.524  32.587  33.419  1.00  0.00     0.023 A 
ATOM     80  C   UNL A   1      39.204  33.062  33.377  1.00  0.00     0.031 A 
ATOM     81  C   UNL A   1      40.852  31.646  34.413  1.00  0.00     0.131 A 
ATOM     82  C   UNL A   1      38.274  32.633  34.339  1.00  0.00     0.055 A 
ATOM     83  C   UNL A   1      39.909  31.176  35.328  1.00  0.00     0.041 A 
ATOM     84  F   UNL A   1      42.102  31.164  34.508  1.00  0.00    -0.206 F 
ATOM     85  C   UNL A   1      38.614  31.682  35.304  1.00  0.00     0.022 A 
BRANCH  82  86
ATOM     86  S   UNL A   1      36.637  33.413  34.374  1.00  0.00     0.124 S 
ATOM     87  O   UNL A   1      35.895  32.589  33.428  1.00  0.00    -0.237 OA
ATOM     88  O   UNL A   1      36.265  33.272  35.778  1.00  0.00    -0.237 OA
ATOM     89  O   UNL A   1      36.902  34.782  33.936  1.00  0.00    -0.744 OA
ENDBRANCH  82  86
ENDBRANCH  55  79
BRANCH  67  90
ATOM     90  C   UNL A   1      44.300  38.462  33.244  1.00  0.00     0.023 A 
ATOM     91  C   UNL A   1      43.458  39.552  32.961  1.00  0.00     0.031 A 
ATOM     92  C   UNL A   1      45.146  38.554  34.365  1.00  0.00     0.131 A 
ATOM     93  C   UNL A   1      43.524  40.708  33.753  1.00  0.00     0.055 A 
ATOM     94  C   UNL A   1      45.156  39.679  35.189  1.00  0.00     0.041 A 
ATOM     95  F   UNL A   1      45.974  37.546  34.681  1.00  0.00    -0.206 F 
ATOM     96  C   UNL A   1      44.351  40.772  34.877  1.00  0.00     0.022 A 
BRANCH  93  97
ATOM     97  S   UNL A   1      42.591  42.174  33.232  1.00  0.00     0.124 S 
ATOM     98  O   UNL A   1      43.646  43.031  32.698  1.00  0.00    -0.237 OA
ATOM     99  O   UNL A   1      41.661  41.621  32.253  1.00  0.00    -0.237 OA
ATOM    100  O   UNL A   1      41.976  42.647  34.471  1.00  0.00    -0.744 OA
ENDBRANCH  93  97
ENDBRANCH  67  90
ENDBRANCH  41  42
ENDBRANCH  34  36
ENDBRANCH  33  34
ENDBRANCH  32  33
ENDBRANCH  31  32
ENDBRANCH  30  31
ENDBRANCH  29  30
ENDBRANCH   1  29
TORSDOF 25
ENDMDL
