MODEL 1
REMARK VINA RESULT:      -9.9      0.000      0.000
REMARK SMILES O=C(COc1ccccc1[C@@H]1[NH2+]CCc2cc(O)c(O)cc21)OCCOCCOCCOCCOC(=O)c1ccc(-c2c3nc(c(-c4cc(S(=O)(=O)[O-])ccc4F)c4ccc([nH]4)c(-c4cc(S(=O)(=O)[O-])ccc4F)c4nc(c(-c5cc(S(=O)(=O)[O-])ccc5F)c5ccc2[nH]5)C=C4)C=C3)cc1
REMARK SMILES IDX 28 1 27 2 26 3 25 4 24 5 23 6 2 7 1 8 3 9 4 10 5 11 6 12
REMARK SMILES IDX 10 13 7 14 9 15 8 16 11 17 12 18 22 19 13 20 15 23 21 24
REMARK SMILES IDX 14 25 16 26 19 27 17 28 20 29 18 31 29 33 30 34 31 35 32 36
REMARK SMILES IDX 33 37 34 38 35 39 36 40 37 41 38 42 39 43 100 44 40 45 99 46
REMARK SMILES IDX 41 47 42 48 43 49 93 50 44 51 98 52 92 53 94 54 45 55 97 56
REMARK SMILES IDX 91 57 90 58 46 60 78 61 58 62 77 63 59 64 62 65 76 66 95 67
REMARK SMILES IDX 60 68 61 69 75 71 96 72 63 73 47 74 48 75 56 76 49 77 55 78
REMARK SMILES IDX 57 79 54 80 50 81 51 82 52 83 53 84 79 85 80 86 88 87 81 88
REMARK SMILES IDX 87 89 89 90 86 91 82 92 83 93 84 94 85 95 64 96 65 97 73 98
REMARK SMILES IDX 66 99 72 100 74 101 71 102 67 103 68 104 69 105 70 106
REMARK H PARENT 12 21 12 22 20 30 18 32 94 59 62 70
REMARK Flexibility Score: inf
ROOT
ATOM      1  C   UNL A   1      31.445  25.041  26.748  1.00  0.00     0.188 C 
ENDROOT
BRANCH   1   2
ATOM      2  C   UNL A   1      30.620  24.439  25.579  1.00  0.00     0.188 C 
BRANCH   2   3
ATOM      3  O   UNL A   1      30.891  24.324  24.177  1.00  0.00    -0.376 OA
BRANCH   3   4
ATOM      4  C   UNL A   1      30.558  25.088  23.027  1.00  0.00     0.202 C 
BRANCH   4   5
ATOM      5  C   UNL A   1      31.215  26.442  22.738  1.00  0.00     0.261 C 
BRANCH   5   6
ATOM      6  O   UNL A   1      32.504  26.559  23.311  1.00  0.00    -0.461 OA
BRANCH   6   7
ATOM      7  C   UNL A   1      33.511  25.842  22.771  1.00  0.00     0.344 C 
ATOM      8  O   UNL A   1      33.713  25.978  21.568  1.00  0.00    -0.248 OA
BRANCH   7   9
ATOM      9  C   UNL A   1      34.309  24.897  23.704  1.00  0.00     0.351 C 
BRANCH   9  10
ATOM     10  O   UNL A   1      34.783  23.695  23.195  1.00  0.00    -0.481 OA
BRANCH  10  11
ATOM     11  C   UNL A   1      34.101  22.522  23.268  1.00  0.00     0.129 A 
ATOM     12  C   UNL A   1      33.127  22.568  22.250  1.00  0.00     0.047 A 
ATOM     13  C   UNL A   1      34.125  21.453  24.194  1.00  0.00     0.056 A 
ATOM     14  C   UNL A   1      32.064  21.688  22.225  1.00  0.00     0.004 A 
ATOM     15  C   UNL A   1      32.980  20.624  24.188  1.00  0.00     0.014 A 
ATOM     16  C   UNL A   1      31.960  20.752  23.237  1.00  0.00     0.001 A 
BRANCH  13  17
ATOM     17  C   UNL A   1      35.168  21.214  25.291  1.00  0.00     0.249 C 
ATOM     18  N   UNL A   1      34.616  21.131  26.659  1.00  0.00    -0.336 N 
ATOM     19  C   UNL A   1      36.411  22.103  25.438  1.00  0.00     0.021 A 
ATOM     20  C   UNL A   1      34.261  22.415  27.274  1.00  0.00     0.266 C 
ATOM     21  H   UNL A   1      35.313  20.681  27.252  1.00  0.00     0.347 HD
ATOM     22  H   UNL A   1      33.745  20.609  26.578  1.00  0.00     0.347 HD
ATOM     23  C   UNL A   1      36.270  23.308  26.171  1.00  0.00    -0.029 A 
ATOM     24  C   UNL A   1      37.691  21.589  25.180  1.00  0.00     0.060 A 
ATOM     25  C   UNL A   1      34.877  23.658  26.620  1.00  0.00     0.097 C 
ATOM     26  C   UNL A   1      37.393  23.998  26.626  1.00  0.00     0.054 A 
ATOM     27  C   UNL A   1      38.798  22.258  25.686  1.00  0.00     0.157 A 
ATOM     28  C   UNL A   1      38.646  23.449  26.397  1.00  0.00     0.157 A 
BRANCH  27  29
ATOM     29  O   UNL A   1      40.060  21.737  25.584  1.00  0.00    -0.504 OA
ATOM     30  H   UNL A   1      40.800  22.310  25.524  1.00  0.00     0.293 HD
ENDBRANCH  27  29
BRANCH  28  31
ATOM     31  O   UNL A   1      39.743  24.046  26.955  1.00  0.00    -0.504 OA
ATOM     32  H   UNL A   1      40.196  23.626  27.659  1.00  0.00     0.293 HD
ENDBRANCH  28  31
ENDBRANCH  13  17
ENDBRANCH  10  11
ENDBRANCH   9  10
ENDBRANCH   7   9
ENDBRANCH   6   7
ENDBRANCH   5   6
ENDBRANCH   4   5
ENDBRANCH   3   4
ENDBRANCH   2   3
ENDBRANCH   1   2
BRANCH   1  33
ATOM     33  O   UNL A   1      32.197  26.231  26.603  1.00  0.00    -0.377 OA
BRANCH  33  34
ATOM     34  C   UNL A   1      31.401  27.395  26.550  1.00  0.00     0.188 C 
BRANCH  34  35
ATOM     35  C   UNL A   1      32.190  28.611  27.076  1.00  0.00     0.188 C 
BRANCH  35  36
ATOM     36  O   UNL A   1      32.541  29.517  26.043  1.00  0.00    -0.376 OA
BRANCH  36  37
ATOM     37  C   UNL A   1      31.718  30.655  25.828  1.00  0.00     0.202 C 
BRANCH  37  38
ATOM     38  C   UNL A   1      31.731  31.886  26.760  1.00  0.00     0.261 C 
BRANCH  38  39
ATOM     39  O   UNL A   1      32.722  31.955  27.795  1.00  0.00    -0.460 OA
BRANCH  39  40
ATOM     40  C   UNL A   1      33.619  32.973  27.766  1.00  0.00     0.338 C 
ATOM     41  O   UNL A   1      33.377  34.146  27.680  1.00  0.00    -0.246 OA
BRANCH  40  42
ATOM     42  C   UNL A   1      34.930  32.371  28.150  1.00  0.00     0.060 A 
ATOM     43  C   UNL A   1      35.032  30.972  28.235  1.00  0.00     0.016 A 
ATOM     44  C   UNL A   1      36.067  33.169  28.309  1.00  0.00     0.016 A 
ATOM     45  C   UNL A   1      36.264  30.371  28.496  1.00  0.00     0.010 A 
ATOM     46  C   UNL A   1      37.290  32.570  28.625  1.00  0.00     0.010 A 
ATOM     47  C   UNL A   1      37.384  31.173  28.755  1.00  0.00    -0.014 A 
BRANCH  47  48
ATOM     48  C   UNL A   1      38.534  30.580  29.477  1.00  0.00     0.031 A 
ATOM     49  C   UNL A   1      38.710  30.989  30.917  1.00  0.00     0.074 A 
ATOM     50  C   UNL A   1      39.376  29.702  28.905  1.00  0.00     0.049 A 
ATOM     51  N   UNL A   1      39.655  30.684  31.763  1.00  0.00    -0.248 NA
ATOM     52  C   UNL A   1      37.668  31.873  31.468  1.00  0.00     0.031 C 
ATOM     53  C   UNL A   1      39.266  29.183  27.545  1.00  0.00     0.029 A 
ATOM     54  N   UNL A   1      40.500  29.095  29.409  1.00  0.00    -0.354 N 
ATOM     55  C   UNL A   1      39.323  31.338  32.945  1.00  0.00     0.074 A 
ATOM     56  C   UNL A   1      38.111  32.085  32.695  1.00  0.00     0.031 C 
ATOM     57  C   UNL A   1      40.295  28.346  27.314  1.00  0.00     0.029 A 
ATOM     58  C   UNL A   1      41.157  28.303  28.496  1.00  0.00     0.049 A 
ATOM     59  H   UNL A   1      40.808  29.215  30.336  1.00  0.00     0.167 HD
ATOM     60  C   UNL A   1      39.970  31.317  34.135  1.00  0.00     0.034 A 
ATOM     61  C   UNL A   1      42.334  27.650  28.599  1.00  0.00     0.034 A 
ATOM     62  C   UNL A   1      41.194  30.593  34.357  1.00  0.00     0.049 A 
ATOM     63  C   UNL A   1      43.101  27.732  29.903  1.00  0.00     0.074 A 
ATOM     64  C   UNL A   1      41.943  30.504  35.515  1.00  0.00     0.029 A 
ATOM     65  N   UNL A   1      41.860  29.848  33.391  1.00  0.00    -0.354 N 
ATOM     66  N   UNL A   1      42.781  28.354  31.015  1.00  0.00    -0.248 NA
ATOM     67  C   UNL A   1      44.384  27.020  29.963  1.00  0.00     0.031 C 
ATOM     68  C   UNL A   1      43.101  29.772  35.229  1.00  0.00     0.029 A 
ATOM     69  C   UNL A   1      43.030  29.326  33.919  1.00  0.00     0.049 A 
ATOM     70  H   UNL A   1      41.547  29.711  32.468  1.00  0.00     0.167 HD
ATOM     71  C   UNL A   1      43.808  28.075  31.918  1.00  0.00     0.074 A 
ATOM     72  C   UNL A   1      44.748  27.221  31.221  1.00  0.00     0.031 C 
ATOM     73  C   UNL A   1      43.959  28.480  33.206  1.00  0.00     0.034 A 
BRANCH  60  74
ATOM     74  C   UNL A   1      39.391  32.154  35.248  1.00  0.00     0.023 A 
ATOM     75  C   UNL A   1      39.773  33.494  35.444  1.00  0.00     0.031 A 
ATOM     76  C   UNL A   1      38.482  31.588  36.158  1.00  0.00     0.131 A 
ATOM     77  C   UNL A   1      39.304  34.198  36.563  1.00  0.00     0.055 A 
ATOM     78  C   UNL A   1      37.954  32.321  37.222  1.00  0.00     0.041 A 
ATOM     79  F   UNL A   1      38.107  30.304  36.042  1.00  0.00    -0.206 F 
ATOM     80  C   UNL A   1      38.375  33.630  37.439  1.00  0.00     0.022 A 
BRANCH  77  81
ATOM     81  S   UNL A   1      40.041  35.811  36.944  1.00  0.00     0.124 S 
ATOM     82  O   UNL A   1      41.455  35.468  37.068  1.00  0.00    -0.237 OA
ATOM     83  O   UNL A   1      39.676  36.607  35.777  1.00  0.00    -0.237 OA
ATOM     84  O   UNL A   1      39.389  36.199  38.193  1.00  0.00    -0.744 OA
ENDBRANCH  77  81
ENDBRANCH  60  74
BRANCH  61  85
ATOM     85  C   UNL A   1      42.899  26.903  27.436  1.00  0.00     0.023 A 
ATOM     86  C   UNL A   1      42.724  25.515  27.307  1.00  0.00     0.031 A 
ATOM     87  C   UNL A   1      43.687  27.557  26.473  1.00  0.00     0.131 A 
ATOM     88  C   UNL A   1      43.366  24.821  26.268  1.00  0.00     0.055 A 
ATOM     89  C   UNL A   1      44.277  26.871  25.408  1.00  0.00     0.041 A 
ATOM     90  F   UNL A   1      43.896  28.881  26.551  1.00  0.00    -0.206 F 
ATOM     91  C   UNL A   1      44.130  25.492  25.309  1.00  0.00     0.022 A 
BRANCH  88  92
ATOM     92  S   UNL A   1      43.270  23.009  26.242  1.00  0.00     0.124 S 
ATOM     93  O   UNL A   1      44.646  22.635  26.544  1.00  0.00    -0.237 OA
ATOM     94  O   UNL A   1      42.287  22.744  27.289  1.00  0.00    -0.237 OA
ATOM     95  O   UNL A   1      42.824  22.711  24.883  1.00  0.00    -0.744 OA
ENDBRANCH  88  92
ENDBRANCH  61  85
BRANCH  73  96
ATOM     96  C   UNL A   1      45.156  27.955  33.962  1.00  0.00     0.023 A 
ATOM     97  C   UNL A   1      46.375  28.654  34.006  1.00  0.00     0.031 A 
ATOM     98  C   UNL A   1      45.068  26.734  34.657  1.00  0.00     0.131 A 
ATOM     99  C   UNL A   1      47.473  28.099  34.682  1.00  0.00     0.055 A 
ATOM    100  C   UNL A   1      46.144  26.221  35.383  1.00  0.00     0.041 A 
ATOM    101  F   UNL A   1      43.929  26.024  34.649  1.00  0.00    -0.206 F 
ATOM    102  C   UNL A   1      47.359  26.899  35.387  1.00  0.00     0.022 A 
BRANCH  99 103
ATOM    103  S   UNL A   1      49.085  28.921  34.546  1.00  0.00     0.124 S 
ATOM    104  O   UNL A   1      48.706  30.256  34.094  1.00  0.00    -0.237 OA
ATOM    105  O   UNL A   1      49.597  28.831  35.910  1.00  0.00    -0.237 OA
ATOM    106  O   UNL A   1      49.800  28.112  33.562  1.00  0.00    -0.744 OA
ENDBRANCH  99 103
ENDBRANCH  73  96
ENDBRANCH  47  48
ENDBRANCH  40  42
ENDBRANCH  39  40
ENDBRANCH  38  39
ENDBRANCH  37  38
ENDBRANCH  36  37
ENDBRANCH  35  36
ENDBRANCH  34  35
ENDBRANCH  33  34
ENDBRANCH   1  33
TORSDOF 28
ENDMDL
MODEL 2
REMARK VINA RESULT:      -9.4      1.904      2.121
REMARK SMILES O=C(COc1ccccc1[C@@H]1[NH2+]CCc2cc(O)c(O)cc21)OCCOCCOCCOCCOC(=O)c1ccc(-c2c3nc(c(-c4cc(S(=O)(=O)[O-])ccc4F)c4ccc([nH]4)c(-c4cc(S(=O)(=O)[O-])ccc4F)c4nc(c(-c5cc(S(=O)(=O)[O-])ccc5F)c5ccc2[nH]5)C=C4)C=C3)cc1
REMARK SMILES IDX 28 1 27 2 26 3 25 4 24 5 23 6 2 7 1 8 3 9 4 10 5 11 6 12
REMARK SMILES IDX 10 13 7 14 9 15 8 16 11 17 12 18 22 19 13 20 15 23 21 24
REMARK SMILES IDX 14 25 16 26 19 27 17 28 20 29 18 31 29 33 30 34 31 35 32 36
REMARK SMILES IDX 33 37 34 38 35 39 36 40 37 41 38 42 39 43 100 44 40 45 99 46
REMARK SMILES IDX 41 47 42 48 43 49 93 50 44 51 98 52 92 53 94 54 45 55 97 56
REMARK SMILES IDX 91 57 90 58 46 60 78 61 58 62 77 63 59 64 62 65 76 66 95 67
REMARK SMILES IDX 60 68 61 69 75 71 96 72 63 73 47 74 48 75 56 76 49 77 55 78
REMARK SMILES IDX 57 79 54 80 50 81 51 82 52 83 53 84 79 85 80 86 88 87 81 88
REMARK SMILES IDX 87 89 89 90 86 91 82 92 83 93 84 94 85 95 64 96 65 97 73 98
REMARK SMILES IDX 66 99 72 100 74 101 71 102 67 103 68 104 69 105 70 106
REMARK H PARENT 12 21 12 22 20 30 18 32 94 59 62 70
REMARK Flexibility Score: inf
ROOT
ATOM      1  C   UNL A   1      31.439  24.970  26.866  1.00  0.00     0.188 C 
ENDROOT
BRANCH   1   2
ATOM      2  C   UNL A   1      30.554  24.424  25.713  1.00  0.00     0.188 C 
BRANCH   2   3
ATOM      3  O   UNL A   1      30.847  24.118  24.345  1.00  0.00    -0.376 OA
BRANCH   3   4
ATOM      4  C   UNL A   1      30.500  24.693  23.094  1.00  0.00     0.202 C 
BRANCH   4   5
ATOM      5  C   UNL A   1      31.072  26.039  22.634  1.00  0.00     0.261 C 
BRANCH   5   6
ATOM      6  O   UNL A   1      32.339  26.316  23.200  1.00  0.00    -0.461 OA
BRANCH   6   7
ATOM      7  C   UNL A   1      33.408  25.632  22.742  1.00  0.00     0.344 C 
ATOM      8  O   UNL A   1      33.658  25.722  21.544  1.00  0.00    -0.248 OA
BRANCH   7   9
ATOM      9  C   UNL A   1      34.209  24.777  23.755  1.00  0.00     0.351 C 
BRANCH   9  10
ATOM     10  O   UNL A   1      34.766  23.577  23.330  1.00  0.00    -0.481 OA
BRANCH  10  11
ATOM     11  C   UNL A   1      34.124  22.382  23.397  1.00  0.00     0.129 A 
ATOM     12  C   UNL A   1      33.175  22.384  22.355  1.00  0.00     0.047 A 
ATOM     13  C   UNL A   1      34.163  21.322  24.333  1.00  0.00     0.056 A 
ATOM     14  C   UNL A   1      32.144  21.466  22.312  1.00  0.00     0.004 A 
ATOM     15  C   UNL A   1      33.049  20.452  24.307  1.00  0.00     0.014 A 
ATOM     16  C   UNL A   1      32.048  20.536  23.330  1.00  0.00     0.001 A 
BRANCH  13  17
ATOM     17  C   UNL A   1      35.186  21.130  25.458  1.00  0.00     0.249 C 
ATOM     18  N   UNL A   1      34.630  21.236  26.822  1.00  0.00    -0.336 N 
ATOM     19  C   UNL A   1      36.490  21.938  25.517  1.00  0.00     0.021 A 
ATOM     20  C   UNL A   1      34.368  22.600  27.292  1.00  0.00     0.266 C 
ATOM     21  H   UNL A   1      35.292  20.803  27.466  1.00  0.00     0.347 HD
ATOM     22  H   UNL A   1      33.723  20.772  26.792  1.00  0.00     0.347 HD
ATOM     23  C   UNL A   1      36.436  23.222  26.114  1.00  0.00    -0.029 A 
ATOM     24  C   UNL A   1      37.729  21.309  25.326  1.00  0.00     0.060 A 
ATOM     25  C   UNL A   1      35.072  23.718  26.512  1.00  0.00     0.097 C 
ATOM     26  C   UNL A   1      37.606  23.876  26.500  1.00  0.00     0.054 A 
ATOM     27  C   UNL A   1      38.881  21.948  25.765  1.00  0.00     0.157 A 
ATOM     28  C   UNL A   1      38.816  23.218  26.342  1.00  0.00     0.157 A 
BRANCH  27  29
ATOM     29  O   UNL A   1      40.103  21.330  25.730  1.00  0.00    -0.504 OA
ATOM     30  H   UNL A   1      40.172  20.444  25.435  1.00  0.00     0.293 HD
ENDBRANCH  27  29
BRANCH  28  31
ATOM     31  O   UNL A   1      39.952  23.792  26.841  1.00  0.00    -0.504 OA
ATOM     32  H   UNL A   1      40.792  23.449  26.605  1.00  0.00     0.293 HD
ENDBRANCH  28  31
ENDBRANCH  13  17
ENDBRANCH  10  11
ENDBRANCH   9  10
ENDBRANCH   7   9
ENDBRANCH   6   7
ENDBRANCH   5   6
ENDBRANCH   4   5
ENDBRANCH   3   4
ENDBRANCH   2   3
ENDBRANCH   1   2
BRANCH   1  33
ATOM     33  O   UNL A   1      32.438  25.948  26.648  1.00  0.00    -0.377 OA
BRANCH  33  34
ATOM     34  C   UNL A   1      31.927  27.176  26.177  1.00  0.00     0.188 C 
BRANCH  34  35
ATOM     35  C   UNL A   1      32.633  28.357  26.874  1.00  0.00     0.188 C 
BRANCH  35  36
ATOM     36  O   UNL A   1      33.072  29.345  25.956  1.00  0.00    -0.376 OA
BRANCH  36  37
ATOM     37  C   UNL A   1      32.257  30.490  25.749  1.00  0.00     0.202 C 
BRANCH  37  38
ATOM     38  C   UNL A   1      31.880  31.466  26.885  1.00  0.00     0.261 C 
BRANCH  38  39
ATOM     39  O   UNL A   1      32.820  31.682  27.946  1.00  0.00    -0.460 OA
BRANCH  39  40
ATOM     40  C   UNL A   1      33.764  32.644  27.792  1.00  0.00     0.338 C 
ATOM     41  O   UNL A   1      33.577  33.811  27.577  1.00  0.00    -0.246 OA
BRANCH  40  42
ATOM     42  C   UNL A   1      35.052  32.024  28.225  1.00  0.00     0.060 A 
ATOM     43  C   UNL A   1      35.118  30.627  28.359  1.00  0.00     0.016 A 
ATOM     44  C   UNL A   1      36.205  32.799  28.381  1.00  0.00     0.016 A 
ATOM     45  C   UNL A   1      36.328  30.006  28.667  1.00  0.00     0.010 A 
ATOM     46  C   UNL A   1      37.406  32.183  28.744  1.00  0.00     0.010 A 
ATOM     47  C   UNL A   1      37.462  30.789  28.922  1.00  0.00    -0.014 A 
BRANCH  47  48
ATOM     48  C   UNL A   1      38.582  30.194  29.690  1.00  0.00     0.031 A 
ATOM     49  C   UNL A   1      38.696  30.595  31.138  1.00  0.00     0.074 A 
ATOM     50  C   UNL A   1      39.449  29.320  29.149  1.00  0.00     0.049 A 
ATOM     51  N   UNL A   1      39.605  30.286  32.022  1.00  0.00    -0.248 NA
ATOM     52  C   UNL A   1      37.630  31.473  31.650  1.00  0.00     0.031 C 
ATOM     53  C   UNL A   1      39.398  28.809  27.782  1.00  0.00     0.029 A 
ATOM     54  N   UNL A   1      40.553  28.713  29.696  1.00  0.00    -0.354 N 
ATOM     55  C   UNL A   1      39.222  30.933  33.192  1.00  0.00     0.074 A 
ATOM     56  C   UNL A   1      38.020  31.678  32.895  1.00  0.00     0.031 C 
ATOM     57  C   UNL A   1      40.438  27.976  27.590  1.00  0.00     0.029 A 
ATOM     58  C   UNL A   1      41.249  27.928  28.807  1.00  0.00     0.049 A 
ATOM     59  H   UNL A   1      40.820  28.828  30.636  1.00  0.00     0.167 HD
ATOM     60  C   UNL A   1      39.817  30.905  34.408  1.00  0.00     0.034 A 
ATOM     61  C   UNL A   1      42.422  27.276  28.956  1.00  0.00     0.034 A 
ATOM     62  C   UNL A   1      41.032  30.182  34.678  1.00  0.00     0.049 A 
ATOM     63  C   UNL A   1      43.133  27.352  30.292  1.00  0.00     0.074 A 
ATOM     64  C   UNL A   1      41.732  30.088  35.866  1.00  0.00     0.029 A 
ATOM     65  N   UNL A   1      41.740  29.444  33.737  1.00  0.00    -0.354 N 
ATOM     66  N   UNL A   1      42.765  27.966  31.393  1.00  0.00    -0.248 NA
ATOM     67  C   UNL A   1      44.414  26.642  30.402  1.00  0.00     0.031 C 
ATOM     68  C   UNL A   1      42.902  29.360  35.625  1.00  0.00     0.029 A 
ATOM     69  C   UNL A   1      42.888  28.922  34.310  1.00  0.00     0.049 A 
ATOM     70  H   UNL A   1      41.467  29.312  32.801  1.00  0.00     0.167 HD
ATOM     71  C   UNL A   1      43.753  27.684  32.337  1.00  0.00     0.074 A 
ATOM     72  C   UNL A   1      44.724  26.836  31.676  1.00  0.00     0.031 C 
ATOM     73  C   UNL A   1      43.848  28.082  33.632  1.00  0.00     0.034 A 
BRANCH  60  74
ATOM     74  C   UNL A   1      39.190  31.735  35.500  1.00  0.00     0.023 A 
ATOM     75  C   UNL A   1      38.587  31.146  36.626  1.00  0.00     0.031 A 
ATOM     76  C   UNL A   1      39.149  33.136  35.387  1.00  0.00     0.131 A 
ATOM     77  C   UNL A   1      37.907  31.948  37.555  1.00  0.00     0.055 A 
ATOM     78  C   UNL A   1      38.545  33.935  36.359  1.00  0.00     0.041 A 
ATOM     79  F   UNL A   1      39.679  33.752  34.319  1.00  0.00    -0.206 F 
ATOM     80  C   UNL A   1      37.906  33.341  37.444  1.00  0.00     0.022 A 
BRANCH  77  81
ATOM     81  S   UNL A   1      36.898  31.139  38.826  1.00  0.00     0.124 S 
ATOM     82  O   UNL A   1      37.780  31.204  39.989  1.00  0.00    -0.237 OA
ATOM     83  O   UNL A   1      35.712  31.986  38.875  1.00  0.00    -0.237 OA
ATOM     84  O   UNL A   1      36.685  29.796  38.291  1.00  0.00    -0.744 OA
ENDBRANCH  77  81
ENDBRANCH  60  74
BRANCH  61  85
ATOM     85  C   UNL A   1      43.037  26.537  27.813  1.00  0.00     0.023 A 
ATOM     86  C   UNL A   1      42.770  25.175  27.599  1.00  0.00     0.031 A 
ATOM     87  C   UNL A   1      43.961  27.167  26.961  1.00  0.00     0.131 A 
ATOM     88  C   UNL A   1      43.455  24.477  26.590  1.00  0.00     0.055 A 
ATOM     89  C   UNL A   1      44.596  26.483  25.922  1.00  0.00     0.041 A 
ATOM     90  F   UNL A   1      44.262  28.465  27.125  1.00  0.00    -0.206 F 
ATOM     91  C   UNL A   1      44.355  25.125  25.741  1.00  0.00     0.022 A 
BRANCH  88  92
ATOM     92  S   UNL A   1      43.225  22.681  26.464  1.00  0.00     0.124 S 
ATOM     93  O   UNL A   1      44.603  22.206  26.453  1.00  0.00    -0.237 OA
ATOM     94  O   UNL A   1      42.453  22.390  27.668  1.00  0.00    -0.237 OA
ATOM     95  O   UNL A   1      42.497  22.519  25.207  1.00  0.00    -0.744 OA
ENDBRANCH  88  92
ENDBRANCH  61  85
BRANCH  73  96
ATOM     96  C   UNL A   1      45.013  27.554  34.435  1.00  0.00     0.023 A 
ATOM     97  C   UNL A   1      44.918  26.381  35.204  1.00  0.00     0.031 A 
ATOM     98  C   UNL A   1      46.243  28.239  34.423  1.00  0.00     0.131 A 
ATOM     99  C   UNL A   1      46.015  25.960  35.972  1.00  0.00     0.055 A 
ATOM    100  C   UNL A   1      47.350  27.777  35.135  1.00  0.00     0.041 A 
ATOM    101  F   UNL A   1      46.391  29.365  33.708  1.00  0.00    -0.206 F 
ATOM    102  C   UNL A   1      47.235  26.638  35.926  1.00  0.00     0.022 A 
BRANCH  99 103
ATOM    103  S   UNL A   1      45.796  24.563  37.110  1.00  0.00     0.124 S 
ATOM    104  O   UNL A   1      44.565  24.928  37.804  1.00  0.00    -0.237 OA
ATOM    105  O   UNL A   1      45.703  23.429  36.197  1.00  0.00    -0.237 OA
ATOM    106  O   UNL A   1      47.005  24.599  37.931  1.00  0.00    -0.744 OA
ENDBRANCH  99 103
ENDBRANCH  73  96
ENDBRANCH  47  48
ENDBRANCH  40  42
ENDBRANCH  39  40
ENDBRANCH  38  39
ENDBRANCH  37  38
ENDBRANCH  36  37
ENDBRANCH  35  36
ENDBRANCH  34  35
ENDBRANCH  33  34
ENDBRANCH   1  33
TORSDOF 28
ENDMDL
MODEL 3
REMARK VINA RESULT:      -8.6      5.972     11.923
REMARK SMILES O=C(COc1ccccc1[C@@H]1[NH2+]CCc2cc(O)c(O)cc21)OCCOCCOCCOCCOC(=O)c1ccc(-c2c3nc(c(-c4cc(S(=O)(=O)[O-])ccc4F)c4ccc([nH]4)c(-c4cc(S(=O)(=O)[O-])ccc4F)c4nc(c(-c5cc(S(=O)(=O)[O-])ccc5F)c5ccc2[nH]5)C=C4)C=C3)cc1
REMARK SMILES IDX 28 1 27 2 26 3 25 4 24 5 23 6 2 7 1 8 3 9 4 10 5 11 6 12
REMARK SMILES IDX 10 13 7 14 9 15 8 16 11 17 12 18 22 19 13 20 15 23 21 24
REMARK SMILES IDX 14 25 16 26 19 27 17 28 20 29 18 31 29 33 30 34 31 35 32 36
REMARK SMILES IDX 33 37 34 38 35 39 36 40 37 41 38 42 39 43 100 44 40 45 99 46
REMARK SMILES IDX 41 47 42 48 43 49 93 50 44 51 98 52 92 53 94 54 45 55 97 56
REMARK SMILES IDX 91 57 90 58 46 60 78 61 58 62 77 63 59 64 62 65 76 66 95 67
REMARK SMILES IDX 60 68 61 69 75 71 96 72 63 73 47 74 48 75 56 76 49 77 55 78
REMARK SMILES IDX 57 79 54 80 50 81 51 82 52 83 53 84 79 85 80 86 88 87 81 88
REMARK SMILES IDX 87 89 89 90 86 91 82 92 83 93 84 94 85 95 64 96 65 97 73 98
REMARK SMILES IDX 66 99 72 100 74 101 71 102 67 103 68 104 69 105 70 106
REMARK H PARENT 12 21 12 22 20 30 18 32 94 59 62 70
REMARK Flexibility Score: inf
ROOT
ATOM      1  C   UNL A   1      46.008  19.394  25.374  1.00  0.00     0.188 C 
ENDROOT
BRANCH   1   2
ATOM      2  C   UNL A   1      46.166  20.754  24.643  1.00  0.00     0.188 C 
BRANCH   2   3
ATOM      3  O   UNL A   1      45.578  22.039  24.876  1.00  0.00    -0.376 OA
BRANCH   3   4
ATOM      4  C   UNL A   1      45.935  23.179  25.644  1.00  0.00     0.202 C 
BRANCH   4   5
ATOM      5  C   UNL A   1      45.507  24.594  25.240  1.00  0.00     0.261 C 
BRANCH   5   6
ATOM      6  O   UNL A   1      46.566  25.347  24.679  1.00  0.00    -0.461 OA
BRANCH   6   7
ATOM      7  C   UNL A   1      46.415  26.684  24.574  1.00  0.00     0.344 C 
ATOM      8  O   UNL A   1      45.344  27.157  24.943  1.00  0.00    -0.248 OA
BRANCH   7   9
ATOM      9  C   UNL A   1      47.590  27.501  23.979  1.00  0.00     0.351 C 
BRANCH   9  10
ATOM     10  O   UNL A   1      48.669  26.821  23.429  1.00  0.00    -0.481 OA
BRANCH  10  11
ATOM     11  C   UNL A   1      49.954  27.254  23.508  1.00  0.00     0.129 A 
ATOM     12  C   UNL A   1      50.467  26.752  24.721  1.00  0.00     0.047 A 
ATOM     13  C   UNL A   1      50.716  28.147  22.718  1.00  0.00     0.056 A 
ATOM     14  C   UNL A   1      51.634  27.242  25.272  1.00  0.00     0.004 A 
ATOM     15  C   UNL A   1      51.860  28.687  23.351  1.00  0.00     0.014 A 
ATOM     16  C   UNL A   1      52.298  28.259  24.611  1.00  0.00     0.001 A 
BRANCH  13  17
ATOM     17  C   UNL A   1      50.339  28.704  21.341  1.00  0.00     0.249 C 
ATOM     18  N   UNL A   1      49.438  27.840  20.552  1.00  0.00    -0.336 N 
ATOM     19  C   UNL A   1      51.401  29.163  20.332  1.00  0.00     0.021 A 
ATOM     20  C   UNL A   1      50.073  26.683  19.912  1.00  0.00     0.266 C 
ATOM     21  H   UNL A   1      49.015  28.411  19.821  1.00  0.00     0.347 HD
ATOM     22  H   UNL A   1      48.765  27.457  21.216  1.00  0.00     0.347 HD
ATOM     23  C   UNL A   1      51.986  28.174  19.504  1.00  0.00    -0.029 A 
ATOM     24  C   UNL A   1      51.525  30.520  19.994  1.00  0.00     0.060 A 
ATOM     25  C   UNL A   1      51.601  26.748  19.790  1.00  0.00     0.097 C 
ATOM     26  C   UNL A   1      52.700  28.535  18.361  1.00  0.00     0.054 A 
ATOM     27  C   UNL A   1      52.191  30.861  18.824  1.00  0.00     0.157 A 
ATOM     28  C   UNL A   1      52.773  29.878  18.022  1.00  0.00     0.157 A 
BRANCH  27  29
ATOM     29  O   UNL A   1      52.229  32.153  18.370  1.00  0.00    -0.504 OA
ATOM     30  H   UNL A   1      52.711  32.363  17.594  1.00  0.00     0.293 HD
ENDBRANCH  27  29
BRANCH  28  31
ATOM     31  O   UNL A   1      53.352  30.231  16.835  1.00  0.00    -0.504 OA
ATOM     32  H   UNL A   1      53.624  31.116  16.692  1.00  0.00     0.293 HD
ENDBRANCH  28  31
ENDBRANCH  13  17
ENDBRANCH  10  11
ENDBRANCH   9  10
ENDBRANCH   7   9
ENDBRANCH   6   7
ENDBRANCH   5   6
ENDBRANCH   4   5
ENDBRANCH   3   4
ENDBRANCH   2   3
ENDBRANCH   1   2
BRANCH   1  33
ATOM     33  O   UNL A   1      45.048  18.434  24.977  1.00  0.00    -0.377 OA
BRANCH  33  34
ATOM     34  C   UNL A   1      43.719  18.901  25.059  1.00  0.00     0.188 C 
BRANCH  34  35
ATOM     35  C   UNL A   1      42.969  18.195  26.208  1.00  0.00     0.188 C 
BRANCH  35  36
ATOM     36  O   UNL A   1      42.074  19.063  26.884  1.00  0.00    -0.376 OA
BRANCH  36  37
ATOM     37  C   UNL A   1      40.903  19.494  26.207  1.00  0.00     0.202 C 
BRANCH  37  38
ATOM     38  C   UNL A   1      40.308  20.908  26.379  1.00  0.00     0.261 C 
BRANCH  38  39
ATOM     39  O   UNL A   1      41.091  21.907  27.048  1.00  0.00    -0.460 OA
BRANCH  39  40
ATOM     40  C   UNL A   1      41.985  22.623  26.321  1.00  0.00     0.338 C 
ATOM     41  O   UNL A   1      42.479  22.310  25.272  1.00  0.00    -0.246 OA
BRANCH  40  42
ATOM     42  C   UNL A   1      42.010  23.985  26.934  1.00  0.00     0.060 A 
ATOM     43  C   UNL A   1      41.732  25.097  26.120  1.00  0.00     0.016 A 
ATOM     44  C   UNL A   1      42.187  24.151  28.310  1.00  0.00     0.016 A 
ATOM     45  C   UNL A   1      41.651  26.373  26.676  1.00  0.00     0.010 A 
ATOM     46  C   UNL A   1      42.161  25.435  28.859  1.00  0.00     0.010 A 
ATOM     47  C   UNL A   1      41.928  26.553  28.038  1.00  0.00    -0.014 A 
BRANCH  47  48
ATOM     48  C   UNL A   1      42.303  27.905  28.518  1.00  0.00     0.031 A 
ATOM     49  C   UNL A   1      41.176  28.797  28.968  1.00  0.00     0.074 A 
ATOM     50  C   UNL A   1      43.579  28.324  28.579  1.00  0.00     0.049 A 
ATOM     51  N   UNL A   1      41.202  30.039  29.369  1.00  0.00    -0.248 NA
ATOM     52  C   UNL A   1      39.832  28.195  28.956  1.00  0.00     0.031 C 
ATOM     53  C   UNL A   1      44.753  27.527  28.234  1.00  0.00     0.029 A 
ATOM     54  N   UNL A   1      44.094  29.541  28.954  1.00  0.00    -0.354 N 
ATOM     55  C   UNL A   1      39.882  30.367  29.655  1.00  0.00     0.074 A 
ATOM     56  C   UNL A   1      39.077  29.206  29.348  1.00  0.00     0.031 C 
ATOM     57  C   UNL A   1      45.855  28.283  28.397  1.00  0.00     0.029 A 
ATOM     58  C   UNL A   1      45.460  29.629  28.817  1.00  0.00     0.049 A 
ATOM     59  H   UNL A   1      43.538  30.281  29.288  1.00  0.00     0.167 HD
ATOM     60  C   UNL A   1      39.383  31.531  30.135  1.00  0.00     0.034 A 
ATOM     61  C   UNL A   1      46.284  30.684  28.982  1.00  0.00     0.034 A 
ATOM     62  C   UNL A   1      40.195  32.688  30.406  1.00  0.00     0.049 A 
ATOM     63  C   UNL A   1      45.692  32.012  29.409  1.00  0.00     0.074 A 
ATOM     64  C   UNL A   1      39.802  33.924  30.884  1.00  0.00     0.029 A 
ATOM     65  N   UNL A   1      41.568  32.756  30.201  1.00  0.00    -0.354 N 
ATOM     66  N   UNL A   1      44.442  32.314  29.676  1.00  0.00    -0.248 NA
ATOM     67  C   UNL A   1      46.625  33.136  29.559  1.00  0.00     0.031 C 
ATOM     68  C   UNL A   1      40.921  34.763  30.894  1.00  0.00     0.029 A 
ATOM     69  C   UNL A   1      42.031  34.026  30.510  1.00  0.00     0.049 A 
ATOM     70  H   UNL A   1      42.130  32.014  29.882  1.00  0.00     0.167 HD
ATOM     71  C   UNL A   1      44.446  33.654  30.062  1.00  0.00     0.074 A 
ATOM     72  C   UNL A   1      45.825  34.096  30.003  1.00  0.00     0.031 C 
ATOM     73  C   UNL A   1      43.410  34.448  30.439  1.00  0.00     0.034 A 
BRANCH  60  74
ATOM     74  C   UNL A   1      37.889  31.613  30.325  1.00  0.00     0.023 A 
ATOM     75  C   UNL A   1      37.031  32.024  29.289  1.00  0.00     0.031 A 
ATOM     76  C   UNL A   1      37.319  31.326  31.578  1.00  0.00     0.131 A 
ATOM     77  C   UNL A   1      35.663  32.206  29.544  1.00  0.00     0.055 A 
ATOM     78  C   UNL A   1      35.945  31.428  31.802  1.00  0.00     0.041 A 
ATOM     79  F   UNL A   1      38.092  30.963  32.613  1.00  0.00    -0.206 F 
ATOM     80  C   UNL A   1      35.110  31.883  30.786  1.00  0.00     0.022 A 
BRANCH  77  81
ATOM     81  S   UNL A   1      34.644  33.011  28.278  1.00  0.00     0.124 S 
ATOM     82  O   UNL A   1      34.058  31.861  27.595  1.00  0.00    -0.237 OA
ATOM     83  O   UNL A   1      33.727  33.816  29.077  1.00  0.00    -0.237 OA
ATOM     84  O   UNL A   1      35.613  33.768  27.488  1.00  0.00    -0.744 OA
ENDBRANCH  77  81
ENDBRANCH  60  74
BRANCH  61  85
ATOM     85  C   UNL A   1      47.746  30.565  28.700  1.00  0.00     0.023 A 
ATOM     86  C   UNL A   1      48.662  30.257  29.720  1.00  0.00     0.031 A 
ATOM     87  C   UNL A   1      48.257  30.831  27.417  1.00  0.00     0.131 A 
ATOM     88  C   UNL A   1      50.041  30.270  29.450  1.00  0.00     0.055 A 
ATOM     89  C   UNL A   1      49.626  30.786  27.141  1.00  0.00     0.041 A 
ATOM     90  F   UNL A   1      47.429  31.140  26.406  1.00  0.00    -0.206 F 
ATOM     91  C   UNL A   1      50.528  30.517  28.164  1.00  0.00     0.022 A 
BRANCH  88  92
ATOM     92  S   UNL A   1      51.199  30.052  30.830  1.00  0.00     0.124 S 
ATOM     93  O   UNL A   1      50.371  30.419  31.973  1.00  0.00    -0.237 OA
ATOM     94  O   UNL A   1      51.544  28.638  30.715  1.00  0.00    -0.237 OA
ATOM     95  O   UNL A   1      52.282  30.982  30.517  1.00  0.00    -0.744 OA
ENDBRANCH  88  92
ENDBRANCH  61  85
BRANCH  73  96
ATOM     96  C   UNL A   1      43.738  35.857  30.871  1.00  0.00     0.023 A 
ATOM     97  C   UNL A   1      43.854  36.912  29.949  1.00  0.00     0.031 A 
ATOM     98  C   UNL A   1      43.929  36.148  32.235  1.00  0.00     0.131 A 
ATOM     99  C   UNL A   1      44.209  38.194  30.396  1.00  0.00     0.055 A 
ATOM    100  C   UNL A   1      44.216  37.439  32.680  1.00  0.00     0.041 A 
ATOM    101  F   UNL A   1      43.831  35.180  33.160  1.00  0.00    -0.206 F 
ATOM    102  C   UNL A   1      44.370  38.469  31.756  1.00  0.00     0.022 A 
BRANCH  99 103
ATOM    103  S   UNL A   1      44.554  39.482  29.165  1.00  0.00     0.124 S 
ATOM    104  O   UNL A   1      45.963  39.247  28.868  1.00  0.00    -0.237 OA
ATOM    105  O   UNL A   1      43.613  39.154  28.099  1.00  0.00    -0.237 OA
ATOM    106  O   UNL A   1      44.270  40.724  29.881  1.00  0.00    -0.744 OA
ENDBRANCH  99 103
ENDBRANCH  73  96
ENDBRANCH  47  48
ENDBRANCH  40  42
ENDBRANCH  39  40
ENDBRANCH  38  39
ENDBRANCH  37  38
ENDBRANCH  36  37
ENDBRANCH  35  36
ENDBRANCH  34  35
ENDBRANCH  33  34
ENDBRANCH   1  33
TORSDOF 28
ENDMDL
