MODEL 1
REMARK VINA RESULT:     -10.4      0.000      0.000
REMARK SMILES O=C(OCCOCCOCCOCCOC(=O)[C@H]1[C@H]2CC[C@H](CC2)[C@H]1C(=O)Nc1ccc(C(=O)N2CCCC2)cc1)c1ccc(-c2c3nc(c(-c4cc(S(=O)(=O)[O-])ccc4F)c4ccc([nH]4)c(-c4cc(S(=O)(=O)[O-])ccc4F)c4nc(c(-c5cc(S(=O)(=O)[O-])ccc5F)c5ccc2[nH]5)C=C4)C=C3)cc1
REMARK SMILES IDX 9 1 8 2 7 3 6 4 5 5 4 6 3 7 2 8 1 9 42 10 43 11 104 12 44 13
REMARK SMILES IDX 103 14 45 15 46 16 47 17 97 18 48 19 102 20 96 21 98 22
REMARK SMILES IDX 49 23 101 24 95 25 94 26 50 28 82 29 62 30 81 31 63 32 66 33
REMARK SMILES IDX 80 34 99 35 64 36 65 37 79 39 100 40 67 41 51 42 52 43 60 44
REMARK SMILES IDX 53 45 59 46 61 47 58 48 54 49 55 50 56 51 57 52 83 53 84 54
REMARK SMILES IDX 92 55 85 56 91 57 93 58 90 59 86 60 87 61 88 62 89 63 68 64
REMARK SMILES IDX 69 65 77 66 70 67 76 68 78 69 75 70 71 71 72 72 73 73 74 74
REMARK SMILES IDX 10 75 11 76 12 77 13 78 14 79 15 80 16 81 17 82 18 83 19 84
REMARK SMILES IDX 25 85 24 86 20 87 22 88 23 89 21 90 26 91 27 92 28 93 29 95
REMARK SMILES IDX 30 96 41 97 31 98 40 99 32 100 33 101 34 102 35 103 36 104
REMARK SMILES IDX 39 105 37 106 38 107
REMARK H PARENT 98 27 66 38 28 94
REMARK Flexibility Score: inf
ROOT
ATOM      1  O   UNL A   1      34.607  34.300  28.259  1.00  0.00    -0.377 OA
ENDROOT
BRANCH   1   2
ATOM      2  C   UNL A   1      33.360  34.468  28.926  1.00  0.00     0.188 C 
BRANCH   2   3
ATOM      3  C   UNL A   1      32.937  35.914  29.063  1.00  0.00     0.188 C 
BRANCH   3   4
ATOM      4  O   UNL A   1      33.392  36.428  30.303  1.00  0.00    -0.376 OA
BRANCH   4   5
ATOM      5  C   UNL A   1      32.449  36.497  31.361  1.00  0.00     0.202 C 
BRANCH   5   6
ATOM      6  C   UNL A   1      32.731  35.591  32.554  1.00  0.00     0.261 C 
BRANCH   6   7
ATOM      7  O   UNL A   1      34.050  35.023  32.586  1.00  0.00    -0.460 OA
BRANCH   7   8
ATOM      8  C   UNL A   1      34.454  33.732  32.548  1.00  0.00     0.338 C 
ATOM      9  O   UNL A   1      33.643  32.881  32.923  1.00  0.00    -0.246 OA
BRANCH   8  10
ATOM     10  C   UNL A   1      35.833  33.250  32.205  1.00  0.00     0.060 A 
ATOM     11  C   UNL A   1      36.521  32.219  32.843  1.00  0.00     0.016 A 
ATOM     12  C   UNL A   1      36.431  33.812  31.063  1.00  0.00     0.016 A 
ATOM     13  C   UNL A   1      37.703  31.695  32.345  1.00  0.00     0.010 A 
ATOM     14  C   UNL A   1      37.669  33.358  30.597  1.00  0.00     0.010 A 
ATOM     15  C   UNL A   1      38.305  32.299  31.251  1.00  0.00    -0.014 A 
BRANCH  15  16
ATOM     16  C   UNL A   1      39.733  32.014  31.063  1.00  0.00     0.031 A 
ATOM     17  C   UNL A   1      40.686  32.934  31.760  1.00  0.00     0.074 A 
ATOM     18  C   UNL A   1      40.131  30.885  30.459  1.00  0.00     0.049 A 
ATOM     19  N   UNL A   1      41.983  33.007  31.684  1.00  0.00    -0.248 NA
ATOM     20  C   UNL A   1      40.079  33.903  32.689  1.00  0.00     0.031 C 
ATOM     21  C   UNL A   1      39.238  29.839  29.955  1.00  0.00     0.029 A 
ATOM     22  N   UNL A   1      41.387  30.424  30.177  1.00  0.00    -0.354 N 
ATOM     23  C   UNL A   1      42.343  34.060  32.518  1.00  0.00     0.074 A 
ATOM     24  C   UNL A   1      41.130  34.589  33.095  1.00  0.00     0.031 C 
ATOM     25  C   UNL A   1      39.980  28.870  29.395  1.00  0.00     0.029 A 
ATOM     26  C   UNL A   1      41.382  29.273  29.427  1.00  0.00     0.049 A 
ATOM     27  H   UNL A   1      42.210  30.871  30.480  1.00  0.00     0.167 HD
ATOM     28  C   UNL A   1      43.584  34.546  32.747  1.00  0.00     0.034 A 
ATOM     29  C   UNL A   1      42.401  28.677  28.776  1.00  0.00     0.034 A 
ATOM     30  C   UNL A   1      44.743  33.984  32.102  1.00  0.00     0.049 A 
ATOM     31  C   UNL A   1      43.762  29.316  28.908  1.00  0.00     0.074 A 
ATOM     32  C   UNL A   1      46.054  34.409  32.138  1.00  0.00     0.029 A 
ATOM     33  N   UNL A   1      44.704  32.861  31.275  1.00  0.00    -0.354 N 
ATOM     34  N   UNL A   1      44.105  30.383  29.600  1.00  0.00    -0.248 NA
ATOM     35  C   UNL A   1      44.865  28.694  28.174  1.00  0.00     0.031 C 
ATOM     36  C   UNL A   1      46.790  33.595  31.268  1.00  0.00     0.029 A 
ATOM     37  C   UNL A   1      45.960  32.599  30.764  1.00  0.00     0.049 A 
ATOM     38  H   UNL A   1      43.897  32.331  31.083  1.00  0.00     0.167 HD
ATOM     39  C   UNL A   1      45.470  30.548  29.401  1.00  0.00     0.074 A 
ATOM     40  C   UNL A   1      45.885  29.464  28.528  1.00  0.00     0.031 C 
ATOM     41  C   UNL A   1      46.310  31.498  29.894  1.00  0.00     0.034 A 
BRANCH  28  42
ATOM     42  C   UNL A   1      43.675  35.802  33.581  1.00  0.00     0.023 A 
ATOM     43  C   UNL A   1      43.545  37.087  33.019  1.00  0.00     0.031 A 
ATOM     44  C   UNL A   1      44.071  35.716  34.927  1.00  0.00     0.131 A 
ATOM     45  C   UNL A   1      43.929  38.217  33.759  1.00  0.00     0.055 A 
ATOM     46  C   UNL A   1      44.352  36.852  35.690  1.00  0.00     0.041 A 
ATOM     47  F   UNL A   1      44.253  34.521  35.512  1.00  0.00    -0.206 F 
ATOM     48  C   UNL A   1      44.307  38.110  35.099  1.00  0.00     0.022 A 
BRANCH  45  49
ATOM     49  S   UNL A   1      44.151  39.794  32.882  1.00  0.00     0.124 S 
ATOM     50  O   UNL A   1      42.767  40.186  32.624  1.00  0.00    -0.237 OA
ATOM     51  O   UNL A   1      44.870  40.601  33.860  1.00  0.00    -0.237 OA
ATOM     52  O   UNL A   1      44.916  39.422  31.694  1.00  0.00    -0.744 OA
ENDBRANCH  45  49
ENDBRANCH  28  42
BRANCH  29  53
ATOM     53  C   UNL A   1      42.138  27.518  27.875  1.00  0.00     0.023 A 
ATOM     54  C   UNL A   1      42.480  26.205  28.232  1.00  0.00     0.031 A 
ATOM     55  C   UNL A   1      41.528  27.716  26.619  1.00  0.00     0.131 A 
ATOM     56  C   UNL A   1      42.224  25.148  27.340  1.00  0.00     0.055 A 
ATOM     57  C   UNL A   1      41.230  26.658  25.759  1.00  0.00     0.041 A 
ATOM     58  F   UNL A   1      41.185  28.951  26.218  1.00  0.00    -0.206 F 
ATOM     59  C   UNL A   1      41.586  25.363  26.115  1.00  0.00     0.022 A 
BRANCH  56  60
ATOM     60  S   UNL A   1      42.793  23.480  27.773  1.00  0.00     0.124 S 
ATOM     61  O   UNL A   1      42.080  23.239  29.023  1.00  0.00    -0.237 OA
ATOM     62  O   UNL A   1      42.350  22.702  26.621  1.00  0.00    -0.237 OA
ATOM     63  O   UNL A   1      44.240  23.634  27.900  1.00  0.00    -0.744 OA
ENDBRANCH  56  60
ENDBRANCH  29  53
BRANCH  41  64
ATOM     64  C   UNL A   1      47.767  31.361  29.542  1.00  0.00     0.023 A 
ATOM     65  C   UNL A   1      48.324  32.016  28.433  1.00  0.00     0.031 A 
ATOM     66  C   UNL A   1      48.613  30.607  30.373  1.00  0.00     0.131 A 
ATOM     67  C   UNL A   1      49.692  31.878  28.167  1.00  0.00     0.055 A 
ATOM     68  C   UNL A   1      49.984  30.526  30.140  1.00  0.00     0.041 A 
ATOM     69  F   UNL A   1      48.122  29.964  31.446  1.00  0.00    -0.206 F 
ATOM     70  C   UNL A   1      50.529  31.158  29.026  1.00  0.00     0.022 A 
BRANCH  67  71
ATOM     71  S   UNL A   1      50.359  32.601  26.645  1.00  0.00     0.124 S 
ATOM     72  O   UNL A   1      51.346  33.542  27.165  1.00  0.00    -0.237 OA
ATOM     73  O   UNL A   1      50.893  31.434  25.951  1.00  0.00    -0.237 OA
ATOM     74  O   UNL A   1      49.190  33.215  26.017  1.00  0.00    -0.744 OA
ENDBRANCH  67  71
ENDBRANCH  41  64
ENDBRANCH  15  16
ENDBRANCH   8  10
ENDBRANCH   7   8
ENDBRANCH   6   7
ENDBRANCH   5   6
ENDBRANCH   4   5
ENDBRANCH   3   4
ENDBRANCH   2   3
ENDBRANCH   1   2
BRANCH   1  75
ATOM     75  C   UNL A   1      35.018  32.964  27.947  1.00  0.00     0.188 C 
BRANCH  75  76
ATOM     76  C   UNL A   1      33.972  31.831  27.856  1.00  0.00     0.188 C 
BRANCH  76  77
ATOM     77  O   UNL A   1      34.520  30.530  27.963  1.00  0.00    -0.376 OA
BRANCH  77  78
ATOM     78  C   UNL A   1      33.813  29.500  27.288  1.00  0.00     0.202 C 
BRANCH  78  79
ATOM     79  C   UNL A   1      32.345  29.749  26.894  1.00  0.00     0.261 C 
BRANCH  79  80
ATOM     80  O   UNL A   1      31.426  28.676  27.163  1.00  0.00    -0.463 OA
BRANCH  80  81
ATOM     81  C   UNL A   1      31.511  27.530  26.478  1.00  0.00     0.310 C 
ATOM     82  O   UNL A   1      31.560  26.431  27.036  1.00  0.00    -0.252 OA
BRANCH  81  83
ATOM     83  C   UNL A   1      31.587  27.627  24.923  1.00  0.00     0.115 C 
ATOM     84  C   UNL A   1      31.733  28.788  23.833  1.00  0.00     0.004 C 
ATOM     85  C   UNL A   1      32.364  26.427  24.420  1.00  0.00     0.096 C 
ATOM     86  C   UNL A   1      33.048  28.895  22.977  1.00  0.00     0.005 C 
ATOM     87  C   UNL A   1      30.731  28.380  22.719  1.00  0.00     0.005 C 
ATOM     88  C   UNL A   1      32.498  26.500  22.874  1.00  0.00     0.002 C 
ATOM     89  C   UNL A   1      33.555  27.533  22.519  1.00  0.00     0.005 C 
ATOM     90  C   UNL A   1      31.154  26.979  22.212  1.00  0.00     0.005 C 
BRANCH  85  91
ATOM     91  C   UNL A   1      33.619  26.008  25.234  1.00  0.00     0.228 C 
ATOM     92  O   UNL A   1      34.305  26.942  25.693  1.00  0.00    -0.274 OA
ATOM     93  N   UNL A   1      34.048  24.775  25.637  1.00  0.00    -0.326 N 
ATOM     94  H   UNL A   1      34.829  24.864  26.231  1.00  0.00     0.169 HD
BRANCH  93  95
ATOM     95  C   UNL A   1      33.720  23.413  25.468  1.00  0.00     0.041 A 
ATOM     96  C   UNL A   1      32.390  23.010  25.623  1.00  0.00     0.027 A 
ATOM     97  C   UNL A   1      34.597  22.420  25.107  1.00  0.00     0.027 A 
ATOM     98  C   UNL A   1      31.959  21.733  25.175  1.00  0.00     0.016 A 
ATOM     99  C   UNL A   1      34.198  21.148  24.695  1.00  0.00     0.016 A 
ATOM    100  C   UNL A   1      32.865  20.813  24.630  1.00  0.00     0.040 A 
BRANCH 100 101
ATOM    101  C   UNL A   1      32.421  19.730  23.688  1.00  0.00     0.253 C 
ATOM    102  O   UNL A   1      32.057  20.063  22.561  1.00  0.00    -0.269 OA
ATOM    103  N   UNL A   1      32.699  18.404  23.999  1.00  0.00    -0.339 N 
ATOM    104  C   UNL A   1      32.430  17.669  25.225  1.00  0.00     0.120 C 
ATOM    105  C   UNL A   1      33.435  17.571  23.065  1.00  0.00     0.120 C 
ATOM    106  C   UNL A   1      33.623  16.729  25.326  1.00  0.00     0.023 C 
ATOM    107  C   UNL A   1      33.865  16.340  23.868  1.00  0.00     0.023 C 
ENDBRANCH 100 101
ENDBRANCH  93  95
ENDBRANCH  85  91
ENDBRANCH  81  83
ENDBRANCH  80  81
ENDBRANCH  79  80
ENDBRANCH  78  79
ENDBRANCH  77  78
ENDBRANCH  76  77
ENDBRANCH  75  76
ENDBRANCH   1  75
TORSDOF 26
ENDMDL
MODEL 2
REMARK VINA RESULT:     -10.1      3.739      4.064
REMARK SMILES O=C(OCCOCCOCCOCCOC(=O)[C@H]1[C@H]2CC[C@H](CC2)[C@H]1C(=O)Nc1ccc(C(=O)N2CCCC2)cc1)c1ccc(-c2c3nc(c(-c4cc(S(=O)(=O)[O-])ccc4F)c4ccc([nH]4)c(-c4cc(S(=O)(=O)[O-])ccc4F)c4nc(c(-c5cc(S(=O)(=O)[O-])ccc5F)c5ccc2[nH]5)C=C4)C=C3)cc1
REMARK SMILES IDX 9 1 8 2 7 3 6 4 5 5 4 6 3 7 2 8 1 9 42 10 43 11 104 12 44 13
REMARK SMILES IDX 103 14 45 15 46 16 47 17 97 18 48 19 102 20 96 21 98 22
REMARK SMILES IDX 49 23 101 24 95 25 94 26 50 28 82 29 62 30 81 31 63 32 66 33
REMARK SMILES IDX 80 34 99 35 64 36 65 37 79 39 100 40 67 41 51 42 52 43 60 44
REMARK SMILES IDX 53 45 59 46 61 47 58 48 54 49 55 50 56 51 57 52 83 53 84 54
REMARK SMILES IDX 92 55 85 56 91 57 93 58 90 59 86 60 87 61 88 62 89 63 68 64
REMARK SMILES IDX 69 65 77 66 70 67 76 68 78 69 75 70 71 71 72 72 73 73 74 74
REMARK SMILES IDX 10 75 11 76 12 77 13 78 14 79 15 80 16 81 17 82 18 83 19 84
REMARK SMILES IDX 25 85 24 86 20 87 22 88 23 89 21 90 26 91 27 92 28 93 29 95
REMARK SMILES IDX 30 96 41 97 31 98 40 99 32 100 33 101 34 102 35 103 36 104
REMARK SMILES IDX 39 105 37 106 38 107
REMARK H PARENT 98 27 66 38 28 94
REMARK Flexibility Score: inf
ROOT
ATOM      1  O   UNL A   1      35.672  32.784  28.686  1.00  0.00    -0.377 OA
ENDROOT
BRANCH   1   2
ATOM      2  C   UNL A   1      34.331  33.253  28.789  1.00  0.00     0.188 C 
BRANCH   2   3
ATOM      3  C   UNL A   1      34.071  34.518  28.002  1.00  0.00     0.188 C 
BRANCH   3   4
ATOM      4  O   UNL A   1      34.239  35.646  28.843  1.00  0.00    -0.376 OA
BRANCH   4   5
ATOM      5  C   UNL A   1      33.064  36.260  29.348  1.00  0.00     0.202 C 
BRANCH   5   6
ATOM      6  C   UNL A   1      32.851  36.137  30.853  1.00  0.00     0.261 C 
BRANCH   6   7
ATOM      7  O   UNL A   1      33.982  35.641  31.587  1.00  0.00    -0.460 OA
BRANCH   7   8
ATOM      8  C   UNL A   1      34.162  34.469  32.240  1.00  0.00     0.338 C 
ATOM      9  O   UNL A   1      33.262  34.111  33.003  1.00  0.00    -0.246 OA
BRANCH   8  10
ATOM     10  C   UNL A   1      35.403  33.627  32.211  1.00  0.00     0.060 A 
ATOM     11  C   UNL A   1      35.492  32.288  32.590  1.00  0.00     0.016 A 
ATOM     12  C   UNL A   1      36.548  34.209  31.638  1.00  0.00     0.016 A 
ATOM     13  C   UNL A   1      36.618  31.519  32.347  1.00  0.00     0.010 A 
ATOM     14  C   UNL A   1      37.726  33.474  31.467  1.00  0.00     0.010 A 
ATOM     15  C   UNL A   1      37.754  32.125  31.833  1.00  0.00    -0.014 A 
BRANCH  15  16
ATOM     16  C   UNL A   1      39.016  31.400  32.029  1.00  0.00     0.031 A 
ATOM     17  C   UNL A   1      39.792  31.748  33.261  1.00  0.00     0.074 A 
ATOM     18  C   UNL A   1      39.338  30.363  31.244  1.00  0.00     0.049 A 
ATOM     19  N   UNL A   1      40.979  31.371  33.636  1.00  0.00    -0.248 NA
ATOM     20  C   UNL A   1      39.113  32.645  34.214  1.00  0.00     0.031 C 
ATOM     21  C   UNL A   1      38.506  29.837  30.159  1.00  0.00     0.029 A 
ATOM     22  N   UNL A   1      40.444  29.559  31.242  1.00  0.00    -0.354 N 
ATOM     23  C   UNL A   1      41.209  32.021  34.843  1.00  0.00     0.074 A 
ATOM     24  C   UNL A   1      40.037  32.808  35.142  1.00  0.00     0.031 C 
ATOM     25  C   UNL A   1      39.150  28.814  29.576  1.00  0.00     0.029 A 
ATOM     26  C   UNL A   1      40.467  28.676  30.190  1.00  0.00     0.049 A 
ATOM     27  H   UNL A   1      41.151  29.609  31.925  1.00  0.00     0.167 HD
ATOM     28  C   UNL A   1      42.324  31.973  35.608  1.00  0.00     0.034 A 
ATOM     29  C   UNL A   1      41.483  27.913  29.741  1.00  0.00     0.034 A 
ATOM     30  C   UNL A   1      43.469  31.191  35.221  1.00  0.00     0.049 A 
ATOM     31  C   UNL A   1      42.780  27.984  30.510  1.00  0.00     0.074 A 
ATOM     32  C   UNL A   1      44.710  31.104  35.816  1.00  0.00     0.029 A 
ATOM     33  N   UNL A   1      43.501  30.362  34.099  1.00  0.00    -0.354 N 
ATOM     34  N   UNL A   1      43.058  28.682  31.591  1.00  0.00    -0.248 NA
ATOM     35  C   UNL A   1      43.899  27.185  30.005  1.00  0.00     0.031 C 
ATOM     36  C   UNL A   1      45.515  30.291  35.009  1.00  0.00     0.029 A 
ATOM     37  C   UNL A   1      44.750  29.789  33.962  1.00  0.00     0.049 A 
ATOM     38  H   UNL A   1      42.742  30.208  33.491  1.00  0.00     0.167 HD
ATOM     39  C   UNL A   1      44.379  28.392  31.909  1.00  0.00     0.074 A 
ATOM     40  C   UNL A   1      44.837  27.447  30.905  1.00  0.00     0.031 C 
ATOM     41  C   UNL A   1      45.146  28.851  32.934  1.00  0.00     0.034 A 
BRANCH  28  42
ATOM     42  C   UNL A   1      42.369  32.903  36.798  1.00  0.00     0.023 A 
ATOM     43  C   UNL A   1      41.723  32.598  38.012  1.00  0.00     0.031 A 
ATOM     44  C   UNL A   1      42.918  34.189  36.655  1.00  0.00     0.131 A 
ATOM     45  C   UNL A   1      41.535  33.603  38.976  1.00  0.00     0.055 A 
ATOM     46  C   UNL A   1      42.818  35.152  37.662  1.00  0.00     0.041 A 
ATOM     47  F   UNL A   1      43.511  34.556  35.509  1.00  0.00    -0.206 F 
ATOM     48  C   UNL A   1      42.101  34.870  38.820  1.00  0.00     0.022 A 
BRANCH  45  49
ATOM     49  S   UNL A   1      40.350  33.303  40.321  1.00  0.00     0.124 S 
ATOM     50  O   UNL A   1      40.606  31.898  40.632  1.00  0.00    -0.237 OA
ATOM     51  O   UNL A   1      40.770  34.266  41.333  1.00  0.00    -0.237 OA
ATOM     52  O   UNL A   1      39.053  33.569  39.704  1.00  0.00    -0.744 OA
ENDBRANCH  45  49
ENDBRANCH  28  42
BRANCH  29  53
ATOM     53  C   UNL A   1      41.340  27.147  28.470  1.00  0.00     0.023 A 
ATOM     54  C   UNL A   1      41.177  25.753  28.454  1.00  0.00     0.031 A 
ATOM     55  C   UNL A   1      41.364  27.816  27.228  1.00  0.00     0.131 A 
ATOM     56  C   UNL A   1      41.061  25.076  27.227  1.00  0.00     0.055 A 
ATOM     57  C   UNL A   1      41.196  27.146  26.016  1.00  0.00     0.041 A 
ATOM     58  F   UNL A   1      41.524  29.148  27.177  1.00  0.00    -0.206 F 
ATOM     59  C   UNL A   1      41.052  25.763  26.010  1.00  0.00     0.022 A 
BRANCH  56  60
ATOM     60  S   UNL A   1      40.981  23.263  27.233  1.00  0.00     0.124 S 
ATOM     61  O   UNL A   1      41.565  22.944  28.531  1.00  0.00    -0.237 OA
ATOM     62  O   UNL A   1      39.548  23.024  27.096  1.00  0.00    -0.237 OA
ATOM     63  O   UNL A   1      41.788  22.881  26.075  1.00  0.00    -0.744 OA
ENDBRANCH  56  60
ENDBRANCH  29  53
BRANCH  41  64
ATOM     64  C   UNL A   1      46.536  28.286  33.044  1.00  0.00     0.023 A 
ATOM     65  C   UNL A   1      46.784  27.046  33.654  1.00  0.00     0.031 A 
ATOM     66  C   UNL A   1      47.616  28.981  32.472  1.00  0.00     0.131 A 
ATOM     67  C   UNL A   1      48.093  26.552  33.704  1.00  0.00     0.055 A 
ATOM     68  C   UNL A   1      48.905  28.455  32.469  1.00  0.00     0.041 A 
ATOM     69  F   UNL A   1      47.424  30.171  31.878  1.00  0.00    -0.206 F 
ATOM     70  C   UNL A   1      49.150  27.236  33.096  1.00  0.00     0.022 A 
BRANCH  67  71
ATOM     71  S   UNL A   1      48.411  25.029  34.633  1.00  0.00     0.124 S 
ATOM     72  O   UNL A   1      49.018  25.544  35.857  1.00  0.00    -0.237 OA
ATOM     73  O   UNL A   1      47.075  24.462  34.775  1.00  0.00    -0.237 OA
ATOM     74  O   UNL A   1      49.314  24.279  33.762  1.00  0.00    -0.744 OA
ENDBRANCH  67  71
ENDBRANCH  41  64
ENDBRANCH  15  16
ENDBRANCH   8  10
ENDBRANCH   7   8
ENDBRANCH   6   7
ENDBRANCH   5   6
ENDBRANCH   4   5
ENDBRANCH   3   4
ENDBRANCH   2   3
ENDBRANCH   1   2
BRANCH   1  75
ATOM     75  C   UNL A   1      35.869  31.403  28.359  1.00  0.00     0.188 C 
BRANCH  75  76
ATOM     76  C   UNL A   1      34.653  30.465  28.190  1.00  0.00     0.188 C 
BRANCH  76  77
ATOM     77  O   UNL A   1      34.986  29.168  27.732  1.00  0.00    -0.376 OA
BRANCH  77  78
ATOM     78  C   UNL A   1      33.955  28.466  27.051  1.00  0.00     0.202 C 
BRANCH  78  79
ATOM     79  C   UNL A   1      32.493  28.890  27.286  1.00  0.00     0.261 C 
BRANCH  79  80
ATOM     80  O   UNL A   1      31.539  27.823  27.429  1.00  0.00    -0.463 OA
BRANCH  80  81
ATOM     81  C   UNL A   1      31.508  26.826  26.538  1.00  0.00     0.310 C 
ATOM     82  O   UNL A   1      31.604  25.642  26.872  1.00  0.00    -0.252 OA
BRANCH  81  83
ATOM     83  C   UNL A   1      31.384  27.212  25.033  1.00  0.00     0.115 C 
ATOM     84  C   UNL A   1      31.347  28.560  24.174  1.00  0.00     0.004 C 
ATOM     85  C   UNL A   1      32.134  26.173  24.223  1.00  0.00     0.096 C 
ATOM     86  C   UNL A   1      32.538  28.901  23.205  1.00  0.00     0.005 C 
ATOM     87  C   UNL A   1      30.228  28.304  23.127  1.00  0.00     0.005 C 
ATOM     88  C   UNL A   1      32.069  26.538  22.714  1.00  0.00     0.002 C 
ATOM     89  C   UNL A   1      33.034  27.680  22.441  1.00  0.00     0.005 C 
ATOM     90  C   UNL A   1      30.635  27.049  22.317  1.00  0.00     0.005 C 
BRANCH  85  91
ATOM     91  C   UNL A   1      33.497  25.689  24.790  1.00  0.00     0.228 C 
ATOM     92  O   UNL A   1      34.311  26.584  25.088  1.00  0.00    -0.274 OA
ATOM     93  N   UNL A   1      33.924  24.436  25.130  1.00  0.00    -0.326 N 
ATOM     94  H   UNL A   1      34.809  24.484  25.561  1.00  0.00     0.169 HD
BRANCH  93  95
ATOM     95  C   UNL A   1      33.493  23.094  25.057  1.00  0.00     0.041 A 
ATOM     96  C   UNL A   1      32.150  22.827  24.772  1.00  0.00     0.027 A 
ATOM     97  C   UNL A   1      34.296  21.990  25.194  1.00  0.00     0.027 A 
ATOM     98  C   UNL A   1      31.731  21.525  24.392  1.00  0.00     0.016 A 
ATOM     99  C   UNL A   1      33.895  20.696  24.859  1.00  0.00     0.016 A 
ATOM    100  C   UNL A   1      32.635  20.454  24.361  1.00  0.00     0.040 A 
BRANCH 100 101
ATOM    101  C   UNL A   1      32.403  19.249  23.493  1.00  0.00     0.253 C 
ATOM    102  O   UNL A   1      32.122  19.438  22.310  1.00  0.00    -0.269 OA
ATOM    103  N   UNL A   1      32.783  17.996  23.958  1.00  0.00    -0.339 N 
ATOM    104  C   UNL A   1      32.468  17.346  25.220  1.00  0.00     0.120 C 
ATOM    105  C   UNL A   1      33.692  17.171  23.181  1.00  0.00     0.120 C 
ATOM    106  C   UNL A   1      33.736  16.558  25.522  1.00  0.00     0.023 C 
ATOM    107  C   UNL A   1      34.163  16.072  24.138  1.00  0.00     0.023 C 
ENDBRANCH 100 101
ENDBRANCH  93  95
ENDBRANCH  85  91
ENDBRANCH  81  83
ENDBRANCH  80  81
ENDBRANCH  79  80
ENDBRANCH  78  79
ENDBRANCH  77  78
ENDBRANCH  76  77
ENDBRANCH  75  76
ENDBRANCH   1  75
TORSDOF 26
ENDMDL
MODEL 3
REMARK VINA RESULT:      -9.8      4.243      6.514
REMARK SMILES O=C(OCCOCCOCCOCCOC(=O)[C@H]1[C@H]2CC[C@H](CC2)[C@H]1C(=O)Nc1ccc(C(=O)N2CCCC2)cc1)c1ccc(-c2c3nc(c(-c4cc(S(=O)(=O)[O-])ccc4F)c4ccc([nH]4)c(-c4cc(S(=O)(=O)[O-])ccc4F)c4nc(c(-c5cc(S(=O)(=O)[O-])ccc5F)c5ccc2[nH]5)C=C4)C=C3)cc1
REMARK SMILES IDX 9 1 8 2 7 3 6 4 5 5 4 6 3 7 2 8 1 9 42 10 43 11 104 12 44 13
REMARK SMILES IDX 103 14 45 15 46 16 47 17 97 18 48 19 102 20 96 21 98 22
REMARK SMILES IDX 49 23 101 24 95 25 94 26 50 28 82 29 62 30 81 31 63 32 66 33
REMARK SMILES IDX 80 34 99 35 64 36 65 37 79 39 100 40 67 41 51 42 52 43 60 44
REMARK SMILES IDX 53 45 59 46 61 47 58 48 54 49 55 50 56 51 57 52 83 53 84 54
REMARK SMILES IDX 92 55 85 56 91 57 93 58 90 59 86 60 87 61 88 62 89 63 68 64
REMARK SMILES IDX 69 65 77 66 70 67 76 68 78 69 75 70 71 71 72 72 73 73 74 74
REMARK SMILES IDX 10 75 11 76 12 77 13 78 14 79 15 80 16 81 17 82 18 83 19 84
REMARK SMILES IDX 25 85 24 86 20 87 22 88 23 89 21 90 26 91 27 92 28 93 29 95
REMARK SMILES IDX 30 96 41 97 31 98 40 99 32 100 33 101 34 102 35 103 36 104
REMARK SMILES IDX 39 105 37 106 38 107
REMARK H PARENT 98 27 66 38 28 94
REMARK Flexibility Score: inf
ROOT
ATOM      1  O   UNL A   1      33.721  33.053  28.320  1.00  0.00    -0.377 OA
ENDROOT
BRANCH   1   2
ATOM      2  C   UNL A   1      34.269  34.182  28.993  1.00  0.00     0.188 C 
BRANCH   2   3
ATOM      3  C   UNL A   1      35.709  33.995  29.414  1.00  0.00     0.188 C 
BRANCH   3   4
ATOM      4  O   UNL A   1      35.823  34.178  30.815  1.00  0.00    -0.376 OA
BRANCH   4   5
ATOM      5  C   UNL A   1      34.645  34.015  31.588  1.00  0.00     0.202 C 
BRANCH   5   6
ATOM      6  C   UNL A   1      34.638  32.820  32.535  1.00  0.00     0.261 C 
BRANCH   6   7
ATOM      7  O   UNL A   1      35.903  32.156  32.682  1.00  0.00    -0.460 OA
BRANCH   7   8
ATOM      8  C   UNL A   1      36.407  31.073  32.044  1.00  0.00     0.338 C 
ATOM      9  O   UNL A   1      35.597  30.308  31.516  1.00  0.00    -0.246 OA
BRANCH   8  10
ATOM     10  C   UNL A   1      37.849  30.658  32.021  1.00  0.00     0.060 A 
ATOM     11  C   UNL A   1      38.862  31.175  32.827  1.00  0.00     0.016 A 
ATOM     12  C   UNL A   1      38.178  29.568  31.196  1.00  0.00     0.016 A 
ATOM     13  C   UNL A   1      40.123  30.605  32.895  1.00  0.00     0.010 A 
ATOM     14  C   UNL A   1      39.472  29.036  31.181  1.00  0.00     0.010 A 
ATOM     15  C   UNL A   1      40.444  29.568  32.033  1.00  0.00    -0.014 A 
BRANCH  15  16
ATOM     16  C   UNL A   1      41.877  29.326  31.823  1.00  0.00     0.031 A 
ATOM     17  C   UNL A   1      42.583  30.287  30.919  1.00  0.00     0.074 A 
ATOM     18  C   UNL A   1      42.531  28.411  32.553  1.00  0.00     0.049 A 
ATOM     19  N   UNL A   1      43.798  30.260  30.455  1.00  0.00    -0.248 NA
ATOM     20  C   UNL A   1      41.798  31.459  30.491  1.00  0.00     0.031 C 
ATOM     21  C   UNL A   1      41.932  27.594  33.612  1.00  0.00     0.029 A 
ATOM     22  N   UNL A   1      43.841  28.022  32.525  1.00  0.00    -0.354 N 
ATOM     23  C   UNL A   1      43.908  31.384  29.643  1.00  0.00     0.074 A 
ATOM     24  C   UNL A   1      42.642  32.074  29.684  1.00  0.00     0.031 C 
ATOM     25  C   UNL A   1      42.873  26.777  34.111  1.00  0.00     0.029 A 
ATOM     26  C   UNL A   1      44.104  26.954  33.349  1.00  0.00     0.049 A 
ATOM     27  H   UNL A   1      44.525  28.462  31.971  1.00  0.00     0.167 HD
ATOM     28  C   UNL A   1      44.977  31.773  28.910  1.00  0.00     0.034 A 
ATOM     29  C   UNL A   1      45.198  26.170  33.402  1.00  0.00     0.034 A 
ATOM     30  C   UNL A   1      46.196  31.006  28.894  1.00  0.00     0.049 A 
ATOM     31  C   UNL A   1      46.332  26.515  32.467  1.00  0.00     0.074 A 
ATOM     32  C   UNL A   1      47.335  31.193  28.139  1.00  0.00     0.029 A 
ATOM     33  N   UNL A   1      46.413  29.873  29.678  1.00  0.00    -0.354 N 
ATOM     34  N   UNL A   1      46.412  27.507  31.604  1.00  0.00    -0.248 NA
ATOM     35  C   UNL A   1      47.509  25.644  32.494  1.00  0.00     0.031 C 
ATOM     36  C   UNL A   1      48.204  30.127  28.406  1.00  0.00     0.029 A 
ATOM     37  C   UNL A   1      47.652  29.328  29.400  1.00  0.00     0.049 A 
ATOM     38  H   UNL A   1      45.775  29.513  30.336  1.00  0.00     0.167 HD
ATOM     39  C   UNL A   1      47.658  27.393  31.000  1.00  0.00     0.074 A 
ATOM     40  C   UNL A   1      48.295  26.236  31.604  1.00  0.00     0.031 C 
ATOM     41  C   UNL A   1      48.232  28.167  30.040  1.00  0.00     0.034 A 
BRANCH  28  42
ATOM     42  C   UNL A   1      44.774  32.954  27.991  1.00  0.00     0.023 A 
ATOM     43  C   UNL A   1      44.869  34.283  28.446  1.00  0.00     0.031 A 
ATOM     44  C   UNL A   1      44.307  32.744  26.682  1.00  0.00     0.131 A 
ATOM     45  C   UNL A   1      44.385  35.333  27.647  1.00  0.00     0.055 A 
ATOM     46  C   UNL A   1      43.925  33.802  25.854  1.00  0.00     0.041 A 
ATOM     47  F   UNL A   1      44.155  31.500  26.201  1.00  0.00    -0.206 F 
ATOM     48  C   UNL A   1      43.938  35.103  26.345  1.00  0.00     0.022 A 
BRANCH  45  49
ATOM     49  S   UNL A   1      44.132  36.961  28.415  1.00  0.00     0.124 S 
ATOM     50  O   UNL A   1      43.073  36.671  29.380  1.00  0.00    -0.237 OA
ATOM     51  O   UNL A   1      45.445  37.253  28.978  1.00  0.00    -0.237 OA
ATOM     52  O   UNL A   1      43.728  37.810  27.296  1.00  0.00    -0.744 OA
ENDBRANCH  45  49
ENDBRANCH  28  42
BRANCH  29  53
ATOM     53  C   UNL A   1      45.206  24.952  34.262  1.00  0.00     0.023 A 
ATOM     54  C   UNL A   1      45.708  24.968  35.573  1.00  0.00     0.031 A 
ATOM     55  C   UNL A   1      44.699  23.730  33.772  1.00  0.00     0.131 A 
ATOM     56  C   UNL A   1      45.705  23.788  36.338  1.00  0.00     0.055 A 
ATOM     57  C   UNL A   1      44.652  22.575  34.553  1.00  0.00     0.041 A 
ATOM     58  F   UNL A   1      44.212  23.649  32.523  1.00  0.00    -0.206 F 
ATOM     59  C   UNL A   1      45.165  22.597  35.844  1.00  0.00     0.022 A 
BRANCH  56  60
ATOM     60  S   UNL A   1      46.477  23.809  37.981  1.00  0.00     0.124 S 
ATOM     61  O   UNL A   1      45.343  23.502  38.845  1.00  0.00    -0.237 OA
ATOM     62  O   UNL A   1      47.487  22.765  37.852  1.00  0.00    -0.237 OA
ATOM     63  O   UNL A   1      46.999  25.169  38.095  1.00  0.00    -0.744 OA
ENDBRANCH  56  60
ENDBRANCH  29  53
BRANCH  41  64
ATOM     64  C   UNL A   1      49.638  27.816  29.639  1.00  0.00     0.023 A 
ATOM     65  C   UNL A   1      49.910  27.030  28.508  1.00  0.00     0.031 A 
ATOM     66  C   UNL A   1      50.719  28.332  30.374  1.00  0.00     0.131 A 
ATOM     67  C   UNL A   1      51.239  26.756  28.162  1.00  0.00     0.055 A 
ATOM     68  C   UNL A   1      52.039  28.109  29.988  1.00  0.00     0.041 A 
ATOM     69  F   UNL A   1      50.505  29.089  31.463  1.00  0.00    -0.206 F 
ATOM     70  C   UNL A   1      52.304  27.310  28.879  1.00  0.00     0.022 A 
BRANCH  67  71
ATOM     71  S   UNL A   1      51.562  25.612  26.795  1.00  0.00     0.124 S 
ATOM     72  O   UNL A   1      52.993  25.364  26.941  1.00  0.00    -0.237 OA
ATOM     73  O   UNL A   1      50.685  24.490  27.110  1.00  0.00    -0.237 OA
ATOM     74  O   UNL A   1      51.185  26.379  25.609  1.00  0.00    -0.744 OA
ENDBRANCH  67  71
ENDBRANCH  41  64
ENDBRANCH  15  16
ENDBRANCH   8  10
ENDBRANCH   7   8
ENDBRANCH   6   7
ENDBRANCH   5   6
ENDBRANCH   4   5
ENDBRANCH   3   4
ENDBRANCH   2   3
ENDBRANCH   1   2
BRANCH   1  75
ATOM     75  C   UNL A   1      34.518  31.864  28.263  1.00  0.00     0.188 C 
BRANCH  75  76
ATOM     76  C   UNL A   1      33.984  30.604  27.544  1.00  0.00     0.188 C 
BRANCH  76  77
ATOM     77  O   UNL A   1      32.622  30.691  27.167  1.00  0.00    -0.376 OA
BRANCH  77  78
ATOM     78  C   UNL A   1      31.937  29.455  27.026  1.00  0.00     0.202 C 
BRANCH  78  79
ATOM     79  C   UNL A   1      32.696  28.151  27.332  1.00  0.00     0.261 C 
BRANCH  79  80
ATOM     80  O   UNL A   1      32.141  26.948  26.771  1.00  0.00    -0.463 OA
BRANCH  80  81
ATOM     81  C   UNL A   1      32.949  25.980  26.323  1.00  0.00     0.310 C 
ATOM     82  O   UNL A   1      34.174  26.110  26.288  1.00  0.00    -0.252 OA
BRANCH  81  83
ATOM     83  C   UNL A   1      32.280  24.673  25.799  1.00  0.00     0.115 C 
ATOM     84  C   UNL A   1      30.839  24.234  25.263  1.00  0.00     0.004 C 
ATOM     85  C   UNL A   1      33.317  23.908  25.001  1.00  0.00     0.096 C 
ATOM     86  C   UNL A   1      30.656  23.829  23.755  1.00  0.00     0.005 C 
ATOM     87  C   UNL A   1      30.598  22.853  25.932  1.00  0.00     0.005 C 
ATOM     88  C   UNL A   1      32.684  22.611  24.426  1.00  0.00     0.002 C 
ATOM     89  C   UNL A   1      31.807  22.975  23.239  1.00  0.00     0.005 C 
ATOM     90  C   UNL A   1      31.750  21.920  25.486  1.00  0.00     0.005 C 
BRANCH  85  91
ATOM     91  C   UNL A   1      34.238  24.738  24.065  1.00  0.00     0.228 C 
ATOM     92  O   UNL A   1      35.408  24.326  23.949  1.00  0.00    -0.274 OA
ATOM     93  N   UNL A   1      33.954  25.793  23.245  1.00  0.00    -0.326 N 
ATOM     94  H   UNL A   1      34.744  26.025  22.703  1.00  0.00     0.169 HD
BRANCH  93  95
ATOM     95  C   UNL A   1      32.881  26.655  22.931  1.00  0.00     0.041 A 
ATOM     96  C   UNL A   1      32.027  26.320  21.877  1.00  0.00     0.027 A 
ATOM     97  C   UNL A   1      32.555  27.802  23.611  1.00  0.00     0.027 A 
ATOM     98  C   UNL A   1      30.778  26.976  21.714  1.00  0.00     0.016 A 
ATOM     99  C   UNL A   1      31.349  28.483  23.444  1.00  0.00     0.016 A 
ATOM    100  C   UNL A   1      30.397  28.027  22.560  1.00  0.00     0.040 A 
BRANCH 100 101
ATOM    101  C   UNL A   1      28.953  28.377  22.785  1.00  0.00     0.253 C 
ATOM    102  O   UNL A   1      28.261  27.581  23.418  1.00  0.00    -0.269 OA
ATOM    103  N   UNL A   1      28.524  29.675  22.536  1.00  0.00    -0.339 N 
ATOM    104  C   UNL A   1      28.703  30.494  21.347  1.00  0.00     0.120 C 
ATOM    105  C   UNL A   1      27.863  30.441  23.578  1.00  0.00     0.120 C 
ATOM    106  C   UNL A   1      28.859  31.896  21.921  1.00  0.00     0.023 C 
ATOM    107  C   UNL A   1      27.871  31.891  23.086  1.00  0.00     0.023 C 
ENDBRANCH 100 101
ENDBRANCH  93  95
ENDBRANCH  85  91
ENDBRANCH  81  83
ENDBRANCH  80  81
ENDBRANCH  79  80
ENDBRANCH  78  79
ENDBRANCH  77  78
ENDBRANCH  76  77
ENDBRANCH  75  76
ENDBRANCH   1  75
TORSDOF 26
ENDMDL
