MODEL 1
REMARK VINA RESULT:      -8.0      0.000      0.000
REMARK SMILES CC[C@](C)(NC(=O)NC[C@@H](C)[NH+](C)C)C(=O)OCCOCCOCCOCCOC(=O)c1ccc(-c2c3nc(c(-c4cc(S(=O)(=O)[O-])ccc4F)c4ccc([nH]4)c(-c4cc(S(=O)(=O)[O-])ccc4F)c4nc(c(-c5cc(S(=O)(=O)[O-])ccc5F)c5ccc2[nH]5)C=C4)C=C3)cc1
REMARK SMILES IDX 22 1 21 2 20 3 19 4 18 5 17 6 15 7 16 8 3 9 4 10 2 11 1 12
REMARK SMILES IDX 5 13 6 14 7 16 8 17 9 19 10 20 11 21 12 22 13 23 14 24 23 26
REMARK SMILES IDX 24 27 25 28 26 29 27 30 28 31 29 32 30 33 31 34 32 35 33 36
REMARK SMILES IDX 94 37 34 38 93 39 35 40 36 41 37 42 87 43 38 44 92 45 86 46
REMARK SMILES IDX 88 47 39 48 91 49 85 50 84 51 40 53 72 54 52 55 71 56 53 57
REMARK SMILES IDX 56 58 70 59 89 60 54 61 55 62 69 64 90 65 57 66 41 67 42 68
REMARK SMILES IDX 50 69 43 70 49 71 51 72 48 73 44 74 45 75 46 76 47 77 73 78
REMARK SMILES IDX 74 79 82 80 75 81 81 82 83 83 80 84 76 85 77 86 78 87 79 88
REMARK SMILES IDX 58 89 59 90 67 91 60 92 66 93 68 94 65 95 61 96 62 97 63 98
REMARK SMILES IDX 64 99
REMARK H PARENT 5 15 8 18 12 25 88 52 56 63
REMARK Flexibility Score: inf
ROOT
ATOM      1  C   UNL A   1      33.739  33.388  28.247  1.00  0.00     0.188 C 
ENDROOT
BRANCH   1   2
ATOM      2  C   UNL A   1      34.377  32.035  27.869  1.00  0.00     0.188 C 
BRANCH   2   3
ATOM      3  O   UNL A   1      33.556  30.883  27.700  1.00  0.00    -0.376 OA
BRANCH   3   4
ATOM      4  C   UNL A   1      34.151  29.742  27.088  1.00  0.00     0.202 C 
BRANCH   4   5
ATOM      5  C   UNL A   1      33.406  29.106  25.907  1.00  0.00     0.261 C 
BRANCH   5   6
ATOM      6  O   UNL A   1      33.297  27.674  26.024  1.00  0.00    -0.462 OA
BRANCH   6   7
ATOM      7  C   UNL A   1      32.134  27.153  26.481  1.00  0.00     0.331 C 
ATOM      8  O   UNL A   1      31.671  27.425  27.583  1.00  0.00    -0.249 OA
BRANCH   7   9
ATOM      9  C   UNL A   1      31.385  26.304  25.395  1.00  0.00     0.136 C 
ATOM     10  C   UNL A   1      32.543  25.743  24.526  1.00  0.00     0.047 C 
BRANCH   9  11
ATOM     11  C   UNL A   1      30.451  27.185  24.520  1.00  0.00     0.037 C 
ATOM     12  C   UNL A   1      29.176  26.528  24.003  1.00  0.00     0.007 C 
ENDBRANCH   9  11
BRANCH   9  13
ATOM     13  N   UNL A   1      30.617  25.091  25.830  1.00  0.00    -0.322 N 
ATOM     14  C   UNL A   1      30.792  24.060  26.668  1.00  0.00     0.315 C 
ATOM     15  H   UNL A   1      29.746  25.037  25.374  1.00  0.00     0.166 HD
ATOM     16  O   UNL A   1      29.773  23.497  27.080  1.00  0.00    -0.249 OA
ATOM     17  N   UNL A   1      31.982  23.611  27.081  1.00  0.00    -0.332 N 
ATOM     18  H   UNL A   1      31.976  23.065  27.900  1.00  0.00     0.165 HD
BRANCH  17  19
ATOM     19  C   UNL A   1      33.272  23.826  26.478  1.00  0.00     0.182 C 
BRANCH  19  20
ATOM     20  C   UNL A   1      34.141  22.574  26.210  1.00  0.00     0.200 C 
ATOM     21  C   UNL A   1      34.297  21.781  27.519  1.00  0.00     0.077 C 
BRANCH  20  22
ATOM     22  N   UNL A   1      33.608  21.790  25.062  1.00  0.00    -0.336 N 
ATOM     23  C   UNL A   1      33.657  22.513  23.794  1.00  0.00     0.332 C 
ATOM     24  C   UNL A   1      34.177  20.457  24.890  1.00  0.00     0.332 C 
ATOM     25  H   UNL A   1      32.634  21.654  25.330  1.00  0.00     0.347 HD
ENDBRANCH  20  22
ENDBRANCH  19  20
ENDBRANCH  17  19
ENDBRANCH   9  13
ENDBRANCH   7   9
ENDBRANCH   6   7
ENDBRANCH   5   6
ENDBRANCH   4   5
ENDBRANCH   3   4
ENDBRANCH   2   3
ENDBRANCH   1   2
BRANCH   1  26
ATOM     26  O   UNL A   1      34.591  34.520  28.103  1.00  0.00    -0.377 OA
BRANCH  26  27
ATOM     27  C   UNL A   1      34.126  35.703  28.754  1.00  0.00     0.188 C 
BRANCH  27  28
ATOM     28  C   UNL A   1      33.154  35.392  29.904  1.00  0.00     0.188 C 
BRANCH  28  29
ATOM     29  O   UNL A   1      33.345  36.259  31.015  1.00  0.00    -0.376 OA
BRANCH  29  30
ATOM     30  C   UNL A   1      33.686  35.701  32.277  1.00  0.00     0.202 C 
BRANCH  30  31
ATOM     31  C   UNL A   1      35.072  35.060  32.505  1.00  0.00     0.261 C 
BRANCH  31  32
ATOM     32  O   UNL A   1      35.103  33.736  33.057  1.00  0.00    -0.460 OA
BRANCH  32  33
ATOM     33  C   UNL A   1      35.007  32.712  32.190  1.00  0.00     0.338 C 
ATOM     34  O   UNL A   1      33.999  32.372  31.581  1.00  0.00    -0.246 OA
BRANCH  33  35
ATOM     35  C   UNL A   1      36.359  32.183  31.927  1.00  0.00     0.060 A 
ATOM     36  C   UNL A   1      37.304  32.236  32.959  1.00  0.00     0.016 A 
ATOM     37  C   UNL A   1      36.725  31.724  30.656  1.00  0.00     0.016 A 
ATOM     38  C   UNL A   1      38.637  31.932  32.701  1.00  0.00     0.010 A 
ATOM     39  C   UNL A   1      38.069  31.440  30.390  1.00  0.00     0.010 A 
ATOM     40  C   UNL A   1      39.038  31.618  31.395  1.00  0.00    -0.014 A 
BRANCH  40  41
ATOM     41  C   UNL A   1      40.467  31.822  31.044  1.00  0.00     0.031 A 
ATOM     42  C   UNL A   1      41.409  30.665  31.273  1.00  0.00     0.074 A 
ATOM     43  C   UNL A   1      40.898  32.944  30.442  1.00  0.00     0.049 A 
ATOM     44  N   UNL A   1      42.683  30.556  30.999  1.00  0.00    -0.248 NA
ATOM     45  C   UNL A   1      40.826  29.465  31.894  1.00  0.00     0.031 C 
ATOM     46  C   UNL A   1      40.066  34.097  30.108  1.00  0.00     0.029 A 
ATOM     47  N   UNL A   1      42.147  33.285  29.989  1.00  0.00    -0.354 N 
ATOM     48  C   UNL A   1      43.051  29.279  31.415  1.00  0.00     0.074 A 
ATOM     49  C   UNL A   1      41.877  28.670  31.997  1.00  0.00     0.031 C 
ATOM     50  C   UNL A   1      40.829  35.021  29.495  1.00  0.00     0.029 A 
ATOM     51  C   UNL A   1      42.207  34.536  29.421  1.00  0.00     0.049 A 
ATOM     52  H   UNL A   1      42.927  32.690  30.064  1.00  0.00     0.167 HD
ATOM     53  C   UNL A   1      44.255  28.663  31.312  1.00  0.00     0.034 A 
ATOM     54  C   UNL A   1      43.258  35.209  28.909  1.00  0.00     0.034 A 
ATOM     55  C   UNL A   1      45.420  29.290  30.739  1.00  0.00     0.049 A 
ATOM     56  C   UNL A   1      44.612  34.536  28.880  1.00  0.00     0.074 A 
ATOM     57  C   UNL A   1      46.694  28.770  30.591  1.00  0.00     0.029 A 
ATOM     58  N   UNL A   1      45.456  30.581  30.229  1.00  0.00    -0.354 N 
ATOM     59  N   UNL A   1      44.948  33.329  29.278  1.00  0.00    -0.248 NA
ATOM     60  C   UNL A   1      45.723  35.312  28.315  1.00  0.00     0.031 C 
ATOM     61  C   UNL A   1      47.514  29.771  30.059  1.00  0.00     0.029 A 
ATOM     62  C   UNL A   1      46.735  30.886  29.793  1.00  0.00     0.049 A 
ATOM     63  H   UNL A   1      44.684  31.191  30.185  1.00  0.00     0.167 HD
ATOM     64  C   UNL A   1      46.301  33.189  28.968  1.00  0.00     0.074 A 
ATOM     65  C   UNL A   1      46.711  34.430  28.344  1.00  0.00     0.031 C 
ATOM     66  C   UNL A   1      47.127  32.130  29.172  1.00  0.00     0.034 A 
BRANCH  53  67
ATOM     67  C   UNL A   1      44.372  27.275  31.898  1.00  0.00     0.023 A 
ATOM     68  C   UNL A   1      44.661  27.061  33.258  1.00  0.00     0.031 A 
ATOM     69  C   UNL A   1      44.251  26.149  31.066  1.00  0.00     0.131 A 
ATOM     70  C   UNL A   1      44.896  25.758  33.726  1.00  0.00     0.055 A 
ATOM     71  C   UNL A   1      44.402  24.850  31.557  1.00  0.00     0.041 A 
ATOM     72  F   UNL A   1      44.005  26.289  29.755  1.00  0.00    -0.206 F 
ATOM     73  C   UNL A   1      44.743  24.649  32.892  1.00  0.00     0.022 A 
BRANCH  70  74
ATOM     74  S   UNL A   1      45.559  25.543  35.403  1.00  0.00     0.124 S 
ATOM     75  O   UNL A   1      46.969  25.275  35.130  1.00  0.00    -0.237 OA
ATOM     76  O   UNL A   1      45.261  26.827  36.027  1.00  0.00    -0.237 OA
ATOM     77  O   UNL A   1      44.806  24.404  35.925  1.00  0.00    -0.744 OA
ENDBRANCH  70  74
ENDBRANCH  53  67
BRANCH  54  78
ATOM     78  C   UNL A   1      43.095  36.603  28.403  1.00  0.00     0.023 A 
ATOM     79  C   UNL A   1      43.308  37.713  29.235  1.00  0.00     0.031 A 
ATOM     80  C   UNL A   1      42.655  36.842  27.088  1.00  0.00     0.131 A 
ATOM     81  C   UNL A   1      43.034  39.007  28.762  1.00  0.00     0.055 A 
ATOM     82  C   UNL A   1      42.435  38.133  26.605  1.00  0.00     0.041 A 
ATOM     83  F   UNL A   1      42.434  35.818  26.249  1.00  0.00    -0.206 F 
ATOM     84  C   UNL A   1      42.610  39.226  27.450  1.00  0.00     0.022 A 
BRANCH  81  85
ATOM     85  S   UNL A   1      43.156  40.400  29.918  1.00  0.00     0.124 S 
ATOM     86  O   UNL A   1      44.140  41.251  29.256  1.00  0.00    -0.237 OA
ATOM     87  O   UNL A   1      41.784  40.899  29.936  1.00  0.00    -0.237 OA
ATOM     88  O   UNL A   1      43.605  39.774  31.159  1.00  0.00    -0.744 OA
ENDBRANCH  81  85
ENDBRANCH  54  78
BRANCH  66  89
ATOM     89  C   UNL A   1      48.540  32.248  28.647  1.00  0.00     0.023 A 
ATOM     90  C   UNL A   1      49.595  32.728  29.443  1.00  0.00     0.031 A 
ATOM     91  C   UNL A   1      48.827  31.893  27.316  1.00  0.00     0.131 A 
ATOM     92  C   UNL A   1      50.868  32.906  28.882  1.00  0.00     0.055 A 
ATOM     93  C   UNL A   1      50.111  32.006  26.784  1.00  0.00     0.041 A 
ATOM     94  F   UNL A   1      47.859  31.428  26.508  1.00  0.00    -0.206 F 
ATOM     95  C   UNL A   1      51.137  32.532  27.563  1.00  0.00     0.022 A 
BRANCH  92  96
ATOM     96  S   UNL A   1      52.141  33.748  29.863  1.00  0.00     0.124 S 
ATOM     97  O   UNL A   1      52.972  32.633  30.304  1.00  0.00    -0.237 OA
ATOM     98  O   UNL A   1      52.745  34.645  28.884  1.00  0.00    -0.237 OA
ATOM     99  O   UNL A   1      51.377  34.409  30.921  1.00  0.00    -0.744 OA
ENDBRANCH  92  96
ENDBRANCH  66  89
ENDBRANCH  40  41
ENDBRANCH  33  35
ENDBRANCH  32  33
ENDBRANCH  31  32
ENDBRANCH  30  31
ENDBRANCH  29  30
ENDBRANCH  28  29
ENDBRANCH  27  28
ENDBRANCH  26  27
ENDBRANCH   1  26
TORSDOF 28
ENDMDL
MODEL 2
REMARK VINA RESULT:      -8.0      2.678      3.767
REMARK SMILES CC[C@](C)(NC(=O)NC[C@@H](C)[NH+](C)C)C(=O)OCCOCCOCCOCCOC(=O)c1ccc(-c2c3nc(c(-c4cc(S(=O)(=O)[O-])ccc4F)c4ccc([nH]4)c(-c4cc(S(=O)(=O)[O-])ccc4F)c4nc(c(-c5cc(S(=O)(=O)[O-])ccc5F)c5ccc2[nH]5)C=C4)C=C3)cc1
REMARK SMILES IDX 22 1 21 2 20 3 19 4 18 5 17 6 15 7 16 8 3 9 4 10 2 11 1 12
REMARK SMILES IDX 5 13 6 14 7 16 8 17 9 19 10 20 11 21 12 22 13 23 14 24 23 26
REMARK SMILES IDX 24 27 25 28 26 29 27 30 28 31 29 32 30 33 31 34 32 35 33 36
REMARK SMILES IDX 94 37 34 38 93 39 35 40 36 41 37 42 87 43 38 44 92 45 86 46
REMARK SMILES IDX 88 47 39 48 91 49 85 50 84 51 40 53 72 54 52 55 71 56 53 57
REMARK SMILES IDX 56 58 70 59 89 60 54 61 55 62 69 64 90 65 57 66 41 67 42 68
REMARK SMILES IDX 50 69 43 70 49 71 51 72 48 73 44 74 45 75 46 76 47 77 73 78
REMARK SMILES IDX 74 79 82 80 75 81 81 82 83 83 80 84 76 85 77 86 78 87 79 88
REMARK SMILES IDX 58 89 59 90 67 91 60 92 66 93 68 94 65 95 61 96 62 97 63 98
REMARK SMILES IDX 64 99
REMARK H PARENT 5 15 8 18 12 25 88 52 56 63
REMARK Flexibility Score: inf
ROOT
ATOM      1  C   UNL A   1      35.685  31.808  28.258  1.00  0.00     0.188 C 
ENDROOT
BRANCH   1   2
ATOM      2  C   UNL A   1      34.442  30.901  28.367  1.00  0.00     0.188 C 
BRANCH   2   3
ATOM      3  O   UNL A   1      33.625  30.671  27.224  1.00  0.00    -0.376 OA
BRANCH   3   4
ATOM      4  C   UNL A   1      33.010  29.390  27.107  1.00  0.00     0.202 C 
BRANCH   4   5
ATOM      5  C   UNL A   1      33.782  28.303  26.351  1.00  0.00     0.261 C 
BRANCH   5   6
ATOM      6  O   UNL A   1      32.943  27.542  25.460  1.00  0.00    -0.462 OA
BRANCH   6   7
ATOM      7  C   UNL A   1      33.524  26.918  24.407  1.00  0.00     0.331 C 
ATOM      8  O   UNL A   1      34.226  25.920  24.531  1.00  0.00    -0.249 OA
BRANCH   7   9
ATOM      9  C   UNL A   1      33.073  27.514  23.028  1.00  0.00     0.136 C 
ATOM     10  C   UNL A   1      33.979  28.766  22.873  1.00  0.00     0.047 C 
BRANCH   9  11
ATOM     11  C   UNL A   1      31.581  27.946  23.049  1.00  0.00     0.037 C 
ATOM     12  C   UNL A   1      31.246  29.286  22.402  1.00  0.00     0.007 C 
ENDBRANCH   9  11
BRANCH   9  13
ATOM     13  N   UNL A   1      33.315  26.715  21.782  1.00  0.00    -0.322 N 
ATOM     14  C   UNL A   1      32.692  25.753  21.090  1.00  0.00     0.315 C 
ATOM     15  H   UNL A   1      34.167  26.968  21.356  1.00  0.00     0.166 HD
ATOM     16  O   UNL A   1      32.983  25.647  19.895  1.00  0.00    -0.249 OA
ATOM     17  N   UNL A   1      31.787  24.912  21.605  1.00  0.00    -0.332 N 
ATOM     18  H   UNL A   1      31.198  24.464  20.956  1.00  0.00     0.165 HD
BRANCH  17  19
ATOM     19  C   UNL A   1      31.567  24.581  22.989  1.00  0.00     0.182 C 
BRANCH  19  20
ATOM     20  C   UNL A   1      31.729  23.096  23.391  1.00  0.00     0.200 C 
ATOM     21  C   UNL A   1      33.160  22.638  23.056  1.00  0.00     0.077 C 
BRANCH  20  22
ATOM     22  N   UNL A   1      31.317  22.877  24.805  1.00  0.00    -0.336 N 
ATOM     23  C   UNL A   1      32.314  22.159  25.594  1.00  0.00     0.332 C 
ATOM     24  C   UNL A   1      30.882  24.068  25.528  1.00  0.00     0.332 C 
ATOM     25  H   UNL A   1      30.491  22.288  24.696  1.00  0.00     0.347 HD
ENDBRANCH  20  22
ENDBRANCH  19  20
ENDBRANCH  17  19
ENDBRANCH   9  13
ENDBRANCH   7   9
ENDBRANCH   6   7
ENDBRANCH   5   6
ENDBRANCH   4   5
ENDBRANCH   3   4
ENDBRANCH   2   3
ENDBRANCH   1   2
BRANCH   1  26
ATOM     26  O   UNL A   1      35.696  32.927  29.139  1.00  0.00    -0.377 OA
BRANCH  26  27
ATOM     27  C   UNL A   1      34.521  33.738  29.087  1.00  0.00     0.188 C 
BRANCH  27  28
ATOM     28  C   UNL A   1      34.177  34.355  30.452  1.00  0.00     0.188 C 
BRANCH  28  29
ATOM     29  O   UNL A   1      35.255  34.253  31.373  1.00  0.00    -0.376 OA
BRANCH  29  30
ATOM     30  C   UNL A   1      35.128  33.391  32.496  1.00  0.00     0.202 C 
BRANCH  30  31
ATOM     31  C   UNL A   1      35.749  31.977  32.476  1.00  0.00     0.261 C 
BRANCH  31  32
ATOM     32  O   UNL A   1      37.034  31.831  31.854  1.00  0.00    -0.460 OA
BRANCH  32  33
ATOM     33  C   UNL A   1      37.469  30.576  31.642  1.00  0.00     0.338 C 
ATOM     34  O   UNL A   1      36.774  29.568  31.596  1.00  0.00    -0.246 OA
BRANCH  33  35
ATOM     35  C   UNL A   1      38.896  30.624  31.269  1.00  0.00     0.060 A 
ATOM     36  C   UNL A   1      39.809  31.123  32.207  1.00  0.00     0.016 A 
ATOM     37  C   UNL A   1      39.324  30.269  29.985  1.00  0.00     0.016 A 
ATOM     38  C   UNL A   1      41.127  31.368  31.833  1.00  0.00     0.010 A 
ATOM     39  C   UNL A   1      40.643  30.536  29.603  1.00  0.00     0.010 A 
ATOM     40  C   UNL A   1      41.525  31.157  30.506  1.00  0.00    -0.014 A 
BRANCH  40  41
ATOM     41  C   UNL A   1      42.715  31.899  30.016  1.00  0.00     0.031 A 
ATOM     42  C   UNL A   1      43.962  31.098  29.732  1.00  0.00     0.074 A 
ATOM     43  C   UNL A   1      42.666  33.210  29.726  1.00  0.00     0.049 A 
ATOM     44  N   UNL A   1      45.112  31.483  29.243  1.00  0.00    -0.248 NA
ATOM     45  C   UNL A   1      43.896  29.659  30.040  1.00  0.00     0.031 C 
ATOM     46  C   UNL A   1      41.497  34.070  29.893  1.00  0.00     0.029 A 
ATOM     47  N   UNL A   1      43.627  34.042  29.210  1.00  0.00    -0.354 N 
ATOM     48  C   UNL A   1      45.902  30.338  29.187  1.00  0.00     0.074 A 
ATOM     49  C   UNL A   1      45.115  29.255  29.731  1.00  0.00     0.031 C 
ATOM     50  C   UNL A   1      41.809  35.313  29.481  1.00  0.00     0.029 A 
ATOM     51  C   UNL A   1      43.206  35.341  29.048  1.00  0.00     0.049 A 
ATOM     52  H   UNL A   1      44.534  33.738  28.977  1.00  0.00     0.167 HD
ATOM     53  C   UNL A   1      47.166  30.197  28.715  1.00  0.00     0.034 A 
ATOM     54  C   UNL A   1      43.878  36.426  28.609  1.00  0.00     0.034 A 
ATOM     55  C   UNL A   1      47.942  31.291  28.187  1.00  0.00     0.049 A 
ATOM     56  C   UNL A   1      45.315  36.264  28.166  1.00  0.00     0.074 A 
ATOM     57  C   UNL A   1      49.233  31.271  27.690  1.00  0.00     0.029 A 
ATOM     58  N   UNL A   1      47.501  32.605  28.095  1.00  0.00    -0.354 N 
ATOM     59  N   UNL A   1      46.052  35.176  28.120  1.00  0.00    -0.248 NA
ATOM     60  C   UNL A   1      46.002  37.474  27.699  1.00  0.00     0.031 C 
ATOM     61  C   UNL A   1      49.597  32.584  27.368  1.00  0.00     0.029 A 
ATOM     62  C   UNL A   1      48.504  33.410  27.580  1.00  0.00     0.049 A 
ATOM     63  H   UNL A   1      46.606  32.918  28.360  1.00  0.00     0.167 HD
ATOM     64  C   UNL A   1      47.274  35.569  27.575  1.00  0.00     0.074 A 
ATOM     65  C   UNL A   1      47.168  36.987  27.303  1.00  0.00     0.031 C 
ATOM     66  C   UNL A   1      48.381  34.824  27.315  1.00  0.00     0.034 A 
BRANCH  53  67
ATOM     67  C   UNL A   1      47.794  28.827  28.823  1.00  0.00     0.023 A 
ATOM     68  C   UNL A   1      48.540  28.434  29.950  1.00  0.00     0.031 A 
ATOM     69  C   UNL A   1      47.693  27.920  27.754  1.00  0.00     0.131 A 
ATOM     70  C   UNL A   1      49.218  27.205  29.947  1.00  0.00     0.055 A 
ATOM     71  C   UNL A   1      48.301  26.664  27.793  1.00  0.00     0.041 A 
ATOM     72  F   UNL A   1      47.020  28.248  26.641  1.00  0.00    -0.206 F 
ATOM     73  C   UNL A   1      49.083  26.306  28.887  1.00  0.00     0.022 A 
BRANCH  70  74
ATOM     74  S   UNL A   1      50.407  26.864  31.275  1.00  0.00     0.124 S 
ATOM     75  O   UNL A   1      51.680  27.122  30.606  1.00  0.00    -0.237 OA
ATOM     76  O   UNL A   1      50.018  27.825  32.302  1.00  0.00    -0.237 OA
ATOM     77  O   UNL A   1      50.159  25.462  31.606  1.00  0.00    -0.744 OA
ENDBRANCH  70  74
ENDBRANCH  53  67
BRANCH  54  78
ATOM     78  C   UNL A   1      43.225  37.767  28.584  1.00  0.00     0.023 A 
ATOM     79  C   UNL A   1      43.333  38.654  29.668  1.00  0.00     0.031 A 
ATOM     80  C   UNL A   1      42.422  38.154  27.496  1.00  0.00     0.131 A 
ATOM     81  C   UNL A   1      42.612  39.859  29.661  1.00  0.00     0.055 A 
ATOM     82  C   UNL A   1      41.749  39.377  27.471  1.00  0.00     0.041 A 
ATOM     83  F   UNL A   1      42.281  37.345  26.434  1.00  0.00    -0.206 F 
ATOM     84  C   UNL A   1      41.830  40.232  28.566  1.00  0.00     0.022 A 
BRANCH  81  85
ATOM     85  S   UNL A   1      42.641  40.898  31.149  1.00  0.00     0.124 S 
ATOM     86  O   UNL A   1      41.304  41.482  31.130  1.00  0.00    -0.237 OA
ATOM     87  O   UNL A   1      42.899  39.916  32.197  1.00  0.00    -0.237 OA
ATOM     88  O   UNL A   1      43.735  41.831  30.890  1.00  0.00    -0.744 OA
ENDBRANCH  81  85
ENDBRANCH  54  78
BRANCH  66  89
ATOM     89  C   UNL A   1      49.538  35.524  26.638  1.00  0.00     0.023 A 
ATOM     90  C   UNL A   1      50.564  36.148  27.368  1.00  0.00     0.031 A 
ATOM     91  C   UNL A   1      49.598  35.583  25.233  1.00  0.00     0.131 A 
ATOM     92  C   UNL A   1      51.565  36.863  26.695  1.00  0.00     0.055 A 
ATOM     93  C   UNL A   1      50.635  36.237  24.567  1.00  0.00     0.041 A 
ATOM     94  F   UNL A   1      48.646  35.005  24.483  1.00  0.00    -0.206 F 
ATOM     95  C   UNL A   1      51.617  36.898  25.299  1.00  0.00     0.022 A 
BRANCH  92  96
ATOM     96  S   UNL A   1      52.733  37.852  27.669  1.00  0.00     0.124 S 
ATOM     97  O   UNL A   1      52.106  37.854  28.986  1.00  0.00    -0.237 OA
ATOM     98  O   UNL A   1      53.967  37.083  27.552  1.00  0.00    -0.237 OA
ATOM     99  O   UNL A   1      52.742  39.145  26.985  1.00  0.00    -0.744 OA
ENDBRANCH  92  96
ENDBRANCH  66  89
ENDBRANCH  40  41
ENDBRANCH  33  35
ENDBRANCH  32  33
ENDBRANCH  31  32
ENDBRANCH  30  31
ENDBRANCH  29  30
ENDBRANCH  28  29
ENDBRANCH  27  28
ENDBRANCH  26  27
ENDBRANCH   1  26
TORSDOF 28
ENDMDL
MODEL 3
REMARK VINA RESULT:      -7.5      3.704      7.542
REMARK SMILES CC[C@](C)(NC(=O)NC[C@@H](C)[NH+](C)C)C(=O)OCCOCCOCCOCCOC(=O)c1ccc(-c2c3nc(c(-c4cc(S(=O)(=O)[O-])ccc4F)c4ccc([nH]4)c(-c4cc(S(=O)(=O)[O-])ccc4F)c4nc(c(-c5cc(S(=O)(=O)[O-])ccc5F)c5ccc2[nH]5)C=C4)C=C3)cc1
REMARK SMILES IDX 22 1 21 2 20 3 19 4 18 5 17 6 15 7 16 8 3 9 4 10 2 11 1 12
REMARK SMILES IDX 5 13 6 14 7 16 8 17 9 19 10 20 11 21 12 22 13 23 14 24 23 26
REMARK SMILES IDX 24 27 25 28 26 29 27 30 28 31 29 32 30 33 31 34 32 35 33 36
REMARK SMILES IDX 94 37 34 38 93 39 35 40 36 41 37 42 87 43 38 44 92 45 86 46
REMARK SMILES IDX 88 47 39 48 91 49 85 50 84 51 40 53 72 54 52 55 71 56 53 57
REMARK SMILES IDX 56 58 70 59 89 60 54 61 55 62 69 64 90 65 57 66 41 67 42 68
REMARK SMILES IDX 50 69 43 70 49 71 51 72 48 73 44 74 45 75 46 76 47 77 73 78
REMARK SMILES IDX 74 79 82 80 75 81 81 82 83 83 80 84 76 85 77 86 78 87 79 88
REMARK SMILES IDX 58 89 59 90 67 91 60 92 66 93 68 94 65 95 61 96 62 97 63 98
REMARK SMILES IDX 64 99
REMARK H PARENT 5 15 8 18 12 25 88 52 56 63
REMARK Flexibility Score: inf
ROOT
ATOM      1  C   UNL A   1      36.238  30.262  28.555  1.00  0.00     0.188 C 
ENDROOT
BRANCH   1   2
ATOM      2  C   UNL A   1      35.427  29.746  27.348  1.00  0.00     0.188 C 
BRANCH   2   3
ATOM      3  O   UNL A   1      34.028  29.514  27.477  1.00  0.00    -0.376 OA
BRANCH   3   4
ATOM      4  C   UNL A   1      33.505  28.328  26.885  1.00  0.00     0.202 C 
BRANCH   4   5
ATOM      5  C   UNL A   1      31.979  28.192  26.807  1.00  0.00     0.261 C 
BRANCH   5   6
ATOM      6  O   UNL A   1      31.467  28.425  25.480  1.00  0.00    -0.462 OA
BRANCH   6   7
ATOM      7  C   UNL A   1      31.826  27.570  24.494  1.00  0.00     0.331 C 
ATOM      8  O   UNL A   1      32.990  27.411  24.143  1.00  0.00    -0.249 OA
BRANCH   7   9
ATOM      9  C   UNL A   1      30.622  26.710  23.972  1.00  0.00     0.136 C 
ATOM     10  C   UNL A   1      31.318  25.598  23.141  1.00  0.00     0.047 C 
BRANCH   9  11
ATOM     11  C   UNL A   1      29.679  27.538  23.056  1.00  0.00     0.037 C 
ATOM     12  C   UNL A   1      28.238  27.701  23.526  1.00  0.00     0.007 C 
ENDBRANCH   9  11
BRANCH   9  13
ATOM     13  N   UNL A   1      29.781  25.967  24.967  1.00  0.00    -0.322 N 
ATOM     14  C   UNL A   1      29.964  25.307  26.118  1.00  0.00     0.315 C 
ATOM     15  H   UNL A   1      28.832  25.964  24.701  1.00  0.00     0.166 HD
ATOM     16  O   UNL A   1      28.986  25.200  26.863  1.00  0.00    -0.249 OA
ATOM     17  N   UNL A   1      31.125  24.765  26.505  1.00  0.00    -0.332 N 
ATOM     18  H   UNL A   1      31.212  24.577  27.467  1.00  0.00     0.165 HD
BRANCH  17  19
ATOM     19  C   UNL A   1      32.262  24.423  25.691  1.00  0.00     0.182 C 
BRANCH  19  20
ATOM     20  C   UNL A   1      32.737  22.951  25.728  1.00  0.00     0.200 C 
ATOM     21  C   UNL A   1      31.507  22.026  25.724  1.00  0.00     0.077 C 
BRANCH  20  22
ATOM     22  N   UNL A   1      33.727  22.680  24.649  1.00  0.00    -0.336 N 
ATOM     23  C   UNL A   1      34.689  23.764  24.462  1.00  0.00     0.332 C 
ATOM     24  C   UNL A   1      34.433  21.407  24.745  1.00  0.00     0.332 C 
ATOM     25  H   UNL A   1      33.131  22.618  23.824  1.00  0.00     0.347 HD
ENDBRANCH  20  22
ENDBRANCH  19  20
ENDBRANCH  17  19
ENDBRANCH   9  13
ENDBRANCH   7   9
ENDBRANCH   6   7
ENDBRANCH   5   6
ENDBRANCH   4   5
ENDBRANCH   3   4
ENDBRANCH   2   3
ENDBRANCH   1   2
BRANCH   1  26
ATOM     26  O   UNL A   1      36.898  29.254  29.315  1.00  0.00    -0.377 OA
BRANCH  26  27
ATOM     27  C   UNL A   1      38.324  29.306  29.261  1.00  0.00     0.188 C 
BRANCH  27  28
ATOM     28  C   UNL A   1      38.896  28.467  28.106  1.00  0.00     0.188 C 
BRANCH  28  29
ATOM     29  O   UNL A   1      39.380  27.207  28.549  1.00  0.00    -0.376 OA
BRANCH  29  30
ATOM     30  C   UNL A   1      39.363  26.104  27.652  1.00  0.00     0.202 C 
BRANCH  30  31
ATOM     31  C   UNL A   1      40.520  25.082  27.641  1.00  0.00     0.261 C 
BRANCH  31  32
ATOM     32  O   UNL A   1      41.853  25.595  27.776  1.00  0.00    -0.460 OA
BRANCH  32  33
ATOM     33  C   UNL A   1      42.506  25.902  26.641  1.00  0.00     0.338 C 
ATOM     34  O   UNL A   1      42.559  25.214  25.628  1.00  0.00    -0.246 OA
BRANCH  33  35
ATOM     35  C   UNL A   1      42.983  27.296  26.729  1.00  0.00     0.060 A 
ATOM     36  C   UNL A   1      44.151  27.551  27.457  1.00  0.00     0.016 A 
ATOM     37  C   UNL A   1      42.246  28.351  26.181  1.00  0.00     0.016 A 
ATOM     38  C   UNL A   1      44.529  28.862  27.730  1.00  0.00     0.010 A 
ATOM     39  C   UNL A   1      42.613  29.669  26.474  1.00  0.00     0.010 A 
ATOM     40  C   UNL A   1      43.714  29.922  27.314  1.00  0.00    -0.014 A 
BRANCH  40  41
ATOM     41  C   UNL A   1      43.832  31.211  28.043  1.00  0.00     0.031 A 
ATOM     42  C   UNL A   1      42.906  31.432  29.215  1.00  0.00     0.074 A 
ATOM     43  C   UNL A   1      44.792  32.106  27.755  1.00  0.00     0.049 A 
ATOM     44  N   UNL A   1      42.841  32.433  30.053  1.00  0.00    -0.248 NA
ATOM     45  C   UNL A   1      41.921  30.369  29.475  1.00  0.00     0.031 C 
ATOM     46  C   UNL A   1      45.785  31.967  26.692  1.00  0.00     0.029 A 
ATOM     47  N   UNL A   1      45.098  33.304  28.349  1.00  0.00    -0.354 N 
ATOM     48  C   UNL A   1      41.811  32.121  30.936  1.00  0.00     0.074 A 
ATOM     49  C   UNL A   1      41.253  30.859  30.505  1.00  0.00     0.031 C 
ATOM     50  C   UNL A   1      46.597  33.041  26.713  1.00  0.00     0.029 A 
ATOM     51  C   UNL A   1      46.163  33.953  27.771  1.00  0.00     0.049 A 
ATOM     52  H   UNL A   1      44.601  33.665  29.118  1.00  0.00     0.167 HD
ATOM     53  C   UNL A   1      41.374  32.815  32.016  1.00  0.00     0.034 A 
ATOM     54  C   UNL A   1      46.714  35.150  28.060  1.00  0.00     0.034 A 
ATOM     55  C   UNL A   1      41.933  34.078  32.426  1.00  0.00     0.049 A 
ATOM     56  C   UNL A   1      46.157  35.949  29.218  1.00  0.00     0.074 A 
ATOM     57  C   UNL A   1      41.567  34.878  33.495  1.00  0.00     0.029 A 
ATOM     58  N   UNL A   1      42.972  34.733  31.777  1.00  0.00    -0.354 N 
ATOM     59  N   UNL A   1      45.181  35.644  30.044  1.00  0.00    -0.248 NA
ATOM     60  C   UNL A   1      46.790  37.245  29.491  1.00  0.00     0.031 C 
ATOM     61  C   UNL A   1      42.334  36.047  33.448  1.00  0.00     0.029 A 
ATOM     62  C   UNL A   1      43.240  35.940  32.405  1.00  0.00     0.049 A 
ATOM     63  H   UNL A   1      43.448  34.391  30.987  1.00  0.00     0.167 HD
ATOM     64  C   UNL A   1      45.118  36.693  30.961  1.00  0.00     0.074 A 
ATOM     65  C   UNL A   1      46.158  37.629  30.589  1.00  0.00     0.031 C 
ATOM     66  C   UNL A   1      44.282  36.863  32.020  1.00  0.00     0.034 A 
BRANCH  53  67
ATOM     67  C   UNL A   1      40.195  32.247  32.771  1.00  0.00     0.023 A 
ATOM     68  C   UNL A   1      38.868  32.591  32.452  1.00  0.00     0.031 A 
ATOM     69  C   UNL A   1      40.406  31.391  33.866  1.00  0.00     0.131 A 
ATOM     70  C   UNL A   1      37.815  32.146  33.267  1.00  0.00     0.055 A 
ATOM     71  C   UNL A   1      39.347  30.885  34.621  1.00  0.00     0.041 A 
ATOM     72  F   UNL A   1      41.650  31.050  34.237  1.00  0.00    -0.206 F 
ATOM     73  C   UNL A   1      38.042  31.275  34.334  1.00  0.00     0.022 A 
BRANCH  70  74
ATOM     74  S   UNL A   1      36.161  32.849  33.011  1.00  0.00     0.124 S 
ATOM     75  O   UNL A   1      35.605  32.795  34.362  1.00  0.00    -0.237 OA
ATOM     76  O   UNL A   1      36.460  34.181  32.496  1.00  0.00    -0.237 OA
ATOM     77  O   UNL A   1      35.543  31.933  32.055  1.00  0.00    -0.744 OA
ENDBRANCH  70  74
ENDBRANCH  53  67
BRANCH  54  78
ATOM     78  C   UNL A   1      47.836  35.690  27.240  1.00  0.00     0.023 A 
ATOM     79  C   UNL A   1      49.177  35.446  27.582  1.00  0.00     0.031 A 
ATOM     80  C   UNL A   1      47.583  36.521  26.133  1.00  0.00     0.131 A 
ATOM     81  C   UNL A   1      50.209  36.063  26.858  1.00  0.00     0.055 A 
ATOM     82  C   UNL A   1      48.613  37.090  25.383  1.00  0.00     0.041 A 
ATOM     83  F   UNL A   1      46.321  36.790  25.762  1.00  0.00    -0.206 F 
ATOM     84  C   UNL A   1      49.937  36.874  25.754  1.00  0.00     0.022 A 
BRANCH  81  85
ATOM     85  S   UNL A   1      51.917  35.861  27.434  1.00  0.00     0.124 S 
ATOM     86  O   UNL A   1      52.434  37.221  27.317  1.00  0.00    -0.237 OA
ATOM     87  O   UNL A   1      51.722  35.363  28.791  1.00  0.00    -0.237 OA
ATOM     88  O   UNL A   1      52.482  34.896  26.493  1.00  0.00    -0.744 OA
ENDBRANCH  81  85
ENDBRANCH  54  78
BRANCH  66  89
ATOM     89  C   UNL A   1      44.512  38.078  32.889  1.00  0.00     0.023 A 
ATOM     90  C   UNL A   1      43.761  39.257  32.740  1.00  0.00     0.031 A 
ATOM     91  C   UNL A   1      45.520  38.058  33.871  1.00  0.00     0.131 A 
ATOM     92  C   UNL A   1      44.076  40.387  33.509  1.00  0.00     0.055 A 
ATOM     93  C   UNL A   1      45.782  39.163  34.681  1.00  0.00     0.041 A 
ATOM     94  F   UNL A   1      46.270  36.960  34.059  1.00  0.00    -0.206 F 
ATOM     95  C   UNL A   1      45.070  40.343  34.490  1.00  0.00     0.022 A 
BRANCH  92  96
ATOM     96  S   UNL A   1      43.251  41.957  33.125  1.00  0.00     0.124 S 
ATOM     97  O   UNL A   1      41.900  41.720  33.623  1.00  0.00    -0.237 OA
ATOM     98  O   UNL A   1      44.048  42.920  33.877  1.00  0.00    -0.237 OA
ATOM     99  O   UNL A   1      43.366  42.059  31.671  1.00  0.00    -0.744 OA
ENDBRANCH  92  96
ENDBRANCH  66  89
ENDBRANCH  40  41
ENDBRANCH  33  35
ENDBRANCH  32  33
ENDBRANCH  31  32
ENDBRANCH  30  31
ENDBRANCH  29  30
ENDBRANCH  28  29
ENDBRANCH  27  28
ENDBRANCH  26  27
ENDBRANCH   1  26
TORSDOF 28
ENDMDL
