MODEL 1
REMARK VINA RESULT:      -8.7      0.000      0.000
REMARK SMILES COc1cccc(N2/C(=[NH+]/C(=O)CCC(=O)OCCOCCOCCOCCOC(=O)c3ccc(-c4c5nc(c(-c6cc(S(=O)(=O)[O-])ccc6F)c6ccc([nH]6)c(-c6cc(S(=O)(=O)[O-])ccc6F)c6nc(c(-c7cc(S(=O)(=O)[O-])ccc7F)c7ccc4[nH]7)C=C6)C=C5)cc3)S[C@@H]3CS(=O)(=O)C[C@H]32)c1
REMARK SMILES IDX 22 1 21 2 20 3 19 4 18 5 17 6 15 7 16 8 14 9 13 10 11 11
REMARK SMILES IDX 8 12 9 13 102 14 10 15 95 16 96 17 101 18 97 20 98 21 12 22
REMARK SMILES IDX 99 23 100 24 7 25 3 26 4 27 103 28 5 29 6 30 2 31 1 32 23 33
REMARK SMILES IDX 24 34 25 35 26 36 27 37 28 38 29 39 30 40 31 41 32 42 33 43
REMARK SMILES IDX 94 44 34 45 93 46 35 47 36 48 37 49 87 50 38 51 92 52 86 53
REMARK SMILES IDX 88 54 39 55 91 56 85 57 84 58 40 60 72 61 52 62 71 63 53 64
REMARK SMILES IDX 56 65 70 66 89 67 54 68 55 69 69 71 90 72 57 73 41 74 42 75
REMARK SMILES IDX 50 76 43 77 49 78 51 79 48 80 44 81 45 82 46 83 47 84 73 85
REMARK SMILES IDX 74 86 82 87 75 88 81 89 83 90 80 91 76 92 77 93 78 94 79 95
REMARK SMILES IDX 58 96 59 97 67 98 60 99 66 100 68 101 65 102 61 103 62 104
REMARK SMILES IDX 63 105 64 106
REMARK H PARENT 10 19 88 59 56 70
REMARK Flexibility Score: inf
ROOT
ATOM      1  C   UNL A   1      34.016  32.021  27.983  1.00  0.00     0.188 C 
ENDROOT
BRANCH   1   2
ATOM      2  C   UNL A   1      33.939  30.681  27.245  1.00  0.00     0.188 C 
BRANCH   2   3
ATOM      3  O   UNL A   1      34.990  29.719  27.271  1.00  0.00    -0.376 OA
BRANCH   3   4
ATOM      4  C   UNL A   1      35.870  29.656  28.376  1.00  0.00     0.202 C 
BRANCH   4   5
ATOM      5  C   UNL A   1      37.353  29.853  28.080  1.00  0.00     0.261 C 
BRANCH   5   6
ATOM      6  O   UNL A   1      38.111  29.746  29.287  1.00  0.00    -0.463 OA
BRANCH   6   7
ATOM      7  C   UNL A   1      38.794  28.604  29.456  1.00  0.00     0.306 C 
ATOM      8  O   UNL A   1      38.536  27.737  30.278  1.00  0.00    -0.252 OA
BRANCH   7   9
ATOM      9  C   UNL A   1      39.982  28.574  28.545  1.00  0.00     0.135 C 
BRANCH   9  10
ATOM     10  C   UNL A   1      40.027  27.518  27.457  1.00  0.00     0.139 C 
BRANCH  10  11
ATOM     11  C   UNL A   1      40.182  26.008  27.649  1.00  0.00     0.308 C 
ATOM     12  N   UNL A   1      39.523  22.756  26.126  1.00  0.00    -0.216 N 
ATOM     13  C   UNL A   1      40.016  24.018  26.531  1.00  0.00     0.319 C 
ATOM     14  C   UNL A   1      40.618  21.771  25.998  1.00  0.00     0.212 C 
ATOM     15  N   UNL A   1      39.435  25.103  26.913  1.00  0.00    -0.204 N 
ATOM     16  S   UNL A   1      41.834  23.935  26.530  1.00  0.00    -0.029 SA
ATOM     17  C   UNL A   1      41.674  22.228  27.014  1.00  0.00     0.120 C 
ATOM     18  C   UNL A   1      40.428  20.337  26.380  1.00  0.00     0.188 C 
ATOM     19  H   UNL A   1      38.492  25.283  26.690  1.00  0.00     0.316 HD
ATOM     20  C   UNL A   1      42.868  21.330  26.916  1.00  0.00     0.156 C 
ATOM     21  S   UNL A   1      42.118  19.772  26.526  1.00  0.00     0.155 S 
ATOM     22  O   UNL A   1      40.805  25.657  28.658  1.00  0.00    -0.247 OA
ATOM     23  O   UNL A   1      42.238  18.930  27.687  1.00  0.00    -0.229 OA
ATOM     24  O   UNL A   1      42.566  19.435  25.189  1.00  0.00    -0.229 OA
BRANCH  12  25
ATOM     25  C   UNL A   1      38.199  22.310  25.911  1.00  0.00     0.132 A 
ATOM     26  C   UNL A   1      35.757  22.671  25.865  1.00  0.00     0.123 A 
ATOM     27  C   UNL A   1      35.556  21.420  25.294  1.00  0.00     0.047 A 
ATOM     28  C   UNL A   1      37.069  23.126  26.132  1.00  0.00     0.098 A 
ATOM     29  C   UNL A   1      36.650  20.627  24.998  1.00  0.00     0.008 A 
ATOM     30  C   UNL A   1      37.948  21.060  25.314  1.00  0.00     0.052 A 
BRANCH  26  31
ATOM     31  O   UNL A   1      34.617  23.421  25.974  1.00  0.00    -0.497 OA
ATOM     32  C   UNL A   1      34.214  24.171  24.840  1.00  0.00     0.278 C 
ENDBRANCH  26  31
ENDBRANCH  12  25
ENDBRANCH  10  11
ENDBRANCH   9  10
ENDBRANCH   7   9
ENDBRANCH   6   7
ENDBRANCH   5   6
ENDBRANCH   4   5
ENDBRANCH   3   4
ENDBRANCH   2   3
ENDBRANCH   1   2
BRANCH   1  33
ATOM     33  O   UNL A   1      33.108  33.081  27.815  1.00  0.00    -0.377 OA
BRANCH  33  34
ATOM     34  C   UNL A   1      33.262  34.323  28.459  1.00  0.00     0.188 C 
BRANCH  34  35
ATOM     35  C   UNL A   1      34.358  34.332  29.518  1.00  0.00     0.188 C 
BRANCH  35  36
ATOM     36  O   UNL A   1      33.965  34.165  30.862  1.00  0.00    -0.376 OA
BRANCH  36  37
ATOM     37  C   UNL A   1      34.446  33.061  31.616  1.00  0.00     0.202 C 
BRANCH  37  38
ATOM     38  C   UNL A   1      35.868  32.435  31.533  1.00  0.00     0.261 C 
BRANCH  38  39
ATOM     39  O   UNL A   1      36.936  32.926  32.362  1.00  0.00    -0.460 OA
BRANCH  39  40
ATOM     40  C   UNL A   1      38.087  32.217  32.344  1.00  0.00     0.338 C 
ATOM     41  O   UNL A   1      38.223  31.070  32.732  1.00  0.00    -0.246 OA
BRANCH  40  42
ATOM     42  C   UNL A   1      39.153  32.968  31.622  1.00  0.00     0.060 A 
ATOM     43  C   UNL A   1      39.279  32.752  30.244  1.00  0.00     0.016 A 
ATOM     44  C   UNL A   1      40.077  33.794  32.267  1.00  0.00     0.016 A 
ATOM     45  C   UNL A   1      40.335  33.322  29.515  1.00  0.00     0.010 A 
ATOM     46  C   UNL A   1      41.145  34.359  31.534  1.00  0.00     0.010 A 
ATOM     47  C   UNL A   1      41.299  34.111  30.150  1.00  0.00    -0.014 A 
BRANCH  47  48
ATOM     48  C   UNL A   1      42.583  34.442  29.449  1.00  0.00     0.031 A 
ATOM     49  C   UNL A   1      43.670  33.397  29.462  1.00  0.00     0.074 A 
ATOM     50  C   UNL A   1      42.803  35.557  28.718  1.00  0.00     0.049 A 
ATOM     51  N   UNL A   1      44.877  33.458  28.966  1.00  0.00    -0.248 NA
ATOM     52  C   UNL A   1      43.316  32.088  30.033  1.00  0.00     0.031 C 
ATOM     53  C   UNL A   1      41.801  36.535  28.317  1.00  0.00     0.029 A 
ATOM     54  N   UNL A   1      43.971  36.080  28.200  1.00  0.00    -0.354 N 
ATOM     55  C   UNL A   1      45.394  32.175  29.080  1.00  0.00     0.074 A 
ATOM     56  C   UNL A   1      44.409  31.382  29.783  1.00  0.00     0.031 C 
ATOM     57  C   UNL A   1      42.414  37.615  27.788  1.00  0.00     0.029 A 
ATOM     58  C   UNL A   1      43.851  37.395  27.788  1.00  0.00     0.049 A 
ATOM     59  H   UNL A   1      44.810  35.568  28.132  1.00  0.00     0.167 HD
ATOM     60  C   UNL A   1      46.560  31.691  28.589  1.00  0.00     0.034 A 
ATOM     61  C   UNL A   1      44.790  38.317  27.481  1.00  0.00     0.034 A 
ATOM     62  C   UNL A   1      47.557  32.497  27.931  1.00  0.00     0.049 A 
ATOM     63  C   UNL A   1      46.202  37.851  27.291  1.00  0.00     0.074 A 
ATOM     64  C   UNL A   1      48.782  32.103  27.421  1.00  0.00     0.029 A 
ATOM     65  N   UNL A   1      47.463  33.866  27.715  1.00  0.00    -0.354 N 
ATOM     66  N   UNL A   1      46.693  36.645  27.428  1.00  0.00    -0.248 NA
ATOM     67  C   UNL A   1      47.156  38.850  26.795  1.00  0.00     0.031 C 
ATOM     68  C   UNL A   1      49.465  33.242  26.983  1.00  0.00     0.029 A 
ATOM     69  C   UNL A   1      48.630  34.337  27.129  1.00  0.00     0.049 A 
ATOM     70  H   UNL A   1      46.683  34.421  27.945  1.00  0.00     0.167 HD
ATOM     71  C   UNL A   1      47.986  36.716  26.930  1.00  0.00     0.074 A 
ATOM     72  C   UNL A   1      48.212  38.093  26.539  1.00  0.00     0.031 C 
ATOM     73  C   UNL A   1      48.875  35.709  26.755  1.00  0.00     0.034 A 
BRANCH  60  74
ATOM     74  C   UNL A   1      46.825  30.222  28.786  1.00  0.00     0.023 A 
ATOM     75  C   UNL A   1      46.444  29.271  27.822  1.00  0.00     0.031 A 
ATOM     76  C   UNL A   1      47.445  29.766  29.960  1.00  0.00     0.131 A 
ATOM     77  C   UNL A   1      46.640  27.906  28.076  1.00  0.00     0.055 A 
ATOM     78  C   UNL A   1      47.705  28.412  30.172  1.00  0.00     0.041 A 
ATOM     79  F   UNL A   1      47.801  30.629  30.924  1.00  0.00    -0.206 F 
ATOM     80  C   UNL A   1      47.291  27.472  29.233  1.00  0.00     0.022 A 
BRANCH  77  81
ATOM     81  S   UNL A   1      45.912  26.696  26.936  1.00  0.00     0.124 S 
ATOM     82  O   UNL A   1      46.771  26.840  25.764  1.00  0.00    -0.237 OA
ATOM     83  O   UNL A   1      46.042  25.446  27.675  1.00  0.00    -0.237 OA
ATOM     84  O   UNL A   1      44.543  27.176  26.758  1.00  0.00    -0.744 OA
ENDBRANCH  77  81
ENDBRANCH  60  74
BRANCH  61  85
ATOM     85  C   UNL A   1      44.501  39.776  27.353  1.00  0.00     0.023 A 
ATOM     86  C   UNL A   1      44.203  40.386  26.126  1.00  0.00     0.031 A 
ATOM     87  C   UNL A   1      44.747  40.616  28.453  1.00  0.00     0.131 A 
ATOM     88  C   UNL A   1      44.145  41.793  26.043  1.00  0.00     0.055 A 
ATOM     89  C   UNL A   1      44.592  42.004  28.386  1.00  0.00     0.041 A 
ATOM     90  F   UNL A   1      45.203  40.103  29.605  1.00  0.00    -0.206 F 
ATOM     91  C   UNL A   1      44.285  42.602  27.173  1.00  0.00     0.022 A 
BRANCH  88  92
ATOM     92  S   UNL A   1      44.061  42.572  24.406  1.00  0.00     0.124 S 
ATOM     93  O   UNL A   1      42.781  42.077  23.913  1.00  0.00    -0.237 OA
ATOM     94  O   UNL A   1      44.117  43.992  24.737  1.00  0.00    -0.237 OA
ATOM     95  O   UNL A   1      45.239  42.051  23.716  1.00  0.00    -0.744 OA
ENDBRANCH  88  92
ENDBRANCH  61  85
BRANCH  73  96
ATOM     96  C   UNL A   1      50.148  36.048  26.027  1.00  0.00     0.023 A 
ATOM     97  C   UNL A   1      51.317  36.425  26.708  1.00  0.00     0.031 A 
ATOM     98  C   UNL A   1      50.169  36.049  24.620  1.00  0.00     0.131 A 
ATOM     99  C   UNL A   1      52.435  36.860  25.981  1.00  0.00     0.055 A 
ATOM    100  C   UNL A   1      51.312  36.403  23.904  1.00  0.00     0.041 A 
ATOM    101  F   UNL A   1      49.075  35.713  23.918  1.00  0.00    -0.206 F 
ATOM    102  C   UNL A   1      52.448  36.829  24.585  1.00  0.00     0.022 A 
BRANCH  99 103
ATOM    103  S   UNL A   1      53.825  37.587  26.889  1.00  0.00     0.124 S 
ATOM    104  O   UNL A   1      53.589  39.017  26.706  1.00  0.00    -0.237 OA
ATOM    105  O   UNL A   1      53.617  37.078  28.241  1.00  0.00    -0.237 OA
ATOM    106  O   UNL A   1      54.999  37.058  26.200  1.00  0.00    -0.744 OA
ENDBRANCH  99 103
ENDBRANCH  73  96
ENDBRANCH  47  48
ENDBRANCH  40  42
ENDBRANCH  39  40
ENDBRANCH  38  39
ENDBRANCH  37  38
ENDBRANCH  36  37
ENDBRANCH  35  36
ENDBRANCH  34  35
ENDBRANCH  33  34
ENDBRANCH   1  33
TORSDOF 27
ENDMDL
MODEL 2
REMARK VINA RESULT:      -8.6      4.688      7.688
REMARK SMILES COc1cccc(N2/C(=[NH+]/C(=O)CCC(=O)OCCOCCOCCOCCOC(=O)c3ccc(-c4c5nc(c(-c6cc(S(=O)(=O)[O-])ccc6F)c6ccc([nH]6)c(-c6cc(S(=O)(=O)[O-])ccc6F)c6nc(c(-c7cc(S(=O)(=O)[O-])ccc7F)c7ccc4[nH]7)C=C6)C=C5)cc3)S[C@@H]3CS(=O)(=O)C[C@H]32)c1
REMARK SMILES IDX 22 1 21 2 20 3 19 4 18 5 17 6 15 7 16 8 14 9 13 10 11 11
REMARK SMILES IDX 8 12 9 13 102 14 10 15 95 16 96 17 101 18 97 20 98 21 12 22
REMARK SMILES IDX 99 23 100 24 7 25 3 26 4 27 103 28 5 29 6 30 2 31 1 32 23 33
REMARK SMILES IDX 24 34 25 35 26 36 27 37 28 38 29 39 30 40 31 41 32 42 33 43
REMARK SMILES IDX 94 44 34 45 93 46 35 47 36 48 37 49 87 50 38 51 92 52 86 53
REMARK SMILES IDX 88 54 39 55 91 56 85 57 84 58 40 60 72 61 52 62 71 63 53 64
REMARK SMILES IDX 56 65 70 66 89 67 54 68 55 69 69 71 90 72 57 73 41 74 42 75
REMARK SMILES IDX 50 76 43 77 49 78 51 79 48 80 44 81 45 82 46 83 47 84 73 85
REMARK SMILES IDX 74 86 82 87 75 88 81 89 83 90 80 91 76 92 77 93 78 94 79 95
REMARK SMILES IDX 58 96 59 97 67 98 60 99 66 100 68 101 65 102 61 103 62 104
REMARK SMILES IDX 63 105 64 106
REMARK H PARENT 10 19 88 59 56 70
REMARK Flexibility Score: inf
ROOT
ATOM      1  C   UNL A   1      32.965  30.992  26.882  1.00  0.00     0.188 C 
ENDROOT
BRANCH   1   2
ATOM      2  C   UNL A   1      32.724  29.646  26.192  1.00  0.00     0.188 C 
BRANCH   2   3
ATOM      3  O   UNL A   1      32.909  28.393  26.846  1.00  0.00    -0.376 OA
BRANCH   3   4
ATOM      4  C   UNL A   1      32.932  27.195  26.097  1.00  0.00     0.202 C 
BRANCH   4   5
ATOM      5  C   UNL A   1      33.175  27.329  24.598  1.00  0.00     0.261 C 
BRANCH   5   6
ATOM      6  O   UNL A   1      32.048  27.947  23.972  1.00  0.00    -0.463 OA
BRANCH   6   7
ATOM      7  C   UNL A   1      31.746  27.510  22.740  1.00  0.00     0.306 C 
ATOM      8  O   UNL A   1      30.626  27.480  22.252  1.00  0.00    -0.252 OA
BRANCH   7   9
ATOM      9  C   UNL A   1      32.973  26.977  22.066  1.00  0.00     0.135 C 
BRANCH   9  10
ATOM     10  C   UNL A   1      32.842  25.725  21.221  1.00  0.00     0.139 C 
BRANCH  10  11
ATOM     11  C   UNL A   1      33.270  24.307  21.607  1.00  0.00     0.308 C 
ATOM     12  N   UNL A   1      34.393  22.217  24.382  1.00  0.00    -0.216 N 
ATOM     13  C   UNL A   1      33.685  22.977  23.423  1.00  0.00     0.319 C 
ATOM     14  C   UNL A   1      33.711  20.935  24.657  1.00  0.00     0.212 C 
ATOM     15  N   UNL A   1      33.970  24.055  22.776  1.00  0.00    -0.204 N 
ATOM     16  S   UNL A   1      32.114  22.124  23.082  1.00  0.00    -0.029 SA
ATOM     17  C   UNL A   1      32.984  20.593  23.349  1.00  0.00     0.120 C 
ATOM     18  C   UNL A   1      34.482  19.679  24.916  1.00  0.00     0.188 C 
ATOM     19  H   UNL A   1      34.662  24.677  23.100  1.00  0.00     0.316 HD
ATOM     20  C   UNL A   1      32.197  19.334  23.543  1.00  0.00     0.156 C 
ATOM     21  S   UNL A   1      33.234  18.425  24.657  1.00  0.00     0.155 S 
ATOM     22  O   UNL A   1      33.187  23.459  20.711  1.00  0.00    -0.247 OA
ATOM     23  O   UNL A   1      33.806  17.330  23.921  1.00  0.00    -0.229 OA
ATOM     24  O   UNL A   1      32.489  18.313  25.896  1.00  0.00    -0.229 OA
BRANCH  12  25
ATOM     25  C   UNL A   1      35.629  22.464  25.023  1.00  0.00     0.132 A 
ATOM     26  C   UNL A   1      37.936  21.827  25.630  1.00  0.00     0.123 A 
ATOM     27  C   UNL A   1      38.166  23.081  26.182  1.00  0.00     0.047 A 
ATOM     28  C   UNL A   1      36.693  21.536  25.021  1.00  0.00     0.098 A 
ATOM     29  C   UNL A   1      37.166  24.036  26.133  1.00  0.00     0.008 A 
ATOM     30  C   UNL A   1      35.914  23.727  25.576  1.00  0.00     0.052 A 
BRANCH  26  31
ATOM     31  O   UNL A   1      39.042  21.021  25.605  1.00  0.00    -0.497 OA
ATOM     32  C   UNL A   1      40.231  21.520  26.196  1.00  0.00     0.278 C 
ENDBRANCH  26  31
ENDBRANCH  12  25
ENDBRANCH  10  11
ENDBRANCH   9  10
ENDBRANCH   7   9
ENDBRANCH   6   7
ENDBRANCH   5   6
ENDBRANCH   4   5
ENDBRANCH   3   4
ENDBRANCH   2   3
ENDBRANCH   1   2
BRANCH   1  33
ATOM     33  O   UNL A   1      33.769  31.176  28.020  1.00  0.00    -0.377 OA
BRANCH  33  34
ATOM     34  C   UNL A   1      34.118  32.450  28.506  1.00  0.00     0.188 C 
BRANCH  34  35
ATOM     35  C   UNL A   1      34.902  32.413  29.812  1.00  0.00     0.188 C 
BRANCH  35  36
ATOM     36  O   UNL A   1      34.664  33.447  30.743  1.00  0.00    -0.376 OA
BRANCH  36  37
ATOM     37  C   UNL A   1      35.672  33.815  31.673  1.00  0.00     0.202 C 
BRANCH  37  38
ATOM     38  C   UNL A   1      35.456  34.557  33.024  1.00  0.00     0.261 C 
BRANCH  38  39
ATOM     39  O   UNL A   1      36.555  34.775  33.927  1.00  0.00    -0.460 OA
BRANCH  39  40
ATOM     40  C   UNL A   1      36.755  33.829  34.871  1.00  0.00     0.338 C 
ATOM     41  O   UNL A   1      36.002  33.576  35.797  1.00  0.00    -0.246 OA
BRANCH  40  42
ATOM     42  C   UNL A   1      37.951  33.003  34.541  1.00  0.00     0.060 A 
ATOM     43  C   UNL A   1      39.210  33.540  34.832  1.00  0.00     0.016 A 
ATOM     44  C   UNL A   1      37.871  31.775  33.878  1.00  0.00     0.016 A 
ATOM     45  C   UNL A   1      40.387  32.882  34.438  1.00  0.00     0.010 A 
ATOM     46  C   UNL A   1      39.056  31.120  33.473  1.00  0.00     0.010 A 
ATOM     47  C   UNL A   1      40.331  31.678  33.730  1.00  0.00    -0.014 A 
BRANCH  47  48
ATOM     48  C   UNL A   1      41.552  31.155  33.036  1.00  0.00     0.031 A 
ATOM     49  C   UNL A   1      42.373  30.118  33.761  1.00  0.00     0.074 A 
ATOM     50  C   UNL A   1      41.916  31.459  31.770  1.00  0.00     0.049 A 
ATOM     51  N   UNL A   1      43.488  29.544  33.392  1.00  0.00    -0.248 NA
ATOM     52  C   UNL A   1      41.815  29.603  35.022  1.00  0.00     0.031 C 
ATOM     53  C   UNL A   1      41.113  32.182  30.794  1.00  0.00     0.029 A 
ATOM     54  N   UNL A   1      43.093  31.222  31.088  1.00  0.00    -0.354 N 
ATOM     55  C   UNL A   1      43.718  28.541  34.323  1.00  0.00     0.074 A 
ATOM     56  C   UNL A   1      42.682  28.650  35.328  1.00  0.00     0.031 C 
ATOM     57  C   UNL A   1      41.874  32.488  29.724  1.00  0.00     0.029 A 
ATOM     58  C   UNL A   1      43.214  31.961  29.926  1.00  0.00     0.049 A 
ATOM     59  H   UNL A   1      43.780  30.590  31.400  1.00  0.00     0.167 HD
ATOM     60  C   UNL A   1      44.672  27.580  34.307  1.00  0.00     0.034 A 
ATOM     61  C   UNL A   1      44.285  32.208  29.140  1.00  0.00     0.034 A 
ATOM     62  C   UNL A   1      45.728  27.506  33.328  1.00  0.00     0.049 A 
ATOM     63  C   UNL A   1      45.522  31.387  29.352  1.00  0.00     0.074 A 
ATOM     64  C   UNL A   1      46.757  26.585  33.241  1.00  0.00     0.029 A 
ATOM     65  N   UNL A   1      45.912  28.402  32.282  1.00  0.00    -0.354 N 
ATOM     66  N   UNL A   1      45.746  30.461  30.250  1.00  0.00    -0.248 NA
ATOM     67  C   UNL A   1      46.600  31.568  28.373  1.00  0.00     0.031 C 
ATOM     68  C   UNL A   1      47.611  26.973  32.205  1.00  0.00     0.029 A 
ATOM     69  C   UNL A   1      47.067  28.083  31.581  1.00  0.00     0.049 A 
ATOM     70  H   UNL A   1      45.312  29.152  32.070  1.00  0.00     0.167 HD
ATOM     71  C   UNL A   1      46.946  29.871  29.877  1.00  0.00     0.074 A 
ATOM     72  C   UNL A   1      47.418  30.581  28.705  1.00  0.00     0.031 C 
ATOM     73  C   UNL A   1      47.559  28.795  30.426  1.00  0.00     0.034 A 
BRANCH  60  74
ATOM     74  C   UNL A   1      44.628  26.556  35.410  1.00  0.00     0.023 A 
ATOM     75  C   UNL A   1      45.190  26.813  36.673  1.00  0.00     0.031 A 
ATOM     76  C   UNL A   1      44.035  25.303  35.189  1.00  0.00     0.131 A 
ATOM     77  C   UNL A   1      45.196  25.807  37.650  1.00  0.00     0.055 A 
ATOM     78  C   UNL A   1      43.977  24.334  36.190  1.00  0.00     0.041 A 
ATOM     79  F   UNL A   1      43.511  24.997  33.992  1.00  0.00    -0.206 F 
ATOM     80  C   UNL A   1      44.570  24.578  37.426  1.00  0.00     0.022 A 
BRANCH  77  81
ATOM     81  S   UNL A   1      46.149  26.076  39.171  1.00  0.00     0.124 S 
ATOM     82  O   UNL A   1      45.418  25.249  40.128  1.00  0.00    -0.237 OA
ATOM     83  O   UNL A   1      47.477  25.603  38.800  1.00  0.00    -0.237 OA
ATOM     84  O   UNL A   1      46.038  27.516  39.392  1.00  0.00    -0.744 OA
ENDBRANCH  77  81
ENDBRANCH  60  74
BRANCH  61  85
ATOM     85  C   UNL A   1      44.313  33.274  28.095  1.00  0.00     0.023 A 
ATOM     86  C   UNL A   1      44.347  34.641  28.404  1.00  0.00     0.031 A 
ATOM     87  C   UNL A   1      44.078  32.918  26.755  1.00  0.00     0.131 A 
ATOM     88  C   UNL A   1      44.163  35.593  27.379  1.00  0.00     0.055 A 
ATOM     89  C   UNL A   1      43.994  33.865  25.730  1.00  0.00     0.041 A 
ATOM     90  F   UNL A   1      43.864  31.635  26.426  1.00  0.00    -0.206 F 
ATOM     91  C   UNL A   1      44.041  35.215  26.040  1.00  0.00     0.022 A 
BRANCH  88  92
ATOM     92  S   UNL A   1      43.908  37.332  27.832  1.00  0.00     0.124 S 
ATOM     93  O   UNL A   1      44.755  38.013  26.862  1.00  0.00    -0.237 OA
ATOM     94  O   UNL A   1      42.469  37.488  27.653  1.00  0.00    -0.237 OA
ATOM     95  O   UNL A   1      44.370  37.396  29.218  1.00  0.00    -0.744 OA
ENDBRANCH  88  92
ENDBRANCH  61  85
BRANCH  73  96
ATOM     96  C   UNL A   1      48.768  28.264  29.704  1.00  0.00     0.023 A 
ATOM     97  C   UNL A   1      48.665  27.304  28.684  1.00  0.00     0.031 A 
ATOM     98  C   UNL A   1      50.054  28.688  30.088  1.00  0.00     0.131 A 
ATOM     99  C   UNL A   1      49.827  26.744  28.137  1.00  0.00     0.055 A 
ATOM    100  C   UNL A   1      51.204  28.187  29.481  1.00  0.00     0.041 A 
ATOM    101  F   UNL A   1      50.212  29.592  31.069  1.00  0.00    -0.206 F 
ATOM    102  C   UNL A   1      51.095  27.195  28.511  1.00  0.00     0.022 A 
BRANCH  99 103
ATOM    103  S   UNL A   1      49.659  25.326  27.021  1.00  0.00     0.124 S 
ATOM    104  O   UNL A   1      48.617  24.544  27.682  1.00  0.00    -0.237 OA
ATOM    105  O   UNL A   1      49.276  25.960  25.763  1.00  0.00    -0.237 OA
ATOM    106  O   UNL A   1      50.990  24.722  27.030  1.00  0.00    -0.744 OA
ENDBRANCH  99 103
ENDBRANCH  73  96
ENDBRANCH  47  48
ENDBRANCH  40  42
ENDBRANCH  39  40
ENDBRANCH  38  39
ENDBRANCH  37  38
ENDBRANCH  36  37
ENDBRANCH  35  36
ENDBRANCH  34  35
ENDBRANCH  33  34
ENDBRANCH   1  33
TORSDOF 27
ENDMDL
MODEL 3
REMARK VINA RESULT:      -8.2      6.592     14.081
REMARK SMILES COc1cccc(N2/C(=[NH+]/C(=O)CCC(=O)OCCOCCOCCOCCOC(=O)c3ccc(-c4c5nc(c(-c6cc(S(=O)(=O)[O-])ccc6F)c6ccc([nH]6)c(-c6cc(S(=O)(=O)[O-])ccc6F)c6nc(c(-c7cc(S(=O)(=O)[O-])ccc7F)c7ccc4[nH]7)C=C6)C=C5)cc3)S[C@@H]3CS(=O)(=O)C[C@H]32)c1
REMARK SMILES IDX 22 1 21 2 20 3 19 4 18 5 17 6 15 7 16 8 14 9 13 10 11 11
REMARK SMILES IDX 8 12 9 13 102 14 10 15 95 16 96 17 101 18 97 20 98 21 12 22
REMARK SMILES IDX 99 23 100 24 7 25 3 26 4 27 103 28 5 29 6 30 2 31 1 32 23 33
REMARK SMILES IDX 24 34 25 35 26 36 27 37 28 38 29 39 30 40 31 41 32 42 33 43
REMARK SMILES IDX 94 44 34 45 93 46 35 47 36 48 37 49 87 50 38 51 92 52 86 53
REMARK SMILES IDX 88 54 39 55 91 56 85 57 84 58 40 60 72 61 52 62 71 63 53 64
REMARK SMILES IDX 56 65 70 66 89 67 54 68 55 69 69 71 90 72 57 73 41 74 42 75
REMARK SMILES IDX 50 76 43 77 49 78 51 79 48 80 44 81 45 82 46 83 47 84 73 85
REMARK SMILES IDX 74 86 82 87 75 88 81 89 83 90 80 91 76 92 77 93 78 94 79 95
REMARK SMILES IDX 58 96 59 97 67 98 60 99 66 100 68 101 65 102 61 103 62 104
REMARK SMILES IDX 63 105 64 106
REMARK H PARENT 10 19 88 59 56 70
REMARK Flexibility Score: inf
ROOT
ATOM      1  C   UNL A   1      45.449  41.029  38.261  1.00  0.00     0.188 C 
ENDROOT
BRANCH   1   2
ATOM      2  C   UNL A   1      45.348  42.466  37.743  1.00  0.00     0.188 C 
BRANCH   2   3
ATOM      3  O   UNL A   1      44.628  42.819  36.566  1.00  0.00    -0.376 OA
BRANCH   3   4
ATOM      4  C   UNL A   1      43.266  42.463  36.430  1.00  0.00     0.202 C 
BRANCH   4   5
ATOM      5  C   UNL A   1      42.659  42.598  35.038  1.00  0.00     0.261 C 
BRANCH   5   6
ATOM      6  O   UNL A   1      42.464  43.978  34.721  1.00  0.00    -0.463 OA
BRANCH   6   7
ATOM      7  C   UNL A   1      42.629  44.316  33.433  1.00  0.00     0.306 C 
ATOM      8  O   UNL A   1      42.593  45.452  32.986  1.00  0.00    -0.252 OA
BRANCH   7   9
ATOM      9  C   UNL A   1      42.779  43.084  32.593  1.00  0.00     0.135 C 
BRANCH   9  10
ATOM     10  C   UNL A   1      42.940  43.253  31.093  1.00  0.00     0.139 C 
BRANCH  10  11
ATOM     11  C   UNL A   1      43.329  42.170  30.085  1.00  0.00     0.308 C 
ATOM     12  N   UNL A   1      45.115  41.549  26.961  1.00  0.00    -0.216 N 
ATOM     13  C   UNL A   1      44.698  41.777  28.293  1.00  0.00     0.319 C 
ATOM     14  C   UNL A   1      46.119  40.467  26.893  1.00  0.00     0.212 C 
ATOM     15  N   UNL A   1      43.754  42.489  28.806  1.00  0.00    -0.204 N 
ATOM     16  S   UNL A   1      45.737  40.758  29.386  1.00  0.00    -0.029 SA
ATOM     17  C   UNL A   1      45.784  39.550  28.078  1.00  0.00     0.120 C 
ATOM     18  C   UNL A   1      46.147  39.497  25.754  1.00  0.00     0.188 C 
ATOM     19  H   UNL A   1      43.347  43.235  28.305  1.00  0.00     0.316 HD
ATOM     20  C   UNL A   1      46.794  38.447  28.143  1.00  0.00     0.156 C 
ATOM     21  S   UNL A   1      47.144  38.174  26.427  1.00  0.00     0.155 S 
ATOM     22  O   UNL A   1      43.000  41.016  30.384  1.00  0.00    -0.247 OA
ATOM     23  O   UNL A   1      46.564  36.909  26.062  1.00  0.00    -0.229 OA
ATOM     24  O   UNL A   1      48.530  38.554  26.236  1.00  0.00    -0.229 OA
BRANCH  12  25
ATOM     25  C   UNL A   1      44.677  42.128  25.748  1.00  0.00     0.132 A 
ATOM     26  C   UNL A   1      45.092  43.311  23.621  1.00  0.00     0.123 A 
ATOM     27  C   UNL A   1      43.772  43.125  23.228  1.00  0.00     0.047 A 
ATOM     28  C   UNL A   1      45.549  42.781  24.851  1.00  0.00     0.098 A 
ATOM     29  C   UNL A   1      42.912  42.424  24.055  1.00  0.00     0.008 A 
ATOM     30  C   UNL A   1      43.355  41.946  25.299  1.00  0.00     0.052 A 
BRANCH  26  31
ATOM     31  O   UNL A   1      45.881  43.886  22.661  1.00  0.00    -0.497 OA
ATOM     32  C   UNL A   1      45.296  44.132  21.393  1.00  0.00     0.278 C 
ENDBRANCH  26  31
ENDBRANCH  12  25
ENDBRANCH  10  11
ENDBRANCH   9  10
ENDBRANCH   7   9
ENDBRANCH   6   7
ENDBRANCH   5   6
ENDBRANCH   4   5
ENDBRANCH   3   4
ENDBRANCH   2   3
ENDBRANCH   1   2
BRANCH   1  33
ATOM     33  O   UNL A   1      45.262  40.644  39.600  1.00  0.00    -0.377 OA
BRANCH  33  34
ATOM     34  C   UNL A   1      44.280  41.220  40.427  1.00  0.00     0.188 C 
BRANCH  34  35
ATOM     35  C   UNL A   1      42.890  40.625  40.233  1.00  0.00     0.188 C 
BRANCH  35  36
ATOM     36  O   UNL A   1      41.840  41.160  41.008  1.00  0.00    -0.376 OA
BRANCH  36  37
ATOM     37  C   UNL A   1      41.634  40.709  42.340  1.00  0.00     0.202 C 
BRANCH  37  38
ATOM     38  C   UNL A   1      41.434  39.235  42.796  1.00  0.00     0.261 C 
BRANCH  38  39
ATOM     39  O   UNL A   1      40.149  38.598  42.683  1.00  0.00    -0.460 OA
BRANCH  39  40
ATOM     40  C   UNL A   1      40.149  37.248  42.625  1.00  0.00     0.338 C 
ATOM     41  O   UNL A   1      40.036  36.494  43.577  1.00  0.00    -0.246 OA
BRANCH  40  42
ATOM     42  C   UNL A   1      40.136  36.785  41.209  1.00  0.00     0.060 A 
ATOM     43  C   UNL A   1      40.973  35.715  40.868  1.00  0.00     0.016 A 
ATOM     44  C   UNL A   1      39.405  37.423  40.203  1.00  0.00     0.016 A 
ATOM     45  C   UNL A   1      41.113  35.302  39.533  1.00  0.00     0.010 A 
ATOM     46  C   UNL A   1      39.555  37.013  38.860  1.00  0.00     0.010 A 
ATOM     47  C   UNL A   1      40.430  35.958  38.505  1.00  0.00    -0.014 A 
BRANCH  47  48
ATOM     48  C   UNL A   1      40.825  35.736  37.076  1.00  0.00     0.031 A 
ATOM     49  C   UNL A   1      42.067  36.432  36.582  1.00  0.00     0.074 A 
ATOM     50  C   UNL A   1      40.216  34.878  36.227  1.00  0.00     0.049 A 
ATOM     51  N   UNL A   1      42.591  36.433  35.385  1.00  0.00    -0.248 NA
ATOM     52  C   UNL A   1      42.864  37.148  37.592  1.00  0.00     0.031 C 
ATOM     53  C   UNL A   1      39.208  33.887  36.580  1.00  0.00     0.029 A 
ATOM     54  N   UNL A   1      40.336  34.724  34.860  1.00  0.00    -0.354 N 
ATOM     55  C   UNL A   1      43.820  37.066  35.514  1.00  0.00     0.074 A 
ATOM     56  C   UNL A   1      43.918  37.524  36.883  1.00  0.00     0.031 C 
ATOM     57  C   UNL A   1      38.676  33.367  35.455  1.00  0.00     0.029 A 
ATOM     58  C   UNL A   1      39.322  33.969  34.300  1.00  0.00     0.049 A 
ATOM     59  H   UNL A   1      41.071  35.115  34.335  1.00  0.00     0.167 HD
ATOM     60  C   UNL A   1      44.800  37.198  34.589  1.00  0.00     0.034 A 
ATOM     61  C   UNL A   1      38.943  33.811  33.013  1.00  0.00     0.034 A 
ATOM     62  C   UNL A   1      44.675  36.780  33.215  1.00  0.00     0.049 A 
ATOM     63  C   UNL A   1      39.867  34.298  31.938  1.00  0.00     0.074 A 
ATOM     64  C   UNL A   1      45.604  36.895  32.194  1.00  0.00     0.029 A 
ATOM     65  N   UNL A   1      43.546  36.195  32.656  1.00  0.00    -0.354 N 
ATOM     66  N   UNL A   1      41.012  34.921  32.063  1.00  0.00    -0.248 NA
ATOM     67  C   UNL A   1      39.500  33.958  30.558  1.00  0.00     0.031 C 
ATOM     68  C   UNL A   1      45.007  36.466  31.005  1.00  0.00     0.029 A 
ATOM     69  C   UNL A   1      43.739  35.993  31.296  1.00  0.00     0.049 A 
ATOM     70  H   UNL A   1      42.730  35.958  33.152  1.00  0.00     0.167 HD
ATOM     71  C   UNL A   1      41.555  34.950  30.786  1.00  0.00     0.074 A 
ATOM     72  C   UNL A   1      40.589  34.328  29.903  1.00  0.00     0.031 C 
ATOM     73  C   UNL A   1      42.776  35.395  30.403  1.00  0.00     0.034 A 
BRANCH  60  74
ATOM     74  C   UNL A   1      46.076  37.858  35.037  1.00  0.00     0.023 A 
ATOM     75  C   UNL A   1      47.138  37.111  35.579  1.00  0.00     0.031 A 
ATOM     76  C   UNL A   1      46.226  39.250  34.941  1.00  0.00     0.131 A 
ATOM     77  C   UNL A   1      48.281  37.769  36.056  1.00  0.00     0.055 A 
ATOM     78  C   UNL A   1      47.396  39.891  35.347  1.00  0.00     0.041 A 
ATOM     79  F   UNL A   1      45.232  40.011  34.459  1.00  0.00    -0.206 F 
ATOM     80  C   UNL A   1      48.428  39.152  35.919  1.00  0.00     0.022 A 
BRANCH  77  81
ATOM     81  S   UNL A   1      49.516  36.812  36.977  1.00  0.00     0.124 S 
ATOM     82  O   UNL A   1      48.752  36.395  38.150  1.00  0.00    -0.237 OA
ATOM     83  O   UNL A   1      49.867  35.757  36.035  1.00  0.00    -0.237 OA
ATOM     84  O   UNL A   1      50.572  37.786  37.246  1.00  0.00    -0.744 OA
ENDBRANCH  77  81
ENDBRANCH  60  74
BRANCH  61  85
ATOM     85  C   UNL A   1      37.640  33.205  32.606  1.00  0.00     0.023 A 
ATOM     86  C   UNL A   1      36.437  33.926  32.594  1.00  0.00     0.031 A 
ATOM     87  C   UNL A   1      37.562  31.812  32.437  1.00  0.00     0.131 A 
ATOM     88  C   UNL A   1      35.217  33.245  32.400  1.00  0.00     0.055 A 
ATOM     89  C   UNL A   1      36.361  31.157  32.148  1.00  0.00     0.041 A 
ATOM     90  F   UNL A   1      38.652  31.049  32.609  1.00  0.00    -0.206 F 
ATOM     91  C   UNL A   1      35.176  31.877  32.125  1.00  0.00     0.022 A 
BRANCH  88  92
ATOM     92  S   UNL A   1      33.661  34.135  32.686  1.00  0.00     0.124 S 
ATOM     93  O   UNL A   1      32.819  33.079  33.234  1.00  0.00    -0.237 OA
ATOM     94  O   UNL A   1      34.071  35.180  33.618  1.00  0.00    -0.237 OA
ATOM     95  O   UNL A   1      33.285  34.606  31.354  1.00  0.00    -0.744 OA
ENDBRANCH  88  92
ENDBRANCH  61  85
BRANCH  73  96
ATOM     96  C   UNL A   1      43.170  35.142  28.972  1.00  0.00     0.023 A 
ATOM     97  C   UNL A   1      43.913  34.012  28.594  1.00  0.00     0.031 A 
ATOM     98  C   UNL A   1      42.842  36.083  27.980  1.00  0.00     0.131 A 
ATOM     99  C   UNL A   1      44.369  33.890  27.274  1.00  0.00     0.055 A 
ATOM    100  C   UNL A   1      43.228  35.914  26.650  1.00  0.00     0.041 A 
ATOM    101  F   UNL A   1      42.147  37.190  28.288  1.00  0.00    -0.206 F 
ATOM    102  C   UNL A   1      44.012  34.821  26.295  1.00  0.00     0.022 A 
BRANCH  99 103
ATOM    103  S   UNL A   1      45.542  32.565  26.884  1.00  0.00     0.124 S 
ATOM    104  O   UNL A   1      45.501  31.759  28.101  1.00  0.00    -0.237 OA
ATOM    105  O   UNL A   1      44.946  31.956  25.699  1.00  0.00    -0.237 OA
ATOM    106  O   UNL A   1      46.798  33.275  26.651  1.00  0.00    -0.744 OA
ENDBRANCH  99 103
ENDBRANCH  73  96
ENDBRANCH  47  48
ENDBRANCH  40  42
ENDBRANCH  39  40
ENDBRANCH  38  39
ENDBRANCH  37  38
ENDBRANCH  36  37
ENDBRANCH  35  36
ENDBRANCH  34  35
ENDBRANCH  33  34
ENDBRANCH   1  33
TORSDOF 27
ENDMDL
