MODEL 1
REMARK VINA RESULT:      -8.8      0.000      0.000
REMARK SMILES CC1(C)CC[C@@]2(C(=O)OCCOCCOCCOCCOC(=O)c3ccc(-c4c5nc(c(-c6cc(S(=O)(=O)[O-])ccc6F)c6ccc([nH]6)c(-c6cc(S(=O)(=O)[O-])ccc6F)c6nc(c(-c7cc(S(=O)(=O)[O-])ccc7F)c7ccc4[nH]7)C=C6)C=C5)cc3)CC[C@@]3(C)C(=CC[C@H]4[C@@]5(C)CC[C@H](O)C(C)(C)[C@@H]5CC[C@]43C)[C@@H]2C1
REMARK SMILES IDX 16 1 15 2 14 3 13 4 12 5 11 6 10 7 9 8 7 9 8 10 6 11 1 12
REMARK SMILES IDX 2 13 3 14 4 15 110 16 5 17 109 18 91 19 87 20 89 21 92 22
REMARK SMILES IDX 88 23 90 24 107 25 93 26 94 27 106 28 108 29 95 30 105 31
REMARK SMILES IDX 96 32 97 33 104 34 98 35 101 36 99 37 102 38 103 39 100 40
REMARK SMILES IDX 17 42 18 43 19 44 20 45 21 46 22 47 23 48 24 49 25 50 86 51
REMARK SMILES IDX 26 52 85 53 27 54 28 55 29 56 79 57 30 58 84 59 78 60 80 61
REMARK SMILES IDX 31 62 83 63 77 64 76 65 32 67 64 68 44 69 63 70 45 71 48 72
REMARK SMILES IDX 62 73 81 74 46 75 47 76 61 78 82 79 49 80 33 81 34 82 42 83
REMARK SMILES IDX 35 84 41 85 43 86 40 87 36 88 37 89 38 90 39 91 65 92 66 93
REMARK SMILES IDX 74 94 67 95 73 96 75 97 72 98 68 99 69 100 70 101 71 102
REMARK SMILES IDX 50 103 51 104 59 105 52 106 58 107 60 108 57 109 53 110
REMARK SMILES IDX 54 111 55 112 56 113
REMARK H PARENT 100 41 80 66 48 77
REMARK Flexibility Score: inf
ROOT
ATOM      1  C   UNL A   1      45.979  23.953  27.502  1.00  0.00     0.188 C 
ENDROOT
BRANCH   1   2
ATOM      2  O   UNL A   1      47.329  24.242  27.832  1.00  0.00    -0.377 OA
BRANCH   2   3
ATOM      3  C   UNL A   1      47.742  25.545  28.235  1.00  0.00     0.188 C 
BRANCH   3   4
ATOM      4  C   UNL A   1      48.895  25.600  29.223  1.00  0.00     0.188 C 
BRANCH   4   5
ATOM      5  O   UNL A   1      48.495  25.415  30.582  1.00  0.00    -0.376 OA
BRANCH   5   6
ATOM      6  C   UNL A   1      48.343  26.661  31.210  1.00  0.00     0.202 C 
BRANCH   6   7
ATOM      7  C   UNL A   1      47.922  26.677  32.630  1.00  0.00     0.261 C 
BRANCH   7   8
ATOM      8  O   UNL A   1      47.622  25.442  33.083  1.00  0.00    -0.463 OA
BRANCH   8   9
ATOM      9  C   UNL A   1      46.978  25.707  34.234  1.00  0.00     0.312 C 
ATOM     10  O   UNL A   1      46.463  26.693  34.591  1.00  0.00    -0.252 OA
BRANCH   9  11
ATOM     11  C   UNL A   1      47.084  24.519  35.077  1.00  0.00     0.075 C 
ATOM     12  C   UNL A   1      49.487  25.458  38.398  1.00  0.00     0.011 C 
ATOM     13  C   UNL A   1      48.457  26.035  37.402  1.00  0.00    -0.035 C 
ATOM     14  C   UNL A   1      48.296  27.527  37.838  1.00  0.00     0.011 C 
ATOM     15  C   UNL A   1      49.128  25.893  36.014  1.00  0.00     0.007 C 
ATOM     16  C   UNL A   1      47.051  25.343  37.564  1.00  0.00     0.015 C 
ATOM     17  C   UNL A   1      48.648  24.630  35.190  1.00  0.00     0.020 C 
ATOM     18  C   UNL A   1      46.283  24.611  36.388  1.00  0.00     0.033 C 
ATOM     19  C   UNL A   1      44.739  25.037  36.245  1.00  0.00    -0.063 C 
ATOM     20  C   UNL A   1      46.259  23.600  34.117  1.00  0.00     0.020 C 
ATOM     21  C   UNL A   1      43.861  24.926  34.937  1.00  0.00    -0.006 C 
ATOM     22  C   UNL A   1      44.134  25.555  37.335  1.00  0.00    -0.027 C 
ATOM     23  C   UNL A   1      44.770  24.273  33.728  1.00  0.00     0.013 C 
ATOM     24  C   UNL A   1      42.983  23.598  35.126  1.00  0.00     0.017 C 
ATOM     25  C   UNL A   1      42.769  26.481  34.899  1.00  0.00    -0.020 C 
ATOM     26  C   UNL A   1      43.511  26.945  37.373  1.00  0.00     0.032 C 
ATOM     27  C   UNL A   1      43.147  27.615  36.044  1.00  0.00     0.006 C 
ATOM     28  C   UNL A   1      42.167  27.483  33.748  1.00  0.00     0.008 C 
ATOM     29  C   UNL A   1      41.372  25.782  35.288  1.00  0.00     0.012 C 
ATOM     30  C   UNL A   1      43.791  29.275  35.746  1.00  0.00    -0.025 C 
ATOM     31  C   UNL A   1      42.373  29.151  33.677  1.00  0.00     0.005 C 
ATOM     32  C   UNL A   1      42.754  30.130  36.517  1.00  0.00     0.012 C 
ATOM     33  C   UNL A   1      45.165  29.797  36.467  1.00  0.00     0.010 C 
ATOM     34  C   UNL A   1      43.736  29.686  34.207  1.00  0.00     0.003 C 
ATOM     35  C   UNL A   1      45.907  31.059  35.957  1.00  0.00     0.033 C 
ATOM     36  C   UNL A   1      44.725  31.075  33.717  1.00  0.00    -0.006 C 
ATOM     37  C   UNL A   1      46.128  31.109  34.452  1.00  0.00     0.120 C 
ATOM     38  C   UNL A   1      44.171  32.417  34.118  1.00  0.00     0.014 C 
ATOM     39  C   UNL A   1      44.981  31.276  32.192  1.00  0.00     0.014 C 
BRANCH  37  40
ATOM     40  O   UNL A   1      46.915  32.256  34.052  1.00  0.00    -0.393 OA
ATOM     41  H   UNL A   1      46.768  32.435  33.110  1.00  0.00     0.210 HD
ENDBRANCH  37  40
ENDBRANCH   9  11
ENDBRANCH   8   9
ENDBRANCH   7   8
ENDBRANCH   6   7
ENDBRANCH   5   6
ENDBRANCH   4   5
ENDBRANCH   3   4
ENDBRANCH   2   3
ENDBRANCH   1   2
BRANCH   1  42
ATOM     42  C   UNL A   1      45.990  23.189  26.164  1.00  0.00     0.188 C 
BRANCH  42  43
ATOM     43  O   UNL A   1      45.639  21.808  25.995  1.00  0.00    -0.376 OA
BRANCH  43  44
ATOM     44  C   UNL A   1      44.412  21.508  25.335  1.00  0.00     0.202 C 
BRANCH  44  45
ATOM     45  C   UNL A   1      43.442  20.408  25.924  1.00  0.00     0.261 C 
BRANCH  45  46
ATOM     46  O   UNL A   1      41.977  20.561  25.864  1.00  0.00    -0.460 OA
BRANCH  46  47
ATOM     47  C   UNL A   1      41.374  21.001  27.034  1.00  0.00     0.338 C 
ATOM     48  O   UNL A   1      40.733  20.269  27.776  1.00  0.00    -0.246 OA
BRANCH  47  49
ATOM     49  C   UNL A   1      41.402  22.507  27.275  1.00  0.00     0.060 A 
ATOM     50  C   UNL A   1      40.561  23.436  26.641  1.00  0.00     0.016 A 
ATOM     51  C   UNL A   1      42.278  23.026  28.245  1.00  0.00     0.016 A 
ATOM     52  C   UNL A   1      40.527  24.826  27.038  1.00  0.00     0.010 A 
ATOM     53  C   UNL A   1      42.134  24.365  28.731  1.00  0.00     0.010 A 
ATOM     54  C   UNL A   1      41.259  25.316  28.138  1.00  0.00    -0.014 A 
BRANCH  54  55
ATOM     55  C   UNL A   1      41.393  26.810  28.502  1.00  0.00     0.031 A 
ATOM     56  C   UNL A   1      42.710  27.435  28.063  1.00  0.00     0.074 A 
ATOM     57  C   UNL A   1      40.540  27.641  29.178  1.00  0.00     0.049 A 
ATOM     58  N   UNL A   1      43.248  28.589  28.368  1.00  0.00    -0.248 NA
ATOM     59  C   UNL A   1      43.573  26.583  27.229  1.00  0.00     0.031 C 
ATOM     60  C   UNL A   1      39.237  27.305  29.746  1.00  0.00     0.029 A 
ATOM     61  N   UNL A   1      40.659  28.994  29.520  1.00  0.00    -0.354 N 
ATOM     62  C   UNL A   1      44.529  28.543  27.829  1.00  0.00     0.074 A 
ATOM     63  C   UNL A   1      44.728  27.212  27.314  1.00  0.00     0.031 C 
ATOM     64  C   UNL A   1      38.671  28.394  30.313  1.00  0.00     0.029 A 
ATOM     65  C   UNL A   1      39.574  29.540  30.204  1.00  0.00     0.049 A 
ATOM     66  H   UNL A   1      41.457  29.525  29.293  1.00  0.00     0.167 HD
ATOM     67  C   UNL A   1      45.449  29.523  27.682  1.00  0.00     0.034 A 
ATOM     68  C   UNL A   1      39.329  30.792  30.689  1.00  0.00     0.034 A 
ATOM     69  C   UNL A   1      45.248  30.888  28.059  1.00  0.00     0.049 A 
ATOM     70  C   UNL A   1      40.389  31.884  30.529  1.00  0.00     0.074 A 
ATOM     71  C   UNL A   1      46.098  31.959  27.853  1.00  0.00     0.029 A 
ATOM     72  N   UNL A   1      44.125  31.378  28.702  1.00  0.00    -0.354 N 
ATOM     73  N   UNL A   1      41.561  31.822  29.942  1.00  0.00    -0.248 NA
ATOM     74  C   UNL A   1      40.091  33.218  31.092  1.00  0.00     0.031 C 
ATOM     75  C   UNL A   1      45.525  33.085  28.444  1.00  0.00     0.029 A 
ATOM     76  C   UNL A   1      44.277  32.734  28.929  1.00  0.00     0.049 A 
ATOM     77  H   UNL A   1      43.340  30.843  28.958  1.00  0.00     0.167 HD
ATOM     78  C   UNL A   1      42.097  33.112  30.014  1.00  0.00     0.074 A 
ATOM     79  C   UNL A   1      41.130  33.937  30.692  1.00  0.00     0.031 C 
ATOM     80  C   UNL A   1      43.289  33.571  29.557  1.00  0.00     0.034 A 
BRANCH  67  81
ATOM     81  C   UNL A   1      46.766  29.134  27.065  1.00  0.00     0.023 A 
ATOM     82  C   UNL A   1      46.866  28.751  25.716  1.00  0.00     0.031 A 
ATOM     83  C   UNL A   1      47.924  29.100  27.857  1.00  0.00     0.131 A 
ATOM     84  C   UNL A   1      48.080  28.257  25.226  1.00  0.00     0.055 A 
ATOM     85  C   UNL A   1      49.153  28.705  27.333  1.00  0.00     0.041 A 
ATOM     86  F   UNL A   1      47.873  29.431  29.157  1.00  0.00    -0.206 F 
ATOM     87  C   UNL A   1      49.232  28.263  26.014  1.00  0.00     0.022 A 
BRANCH  84  88
ATOM     88  S   UNL A   1      48.090  27.460  23.598  1.00  0.00     0.124 S 
ATOM     89  O   UNL A   1      46.934  28.086  22.959  1.00  0.00    -0.237 OA
ATOM     90  O   UNL A   1      49.393  27.841  23.066  1.00  0.00    -0.237 OA
ATOM     91  O   UNL A   1      47.931  26.042  23.911  1.00  0.00    -0.744 OA
ENDBRANCH  84  88
ENDBRANCH  67  81
BRANCH  68  92
ATOM     92  C   UNL A   1      38.057  31.168  31.434  1.00  0.00     0.023 A 
ATOM     93  C   UNL A   1      36.967  31.788  30.778  1.00  0.00     0.031 A 
ATOM     94  C   UNL A   1      37.995  31.107  32.838  1.00  0.00     0.131 A 
ATOM     95  C   UNL A   1      35.928  32.393  31.520  1.00  0.00     0.055 A 
ATOM     96  C   UNL A   1      36.924  31.646  33.567  1.00  0.00     0.041 A 
ATOM     97  F   UNL A   1      38.999  30.559  33.538  1.00  0.00    -0.206 F 
ATOM     98  C   UNL A   1      35.893  32.313  32.911  1.00  0.00     0.022 A 
BRANCH  95  99
ATOM     99  S   UNL A   1      34.708  33.443  30.659  1.00  0.00     0.124 S 
ATOM    100  O   UNL A   1      33.938  33.976  31.776  1.00  0.00    -0.237 OA
ATOM    101  O   UNL A   1      35.567  34.391  29.957  1.00  0.00    -0.237 OA
ATOM    102  O   UNL A   1      33.992  32.502  29.800  1.00  0.00    -0.744 OA
ENDBRANCH  95  99
ENDBRANCH  68  92
BRANCH  80 103
ATOM    103  C   UNL A   1      43.595  35.048  29.660  1.00  0.00     0.023 A 
ATOM    104  C   UNL A   1      43.129  35.984  28.722  1.00  0.00     0.031 A 
ATOM    105  C   UNL A   1      44.309  35.530  30.774  1.00  0.00     0.131 A 
ATOM    106  C   UNL A   1      43.406  37.349  28.902  1.00  0.00     0.055 A 
ATOM    107  C   UNL A   1      44.526  36.892  30.981  1.00  0.00     0.041 A 
ATOM    108  F   UNL A   1      44.777  34.682  31.704  1.00  0.00    -0.206 F 
ATOM    109  C   UNL A   1      44.080  37.811  30.036  1.00  0.00     0.022 A 
BRANCH 106 110
ATOM    110  S   UNL A   1      42.927  38.521  27.602  1.00  0.00     0.124 S 
ATOM    111  O   UNL A   1      42.389  39.634  28.378  1.00  0.00    -0.237 OA
ATOM    112  O   UNL A   1      44.195  38.772  26.923  1.00  0.00    -0.237 OA
ATOM    113  O   UNL A   1      41.942  37.779  26.817  1.00  0.00    -0.744 OA
ENDBRANCH 106 110
ENDBRANCH  80 103
ENDBRANCH  54  55
ENDBRANCH  47  49
ENDBRANCH  46  47
ENDBRANCH  45  46
ENDBRANCH  44  45
ENDBRANCH  43  44
ENDBRANCH  42  43
ENDBRANCH   1  42
TORSDOF 24
ENDMDL
MODEL 2
REMARK VINA RESULT:      -8.3      1.344      2.370
REMARK SMILES CC1(C)CC[C@@]2(C(=O)OCCOCCOCCOCCOC(=O)c3ccc(-c4c5nc(c(-c6cc(S(=O)(=O)[O-])ccc6F)c6ccc([nH]6)c(-c6cc(S(=O)(=O)[O-])ccc6F)c6nc(c(-c7cc(S(=O)(=O)[O-])ccc7F)c7ccc4[nH]7)C=C6)C=C5)cc3)CC[C@@]3(C)C(=CC[C@H]4[C@@]5(C)CC[C@H](O)C(C)(C)[C@@H]5CC[C@]43C)[C@@H]2C1
REMARK SMILES IDX 16 1 15 2 14 3 13 4 12 5 11 6 10 7 9 8 7 9 8 10 6 11 1 12
REMARK SMILES IDX 2 13 3 14 4 15 110 16 5 17 109 18 91 19 87 20 89 21 92 22
REMARK SMILES IDX 88 23 90 24 107 25 93 26 94 27 106 28 108 29 95 30 105 31
REMARK SMILES IDX 96 32 97 33 104 34 98 35 101 36 99 37 102 38 103 39 100 40
REMARK SMILES IDX 17 42 18 43 19 44 20 45 21 46 22 47 23 48 24 49 25 50 86 51
REMARK SMILES IDX 26 52 85 53 27 54 28 55 29 56 79 57 30 58 84 59 78 60 80 61
REMARK SMILES IDX 31 62 83 63 77 64 76 65 32 67 64 68 44 69 63 70 45 71 48 72
REMARK SMILES IDX 62 73 81 74 46 75 47 76 61 78 82 79 49 80 33 81 34 82 42 83
REMARK SMILES IDX 35 84 41 85 43 86 40 87 36 88 37 89 38 90 39 91 65 92 66 93
REMARK SMILES IDX 74 94 67 95 73 96 75 97 72 98 68 99 69 100 70 101 71 102
REMARK SMILES IDX 50 103 51 104 59 105 52 106 58 107 60 108 57 109 53 110
REMARK SMILES IDX 54 111 55 112 56 113
REMARK H PARENT 100 41 80 66 48 77
REMARK Flexibility Score: inf
ROOT
ATOM      1  C   UNL A   1      46.179  24.160  27.614  1.00  0.00     0.188 C 
ENDROOT
BRANCH   1   2
ATOM      2  O   UNL A   1      47.545  24.253  27.989  1.00  0.00    -0.377 OA
BRANCH   2   3
ATOM      3  C   UNL A   1      48.117  25.476  28.444  1.00  0.00     0.188 C 
BRANCH   3   4
ATOM      4  C   UNL A   1      49.445  25.358  29.172  1.00  0.00     0.188 C 
BRANCH   4   5
ATOM      5  O   UNL A   1      49.311  25.186  30.584  1.00  0.00    -0.376 OA
BRANCH   5   6
ATOM      6  C   UNL A   1      49.877  26.281  31.255  1.00  0.00     0.202 C 
BRANCH   6   7
ATOM      7  C   UNL A   1      49.735  26.344  32.727  1.00  0.00     0.261 C 
BRANCH   7   8
ATOM      8  O   UNL A   1      50.186  25.222  33.327  1.00  0.00    -0.463 OA
BRANCH   8   9
ATOM      9  C   UNL A   1      49.491  25.213  34.479  1.00  0.00     0.312 C 
ATOM     10  O   UNL A   1      48.433  25.649  34.715  1.00  0.00    -0.252 OA
BRANCH   9  11
ATOM     11  C   UNL A   1      50.341  24.602  35.497  1.00  0.00     0.075 C 
ATOM     12  C   UNL A   1      50.782  27.328  38.669  1.00  0.00     0.011 C 
ATOM     13  C   UNL A   1      49.807  26.830  37.581  1.00  0.00    -0.035 C 
ATOM     14  C   UNL A   1      48.530  27.711  37.778  1.00  0.00     0.011 C 
ATOM     15  C   UNL A   1      50.526  27.123  36.242  1.00  0.00     0.007 C 
ATOM     16  C   UNL A   1      49.387  25.331  37.825  1.00  0.00     0.015 C 
ATOM     17  C   UNL A   1      51.263  25.870  35.615  1.00  0.00     0.020 C 
ATOM     18  C   UNL A   1      49.584  24.171  36.766  1.00  0.00     0.033 C 
ATOM     19  C   UNL A   1      48.276  23.263  36.534  1.00  0.00    -0.063 C 
ATOM     20  C   UNL A   1      50.613  23.298  34.678  1.00  0.00     0.020 C 
ATOM     21  C   UNL A   1      47.954  22.408  35.246  1.00  0.00    -0.006 C 
ATOM     22  C   UNL A   1      47.356  23.236  37.522  1.00  0.00    -0.027 C 
ATOM     23  C   UNL A   1      49.188  22.568  34.167  1.00  0.00     0.013 C 
ATOM     24  C   UNL A   1      48.350  20.902  35.624  1.00  0.00     0.017 C 
ATOM     25  C   UNL A   1      46.085  22.581  34.951  1.00  0.00    -0.020 C 
ATOM     26  C   UNL A   1      45.907  23.664  37.335  1.00  0.00     0.032 C 
ATOM     27  C   UNL A   1      45.337  23.702  35.913  1.00  0.00     0.006 C 
ATOM     28  C   UNL A   1      45.090  22.669  33.650  1.00  0.00     0.008 C 
ATOM     29  C   UNL A   1      45.647  21.105  35.422  1.00  0.00     0.012 C 
ATOM     30  C   UNL A   1      44.554  25.236  35.372  1.00  0.00    -0.025 C 
ATOM     31  C   UNL A   1      43.986  23.896  33.325  1.00  0.00     0.005 C 
ATOM     32  C   UNL A   1      43.140  25.070  35.985  1.00  0.00     0.012 C 
ATOM     33  C   UNL A   1      44.967  26.679  36.024  1.00  0.00     0.010 C 
ATOM     34  C   UNL A   1      44.406  25.322  33.787  1.00  0.00     0.003 C 
ATOM     35  C   UNL A   1      44.572  28.011  35.337  1.00  0.00     0.033 C 
ATOM     36  C   UNL A   1      44.074  26.925  33.104  1.00  0.00    -0.006 C 
ATOM     37  C   UNL A   1      44.870  28.077  33.846  1.00  0.00     0.120 C 
ATOM     38  C   UNL A   1      42.659  27.408  33.284  1.00  0.00     0.014 C 
ATOM     39  C   UNL A   1      44.286  27.113  31.570  1.00  0.00     0.014 C 
BRANCH  37  40
ATOM     40  O   UNL A   1      44.576  29.379  33.285  1.00  0.00    -0.393 OA
ATOM     41  H   UNL A   1      44.929  29.428  32.383  1.00  0.00     0.210 HD
ENDBRANCH  37  40
ENDBRANCH   9  11
ENDBRANCH   8   9
ENDBRANCH   7   8
ENDBRANCH   6   7
ENDBRANCH   5   6
ENDBRANCH   4   5
ENDBRANCH   3   4
ENDBRANCH   2   3
ENDBRANCH   1   2
BRANCH   1  42
ATOM     42  C   UNL A   1      46.129  23.452  26.246  1.00  0.00     0.188 C 
BRANCH  42  43
ATOM     43  O   UNL A   1      45.771  22.078  26.036  1.00  0.00    -0.376 OA
BRANCH  43  44
ATOM     44  C   UNL A   1      44.545  21.804  25.364  1.00  0.00     0.202 C 
BRANCH  44  45
ATOM     45  C   UNL A   1      43.562  20.699  25.923  1.00  0.00     0.261 C 
BRANCH  45  46
ATOM     46  O   UNL A   1      42.098  20.852  25.830  1.00  0.00    -0.460 OA
BRANCH  46  47
ATOM     47  C   UNL A   1      41.468  21.283  26.989  1.00  0.00     0.338 C 
ATOM     48  O   UNL A   1      40.833  20.539  27.724  1.00  0.00    -0.246 OA
BRANCH  47  49
ATOM     49  C   UNL A   1      41.457  22.790  27.223  1.00  0.00     0.060 A 
ATOM     50  C   UNL A   1      40.626  23.701  26.552  1.00  0.00     0.016 A 
ATOM     51  C   UNL A   1      42.284  23.329  28.226  1.00  0.00     0.016 A 
ATOM     52  C   UNL A   1      40.550  25.091  26.940  1.00  0.00     0.010 A 
ATOM     53  C   UNL A   1      42.095  24.667  28.700  1.00  0.00     0.010 A 
ATOM     54  C   UNL A   1      41.227  25.599  28.067  1.00  0.00    -0.014 A 
BRANCH  54  55
ATOM     55  C   UNL A   1      41.318  27.096  28.429  1.00  0.00     0.031 A 
ATOM     56  C   UNL A   1      42.691  27.707  28.186  1.00  0.00     0.074 A 
ATOM     57  C   UNL A   1      40.380  27.942  28.960  1.00  0.00     0.049 A 
ATOM     58  N   UNL A   1      43.187  28.860  28.554  1.00  0.00    -0.248 NA
ATOM     59  C   UNL A   1      43.662  26.838  27.500  1.00  0.00     0.031 C 
ATOM     60  C   UNL A   1      39.004  27.623  29.330  1.00  0.00     0.029 A 
ATOM     61  N   UNL A   1      40.459  29.299  29.300  1.00  0.00    -0.354 N 
ATOM     62  C   UNL A   1      44.534  28.799  28.213  1.00  0.00     0.074 A 
ATOM     63  C   UNL A   1      44.797  27.460  27.750  1.00  0.00     0.031 C 
ATOM     64  C   UNL A   1      38.369  28.722  29.793  1.00  0.00     0.029 A 
ATOM     65  C   UNL A   1      39.288  29.861  29.807  1.00  0.00     0.049 A 
ATOM     66  H   UNL A   1      41.286  29.821  29.189  1.00  0.00     0.167 HD
ATOM     67  C   UNL A   1      45.474  29.770  28.195  1.00  0.00     0.034 A 
ATOM     68  C   UNL A   1      38.985  31.121  30.235  1.00  0.00     0.034 A 
ATOM     69  C   UNL A   1      45.231  31.142  28.521  1.00  0.00     0.049 A 
ATOM     70  C   UNL A   1      40.065  32.203  30.222  1.00  0.00     0.074 A 
ATOM     71  C   UNL A   1      46.111  32.204  28.433  1.00  0.00     0.029 A 
ATOM     72  N   UNL A   1      44.029  31.648  28.982  1.00  0.00    -0.354 N 
ATOM     73  N   UNL A   1      41.312  32.125  29.819  1.00  0.00    -0.248 NA
ATOM     74  C   UNL A   1      39.699  33.546  30.718  1.00  0.00     0.031 C 
ATOM     75  C   UNL A   1      45.467  33.342  28.918  1.00  0.00     0.029 A 
ATOM     76  C   UNL A   1      44.157  33.005  29.214  1.00  0.00     0.049 A 
ATOM     77  H   UNL A   1      43.209  31.122  29.124  1.00  0.00     0.167 HD
ATOM     78  C   UNL A   1      41.843  33.412  29.955  1.00  0.00     0.074 A 
ATOM     79  C   UNL A   1      40.791  34.253  30.470  1.00  0.00     0.031 C 
ATOM     80  C   UNL A   1      43.093  33.857  29.676  1.00  0.00     0.034 A 
BRANCH  67  81
ATOM     81  C   UNL A   1      46.866  29.365  27.787  1.00  0.00     0.023 A 
ATOM     82  C   UNL A   1      47.163  28.958  26.475  1.00  0.00     0.031 A 
ATOM     83  C   UNL A   1      47.893  29.338  28.743  1.00  0.00     0.131 A 
ATOM     84  C   UNL A   1      48.432  28.449  26.178  1.00  0.00     0.055 A 
ATOM     85  C   UNL A   1      49.183  28.929  28.414  1.00  0.00     0.041 A 
ATOM     86  F   UNL A   1      47.652  29.693  30.015  1.00  0.00    -0.206 F 
ATOM     87  C   UNL A   1      49.454  28.464  27.129  1.00  0.00     0.022 A 
BRANCH  84  88
ATOM     88  S   UNL A   1      48.678  27.625  24.583  1.00  0.00     0.124 S 
ATOM     89  O   UNL A   1      47.504  28.074  23.838  1.00  0.00    -0.237 OA
ATOM     90  O   UNL A   1      49.957  28.166  24.140  1.00  0.00    -0.237 OA
ATOM     91  O   UNL A   1      48.684  26.205  24.930  1.00  0.00    -0.744 OA
ENDBRANCH  84  88
ENDBRANCH  67  81
BRANCH  68  92
ATOM     92  C   UNL A   1      37.618  31.515  30.776  1.00  0.00     0.023 A 
ATOM     93  C   UNL A   1      36.622  32.077  29.942  1.00  0.00     0.031 A 
ATOM     94  C   UNL A   1      37.365  31.533  32.159  1.00  0.00     0.131 A 
ATOM     95  C   UNL A   1      35.485  32.704  30.499  1.00  0.00     0.055 A 
ATOM     96  C   UNL A   1      36.198  32.093  32.702  1.00  0.00     0.041 A 
ATOM     97  F   UNL A   1      38.270  31.044  33.021  1.00  0.00    -0.206 F 
ATOM     98  C   UNL A   1      35.261  32.703  31.874  1.00  0.00     0.022 A 
BRANCH  95  99
ATOM     99  S   UNL A   1      34.384  33.681  29.419  1.00  0.00     0.124 S 
ATOM    100  O   UNL A   1      33.803  32.644  28.575  1.00  0.00    -0.237 OA
ATOM    101  O   UNL A   1      33.486  34.303  30.386  1.00  0.00    -0.237 OA
ATOM    102  O   UNL A   1      35.296  34.600  28.741  1.00  0.00    -0.744 OA
ENDBRANCH  95  99
ENDBRANCH  68  92
BRANCH  80 103
ATOM    103  C   UNL A   1      43.393  35.333  29.806  1.00  0.00     0.023 A 
ATOM    104  C   UNL A   1      43.143  36.250  28.772  1.00  0.00     0.031 A 
ATOM    105  C   UNL A   1      43.870  35.836  31.033  1.00  0.00     0.131 A 
ATOM    106  C   UNL A   1      43.398  37.617  28.975  1.00  0.00     0.055 A 
ATOM    107  C   UNL A   1      44.061  37.201  31.249  1.00  0.00     0.041 A 
ATOM    108  F   UNL A   1      44.126  35.007  32.058  1.00  0.00    -0.206 F 
ATOM    109  C   UNL A   1      43.832  38.101  30.212  1.00  0.00     0.022 A 
BRANCH 106 110
ATOM    110  S   UNL A   1      43.212  38.760  27.578  1.00  0.00     0.124 S 
ATOM    111  O   UNL A   1      42.153  38.123  26.801  1.00  0.00    -0.237 OA
ATOM    112  O   UNL A   1      42.852  40.010  28.241  1.00  0.00    -0.237 OA
ATOM    113  O   UNL A   1      44.532  38.752  26.949  1.00  0.00    -0.744 OA
ENDBRANCH 106 110
ENDBRANCH  80 103
ENDBRANCH  54  55
ENDBRANCH  47  49
ENDBRANCH  46  47
ENDBRANCH  45  46
ENDBRANCH  44  45
ENDBRANCH  43  44
ENDBRANCH  42  43
ENDBRANCH   1  42
TORSDOF 24
ENDMDL
MODEL 3
REMARK VINA RESULT:      -8.2      3.491      8.028
REMARK SMILES CC1(C)CC[C@@]2(C(=O)OCCOCCOCCOCCOC(=O)c3ccc(-c4c5nc(c(-c6cc(S(=O)(=O)[O-])ccc6F)c6ccc([nH]6)c(-c6cc(S(=O)(=O)[O-])ccc6F)c6nc(c(-c7cc(S(=O)(=O)[O-])ccc7F)c7ccc4[nH]7)C=C6)C=C5)cc3)CC[C@@]3(C)C(=CC[C@H]4[C@@]5(C)CC[C@H](O)C(C)(C)[C@@H]5CC[C@]43C)[C@@H]2C1
REMARK SMILES IDX 16 1 15 2 14 3 13 4 12 5 11 6 10 7 9 8 7 9 8 10 6 11 1 12
REMARK SMILES IDX 2 13 3 14 4 15 110 16 5 17 109 18 91 19 87 20 89 21 92 22
REMARK SMILES IDX 88 23 90 24 107 25 93 26 94 27 106 28 108 29 95 30 105 31
REMARK SMILES IDX 96 32 97 33 104 34 98 35 101 36 99 37 102 38 103 39 100 40
REMARK SMILES IDX 17 42 18 43 19 44 20 45 21 46 22 47 23 48 24 49 25 50 86 51
REMARK SMILES IDX 26 52 85 53 27 54 28 55 29 56 79 57 30 58 84 59 78 60 80 61
REMARK SMILES IDX 31 62 83 63 77 64 76 65 32 67 64 68 44 69 63 70 45 71 48 72
REMARK SMILES IDX 62 73 81 74 46 75 47 76 61 78 82 79 49 80 33 81 34 82 42 83
REMARK SMILES IDX 35 84 41 85 43 86 40 87 36 88 37 89 38 90 39 91 65 92 66 93
REMARK SMILES IDX 74 94 67 95 73 96 75 97 72 98 68 99 69 100 70 101 71 102
REMARK SMILES IDX 50 103 51 104 59 105 52 106 58 107 60 108 57 109 53 110
REMARK SMILES IDX 54 111 55 112 56 113
REMARK H PARENT 100 41 80 66 48 77
REMARK Flexibility Score: inf
ROOT
ATOM      1  C   UNL A   1      40.021  22.693  26.887  1.00  0.00     0.188 C 
ENDROOT
BRANCH   1   2
ATOM      2  O   UNL A   1      40.404  23.998  26.477  1.00  0.00    -0.377 OA
BRANCH   2   3
ATOM      3  C   UNL A   1      40.841  24.981  27.410  1.00  0.00     0.188 C 
BRANCH   3   4
ATOM      4  C   UNL A   1      40.769  26.424  26.938  1.00  0.00     0.188 C 
BRANCH   4   5
ATOM      5  O   UNL A   1      39.972  27.262  27.776  1.00  0.00    -0.376 OA
BRANCH   5   6
ATOM      6  C   UNL A   1      40.269  28.610  27.524  1.00  0.00     0.202 C 
BRANCH   6   7
ATOM      7  C   UNL A   1      40.234  29.555  28.664  1.00  0.00     0.261 C 
BRANCH   7   8
ATOM      8  O   UNL A   1      41.468  29.810  29.148  1.00  0.00    -0.463 OA
BRANCH   8   9
ATOM      9  C   UNL A   1      41.252  30.878  29.938  1.00  0.00     0.312 C 
ATOM     10  O   UNL A   1      40.303  31.553  30.036  1.00  0.00    -0.252 OA
BRANCH   9  11
ATOM     11  C   UNL A   1      42.493  31.145  30.660  1.00  0.00     0.075 C 
ATOM     12  C   UNL A   1      43.862  34.970  29.575  1.00  0.00     0.011 C 
ATOM     13  C   UNL A   1      42.594  34.120  29.807  1.00  0.00    -0.035 C 
ATOM     14  C   UNL A   1      41.414  35.100  29.501  1.00  0.00     0.011 C 
ATOM     15  C   UNL A   1      42.693  32.973  28.773  1.00  0.00     0.007 C 
ATOM     16  C   UNL A   1      42.463  33.682  31.314  1.00  0.00     0.015 C 
ATOM     17  C   UNL A   1      43.249  31.614  29.364  1.00  0.00     0.020 C 
ATOM     18  C   UNL A   1      42.346  32.176  31.793  1.00  0.00     0.033 C 
ATOM     19  C   UNL A   1      41.155  31.910  32.841  1.00  0.00    -0.063 C 
ATOM     20  C   UNL A   1      42.554  29.740  31.344  1.00  0.00     0.020 C 
ATOM     21  C   UNL A   1      40.442  30.527  33.107  1.00  0.00    -0.006 C 
ATOM     22  C   UNL A   1      40.706  32.966  33.552  1.00  0.00    -0.027 C 
ATOM     23  C   UNL A   1      41.127  29.372  32.152  1.00  0.00     0.013 C 
ATOM     24  C   UNL A   1      41.110  29.954  34.447  1.00  0.00     0.017 C 
ATOM     25  C   UNL A   1      38.601  30.921  33.362  1.00  0.00    -0.020 C 
ATOM     26  C   UNL A   1      39.265  33.456  33.517  1.00  0.00     0.032 C 
ATOM     27  C   UNL A   1      38.181  32.488  33.031  1.00  0.00     0.006 C 
ATOM     28  C   UNL A   1      37.170  30.201  33.007  1.00  0.00     0.008 C 
ATOM     29  C   UNL A   1      38.540  30.683  34.953  1.00  0.00     0.012 C 
ATOM     30  C   UNL A   1      37.092  33.056  31.707  1.00  0.00    -0.025 C 
ATOM     31  C   UNL A   1      35.906  30.882  32.130  1.00  0.00     0.005 C 
ATOM     32  C   UNL A   1      36.060  33.882  32.516  1.00  0.00     0.012 C 
ATOM     33  C   UNL A   1      37.577  34.195  30.637  1.00  0.00     0.010 C 
ATOM     34  C   UNL A   1      36.324  31.857  30.990  1.00  0.00     0.003 C 
ATOM     35  C   UNL A   1      36.807  34.429  29.312  1.00  0.00     0.033 C 
ATOM     36  C   UNL A   1      35.585  32.213  29.417  1.00  0.00    -0.006 C 
ATOM     37  C   UNL A   1      36.485  33.166  28.526  1.00  0.00     0.120 C 
ATOM     38  C   UNL A   1      34.314  33.016  29.484  1.00  0.00     0.014 C 
ATOM     39  C   UNL A   1      35.154  31.002  28.532  1.00  0.00     0.014 C 
BRANCH  37  40
ATOM     40  O   UNL A   1      35.860  33.457  27.253  1.00  0.00    -0.393 OA
ATOM     41  H   UNL A   1      36.085  34.360  26.982  1.00  0.00     0.210 HD
ENDBRANCH  37  40
ENDBRANCH   9  11
ENDBRANCH   8   9
ENDBRANCH   7   8
ENDBRANCH   6   7
ENDBRANCH   5   6
ENDBRANCH   4   5
ENDBRANCH   3   4
ENDBRANCH   2   3
ENDBRANCH   1   2
BRANCH   1  42
ATOM     42  C   UNL A   1      41.166  21.738  26.495  1.00  0.00     0.188 C 
BRANCH  42  43
ATOM     43  O   UNL A   1      42.397  22.132  25.871  1.00  0.00    -0.376 OA
BRANCH  43  44
ATOM     44  C   UNL A   1      43.397  21.135  25.682  1.00  0.00     0.202 C 
BRANCH  44  45
ATOM     45  C   UNL A   1      44.818  21.533  25.113  1.00  0.00     0.261 C 
BRANCH  45  46
ATOM     46  O   UNL A   1      44.967  22.546  24.052  1.00  0.00    -0.460 OA
BRANCH  46  47
ATOM     47  C   UNL A   1      45.984  23.469  24.247  1.00  0.00     0.338 C 
ATOM     48  O   UNL A   1      47.050  23.430  23.647  1.00  0.00    -0.246 OA
BRANCH  47  49
ATOM     49  C   UNL A   1      45.781  24.457  25.390  1.00  0.00     0.060 A 
ATOM     50  C   UNL A   1      44.573  25.112  25.680  1.00  0.00     0.016 A 
ATOM     51  C   UNL A   1      46.846  24.702  26.276  1.00  0.00     0.016 A 
ATOM     52  C   UNL A   1      44.406  25.907  26.875  1.00  0.00     0.010 A 
ATOM     53  C   UNL A   1      46.629  25.365  27.527  1.00  0.00     0.010 A 
ATOM     54  C   UNL A   1      45.403  26.000  27.866  1.00  0.00    -0.014 A 
BRANCH  54  55
ATOM     55  C   UNL A   1      45.347  26.960  29.074  1.00  0.00     0.031 A 
ATOM     56  C   UNL A   1      45.799  28.379  28.754  1.00  0.00     0.074 A 
ATOM     57  C   UNL A   1      44.993  26.732  30.377  1.00  0.00     0.049 A 
ATOM     58  N   UNL A   1      46.073  29.384  29.546  1.00  0.00    -0.248 NA
ATOM     59  C   UNL A   1      46.060  28.659  27.332  1.00  0.00     0.031 C 
ATOM     60  C   UNL A   1      44.562  25.470  30.972  1.00  0.00     0.029 A 
ATOM     61  N   UNL A   1      44.949  27.596  31.478  1.00  0.00    -0.354 N 
ATOM     62  C   UNL A   1      46.609  30.362  28.715  1.00  0.00     0.074 A 
ATOM     63  C   UNL A   1      46.751  29.778  27.405  1.00  0.00     0.031 C 
ATOM     64  C   UNL A   1      44.265  25.639  32.280  1.00  0.00     0.029 A 
ATOM     65  C   UNL A   1      44.515  27.026  32.674  1.00  0.00     0.049 A 
ATOM     66  H   UNL A   1      45.209  28.544  31.413  1.00  0.00     0.167 HD
ATOM     67  C   UNL A   1      46.889  31.661  28.965  1.00  0.00     0.034 A 
ATOM     68  C   UNL A   1      44.342  27.538  33.927  1.00  0.00     0.034 A 
ATOM     69  C   UNL A   1      46.644  32.319  30.212  1.00  0.00     0.049 A 
ATOM     70  C   UNL A   1      44.680  29.006  34.195  1.00  0.00     0.074 A 
ATOM     71  C   UNL A   1      46.812  33.658  30.511  1.00  0.00     0.029 A 
ATOM     72  N   UNL A   1      46.171  31.702  31.355  1.00  0.00    -0.354 N 
ATOM     73  N   UNL A   1      45.113  29.923  33.362  1.00  0.00    -0.248 NA
ATOM     74  C   UNL A   1      44.502  29.512  35.573  1.00  0.00     0.031 C 
ATOM     75  C   UNL A   1      46.518  33.839  31.862  1.00  0.00     0.029 A 
ATOM     76  C   UNL A   1      46.072  32.632  32.375  1.00  0.00     0.049 A 
ATOM     77  H   UNL A   1      45.940  30.749  31.432  1.00  0.00     0.167 HD
ATOM     78  C   UNL A   1      45.193  31.109  34.100  1.00  0.00     0.074 A 
ATOM     79  C   UNL A   1      44.762  30.803  35.441  1.00  0.00     0.031 C 
ATOM     80  C   UNL A   1      45.590  32.342  33.699  1.00  0.00     0.034 A 
BRANCH  67  81
ATOM     81  C   UNL A   1      47.488  32.458  27.837  1.00  0.00     0.023 A 
ATOM     82  C   UNL A   1      48.877  32.532  27.639  1.00  0.00     0.031 A 
ATOM     83  C   UNL A   1      46.651  33.194  26.983  1.00  0.00     0.131 A 
ATOM     84  C   UNL A   1      49.393  33.403  26.673  1.00  0.00     0.055 A 
ATOM     85  C   UNL A   1      47.170  33.978  25.954  1.00  0.00     0.041 A 
ATOM     86  F   UNL A   1      45.319  33.176  27.148  1.00  0.00    -0.206 F 
ATOM     87  C   UNL A   1      48.549  34.099  25.806  1.00  0.00     0.022 A 
BRANCH  84  88
ATOM     88  S   UNL A   1      51.176  33.729  26.673  1.00  0.00     0.124 S 
ATOM     89  O   UNL A   1      51.438  33.920  28.097  1.00  0.00    -0.237 OA
ATOM     90  O   UNL A   1      51.722  32.512  26.084  1.00  0.00    -0.237 OA
ATOM     91  O   UNL A   1      51.303  34.932  25.854  1.00  0.00    -0.744 OA
ENDBRANCH  84  88
ENDBRANCH  67  81
BRANCH  68  92
ATOM     92  C   UNL A   1      43.863  26.712  35.111  1.00  0.00     0.023 A 
ATOM     93  C   UNL A   1      44.772  26.089  36.000  1.00  0.00     0.031 A 
ATOM     94  C   UNL A   1      42.508  26.360  35.248  1.00  0.00     0.131 A 
ATOM     95  C   UNL A   1      44.332  25.096  36.904  1.00  0.00     0.055 A 
ATOM     96  C   UNL A   1      42.066  25.426  36.198  1.00  0.00     0.041 A 
ATOM     97  F   UNL A   1      41.586  26.885  34.428  1.00  0.00    -0.206 F 
ATOM     98  C   UNL A   1      42.982  24.772  37.017  1.00  0.00     0.022 A 
BRANCH  95  99
ATOM     99  S   UNL A   1      45.564  24.102  37.810  1.00  0.00     0.124 S 
ATOM    100  O   UNL A   1      45.719  22.950  36.930  1.00  0.00    -0.237 OA
ATOM    101  O   UNL A   1      46.700  25.017  37.880  1.00  0.00    -0.237 OA
ATOM    102  O   UNL A   1      44.911  23.828  39.089  1.00  0.00    -0.744 OA
ENDBRANCH  95  99
ENDBRANCH  68  92
BRANCH  80 103
ATOM    103  C   UNL A   1      45.482  33.498  34.668  1.00  0.00     0.023 A 
ATOM    104  C   UNL A   1      44.325  34.287  34.778  1.00  0.00     0.031 A 
ATOM    105  C   UNL A   1      46.546  33.760  35.553  1.00  0.00     0.131 A 
ATOM    106  C   UNL A   1      44.271  35.315  35.734  1.00  0.00     0.055 A 
ATOM    107  C   UNL A   1      46.462  34.741  36.541  1.00  0.00     0.041 A 
ATOM    108  F   UNL A   1      47.677  33.037  35.494  1.00  0.00    -0.206 F 
ATOM    109  C   UNL A   1      45.321  35.531  36.631  1.00  0.00     0.022 A 
BRANCH 106 110
ATOM    110  S   UNL A   1      42.829  36.416  35.756  1.00  0.00     0.124 S 
ATOM    111  O   UNL A   1      42.142  35.994  36.973  1.00  0.00    -0.237 OA
ATOM    112  O   UNL A   1      43.445  37.739  35.798  1.00  0.00    -0.237 OA
ATOM    113  O   UNL A   1      42.133  36.097  34.510  1.00  0.00    -0.744 OA
ENDBRANCH 106 110
ENDBRANCH  80 103
ENDBRANCH  54  55
ENDBRANCH  47  49
ENDBRANCH  46  47
ENDBRANCH  45  46
ENDBRANCH  44  45
ENDBRANCH  43  44
ENDBRANCH  42  43
ENDBRANCH   1  42
TORSDOF 24
ENDMDL
