MODEL 1
REMARK VINA RESULT:      -9.5      0.000      0.000
REMARK SMILES CC(C)CCn1nc(C(=O)OCCOCCOCCOCCOC(=O)c2ccc(-c3c4nc(c(-c5cc(S(=O)(=O)[O-])ccc5F)c5ccc([nH]5)c(-c5cc(S(=O)(=O)[O-])ccc5F)c5nc(c(-c6cc(S(=O)(=O)[O-])ccc6F)c6ccc3[nH]6)C=C5)C=C4)cc2)c2c1CCN(C(=O)[C@@H]1CCc3nn(C)c(=O)n3C1)C2
REMARK SMILES IDX 17 1 16 2 15 3 14 4 13 5 12 6 11 7 9 8 10 9 8 10 6 11 7 12
REMARK SMILES IDX 90 13 89 14 91 15 107 16 92 17 93 18 5 19 4 20 2 21 1 22
REMARK SMILES IDX 3 23 94 24 95 25 96 26 97 27 106 28 98 29 105 30 99 31
REMARK SMILES IDX 103 32 100 33 101 34 104 35 102 36 18 37 19 38 20 39 21 40
REMARK SMILES IDX 22 41 23 42 24 43 25 44 26 45 27 46 88 47 28 48 87 49 29 50
REMARK SMILES IDX 30 51 31 52 81 53 32 54 86 55 80 56 82 57 33 58 85 59 79 60
REMARK SMILES IDX 78 61 34 63 66 64 46 65 65 66 47 67 50 68 64 69 83 70 48 71
REMARK SMILES IDX 49 72 63 74 84 75 51 76 35 77 36 78 44 79 37 80 43 81 45 82
REMARK SMILES IDX 42 83 38 84 39 85 40 86 41 87 67 88 68 89 76 90 69 91 75 92
REMARK SMILES IDX 77 93 74 94 70 95 71 96 72 97 73 98 52 99 53 100 61 101
REMARK SMILES IDX 54 102 60 103 62 104 59 105 55 106 56 107 57 108 58 109
REMARK H PARENT 82 62 50 73
REMARK Flexibility Score: inf
ROOT
ATOM      1  O   UNL A   1      36.580  33.355  28.426  1.00  0.00    -0.377 OA
ENDROOT
BRANCH   1   2
ATOM      2  C   UNL A   1      35.731  34.170  29.211  1.00  0.00     0.188 C 
BRANCH   2   3
ATOM      3  C   UNL A   1      34.228  34.006  28.885  1.00  0.00     0.188 C 
BRANCH   3   4
ATOM      4  O   UNL A   1      33.736  33.060  27.935  1.00  0.00    -0.376 OA
BRANCH   4   5
ATOM      5  C   UNL A   1      33.784  31.656  28.126  1.00  0.00     0.202 C 
BRANCH   5   6
ATOM      6  C   UNL A   1      34.240  30.713  27.011  1.00  0.00     0.261 C 
BRANCH   6   7
ATOM      7  O   UNL A   1      33.186  30.133  26.259  1.00  0.00    -0.458 OA
BRANCH   7   8
ATOM      8  C   UNL A   1      33.056  28.782  26.373  1.00  0.00     0.359 C 
ATOM      9  O   UNL A   1      33.681  28.086  27.166  1.00  0.00    -0.244 OA
BRANCH   8  10
ATOM     10  C   UNL A   1      32.021  28.290  25.458  1.00  0.00     0.175 A 
ATOM     11  N   UNL A   1      30.553  28.268  23.909  1.00  0.00    -0.268 N 
ATOM     12  N   UNL A   1      31.449  29.072  24.513  1.00  0.00    -0.165 NA
ATOM     13  C   UNL A   1      30.401  27.103  24.583  1.00  0.00     0.046 A 
ATOM     14  C   UNL A   1      31.512  26.966  25.385  1.00  0.00     0.028 A 
ATOM     15  C   UNL A   1      29.287  26.141  24.565  1.00  0.00     0.078 C 
ATOM     16  C   UNL A   1      31.876  25.702  26.116  1.00  0.00     0.159 C 
ATOM     17  C   UNL A   1      29.477  25.280  25.830  1.00  0.00     0.126 C 
ATOM     18  N   UNL A   1      30.811  24.692  25.886  1.00  0.00    -0.338 N 
BRANCH  11  19
ATOM     19  C   UNL A   1      29.930  28.666  22.660  1.00  0.00     0.145 C 
BRANCH  19  20
ATOM     20  C   UNL A   1      29.469  30.123  22.623  1.00  0.00     0.027 C 
BRANCH  20  21
ATOM     21  C   UNL A   1      27.941  30.284  22.628  1.00  0.00    -0.016 C 
ATOM     22  C   UNL A   1      27.249  28.969  22.985  1.00  0.00     0.007 C 
ATOM     23  C   UNL A   1      27.530  31.390  23.597  1.00  0.00     0.007 C 
ENDBRANCH  20  21
ENDBRANCH  19  20
ENDBRANCH  11  19
BRANCH  18  24
ATOM     24  C   UNL A   1      31.172  23.362  25.795  1.00  0.00     0.227 C 
ATOM     25  O   UNL A   1      30.934  22.607  26.750  1.00  0.00    -0.274 OA
BRANCH  24  26
ATOM     26  C   UNL A   1      31.883  22.716  24.578  1.00  0.00     0.099 C 
ATOM     27  C   UNL A   1      33.360  22.338  24.754  1.00  0.00     0.023 C 
ATOM     28  C   UNL A   1      31.595  23.302  23.202  1.00  0.00     0.142 C 
ATOM     29  C   UNL A   1      34.382  23.363  24.276  1.00  0.00     0.078 C 
ATOM     30  N   UNL A   1      32.621  24.215  22.752  1.00  0.00    -0.278 N 
ATOM     31  C   UNL A   1      33.861  24.339  23.263  1.00  0.00     0.133 A 
ATOM     32  C   UNL A   1      32.377  25.369  22.046  1.00  0.00     0.345 A 
ATOM     33  N   UNL A   1      34.473  25.446  22.952  1.00  0.00    -0.155 NA
ATOM     34  N   UNL A   1      33.547  26.126  22.187  1.00  0.00    -0.216 N 
ATOM     35  O   UNL A   1      31.320  25.726  21.553  1.00  0.00    -0.246 OA
ATOM     36  C   UNL A   1      33.625  27.546  21.965  1.00  0.00     0.179 C 
ENDBRANCH  24  26
ENDBRANCH  18  24
ENDBRANCH   8  10
ENDBRANCH   7   8
ENDBRANCH   6   7
ENDBRANCH   5   6
ENDBRANCH   4   5
ENDBRANCH   3   4
ENDBRANCH   2   3
ENDBRANCH   1   2
BRANCH   1  37
ATOM     37  C   UNL A   1      37.819  32.990  29.040  1.00  0.00     0.188 C 
BRANCH  37  38
ATOM     38  C   UNL A   1      37.802  31.958  30.202  1.00  0.00     0.188 C 
BRANCH  38  39
ATOM     39  O   UNL A   1      37.740  32.529  31.505  1.00  0.00    -0.376 OA
BRANCH  39  40
ATOM     40  C   UNL A   1      38.756  32.292  32.467  1.00  0.00     0.202 C 
BRANCH  40  41
ATOM     41  C   UNL A   1      38.378  31.373  33.626  1.00  0.00     0.261 C 
BRANCH  41  42
ATOM     42  O   UNL A   1      39.478  31.057  34.455  1.00  0.00    -0.460 OA
BRANCH  42  43
ATOM     43  C   UNL A   1      39.186  30.991  35.767  1.00  0.00     0.338 C 
ATOM     44  O   UNL A   1      38.810  30.005  36.387  1.00  0.00    -0.246 OA
BRANCH  43  45
ATOM     45  C   UNL A   1      39.322  32.331  36.333  1.00  0.00     0.060 A 
ATOM     46  C   UNL A   1      40.481  32.537  37.076  1.00  0.00     0.016 A 
ATOM     47  C   UNL A   1      38.162  33.108  36.488  1.00  0.00     0.016 A 
ATOM     48  C   UNL A   1      40.347  33.248  38.235  1.00  0.00     0.010 A 
ATOM     49  C   UNL A   1      38.024  33.802  37.654  1.00  0.00     0.010 A 
ATOM     50  C   UNL A   1      39.078  33.738  38.559  1.00  0.00    -0.014 A 
BRANCH  50  51
ATOM     51  C   UNL A   1      38.869  34.185  39.908  1.00  0.00     0.031 A 
ATOM     52  C   UNL A   1      39.534  35.466  40.167  1.00  0.00     0.074 A 
ATOM     53  C   UNL A   1      38.089  33.507  40.767  1.00  0.00     0.049 A 
ATOM     54  N   UNL A   1      40.608  35.673  40.848  1.00  0.00    -0.248 NA
ATOM     55  C   UNL A   1      39.087  36.618  39.368  1.00  0.00     0.031 C 
ATOM     56  C   UNL A   1      37.192  32.379  40.493  1.00  0.00     0.029 A 
ATOM     57  N   UNL A   1      37.862  33.768  42.077  1.00  0.00    -0.354 N 
ATOM     58  C   UNL A   1      40.808  37.043  40.779  1.00  0.00     0.074 A 
ATOM     59  C   UNL A   1      40.036  37.504  39.659  1.00  0.00     0.031 C 
ATOM     60  C   UNL A   1      36.357  32.213  41.545  1.00  0.00     0.029 A 
ATOM     61  C   UNL A   1      36.752  33.124  42.607  1.00  0.00     0.049 A 
ATOM     62  H   UNL A   1      38.437  34.364  42.609  1.00  0.00     0.167 HD
ATOM     63  C   UNL A   1      41.308  37.719  41.844  1.00  0.00     0.034 A 
ATOM     64  C   UNL A   1      36.160  33.408  43.798  1.00  0.00     0.034 A 
ATOM     65  C   UNL A   1      42.019  36.827  42.737  1.00  0.00     0.049 A 
ATOM     66  C   UNL A   1      37.183  34.103  44.624  1.00  0.00     0.074 A 
ATOM     67  C   UNL A   1      43.092  35.967  42.589  1.00  0.00     0.029 A 
ATOM     68  N   UNL A   1      41.388  36.428  43.896  1.00  0.00    -0.354 N 
ATOM     69  N   UNL A   1      38.292  33.534  45.019  1.00  0.00    -0.248 NA
ATOM     70  C   UNL A   1      37.219  35.559  44.597  1.00  0.00     0.031 C 
ATOM     71  C   UNL A   1      42.768  34.824  43.381  1.00  0.00     0.029 A 
ATOM     72  C   UNL A   1      41.550  35.068  44.021  1.00  0.00     0.049 A 
ATOM     73  H   UNL A   1      40.906  37.013  44.524  1.00  0.00     0.167 HD
ATOM     74  C   UNL A   1      39.272  34.507  44.878  1.00  0.00     0.074 A 
ATOM     75  C   UNL A   1      38.536  35.760  44.718  1.00  0.00     0.031 C 
ATOM     76  C   UNL A   1      40.572  34.173  44.617  1.00  0.00     0.034 A 
BRANCH  63  77
ATOM     77  C   UNL A   1      40.792  39.077  42.268  1.00  0.00     0.023 A 
ATOM     78  C   UNL A   1      40.171  39.151  43.525  1.00  0.00     0.031 A 
ATOM     79  C   UNL A   1      40.619  40.209  41.432  1.00  0.00     0.131 A 
ATOM     80  C   UNL A   1      39.348  40.239  43.857  1.00  0.00     0.055 A 
ATOM     81  C   UNL A   1      39.854  41.318  41.796  1.00  0.00     0.041 A 
ATOM     82  F   UNL A   1      41.092  40.288  40.185  1.00  0.00    -0.206 F 
ATOM     83  C   UNL A   1      39.182  41.323  43.001  1.00  0.00     0.022 A 
BRANCH  80  84
ATOM     84  S   UNL A   1      38.346  40.119  45.357  1.00  0.00     0.124 S 
ATOM     85  O   UNL A   1      37.067  40.650  44.899  1.00  0.00    -0.237 OA
ATOM     86  O   UNL A   1      38.392  38.686  45.628  1.00  0.00    -0.237 OA
ATOM     87  O   UNL A   1      39.066  40.961  46.309  1.00  0.00    -0.744 OA
ENDBRANCH  80  84
ENDBRANCH  63  77
BRANCH  64  88
ATOM     88  C   UNL A   1      34.691  33.501  44.034  1.00  0.00     0.023 A 
ATOM     89  C   UNL A   1      33.777  33.898  43.037  1.00  0.00     0.031 A 
ATOM     90  C   UNL A   1      34.139  32.963  45.221  1.00  0.00     0.131 A 
ATOM     91  C   UNL A   1      32.384  33.757  43.251  1.00  0.00     0.055 A 
ATOM     92  C   UNL A   1      32.765  32.832  45.429  1.00  0.00     0.041 A 
ATOM     93  F   UNL A   1      34.923  32.466  46.191  1.00  0.00    -0.206 F 
ATOM     94  C   UNL A   1      31.880  33.222  44.440  1.00  0.00     0.022 A 
BRANCH  91  95
ATOM     95  S   UNL A   1      31.197  34.202  41.942  1.00  0.00     0.124 S 
ATOM     96  O   UNL A   1      31.127  35.654  42.069  1.00  0.00    -0.237 OA
ATOM     97  O   UNL A   1      31.847  33.686  40.744  1.00  0.00    -0.237 OA
ATOM     98  O   UNL A   1      29.977  33.494  42.331  1.00  0.00    -0.744 OA
ENDBRANCH  91  95
ENDBRANCH  64  88
BRANCH  76  99
ATOM     99  C   UNL A   1      40.975  32.716  44.764  1.00  0.00     0.023 A 
ATOM    100  C   UNL A   1      41.285  32.082  45.990  1.00  0.00     0.031 A 
ATOM    101  C   UNL A   1      40.917  31.911  43.613  1.00  0.00     0.131 A 
ATOM    102  C   UNL A   1      41.530  30.693  46.026  1.00  0.00     0.055 A 
ATOM    103  C   UNL A   1      41.141  30.536  43.655  1.00  0.00     0.041 A 
ATOM    104  F   UNL A   1      40.598  32.449  42.424  1.00  0.00    -0.206 F 
ATOM    105  C   UNL A   1      41.452  29.921  44.862  1.00  0.00     0.022 A 
BRANCH 102 106
ATOM    106  S   UNL A   1      41.950  29.860  47.594  1.00  0.00     0.124 S 
ATOM    107  O   UNL A   1      43.293  29.347  47.356  1.00  0.00    -0.237 OA
ATOM    108  O   UNL A   1      41.839  30.943  48.568  1.00  0.00    -0.237 OA
ATOM    109  O   UNL A   1      40.918  28.827  47.718  1.00  0.00    -0.744 OA
ENDBRANCH 102 106
ENDBRANCH  76  99
ENDBRANCH  50  51
ENDBRANCH  43  45
ENDBRANCH  42  43
ENDBRANCH  41  42
ENDBRANCH  40  41
ENDBRANCH  39  40
ENDBRANCH  38  39
ENDBRANCH  37  38
ENDBRANCH   1  37
TORSDOF 28
ENDMDL
MODEL 2
REMARK VINA RESULT:      -8.6      2.916      3.840
REMARK SMILES CC(C)CCn1nc(C(=O)OCCOCCOCCOCCOC(=O)c2ccc(-c3c4nc(c(-c5cc(S(=O)(=O)[O-])ccc5F)c5ccc([nH]5)c(-c5cc(S(=O)(=O)[O-])ccc5F)c5nc(c(-c6cc(S(=O)(=O)[O-])ccc6F)c6ccc3[nH]6)C=C5)C=C4)cc2)c2c1CCN(C(=O)[C@@H]1CCc3nn(C)c(=O)n3C1)C2
REMARK SMILES IDX 17 1 16 2 15 3 14 4 13 5 12 6 11 7 9 8 10 9 8 10 6 11 7 12
REMARK SMILES IDX 90 13 89 14 91 15 107 16 92 17 93 18 5 19 4 20 2 21 1 22
REMARK SMILES IDX 3 23 94 24 95 25 96 26 97 27 106 28 98 29 105 30 99 31
REMARK SMILES IDX 103 32 100 33 101 34 104 35 102 36 18 37 19 38 20 39 21 40
REMARK SMILES IDX 22 41 23 42 24 43 25 44 26 45 27 46 88 47 28 48 87 49 29 50
REMARK SMILES IDX 30 51 31 52 81 53 32 54 86 55 80 56 82 57 33 58 85 59 79 60
REMARK SMILES IDX 78 61 34 63 66 64 46 65 65 66 47 67 50 68 64 69 83 70 48 71
REMARK SMILES IDX 49 72 63 74 84 75 51 76 35 77 36 78 44 79 37 80 43 81 45 82
REMARK SMILES IDX 42 83 38 84 39 85 40 86 41 87 67 88 68 89 76 90 69 91 75 92
REMARK SMILES IDX 77 93 74 94 70 95 71 96 72 97 73 98 52 99 53 100 61 101
REMARK SMILES IDX 54 102 60 103 62 104 59 105 55 106 56 107 57 108 58 109
REMARK H PARENT 82 62 50 73
REMARK Flexibility Score: inf
ROOT
ATOM      1  O   UNL A   1      36.320  33.478  28.397  1.00  0.00    -0.377 OA
ENDROOT
BRANCH   1   2
ATOM      2  C   UNL A   1      35.475  34.452  28.977  1.00  0.00     0.188 C 
BRANCH   2   3
ATOM      3  C   UNL A   1      33.968  34.195  28.739  1.00  0.00     0.188 C 
BRANCH   3   4
ATOM      4  O   UNL A   1      33.478  33.118  27.940  1.00  0.00    -0.376 OA
BRANCH   4   5
ATOM      5  C   UNL A   1      33.847  31.763  28.136  1.00  0.00     0.202 C 
BRANCH   5   6
ATOM      6  C   UNL A   1      34.051  30.812  26.955  1.00  0.00     0.261 C 
BRANCH   6   7
ATOM      7  O   UNL A   1      32.860  30.222  26.458  1.00  0.00    -0.458 OA
BRANCH   7   8
ATOM      8  C   UNL A   1      32.752  28.876  26.636  1.00  0.00     0.359 C 
ATOM      9  O   UNL A   1      33.283  28.248  27.545  1.00  0.00    -0.244 OA
BRANCH   8  10
ATOM     10  C   UNL A   1      31.862  28.297  25.624  1.00  0.00     0.175 A 
ATOM     11  N   UNL A   1      30.672  28.115  23.862  1.00  0.00    -0.268 N 
ATOM     12  N   UNL A   1      31.490  28.968  24.508  1.00  0.00    -0.165 NA
ATOM     13  C   UNL A   1      30.359  27.049  24.635  1.00  0.00     0.046 A 
ATOM     14  C   UNL A   1      31.314  26.987  25.625  1.00  0.00     0.028 A 
ATOM     15  C   UNL A   1      29.221  26.118  24.543  1.00  0.00     0.078 C 
ATOM     16  C   UNL A   1      31.495  25.817  26.553  1.00  0.00     0.159 C 
ATOM     17  C   UNL A   1      29.161  25.419  25.916  1.00  0.00     0.126 C 
ATOM     18  N   UNL A   1      30.439  24.811  26.268  1.00  0.00    -0.338 N 
BRANCH  11  19
ATOM     19  C   UNL A   1      30.282  28.368  22.487  1.00  0.00     0.145 C 
BRANCH  19  20
ATOM     20  C   UNL A   1      30.015  29.839  22.169  1.00  0.00     0.027 C 
BRANCH  20  21
ATOM     21  C   UNL A   1      28.542  30.246  22.335  1.00  0.00    -0.016 C 
ATOM     22  C   UNL A   1      28.385  31.325  23.404  1.00  0.00     0.007 C 
ATOM     23  C   UNL A   1      27.972  30.721  21.000  1.00  0.00     0.007 C 
ENDBRANCH  20  21
ENDBRANCH  19  20
ENDBRANCH  11  19
BRANCH  18  24
ATOM     24  C   UNL A   1      30.751  23.472  26.400  1.00  0.00     0.227 C 
ATOM     25  O   UNL A   1      30.294  22.840  27.364  1.00  0.00    -0.274 OA
BRANCH  24  26
ATOM     26  C   UNL A   1      31.661  22.673  25.432  1.00  0.00     0.099 C 
ATOM     27  C   UNL A   1      33.090  22.375  25.904  1.00  0.00     0.023 C 
ATOM     28  C   UNL A   1      31.603  23.033  23.953  1.00  0.00     0.142 C 
ATOM     29  C   UNL A   1      34.170  23.349  25.447  1.00  0.00     0.078 C 
ATOM     30  N   UNL A   1      32.683  23.900  23.541  1.00  0.00    -0.278 N 
ATOM     31  C   UNL A   1      33.820  24.141  24.224  1.00  0.00     0.133 A 
ATOM     32  C   UNL A   1      32.553  24.925  22.634  1.00  0.00     0.345 A 
ATOM     33  N   UNL A   1      34.467  25.208  23.849  1.00  0.00    -0.155 NA
ATOM     34  N   UNL A   1      33.677  25.733  22.846  1.00  0.00    -0.216 N 
ATOM     35  O   UNL A   1      31.591  25.167  21.924  1.00  0.00    -0.246 OA
ATOM     36  C   UNL A   1      33.781  27.105  22.422  1.00  0.00     0.179 C 
ENDBRANCH  24  26
ENDBRANCH  18  24
ENDBRANCH   8  10
ENDBRANCH   7   8
ENDBRANCH   6   7
ENDBRANCH   5   6
ENDBRANCH   4   5
ENDBRANCH   3   4
ENDBRANCH   2   3
ENDBRANCH   1   2
BRANCH   1  37
ATOM     37  C   UNL A   1      37.508  33.179  29.136  1.00  0.00     0.188 C 
BRANCH  37  38
ATOM     38  C   UNL A   1      37.377  32.406  30.478  1.00  0.00     0.188 C 
BRANCH  38  39
ATOM     39  O   UNL A   1      37.415  33.225  31.642  1.00  0.00    -0.376 OA
BRANCH  39  40
ATOM     40  C   UNL A   1      38.320  32.964  32.703  1.00  0.00     0.202 C 
BRANCH  40  41
ATOM     41  C   UNL A   1      37.714  32.358  33.967  1.00  0.00     0.261 C 
BRANCH  41  42
ATOM     42  O   UNL A   1      38.574  31.429  34.595  1.00  0.00    -0.460 OA
BRANCH  42  43
ATOM     43  C   UNL A   1      38.402  31.321  35.925  1.00  0.00     0.338 C 
ATOM     44  O   UNL A   1      38.159  30.299  36.554  1.00  0.00    -0.246 OA
BRANCH  43  45
ATOM     45  C   UNL A   1      38.479  32.660  36.505  1.00  0.00     0.060 A 
ATOM     46  C   UNL A   1      39.738  33.250  36.449  1.00  0.00     0.016 A 
ATOM     47  C   UNL A   1      37.492  33.041  37.430  1.00  0.00     0.016 A 
ATOM     48  C   UNL A   1      40.144  33.933  37.560  1.00  0.00     0.010 A 
ATOM     49  C   UNL A   1      37.905  33.707  38.547  1.00  0.00     0.010 A 
ATOM     50  C   UNL A   1      39.258  34.015  38.638  1.00  0.00    -0.014 A 
BRANCH  50  51
ATOM     51  C   UNL A   1      39.795  34.433  39.903  1.00  0.00     0.031 A 
ATOM     52  C   UNL A   1      39.987  35.885  39.962  1.00  0.00     0.074 A 
ATOM     53  C   UNL A   1      40.012  33.562  40.904  1.00  0.00     0.049 A 
ATOM     54  N   UNL A   1      41.096  36.538  39.896  1.00  0.00    -0.248 NA
ATOM     55  C   UNL A   1      38.781  36.718  39.829  1.00  0.00     0.031 C 
ATOM     56  C   UNL A   1      39.595  32.159  41.002  1.00  0.00     0.029 A 
ATOM     57  N   UNL A   1      40.576  33.799  42.113  1.00  0.00    -0.354 N 
ATOM     58  C   UNL A   1      40.726  37.869  39.992  1.00  0.00     0.074 A 
ATOM     59  C   UNL A   1      39.329  37.921  39.666  1.00  0.00     0.031 C 
ATOM     60  C   UNL A   1      39.717  31.750  42.286  1.00  0.00     0.029 A 
ATOM     61  C   UNL A   1      40.343  32.810  43.059  1.00  0.00     0.049 A 
ATOM     62  H   UNL A   1      41.108  34.605  42.304  1.00  0.00     0.167 HD
ATOM     63  C   UNL A   1      41.509  38.755  40.660  1.00  0.00     0.034 A 
ATOM     64  C   UNL A   1      40.568  32.918  44.396  1.00  0.00     0.034 A 
ATOM     65  C   UNL A   1      42.870  38.269  40.760  1.00  0.00     0.049 A 
ATOM     66  C   UNL A   1      41.565  34.009  44.570  1.00  0.00     0.074 A 
ATOM     67  C   UNL A   1      43.829  37.886  39.840  1.00  0.00     0.029 A 
ATOM     68  N   UNL A   1      43.282  37.733  41.962  1.00  0.00    -0.354 N 
ATOM     69  N   UNL A   1      42.787  33.943  44.110  1.00  0.00    -0.248 NA
ATOM     70  C   UNL A   1      41.076  35.359  44.812  1.00  0.00     0.031 C 
ATOM     71  C   UNL A   1      44.483  36.761  40.427  1.00  0.00     0.029 A 
ATOM     72  C   UNL A   1      43.939  36.554  41.697  1.00  0.00     0.049 A 
ATOM     73  H   UNL A   1      43.132  38.124  42.853  1.00  0.00     0.167 HD
ATOM     74  C   UNL A   1      43.058  35.209  43.608  1.00  0.00     0.074 A 
ATOM     75  C   UNL A   1      42.010  36.064  44.165  1.00  0.00     0.031 C 
ATOM     76  C   UNL A   1      43.926  35.390  42.568  1.00  0.00     0.034 A 
BRANCH  63  77
ATOM     77  C   UNL A   1      40.944  39.830  41.562  1.00  0.00     0.023 A 
ATOM     78  C   UNL A   1      41.293  41.155  41.260  1.00  0.00     0.031 A 
ATOM     79  C   UNL A   1      40.337  39.631  42.829  1.00  0.00     0.131 A 
ATOM     80  C   UNL A   1      41.141  42.175  42.213  1.00  0.00     0.055 A 
ATOM     81  C   UNL A   1      40.127  40.661  43.746  1.00  0.00     0.041 A 
ATOM     82  F   UNL A   1      39.991  38.430  43.303  1.00  0.00    -0.206 F 
ATOM     83  C   UNL A   1      40.563  41.938  43.456  1.00  0.00     0.022 A 
BRANCH  80  84
ATOM     84  S   UNL A   1      41.891  43.782  41.865  1.00  0.00     0.124 S 
ATOM     85  O   UNL A   1      43.026  43.403  41.031  1.00  0.00    -0.237 OA
ATOM     86  O   UNL A   1      40.799  44.477  41.193  1.00  0.00    -0.237 OA
ATOM     87  O   UNL A   1      42.233  44.287  43.192  1.00  0.00    -0.744 OA
ENDBRANCH  80  84
ENDBRANCH  63  77
BRANCH  64  88
ATOM     88  C   UNL A   1      39.648  32.448  45.470  1.00  0.00     0.023 A 
ATOM     89  C   UNL A   1      38.300  32.112  45.232  1.00  0.00     0.031 A 
ATOM     90  C   UNL A   1      40.173  32.102  46.738  1.00  0.00     0.131 A 
ATOM     91  C   UNL A   1      37.540  31.466  46.238  1.00  0.00     0.055 A 
ATOM     92  C   UNL A   1      39.417  31.471  47.727  1.00  0.00     0.041 A 
ATOM     93  F   UNL A   1      41.470  32.290  47.030  1.00  0.00    -0.206 F 
ATOM     94  C   UNL A   1      38.096  31.143  47.478  1.00  0.00     0.022 A 
BRANCH  91  95
ATOM     95  S   UNL A   1      35.817  30.965  45.916  1.00  0.00     0.124 S 
ATOM     96  O   UNL A   1      35.650  31.315  44.510  1.00  0.00    -0.237 OA
ATOM     97  O   UNL A   1      35.843  29.543  46.233  1.00  0.00    -0.237 OA
ATOM     98  O   UNL A   1      35.042  31.786  46.848  1.00  0.00    -0.744 OA
ENDBRANCH  91  95
ENDBRANCH  64  88
BRANCH  76  99
ATOM     99  C   UNL A   1      44.800  34.217  42.158  1.00  0.00     0.023 A 
ATOM    100  C   UNL A   1      44.433  33.224  41.220  1.00  0.00     0.031 A 
ATOM    101  C   UNL A   1      46.114  34.187  42.656  1.00  0.00     0.131 A 
ATOM    102  C   UNL A   1      45.370  32.247  40.822  1.00  0.00     0.055 A 
ATOM    103  C   UNL A   1      47.043  33.231  42.246  1.00  0.00     0.041 A 
ATOM    104  F   UNL A   1      46.532  35.121  43.526  1.00  0.00    -0.206 F 
ATOM    105  C   UNL A   1      46.673  32.253  41.330  1.00  0.00     0.022 A 
BRANCH 102 106
ATOM    106  S   UNL A   1      44.911  30.946  39.628  1.00  0.00     0.124 S 
ATOM    107  O   UNL A   1      45.944  31.046  38.604  1.00  0.00    -0.237 OA
ATOM    108  O   UNL A   1      44.935  29.738  40.449  1.00  0.00    -0.237 OA
ATOM    109  O   UNL A   1      43.574  31.347  39.183  1.00  0.00    -0.744 OA
ENDBRANCH 102 106
ENDBRANCH  76  99
ENDBRANCH  50  51
ENDBRANCH  43  45
ENDBRANCH  42  43
ENDBRANCH  41  42
ENDBRANCH  40  41
ENDBRANCH  39  40
ENDBRANCH  38  39
ENDBRANCH  37  38
ENDBRANCH   1  37
TORSDOF 28
ENDMDL
MODEL 3
REMARK VINA RESULT:      -8.5      8.412     19.010
REMARK SMILES CC(C)CCn1nc(C(=O)OCCOCCOCCOCCOC(=O)c2ccc(-c3c4nc(c(-c5cc(S(=O)(=O)[O-])ccc5F)c5ccc([nH]5)c(-c5cc(S(=O)(=O)[O-])ccc5F)c5nc(c(-c6cc(S(=O)(=O)[O-])ccc6F)c6ccc3[nH]6)C=C5)C=C4)cc2)c2c1CCN(C(=O)[C@@H]1CCc3nn(C)c(=O)n3C1)C2
REMARK SMILES IDX 17 1 16 2 15 3 14 4 13 5 12 6 11 7 9 8 10 9 8 10 6 11 7 12
REMARK SMILES IDX 90 13 89 14 91 15 107 16 92 17 93 18 5 19 4 20 2 21 1 22
REMARK SMILES IDX 3 23 94 24 95 25 96 26 97 27 106 28 98 29 105 30 99 31
REMARK SMILES IDX 103 32 100 33 101 34 104 35 102 36 18 37 19 38 20 39 21 40
REMARK SMILES IDX 22 41 23 42 24 43 25 44 26 45 27 46 88 47 28 48 87 49 29 50
REMARK SMILES IDX 30 51 31 52 81 53 32 54 86 55 80 56 82 57 33 58 85 59 79 60
REMARK SMILES IDX 78 61 34 63 66 64 46 65 65 66 47 67 50 68 64 69 83 70 48 71
REMARK SMILES IDX 49 72 63 74 84 75 51 76 35 77 36 78 44 79 37 80 43 81 45 82
REMARK SMILES IDX 42 83 38 84 39 85 40 86 41 87 67 88 68 89 76 90 69 91 75 92
REMARK SMILES IDX 77 93 74 94 70 95 71 96 72 97 73 98 52 99 53 100 61 101
REMARK SMILES IDX 54 102 60 103 62 104 59 105 55 106 56 107 57 108 58 109
REMARK H PARENT 82 62 50 73
REMARK Flexibility Score: inf
ROOT
ATOM      1  O   UNL A   1      42.715  32.400  31.901  1.00  0.00    -0.377 OA
ENDROOT
BRANCH   1   2
ATOM      2  C   UNL A   1      43.177  33.696  31.575  1.00  0.00     0.188 C 
BRANCH   2   3
ATOM      3  C   UNL A   1      44.037  34.351  32.681  1.00  0.00     0.188 C 
BRANCH   3   4
ATOM      4  O   UNL A   1      43.527  35.329  33.589  1.00  0.00    -0.376 OA
BRANCH   4   5
ATOM      5  C   UNL A   1      44.244  36.486  33.982  1.00  0.00     0.202 C 
BRANCH   5   6
ATOM      6  C   UNL A   1      43.545  37.670  34.654  1.00  0.00     0.261 C 
BRANCH   6   7
ATOM      7  O   UNL A   1      42.549  37.311  35.599  1.00  0.00    -0.458 OA
BRANCH   7   8
ATOM      8  C   UNL A   1      43.004  37.006  36.846  1.00  0.00     0.359 C 
ATOM      9  O   UNL A   1      44.069  37.394  37.313  1.00  0.00    -0.244 OA
BRANCH   8  10
ATOM     10  C   UNL A   1      42.013  36.201  37.568  1.00  0.00     0.175 A 
ATOM     11  N   UNL A   1      40.744  34.566  38.084  1.00  0.00    -0.268 N 
ATOM     12  N   UNL A   1      41.682  34.942  37.195  1.00  0.00    -0.165 NA
ATOM     13  C   UNL A   1      40.335  35.609  38.844  1.00  0.00     0.046 A 
ATOM     14  C   UNL A   1      41.313  36.573  38.746  1.00  0.00     0.028 A 
ATOM     15  C   UNL A   1      39.092  35.787  39.613  1.00  0.00     0.078 C 
ATOM     16  C   UNL A   1      41.388  37.793  39.623  1.00  0.00     0.159 C 
ATOM     17  C   UNL A   1      39.000  37.302  39.887  1.00  0.00     0.126 C 
ATOM     18  N   UNL A   1      40.210  37.808  40.527  1.00  0.00    -0.338 N 
BRANCH  11  19
ATOM     19  C   UNL A   1      40.335  33.176  38.179  1.00  0.00     0.145 C 
BRANCH  19  20
ATOM     20  C   UNL A   1      39.989  32.529  36.839  1.00  0.00     0.027 C 
BRANCH  20  21
ATOM     21  C   UNL A   1      38.477  32.414  36.585  1.00  0.00    -0.016 C 
ATOM     22  C   UNL A   1      37.773  33.745  36.840  1.00  0.00     0.007 C 
ATOM     23  C   UNL A   1      38.217  31.929  35.160  1.00  0.00     0.007 C 
ENDBRANCH  20  21
ENDBRANCH  19  20
ENDBRANCH  11  19
BRANCH  18  24
ATOM     24  C   UNL A   1      40.364  38.311  41.804  1.00  0.00     0.227 C 
ATOM     25  O   UNL A   1      40.383  37.524  42.763  1.00  0.00    -0.274 OA
BRANCH  24  26
ATOM     26  C   UNL A   1      40.502  39.814  42.156  1.00  0.00     0.099 C 
ATOM     27  C   UNL A   1      39.672  40.803  41.327  1.00  0.00     0.023 C 
ATOM     28  C   UNL A   1      41.900  40.341  42.457  1.00  0.00     0.142 C 
ATOM     29  C   UNL A   1      40.376  41.446  40.137  1.00  0.00     0.078 C 
ATOM     30  N   UNL A   1      42.506  41.007  41.327  1.00  0.00    -0.278 N 
ATOM     31  C   UNL A   1      41.873  41.444  40.221  1.00  0.00     0.133 A 
ATOM     32  C   UNL A   1      43.839  40.922  41.000  1.00  0.00     0.345 A 
ATOM     33  N   UNL A   1      42.649  41.676  39.202  1.00  0.00    -0.155 NA
ATOM     34  N   UNL A   1      43.906  41.341  39.666  1.00  0.00    -0.216 N 
ATOM     35  O   UNL A   1      44.735  40.429  41.667  1.00  0.00    -0.246 OA
ATOM     36  C   UNL A   1      45.003  41.055  38.779  1.00  0.00     0.179 C 
ENDBRANCH  24  26
ENDBRANCH  18  24
ENDBRANCH   8  10
ENDBRANCH   7   8
ENDBRANCH   6   7
ENDBRANCH   5   6
ENDBRANCH   4   5
ENDBRANCH   3   4
ENDBRANCH   2   3
ENDBRANCH   1   2
BRANCH   1  37
ATOM     37  C   UNL A   1      41.298  32.219  31.837  1.00  0.00     0.188 C 
BRANCH  37  38
ATOM     38  C   UNL A   1      40.391  33.474  31.702  1.00  0.00     0.188 C 
BRANCH  38  39
ATOM     39  O   UNL A   1      39.874  33.696  30.394  1.00  0.00    -0.376 OA
BRANCH  39  40
ATOM     40  C   UNL A   1      39.238  32.661  29.662  1.00  0.00     0.202 C 
BRANCH  40  41
ATOM     41  C   UNL A   1      37.966  32.087  30.283  1.00  0.00     0.261 C 
BRANCH  41  42
ATOM     42  O   UNL A   1      38.083  30.715  30.601  1.00  0.00    -0.460 OA
BRANCH  42  43
ATOM     43  C   UNL A   1      37.140  29.932  30.047  1.00  0.00     0.338 C 
ATOM     44  O   UNL A   1      35.927  30.031  30.185  1.00  0.00    -0.246 OA
BRANCH  43  45
ATOM     45  C   UNL A   1      37.809  28.873  29.295  1.00  0.00     0.060 A 
ATOM     46  C   UNL A   1      38.311  27.832  30.070  1.00  0.00     0.016 A 
ATOM     47  C   UNL A   1      38.289  29.173  28.008  1.00  0.00     0.016 A 
ATOM     48  C   UNL A   1      39.544  27.352  29.728  1.00  0.00     0.010 A 
ATOM     49  C   UNL A   1      39.528  28.707  27.677  1.00  0.00     0.010 A 
ATOM     50  C   UNL A   1      40.178  27.914  28.616  1.00  0.00    -0.014 A 
BRANCH  50  51
ATOM     51  C   UNL A   1      41.582  27.654  28.457  1.00  0.00     0.031 A 
ATOM     52  C   UNL A   1      41.828  26.348  27.836  1.00  0.00     0.074 A 
ATOM     53  C   UNL A   1      42.514  28.563  28.791  1.00  0.00     0.049 A 
ATOM     54  N   UNL A   1      42.253  25.272  28.403  1.00  0.00    -0.248 NA
ATOM     55  C   UNL A   1      41.304  26.154  26.474  1.00  0.00     0.031 C 
ATOM     56  C   UNL A   1      42.328  29.970  29.160  1.00  0.00     0.029 A 
ATOM     57  N   UNL A   1      43.862  28.429  28.764  1.00  0.00    -0.354 N 
ATOM     58  C   UNL A   1      42.304  24.335  27.383  1.00  0.00     0.074 A 
ATOM     59  C   UNL A   1      41.465  24.840  26.333  1.00  0.00     0.031 C 
ATOM     60  C   UNL A   1      43.521  30.606  29.094  1.00  0.00     0.029 A 
ATOM     61  C   UNL A   1      44.560  29.627  28.816  1.00  0.00     0.049 A 
ATOM     62  H   UNL A   1      44.309  27.553  28.714  1.00  0.00     0.167 HD
ATOM     63  C   UNL A   1      43.293  23.406  27.353  1.00  0.00     0.034 A 
ATOM     64  C   UNL A   1      45.883  29.792  28.547  1.00  0.00     0.034 A 
ATOM     65  C   UNL A   1      43.876  23.226  28.667  1.00  0.00     0.049 A 
ATOM     66  C   UNL A   1      46.519  28.459  28.726  1.00  0.00     0.074 A 
ATOM     67  C   UNL A   1      43.373  22.869  29.905  1.00  0.00     0.029 A 
ATOM     68  N   UNL A   1      45.095  23.817  28.923  1.00  0.00    -0.354 N 
ATOM     69  N   UNL A   1      46.566  27.836  29.874  1.00  0.00    -0.248 NA
ATOM     70  C   UNL A   1      46.660  27.599  27.559  1.00  0.00     0.031 C 
ATOM     71  C   UNL A   1      44.075  23.684  30.843  1.00  0.00     0.029 A 
ATOM     72  C   UNL A   1      45.012  24.448  30.143  1.00  0.00     0.049 A 
ATOM     73  H   UNL A   1      45.886  23.791  28.338  1.00  0.00     0.167 HD
ATOM     74  C   UNL A   1      46.314  26.503  29.578  1.00  0.00     0.074 A 
ATOM     75  C   UNL A   1      46.487  26.403  28.129  1.00  0.00     0.031 C 
ATOM     76  C   UNL A   1      45.712  25.675  30.484  1.00  0.00     0.034 A 
BRANCH  63  77
ATOM     77  C   UNL A   1      43.989  22.992  26.075  1.00  0.00     0.023 A 
ATOM     78  C   UNL A   1      44.048  21.616  25.806  1.00  0.00     0.031 A 
ATOM     79  C   UNL A   1      44.821  23.809  25.267  1.00  0.00     0.131 A 
ATOM     80  C   UNL A   1      44.963  21.104  24.872  1.00  0.00     0.055 A 
ATOM     81  C   UNL A   1      45.679  23.300  24.292  1.00  0.00     0.041 A 
ATOM     82  F   UNL A   1      44.932  25.132  25.421  1.00  0.00    -0.206 F 
ATOM     83  C   UNL A   1      45.782  21.935  24.114  1.00  0.00     0.022 A 
BRANCH  80  84
ATOM     84  S   UNL A   1      45.196  19.312  24.805  1.00  0.00     0.124 S 
ATOM     85  O   UNL A   1      44.074  18.839  25.608  1.00  0.00    -0.237 OA
ATOM     86  O   UNL A   1      45.116  19.059  23.370  1.00  0.00    -0.237 OA
ATOM     87  O   UNL A   1      46.516  19.123  25.402  1.00  0.00    -0.744 OA
ENDBRANCH  80  84
ENDBRANCH  63  77
BRANCH  64  88
ATOM     88  C   UNL A   1      46.472  30.897  27.740  1.00  0.00     0.023 A 
ATOM     89  C   UNL A   1      45.695  31.769  26.950  1.00  0.00     0.031 A 
ATOM     90  C   UNL A   1      47.829  31.253  27.928  1.00  0.00     0.131 A 
ATOM     91  C   UNL A   1      46.280  32.928  26.384  1.00  0.00     0.055 A 
ATOM     92  C   UNL A   1      48.401  32.393  27.362  1.00  0.00     0.041 A 
ATOM     93  F   UNL A   1      48.629  30.544  28.741  1.00  0.00    -0.206 F 
ATOM     94  C   UNL A   1      47.625  33.242  26.593  1.00  0.00     0.022 A 
BRANCH  91  95
ATOM     95  S   UNL A   1      45.268  34.097  25.419  1.00  0.00     0.124 S 
ATOM     96  O   UNL A   1      44.465  33.203  24.593  1.00  0.00    -0.237 OA
ATOM     97  O   UNL A   1      44.560  34.830  26.461  1.00  0.00    -0.237 OA
ATOM     98  O   UNL A   1      46.261  34.883  24.685  1.00  0.00    -0.744 OA
ENDBRANCH  91  95
ENDBRANCH  64  88
BRANCH  76  99
ATOM     99  C   UNL A   1      45.581  26.164  31.916  1.00  0.00     0.023 A 
ATOM    100  C   UNL A   1      44.465  26.863  32.433  1.00  0.00     0.031 A 
ATOM    101  C   UNL A   1      46.588  25.785  32.821  1.00  0.00     0.131 A 
ATOM    102  C   UNL A   1      44.395  27.163  33.810  1.00  0.00     0.055 A 
ATOM    103  C   UNL A   1      46.506  26.067  34.185  1.00  0.00     0.041 A 
ATOM    104  F   UNL A   1      47.657  25.092  32.397  1.00  0.00    -0.206 F 
ATOM    105  C   UNL A   1      45.410  26.762  34.685  1.00  0.00     0.022 A 
BRANCH 102 106
ATOM    106  S   UNL A   1      42.974  28.081  34.494  1.00  0.00     0.124 S 
ATOM    107  O   UNL A   1      41.938  27.062  34.612  1.00  0.00    -0.237 OA
ATOM    108  O   UNL A   1      43.508  28.602  35.750  1.00  0.00    -0.237 OA
ATOM    109  O   UNL A   1      42.708  29.104  33.479  1.00  0.00    -0.744 OA
ENDBRANCH 102 106
ENDBRANCH  76  99
ENDBRANCH  50  51
ENDBRANCH  43  45
ENDBRANCH  42  43
ENDBRANCH  41  42
ENDBRANCH  40  41
ENDBRANCH  39  40
ENDBRANCH  38  39
ENDBRANCH  37  38
ENDBRANCH   1  37
TORSDOF 28
ENDMDL
