MODEL 1
REMARK VINA RESULT:     -11.3      0.000      0.000
REMARK SMILES COc1cccc([C@@H]2[NH2+][C@@](C)(C(=O)OCCOCCOCCOCCOC(=O)c3ccc(-c4c5nc(c(-c6cc(S(=O)(=O)[O-])ccc6F)c6ccc([nH]6)c(-c6cc(S(=O)(=O)[O-])ccc6F)c6nc(c(-c7cc(S(=O)(=O)[O-])ccc7F)c7ccc4[nH]7)C=C6)C=C5)cc3)[C@@H]3C(=O)N(C)C(=O)[C@@H]32)c1O
REMARK SMILES IDX 21 1 20 2 19 3 18 4 17 5 16 6 15 7 14 8 12 9 13 10 10 11
REMARK SMILES IDX 8 12 9 13 99 14 92 17 97 18 11 19 93 20 95 21 98 22 94 23
REMARK SMILES IDX 96 24 7 25 3 26 4 27 100 28 5 29 6 30 2 31 1 32 101 33 22 35
REMARK SMILES IDX 23 36 24 37 25 38 26 39 27 40 28 41 29 42 30 43 91 44 31 45
REMARK SMILES IDX 90 46 32 47 33 48 34 49 84 50 35 51 89 52 83 53 85 54 36 55
REMARK SMILES IDX 88 56 82 57 81 58 37 60 69 61 49 62 68 63 50 64 53 65 67 66
REMARK SMILES IDX 86 67 51 68 52 69 66 71 87 72 54 73 38 74 39 75 47 76 40 77
REMARK SMILES IDX 46 78 48 79 45 80 41 81 42 82 43 83 44 84 70 85 71 86 79 87
REMARK SMILES IDX 72 88 78 89 80 90 77 91 73 92 74 93 75 94 76 95 55 96 56 97
REMARK SMILES IDX 64 98 57 99 63 100 65 101 62 102 58 103 59 104 60 105 61 106
REMARK H PARENT 9 15 9 16 101 34 85 59 53 70
REMARK Flexibility Score: inf
ROOT
ATOM      1  C   UNL A   1      33.678  20.756  26.151  1.00  0.00     0.188 C 
ENDROOT
BRANCH   1   2
ATOM      2  O   UNL A   1      33.117  21.579  27.154  1.00  0.00    -0.377 OA
BRANCH   2   3
ATOM      3  C   UNL A   1      32.478  22.752  26.704  1.00  0.00     0.188 C 
BRANCH   3   4
ATOM      4  C   UNL A   1      33.440  23.929  26.440  1.00  0.00     0.188 C 
BRANCH   4   5
ATOM      5  O   UNL A   1      34.848  23.750  26.404  1.00  0.00    -0.376 OA
BRANCH   5   6
ATOM      6  C   UNL A   1      35.568  24.066  25.224  1.00  0.00     0.202 C 
BRANCH   6   7
ATOM      7  C   UNL A   1      35.030  23.632  23.842  1.00  0.00     0.261 C 
BRANCH   7   8
ATOM      8  O   UNL A   1      34.205  24.566  23.113  1.00  0.00    -0.459 OA
BRANCH   8   9
ATOM      9  C   UNL A   1      32.960  24.135  22.807  1.00  0.00     0.368 C 
ATOM     10  O   UNL A   1      32.746  23.049  22.264  1.00  0.00    -0.245 OA
BRANCH   9  11
ATOM     11  C   UNL A   1      31.781  25.107  23.142  1.00  0.00     0.204 C 
ATOM     12  C   UNL A   1      31.437  27.368  22.224  1.00  0.00     0.232 C 
ATOM     13  N   UNL A   1      31.200  25.912  22.014  1.00  0.00    -0.325 N 
ATOM     14  C   UNL A   1      32.533  27.441  23.281  1.00  0.00     0.161 C 
ATOM     15  H   UNL A   1      31.639  25.626  21.138  1.00  0.00     0.347 HD
ATOM     16  H   UNL A   1      30.195  25.747  21.980  1.00  0.00     0.347 HD
ATOM     17  C   UNL A   1      32.396  26.147  24.078  1.00  0.00     0.170 C 
ATOM     18  C   UNL A   1      32.431  28.496  24.348  1.00  0.00     0.239 C 
ATOM     19  C   UNL A   1      30.736  24.114  23.668  1.00  0.00     0.093 C 
ATOM     20  C   UNL A   1      31.628  26.589  25.287  1.00  0.00     0.240 C 
ATOM     21  N   UNL A   1      31.886  27.920  25.463  1.00  0.00    -0.285 N 
ATOM     22  O   UNL A   1      32.756  29.666  24.214  1.00  0.00    -0.274 OA
ATOM     23  O   UNL A   1      30.911  25.896  25.992  1.00  0.00    -0.274 OA
ATOM     24  C   UNL A   1      31.519  28.677  26.630  1.00  0.00     0.156 C 
BRANCH  12  25
ATOM     25  C   UNL A   1      30.246  28.278  22.530  1.00  0.00     0.056 A 
ATOM     26  C   UNL A   1      28.837  30.195  21.956  1.00  0.00     0.161 A 
ATOM     27  C   UNL A   1      27.748  29.598  22.591  1.00  0.00     0.050 A 
ATOM     28  C   UNL A   1      30.088  29.563  21.999  1.00  0.00     0.166 A 
ATOM     29  C   UNL A   1      27.906  28.372  23.238  1.00  0.00     0.005 A 
ATOM     30  C   UNL A   1      29.138  27.714  23.194  1.00  0.00     0.014 A 
BRANCH  26  31
ATOM     31  O   UNL A   1      28.650  31.450  21.441  1.00  0.00    -0.493 OA
ATOM     32  C   UNL A   1      28.608  32.486  22.420  1.00  0.00     0.278 C 
ENDBRANCH  26  31
BRANCH  28  33
ATOM     33  O   UNL A   1      31.212  30.201  21.579  1.00  0.00    -0.504 OA
ATOM     34  H   UNL A   1      31.757  30.645  22.198  1.00  0.00     0.293 HD
ENDBRANCH  28  33
ENDBRANCH  12  25
ENDBRANCH   9  11
ENDBRANCH   8   9
ENDBRANCH   7   8
ENDBRANCH   6   7
ENDBRANCH   5   6
ENDBRANCH   4   5
ENDBRANCH   3   4
ENDBRANCH   2   3
ENDBRANCH   1   2
BRANCH   1  35
ATOM     35  C   UNL A   1      35.213  20.721  26.060  1.00  0.00     0.188 C 
BRANCH  35  36
ATOM     36  O   UNL A   1      35.707  20.124  24.862  1.00  0.00    -0.376 OA
BRANCH  36  37
ATOM     37  C   UNL A   1      37.061  19.699  24.816  1.00  0.00     0.202 C 
BRANCH  37  38
ATOM     38  C   UNL A   1      38.138  20.796  24.732  1.00  0.00     0.261 C 
BRANCH  38  39
ATOM     39  O   UNL A   1      38.495  21.440  25.961  1.00  0.00    -0.460 OA
BRANCH  39  40
ATOM     40  C   UNL A   1      39.799  21.417  26.315  1.00  0.00     0.338 C 
ATOM     41  O   UNL A   1      40.628  20.592  25.968  1.00  0.00    -0.246 OA
BRANCH  40  42
ATOM     42  C   UNL A   1      40.112  22.688  27.002  1.00  0.00     0.060 A 
ATOM     43  C   UNL A   1      39.334  23.813  26.704  1.00  0.00     0.016 A 
ATOM     44  C   UNL A   1      41.136  22.769  27.953  1.00  0.00     0.016 A 
ATOM     45  C   UNL A   1      39.606  25.033  27.318  1.00  0.00     0.010 A 
ATOM     46  C   UNL A   1      41.427  24.002  28.547  1.00  0.00     0.010 A 
ATOM     47  C   UNL A   1      40.689  25.147  28.198  1.00  0.00    -0.014 A 
BRANCH  47  48
ATOM     48  C   UNL A   1      41.186  26.505  28.532  1.00  0.00     0.031 A 
ATOM     49  C   UNL A   1      42.596  26.853  28.134  1.00  0.00     0.074 A 
ATOM     50  C   UNL A   1      40.385  27.435  29.079  1.00  0.00     0.049 A 
ATOM     51  N   UNL A   1      43.244  27.982  28.253  1.00  0.00    -0.248 NA
ATOM     52  C   UNL A   1      43.378  25.772  27.514  1.00  0.00     0.031 C 
ATOM     53  C   UNL A   1      38.986  27.232  29.449  1.00  0.00     0.029 A 
ATOM     54  N   UNL A   1      40.633  28.745  29.403  1.00  0.00    -0.354 N 
ATOM     55  C   UNL A   1      44.505  27.752  27.711  1.00  0.00     0.074 A 
ATOM     56  C   UNL A   1      44.547  26.360  27.322  1.00  0.00     0.031 C 
ATOM     57  C   UNL A   1      38.495  28.384  29.938  1.00  0.00     0.029 A 
ATOM     58  C   UNL A   1      39.551  29.396  29.946  1.00  0.00     0.049 A 
ATOM     59  H   UNL A   1      41.505  29.179  29.259  1.00  0.00     0.167 HD
ATOM     60  C   UNL A   1      45.526  28.626  27.534  1.00  0.00     0.034 A 
ATOM     61  C   UNL A   1      39.433  30.660  30.404  1.00  0.00     0.034 A 
ATOM     62  C   UNL A   1      45.479  30.003  27.958  1.00  0.00     0.049 A 
ATOM     63  C   UNL A   1      40.625  31.585  30.308  1.00  0.00     0.074 A 
ATOM     64  C   UNL A   1      46.460  30.974  27.854  1.00  0.00     0.029 A 
ATOM     65  N   UNL A   1      44.393  30.605  28.584  1.00  0.00    -0.354 N 
ATOM     66  N   UNL A   1      41.815  31.357  29.796  1.00  0.00    -0.248 NA
ATOM     67  C   UNL A   1      40.450  32.943  30.837  1.00  0.00     0.031 C 
ATOM     68  C   UNL A   1      45.999  32.133  28.487  1.00  0.00     0.029 A 
ATOM     69  C   UNL A   1      44.693  31.922  28.900  1.00  0.00     0.049 A 
ATOM     70  H   UNL A   1      43.535  30.160  28.776  1.00  0.00     0.167 HD
ATOM     71  C   UNL A   1      42.512  32.559  29.905  1.00  0.00     0.074 A 
ATOM     72  C   UNL A   1      41.605  33.508  30.518  1.00  0.00     0.031 C 
ATOM     73  C   UNL A   1      43.783  32.857  29.522  1.00  0.00     0.034 A 
BRANCH  60  74
ATOM     74  C   UNL A   1      46.792  28.084  26.910  1.00  0.00     0.023 A 
ATOM     75  C   UNL A   1      47.039  28.191  25.528  1.00  0.00     0.031 A 
ATOM     76  C   UNL A   1      47.733  27.392  27.691  1.00  0.00     0.131 A 
ATOM     77  C   UNL A   1      48.144  27.537  24.961  1.00  0.00     0.055 A 
ATOM     78  C   UNL A   1      48.882  26.826  27.134  1.00  0.00     0.041 A 
ATOM     79  F   UNL A   1      47.541  27.231  29.010  1.00  0.00    -0.206 F 
ATOM     80  C   UNL A   1      49.083  26.879  25.758  1.00  0.00     0.022 A 
BRANCH  77  81
ATOM     81  S   UNL A   1      48.235  27.402  23.153  1.00  0.00     0.124 S 
ATOM     82  O   UNL A   1      49.522  28.034  22.876  1.00  0.00    -0.237 OA
ATOM     83  O   UNL A   1      48.170  25.961  22.939  1.00  0.00    -0.237 OA
ATOM     84  O   UNL A   1      47.070  28.156  22.695  1.00  0.00    -0.744 OA
ENDBRANCH  77  81
ENDBRANCH  60  74
BRANCH  61  85
ATOM     85  C   UNL A   1      38.154  31.133  31.007  1.00  0.00     0.023 A 
ATOM     86  C   UNL A   1      37.165  31.752  30.224  1.00  0.00     0.031 A 
ATOM     87  C   UNL A   1      37.925  31.026  32.391  1.00  0.00     0.131 A 
ATOM     88  C   UNL A   1      36.017  32.281  30.836  1.00  0.00     0.055 A 
ATOM     89  C   UNL A   1      36.756  31.503  32.986  1.00  0.00     0.041 A 
ATOM     90  F   UNL A   1      38.839  30.451  33.187  1.00  0.00    -0.206 F 
ATOM     91  C   UNL A   1      35.799  32.147  32.208  1.00  0.00     0.022 A 
BRANCH  88  92
ATOM     92  S   UNL A   1      34.850  33.230  29.821  1.00  0.00     0.124 S 
ATOM     93  O   UNL A   1      34.282  32.190  28.970  1.00  0.00    -0.237 OA
ATOM     94  O   UNL A   1      33.958  33.791  30.830  1.00  0.00    -0.237 OA
ATOM     95  O   UNL A   1      35.703  34.200  29.139  1.00  0.00    -0.744 OA
ENDBRANCH  88  92
ENDBRANCH  61  85
BRANCH  73  96
ATOM     96  C   UNL A   1      44.240  34.287  29.703  1.00  0.00     0.023 A 
ATOM     97  C   UNL A   1      44.046  35.266  28.713  1.00  0.00     0.031 A 
ATOM     98  C   UNL A   1      44.909  34.669  30.881  1.00  0.00     0.131 A 
ATOM     99  C   UNL A   1      44.579  36.553  28.886  1.00  0.00     0.055 A 
ATOM    100  C   UNL A   1      45.369  35.972  31.080  1.00  0.00     0.041 A 
ATOM    101  F   UNL A   1      45.128  33.780  31.863  1.00  0.00    -0.206 F 
ATOM    102  C   UNL A   1      45.221  36.918  30.071  1.00  0.00     0.022 A 
BRANCH  99 103
ATOM    103  S   UNL A   1      44.537  37.707  27.486  1.00  0.00     0.124 S 
ATOM    104  O   UNL A   1      43.252  37.392  26.872  1.00  0.00    -0.237 OA
ATOM    105  O   UNL A   1      44.626  39.004  28.149  1.00  0.00    -0.237 OA
ATOM    106  O   UNL A   1      45.709  37.333  26.698  1.00  0.00    -0.744 OA
ENDBRANCH  99 103
ENDBRANCH  73  96
ENDBRANCH  47  48
ENDBRANCH  40  42
ENDBRANCH  39  40
ENDBRANCH  38  39
ENDBRANCH  37  38
ENDBRANCH  36  37
ENDBRANCH  35  36
ENDBRANCH   1  35
TORSDOF 26
ENDMDL
MODEL 2
REMARK VINA RESULT:      -9.6      2.930      9.266
REMARK SMILES COc1cccc([C@@H]2[NH2+][C@@](C)(C(=O)OCCOCCOCCOCCOC(=O)c3ccc(-c4c5nc(c(-c6cc(S(=O)(=O)[O-])ccc6F)c6ccc([nH]6)c(-c6cc(S(=O)(=O)[O-])ccc6F)c6nc(c(-c7cc(S(=O)(=O)[O-])ccc7F)c7ccc4[nH]7)C=C6)C=C5)cc3)[C@@H]3C(=O)N(C)C(=O)[C@@H]32)c1O
REMARK SMILES IDX 21 1 20 2 19 3 18 4 17 5 16 6 15 7 14 8 12 9 13 10 10 11
REMARK SMILES IDX 8 12 9 13 99 14 92 17 97 18 11 19 93 20 95 21 98 22 94 23
REMARK SMILES IDX 96 24 7 25 3 26 4 27 100 28 5 29 6 30 2 31 1 32 101 33 22 35
REMARK SMILES IDX 23 36 24 37 25 38 26 39 27 40 28 41 29 42 30 43 91 44 31 45
REMARK SMILES IDX 90 46 32 47 33 48 34 49 84 50 35 51 89 52 83 53 85 54 36 55
REMARK SMILES IDX 88 56 82 57 81 58 37 60 69 61 49 62 68 63 50 64 53 65 67 66
REMARK SMILES IDX 86 67 51 68 52 69 66 71 87 72 54 73 38 74 39 75 47 76 40 77
REMARK SMILES IDX 46 78 48 79 45 80 41 81 42 82 43 83 44 84 70 85 71 86 79 87
REMARK SMILES IDX 72 88 78 89 80 90 77 91 73 92 74 93 75 94 76 95 55 96 56 97
REMARK SMILES IDX 64 98 57 99 63 100 65 101 62 102 58 103 59 104 60 105 61 106
REMARK H PARENT 9 15 9 16 101 34 85 59 53 70
REMARK Flexibility Score: inf
ROOT
ATOM      1  C   UNL A   1      35.504  31.358  29.060  1.00  0.00     0.188 C 
ENDROOT
BRANCH   1   2
ATOM      2  O   UNL A   1      34.858  31.912  27.931  1.00  0.00    -0.377 OA
BRANCH   2   3
ATOM      3  C   UNL A   1      33.813  31.143  27.379  1.00  0.00     0.188 C 
BRANCH   3   4
ATOM      4  C   UNL A   1      34.253  29.747  26.889  1.00  0.00     0.188 C 
BRANCH   4   5
ATOM      5  O   UNL A   1      33.605  28.562  27.327  1.00  0.00    -0.376 OA
BRANCH   5   6
ATOM      6  C   UNL A   1      32.699  27.896  26.464  1.00  0.00     0.202 C 
BRANCH   6   7
ATOM      7  C   UNL A   1      31.410  27.257  27.028  1.00  0.00     0.261 C 
BRANCH   7   8
ATOM      8  O   UNL A   1      31.067  25.925  26.590  1.00  0.00    -0.459 OA
BRANCH   8   9
ATOM      9  C   UNL A   1      30.743  25.802  25.283  1.00  0.00     0.368 C 
ATOM     10  O   UNL A   1      30.043  26.625  24.689  1.00  0.00    -0.245 OA
BRANCH   9  11
ATOM     11  C   UNL A   1      31.271  24.524  24.549  1.00  0.00     0.204 C 
ATOM     12  C   UNL A   1      31.961  22.406  25.601  1.00  0.00     0.232 C 
ATOM     13  N   UNL A   1      30.814  23.188  25.060  1.00  0.00    -0.325 N 
ATOM     14  C   UNL A   1      33.074  23.428  25.806  1.00  0.00     0.161 C 
ATOM     15  H   UNL A   1      30.128  23.331  25.801  1.00  0.00     0.347 HD
ATOM     16  H   UNL A   1      30.401  22.668  24.286  1.00  0.00     0.347 HD
ATOM     17  C   UNL A   1      32.779  24.536  24.798  1.00  0.00     0.170 C 
ATOM     18  C   UNL A   1      34.482  23.033  25.458  1.00  0.00     0.239 C 
ATOM     19  C   UNL A   1      30.720  24.762  23.136  1.00  0.00     0.093 C 
ATOM     20  C   UNL A   1      33.710  24.206  23.671  1.00  0.00     0.240 C 
ATOM     21  N   UNL A   1      34.759  23.510  24.206  1.00  0.00    -0.285 N 
ATOM     22  O   UNL A   1      35.225  22.375  26.170  1.00  0.00    -0.274 OA
ATOM     23  O   UNL A   1      33.571  24.505  22.496  1.00  0.00    -0.274 OA
ATOM     24  C   UNL A   1      35.975  23.196  23.504  1.00  0.00     0.156 C 
BRANCH  12  25
ATOM     25  C   UNL A   1      32.425  21.155  24.854  1.00  0.00     0.056 A 
ATOM     26  C   UNL A   1      32.901  18.754  24.824  1.00  0.00     0.161 A 
ATOM     27  C   UNL A   1      32.609  18.702  23.461  1.00  0.00     0.050 A 
ATOM     28  C   UNL A   1      32.878  19.990  25.485  1.00  0.00     0.166 A 
ATOM     29  C   UNL A   1      32.275  19.870  22.776  1.00  0.00     0.005 A 
ATOM     30  C   UNL A   1      32.170  21.080  23.470  1.00  0.00     0.014 A 
BRANCH  26  31
ATOM     31  O   UNL A   1      33.336  17.598  25.416  1.00  0.00    -0.493 OA
ATOM     32  C   UNL A   1      32.685  16.418  24.950  1.00  0.00     0.278 C 
ENDBRANCH  26  31
BRANCH  28  33
ATOM     33  O   UNL A   1      33.353  20.119  26.751  1.00  0.00    -0.504 OA
ATOM     34  H   UNL A   1      33.521  19.356  27.268  1.00  0.00     0.293 HD
ENDBRANCH  28  33
ENDBRANCH  12  25
ENDBRANCH   9  11
ENDBRANCH   8   9
ENDBRANCH   7   8
ENDBRANCH   6   7
ENDBRANCH   5   6
ENDBRANCH   4   5
ENDBRANCH   3   4
ENDBRANCH   2   3
ENDBRANCH   1   2
BRANCH   1  35
ATOM     35  C   UNL A   1      35.126  31.941  30.432  1.00  0.00     0.188 C 
BRANCH  35  36
ATOM     36  O   UNL A   1      34.173  33.001  30.366  1.00  0.00    -0.376 OA
BRANCH  36  37
ATOM     37  C   UNL A   1      34.531  34.276  30.877  1.00  0.00     0.202 C 
BRANCH  37  38
ATOM     38  C   UNL A   1      35.417  34.304  32.136  1.00  0.00     0.261 C 
BRANCH  38  39
ATOM     39  O   UNL A   1      36.834  34.301  31.923  1.00  0.00    -0.460 OA
BRANCH  39  40
ATOM     40  C   UNL A   1      37.595  33.663  32.839  1.00  0.00     0.338 C 
ATOM     41  O   UNL A   1      37.375  33.588  34.037  1.00  0.00    -0.246 OA
BRANCH  40  42
ATOM     42  C   UNL A   1      38.616  32.870  32.120  1.00  0.00     0.060 A 
ATOM     43  C   UNL A   1      39.594  32.210  32.872  1.00  0.00     0.016 A 
ATOM     44  C   UNL A   1      38.593  32.749  30.726  1.00  0.00     0.016 A 
ATOM     45  C   UNL A   1      40.582  31.466  32.233  1.00  0.00     0.010 A 
ATOM     46  C   UNL A   1      39.603  32.025  30.083  1.00  0.00     0.010 A 
ATOM     47  C   UNL A   1      40.626  31.417  30.834  1.00  0.00    -0.014 A 
BRANCH  47  48
ATOM     48  C   UNL A   1      41.877  30.954  30.183  1.00  0.00     0.031 A 
ATOM     49  C   UNL A   1      42.932  31.984  29.881  1.00  0.00     0.074 A 
ATOM     50  C   UNL A   1      42.114  29.650  29.958  1.00  0.00     0.049 A 
ATOM     51  N   UNL A   1      44.129  31.831  29.378  1.00  0.00    -0.248 NA
ATOM     52  C   UNL A   1      42.584  33.378  30.194  1.00  0.00     0.031 C 
ATOM     53  C   UNL A   1      41.192  28.559  30.266  1.00  0.00     0.029 A 
ATOM     54  N   UNL A   1      43.215  29.023  29.431  1.00  0.00    -0.354 N 
ATOM     55  C   UNL A   1      44.683  33.108  29.327  1.00  0.00     0.074 A 
ATOM     56  C   UNL A   1      43.665  34.024  29.791  1.00  0.00     0.031 C 
ATOM     57  C   UNL A   1      41.774  27.393  29.934  1.00  0.00     0.029 A 
ATOM     58  C   UNL A   1      43.093  27.656  29.361  1.00  0.00     0.049 A 
ATOM     59  H   UNL A   1      44.018  29.508  29.132  1.00  0.00     0.167 HD
ATOM     60  C   UNL A   1      45.930  33.479  28.947  1.00  0.00     0.034 A 
ATOM     61  C   UNL A   1      43.948  26.728  28.881  1.00  0.00     0.034 A 
ATOM     62  C   UNL A   1      46.921  32.554  28.456  1.00  0.00     0.049 A 
ATOM     63  C   UNL A   1      45.290  27.178  28.350  1.00  0.00     0.074 A 
ATOM     64  C   UNL A   1      48.208  32.817  28.020  1.00  0.00     0.029 A 
ATOM     65  N   UNL A   1      46.731  31.184  28.318  1.00  0.00    -0.354 N 
ATOM     66  N   UNL A   1      45.802  28.388  28.302  1.00  0.00    -0.248 NA
ATOM     67  C   UNL A   1      46.174  26.131  27.822  1.00  0.00     0.031 C 
ATOM     68  C   UNL A   1      48.764  31.625  27.545  1.00  0.00     0.029 A 
ATOM     69  C   UNL A   1      47.864  30.596  27.774  1.00  0.00     0.049 A 
ATOM     70  H   UNL A   1      45.910  30.700  28.569  1.00  0.00     0.167 HD
ATOM     71  C   UNL A   1      47.086  28.237  27.779  1.00  0.00     0.074 A 
ATOM     72  C   UNL A   1      47.269  26.819  27.540  1.00  0.00     0.031 C 
ATOM     73  C   UNL A   1      48.032  29.181  27.530  1.00  0.00     0.034 A 
BRANCH  60  74
ATOM     74  C   UNL A   1      46.251  34.955  28.998  1.00  0.00     0.023 A 
ATOM     75  C   UNL A   1      46.205  35.762  27.846  1.00  0.00     0.031 A 
ATOM     76  C   UNL A   1      46.675  35.552  30.198  1.00  0.00     0.131 A 
ATOM     77  C   UNL A   1      46.664  37.086  27.899  1.00  0.00     0.055 A 
ATOM     78  C   UNL A   1      47.038  36.899  30.264  1.00  0.00     0.041 A 
ATOM     79  F   UNL A   1      46.767  34.829  31.326  1.00  0.00    -0.206 F 
ATOM     80  C   UNL A   1      47.053  37.670  29.106  1.00  0.00     0.022 A 
BRANCH  77  81
ATOM     81  S   UNL A   1      46.919  37.977  26.338  1.00  0.00     0.124 S 
ATOM     82  O   UNL A   1      47.048  36.875  25.388  1.00  0.00    -0.237 OA
ATOM     83  O   UNL A   1      45.705  38.777  26.228  1.00  0.00    -0.237 OA
ATOM     84  O   UNL A   1      48.148  38.733  26.572  1.00  0.00    -0.744 OA
ENDBRANCH  77  81
ENDBRANCH  60  74
BRANCH  61  85
ATOM     85  C   UNL A   1      43.570  25.285  28.862  1.00  0.00     0.023 A 
ATOM     86  C   UNL A   1      42.925  24.717  27.751  1.00  0.00     0.031 A 
ATOM     87  C   UNL A   1      43.797  24.465  29.982  1.00  0.00     0.131 A 
ATOM     88  C   UNL A   1      42.487  23.383  27.802  1.00  0.00     0.055 A 
ATOM     89  C   UNL A   1      43.411  23.123  30.006  1.00  0.00     0.041 A 
ATOM     90  F   UNL A   1      44.404  24.958  31.073  1.00  0.00    -0.206 F 
ATOM     91  C   UNL A   1      42.740  22.579  28.915  1.00  0.00     0.022 A 
BRANCH  88  92
ATOM     92  S   UNL A   1      41.500  22.738  26.423  1.00  0.00     0.124 S 
ATOM     93  O   UNL A   1      42.341  23.066  25.277  1.00  0.00    -0.237 OA
ATOM     94  O   UNL A   1      41.397  21.323  26.761  1.00  0.00    -0.237 OA
ATOM     95  O   UNL A   1      40.251  23.491  26.518  1.00  0.00    -0.744 OA
ENDBRANCH  88  92
ENDBRANCH  61  85
BRANCH  73  96
ATOM     96  C   UNL A   1      49.374  28.697  27.027  1.00  0.00     0.023 A 
ATOM     97  C   UNL A   1      49.660  28.576  25.656  1.00  0.00     0.031 A 
ATOM     98  C   UNL A   1      50.377  28.326  27.942  1.00  0.00     0.131 A 
ATOM     99  C   UNL A   1      50.883  28.026  25.242  1.00  0.00     0.055 A 
ATOM    100  C   UNL A   1      51.621  27.852  27.523  1.00  0.00     0.041 A 
ATOM    101  F   UNL A   1      50.164  28.416  29.265  1.00  0.00    -0.206 F 
ATOM    102  C   UNL A   1      51.873  27.682  26.165  1.00  0.00     0.022 A 
BRANCH  99 103
ATOM    103  S   UNL A   1      51.114  27.643  23.483  1.00  0.00     0.124 S 
ATOM    104  O   UNL A   1      49.848  27.001  23.144  1.00  0.00    -0.237 OA
ATOM    105  O   UNL A   1      51.335  28.964  22.903  1.00  0.00    -0.237 OA
ATOM    106  O   UNL A   1      52.278  26.760  23.474  1.00  0.00    -0.744 OA
ENDBRANCH  99 103
ENDBRANCH  73  96
ENDBRANCH  47  48
ENDBRANCH  40  42
ENDBRANCH  39  40
ENDBRANCH  38  39
ENDBRANCH  37  38
ENDBRANCH  36  37
ENDBRANCH  35  36
ENDBRANCH   1  35
TORSDOF 26
ENDMDL
MODEL 3
REMARK VINA RESULT:      -9.3      2.046      2.470
REMARK SMILES COc1cccc([C@@H]2[NH2+][C@@](C)(C(=O)OCCOCCOCCOCCOC(=O)c3ccc(-c4c5nc(c(-c6cc(S(=O)(=O)[O-])ccc6F)c6ccc([nH]6)c(-c6cc(S(=O)(=O)[O-])ccc6F)c6nc(c(-c7cc(S(=O)(=O)[O-])ccc7F)c7ccc4[nH]7)C=C6)C=C5)cc3)[C@@H]3C(=O)N(C)C(=O)[C@@H]32)c1O
REMARK SMILES IDX 21 1 20 2 19 3 18 4 17 5 16 6 15 7 14 8 12 9 13 10 10 11
REMARK SMILES IDX 8 12 9 13 99 14 92 17 97 18 11 19 93 20 95 21 98 22 94 23
REMARK SMILES IDX 96 24 7 25 3 26 4 27 100 28 5 29 6 30 2 31 1 32 101 33 22 35
REMARK SMILES IDX 23 36 24 37 25 38 26 39 27 40 28 41 29 42 30 43 91 44 31 45
REMARK SMILES IDX 90 46 32 47 33 48 34 49 84 50 35 51 89 52 83 53 85 54 36 55
REMARK SMILES IDX 88 56 82 57 81 58 37 60 69 61 49 62 68 63 50 64 53 65 67 66
REMARK SMILES IDX 86 67 51 68 52 69 66 71 87 72 54 73 38 74 39 75 47 76 40 77
REMARK SMILES IDX 46 78 48 79 45 80 41 81 42 82 43 83 44 84 70 85 71 86 79 87
REMARK SMILES IDX 72 88 78 89 80 90 77 91 73 92 74 93 75 94 76 95 55 96 56 97
REMARK SMILES IDX 64 98 57 99 63 100 65 101 62 102 58 103 59 104 60 105 61 106
REMARK H PARENT 9 15 9 16 101 34 85 59 53 70
REMARK Flexibility Score: inf
ROOT
ATOM      1  C   UNL A   1      33.565  20.926  26.405  1.00  0.00     0.188 C 
ENDROOT
BRANCH   1   2
ATOM      2  O   UNL A   1      33.051  22.240  26.499  1.00  0.00    -0.377 OA
BRANCH   2   3
ATOM      3  C   UNL A   1      33.543  23.163  25.555  1.00  0.00     0.188 C 
BRANCH   3   4
ATOM      4  C   UNL A   1      34.707  24.033  26.076  1.00  0.00     0.188 C 
BRANCH   4   5
ATOM      5  O   UNL A   1      36.063  23.671  25.864  1.00  0.00    -0.376 OA
BRANCH   5   6
ATOM      6  C   UNL A   1      36.588  23.651  24.546  1.00  0.00     0.202 C 
BRANCH   6   7
ATOM      7  C   UNL A   1      35.647  23.472  23.334  1.00  0.00     0.261 C 
BRANCH   7   8
ATOM      8  O   UNL A   1      35.026  24.652  22.779  1.00  0.00    -0.459 OA
BRANCH   8   9
ATOM      9  C   UNL A   1      33.867  24.446  22.114  1.00  0.00     0.368 C 
ATOM     10  O   UNL A   1      33.651  23.431  21.448  1.00  0.00    -0.245 OA
BRANCH   9  11
ATOM     11  C   UNL A   1      32.803  25.592  22.191  1.00  0.00     0.204 C 
ATOM     12  C   UNL A   1      32.932  27.624  23.578  1.00  0.00     0.232 C 
ATOM     13  N   UNL A   1      33.305  27.005  22.275  1.00  0.00    -0.325 N 
ATOM     14  C   UNL A   1      32.553  26.453  24.478  1.00  0.00     0.161 C 
ATOM     15  H   UNL A   1      34.322  27.004  22.185  1.00  0.00     0.347 HD
ATOM     16  H   UNL A   1      32.881  27.547  21.523  1.00  0.00     0.347 HD
ATOM     17  C   UNL A   1      32.086  25.358  23.521  1.00  0.00     0.170 C 
ATOM     18  C   UNL A   1      31.374  26.608  25.398  1.00  0.00     0.239 C 
ATOM     19  C   UNL A   1      32.060  25.378  20.865  1.00  0.00     0.093 C 
ATOM     20  C   UNL A   1      30.594  25.488  23.581  1.00  0.00     0.240 C 
ATOM     21  N   UNL A   1      30.287  26.037  24.795  1.00  0.00    -0.285 N 
ATOM     22  O   UNL A   1      31.396  27.175  26.480  1.00  0.00    -0.274 OA
ATOM     23  O   UNL A   1      29.796  25.162  22.717  1.00  0.00    -0.274 OA
ATOM     24  C   UNL A   1      28.958  26.127  25.339  1.00  0.00     0.156 C 
BRANCH  12  25
ATOM     25  C   UNL A   1      31.900  28.753  23.595  1.00  0.00     0.056 A 
ATOM     26  C   UNL A   1      29.664  29.594  23.065  1.00  0.00     0.161 A 
ATOM     27  C   UNL A   1      29.728  30.475  24.145  1.00  0.00     0.050 A 
ATOM     28  C   UNL A   1      30.778  28.800  22.760  1.00  0.00     0.166 A 
ATOM     29  C   UNL A   1      30.884  30.540  24.923  1.00  0.00     0.005 A 
ATOM     30  C   UNL A   1      31.952  29.677  24.659  1.00  0.00     0.014 A 
BRANCH  26  31
ATOM     31  O   UNL A   1      28.552  29.660  22.269  1.00  0.00    -0.493 OA
ATOM     32  C   UNL A   1      27.317  29.571  22.976  1.00  0.00     0.278 C 
ENDBRANCH  26  31
BRANCH  28  33
ATOM     33  O   UNL A   1      30.838  28.087  21.605  1.00  0.00    -0.504 OA
ATOM     34  H   UNL A   1      30.207  27.415  21.436  1.00  0.00     0.293 HD
ENDBRANCH  28  33
ENDBRANCH  12  25
ENDBRANCH   9  11
ENDBRANCH   8   9
ENDBRANCH   7   8
ENDBRANCH   6   7
ENDBRANCH   5   6
ENDBRANCH   4   5
ENDBRANCH   3   4
ENDBRANCH   2   3
ENDBRANCH   1   2
BRANCH   1  35
ATOM     35  C   UNL A   1      35.091  20.784  26.283  1.00  0.00     0.188 C 
BRANCH  35  36
ATOM     36  O   UNL A   1      35.527  20.312  25.009  1.00  0.00    -0.376 OA
BRANCH  36  37
ATOM     37  C   UNL A   1      36.579  19.360  24.955  1.00  0.00     0.202 C 
BRANCH  37  38
ATOM     38  C   UNL A   1      37.999  19.898  24.702  1.00  0.00     0.261 C 
BRANCH  38  39
ATOM     39  O   UNL A   1      38.464  20.924  25.587  1.00  0.00    -0.460 OA
BRANCH  39  40
ATOM     40  C   UNL A   1      39.659  20.728  26.187  1.00  0.00     0.338 C 
ATOM     41  O   UNL A   1      40.378  19.750  26.065  1.00  0.00    -0.246 OA
BRANCH  40  42
ATOM     42  C   UNL A   1      40.064  21.996  26.832  1.00  0.00     0.060 A 
ATOM     43  C   UNL A   1      39.374  23.165  26.489  1.00  0.00     0.016 A 
ATOM     44  C   UNL A   1      41.086  22.033  27.787  1.00  0.00     0.016 A 
ATOM     45  C   UNL A   1      39.734  24.382  27.062  1.00  0.00     0.010 A 
ATOM     46  C   UNL A   1      41.467  23.261  28.339  1.00  0.00     0.010 A 
ATOM     47  C   UNL A   1      40.819  24.445  27.945  1.00  0.00    -0.014 A 
BRANCH  47  48
ATOM     48  C   UNL A   1      41.415  25.773  28.235  1.00  0.00     0.031 A 
ATOM     49  C   UNL A   1      42.803  26.046  27.718  1.00  0.00     0.074 A 
ATOM     50  C   UNL A   1      40.715  26.742  28.849  1.00  0.00     0.049 A 
ATOM     51  N   UNL A   1      43.518  27.139  27.781  1.00  0.00    -0.248 NA
ATOM     52  C   UNL A   1      43.469  24.928  27.034  1.00  0.00     0.031 C 
ATOM     53  C   UNL A   1      39.344  26.613  29.337  1.00  0.00     0.029 A 
ATOM     54  N   UNL A   1      41.060  28.036  29.150  1.00  0.00    -0.354 N 
ATOM     55  C   UNL A   1      44.714  26.843  27.133  1.00  0.00     0.074 A 
ATOM     56  C   UNL A   1      44.647  25.453  26.742  1.00  0.00     0.031 C 
ATOM     57  C   UNL A   1      38.959  27.788  29.867  1.00  0.00     0.029 A 
ATOM     58  C   UNL A   1      40.065  28.741  29.784  1.00  0.00     0.049 A 
ATOM     59  H   UNL A   1      41.938  28.423  28.932  1.00  0.00     0.167 HD
ATOM     60  C   UNL A   1      45.762  27.661  26.869  1.00  0.00     0.034 A 
ATOM     61  C   UNL A   1      40.055  30.008  30.249  1.00  0.00     0.034 A 
ATOM     62  C   UNL A   1      45.825  29.038  27.295  1.00  0.00     0.049 A 
ATOM     63  C   UNL A   1      41.283  30.868  30.051  1.00  0.00     0.074 A 
ATOM     64  C   UNL A   1      46.844  29.955  27.107  1.00  0.00     0.029 A 
ATOM     65  N   UNL A   1      44.831  29.694  28.012  1.00  0.00    -0.354 N 
ATOM     66  N   UNL A   1      42.410  30.578  29.440  1.00  0.00    -0.248 NA
ATOM     67  C   UNL A   1      41.227  32.231  30.593  1.00  0.00     0.031 C 
ATOM     68  C   UNL A   1      46.503  31.134  27.777  1.00  0.00     0.029 A 
ATOM     69  C   UNL A   1      45.228  30.992  28.301  1.00  0.00     0.049 A 
ATOM     70  H   UNL A   1      43.970  29.295  28.277  1.00  0.00     0.167 HD
ATOM     71  C   UNL A   1      43.178  31.741  29.488  1.00  0.00     0.074 A 
ATOM     72  C   UNL A   1      42.379  32.734  30.177  1.00  0.00     0.031 C 
ATOM     73  C   UNL A   1      44.425  31.971  28.999  1.00  0.00     0.034 A 
BRANCH  60  74
ATOM     74  C   UNL A   1      46.938  27.055  26.139  1.00  0.00     0.023 A 
ATOM     75  C   UNL A   1      47.946  26.347  26.820  1.00  0.00     0.031 A 
ATOM     76  C   UNL A   1      47.093  27.244  24.755  1.00  0.00     0.131 A 
ATOM     77  C   UNL A   1      49.101  25.939  26.136  1.00  0.00     0.055 A 
ATOM     78  C   UNL A   1      48.200  26.749  24.061  1.00  0.00     0.041 A 
ATOM     79  F   UNL A   1      46.181  27.936  24.053  1.00  0.00    -0.206 F 
ATOM     80  C   UNL A   1      49.223  26.110  24.755  1.00  0.00     0.022 A 
BRANCH  77  81
ATOM     81  S   UNL A   1      50.518  25.349  27.104  1.00  0.00     0.124 S 
ATOM     82  O   UNL A   1      49.888  24.357  27.972  1.00  0.00    -0.237 OA
ATOM     83  O   UNL A   1      51.409  24.825  26.076  1.00  0.00    -0.237 OA
ATOM     84  O   UNL A   1      50.990  26.551  27.788  1.00  0.00    -0.744 OA
ENDBRANCH  77  81
ENDBRANCH  60  74
BRANCH  61  85
ATOM     85  C   UNL A   1      38.859  30.547  30.960  1.00  0.00     0.023 A 
ATOM     86  C   UNL A   1      37.865  31.262  30.272  1.00  0.00     0.031 A 
ATOM     87  C   UNL A   1      38.722  30.404  32.352  1.00  0.00     0.131 A 
ATOM     88  C   UNL A   1      36.805  31.847  30.983  1.00  0.00     0.055 A 
ATOM     89  C   UNL A   1      37.635  30.939  33.047  1.00  0.00     0.041 A 
ATOM     90  F   UNL A   1      39.646  29.736  33.061  1.00  0.00    -0.206 F 
ATOM     91  C   UNL A   1      36.675  31.677  32.363  1.00  0.00     0.022 A 
BRANCH  88  92
ATOM     92  S   UNL A   1      35.641  32.913  30.088  1.00  0.00     0.124 S 
ATOM     93  O   UNL A   1      36.546  33.792  29.356  1.00  0.00    -0.237 OA
ATOM     94  O   UNL A   1      34.899  31.946  29.286  1.00  0.00    -0.237 OA
ATOM     95  O   UNL A   1      34.875  33.552  31.155  1.00  0.00    -0.744 OA
ENDBRANCH  88  92
ENDBRANCH  61  85
BRANCH  73  96
ATOM     96  C   UNL A   1      44.973  33.374  29.139  1.00  0.00     0.023 A 
ATOM     97  C   UNL A   1      45.713  33.781  30.263  1.00  0.00     0.031 A 
ATOM     98  C   UNL A   1      44.725  34.331  28.136  1.00  0.00     0.131 A 
ATOM     99  C   UNL A   1      46.112  35.120  30.393  1.00  0.00     0.055 A 
ATOM    100  C   UNL A   1      45.191  35.642  28.234  1.00  0.00     0.041 A 
ATOM    101  F   UNL A   1      44.023  34.006  27.039  1.00  0.00    -0.206 F 
ATOM    102  C   UNL A   1      45.873  36.049  29.377  1.00  0.00     0.022 A 
BRANCH  99 103
ATOM    103  S   UNL A   1      46.832  35.665  31.966  1.00  0.00     0.124 S 
ATOM    104  O   UNL A   1      45.753  36.470  32.530  1.00  0.00    -0.237 OA
ATOM    105  O   UNL A   1      47.102  34.399  32.641  1.00  0.00    -0.237 OA
ATOM    106  O   UNL A   1      48.018  36.416  31.560  1.00  0.00    -0.744 OA
ENDBRANCH  99 103
ENDBRANCH  73  96
ENDBRANCH  47  48
ENDBRANCH  40  42
ENDBRANCH  39  40
ENDBRANCH  38  39
ENDBRANCH  37  38
ENDBRANCH  36  37
ENDBRANCH  35  36
ENDBRANCH   1  35
TORSDOF 26
ENDMDL
