MODEL 1
REMARK VINA RESULT:     -10.9      0.000      0.000
REMARK SMILES C[C@@](NC(=O)[C@H]1COc2ccccc21)(C(=O)OCCOCCOCCOCCOC(=O)c1ccc(-c2c3nc(c(-c4cc(S(=O)(=O)[O-])ccc4F)c4ccc([nH]4)c(-c4cc(S(=O)(=O)[O-])ccc4F)c4nc(c(-c5cc(S(=O)(=O)[O-])ccc5F)c5ccc2[nH]5)C=C4)C=C3)cc1)C(F)(F)F
REMARK SMILES IDX 24 1 23 2 22 3 21 4 20 5 19 6 18 7 17 8 15 9 16 10 2 11 1 12
REMARK SMILES IDX 3 13 4 14 5 16 6 17 7 18 14 19 8 20 9 21 13 22 10 23 12 24
REMARK SMILES IDX 11 25 95 26 96 27 97 28 98 29 25 30 26 31 27 32 28 33 29 34
REMARK SMILES IDX 30 35 31 36 32 37 33 38 94 39 34 40 93 41 35 42 36 43 37 44
REMARK SMILES IDX 87 45 38 46 92 47 86 48 88 49 39 50 91 51 85 52 84 53 40 55
REMARK SMILES IDX 72 56 52 57 71 58 53 59 56 60 70 61 89 62 54 63 55 64 69 66
REMARK SMILES IDX 90 67 57 68 41 69 42 70 50 71 43 72 49 73 51 74 48 75 44 76
REMARK SMILES IDX 45 77 46 78 47 79 73 80 74 81 82 82 75 83 81 84 83 85 80 86
REMARK SMILES IDX 76 87 77 88 78 89 79 90 58 91 59 92 67 93 60 94 66 95 68 96
REMARK SMILES IDX 65 97 61 98 62 99 63 100 64 101
REMARK H PARENT 3 15 88 54 56 65
REMARK Flexibility Score: inf
ROOT
ATOM      1  C   UNL A   1      42.967  19.739  25.907  1.00  0.00     0.188 C 
ENDROOT
BRANCH   1   2
ATOM      2  O   UNL A   1      41.868  19.692  26.781  1.00  0.00    -0.377 OA
BRANCH   2   3
ATOM      3  C   UNL A   1      40.642  19.896  26.113  1.00  0.00     0.188 C 
BRANCH   3   4
ATOM      4  C   UNL A   1      39.927  21.289  26.287  1.00  0.00     0.188 C 
BRANCH   4   5
ATOM      5  O   UNL A   1      38.875  21.845  25.413  1.00  0.00    -0.376 OA
BRANCH   5   6
ATOM      6  C   UNL A   1      37.433  21.543  25.312  1.00  0.00     0.202 C 
BRANCH   6   7
ATOM      7  C   UNL A   1      36.151  22.427  24.362  1.00  0.00     0.261 C 
BRANCH   7   8
ATOM      8  O   UNL A   1      34.555  23.266  25.360  1.00  0.00    -0.461 OA
BRANCH   8   9
ATOM      9  C   UNL A   1      33.332  23.124  26.077  1.00  0.00     0.341 C 
ATOM     10  O   UNL A   1      33.049  23.621  27.161  1.00  0.00    -0.249 OA
BRANCH   9  11
ATOM     11  C   UNL A   1      32.332  22.472  25.178  1.00  0.00     0.231 C 
ATOM     12  C   UNL A   1      30.951  22.516  25.873  1.00  0.00     0.058 C 
BRANCH  11  13
ATOM     13  N   UNL A   1      32.292  23.078  23.790  1.00  0.00    -0.332 N 
ATOM     14  C   UNL A   1      32.304  24.366  23.309  1.00  0.00     0.232 C 
ATOM     15  H   UNL A   1      32.248  22.401  23.076  1.00  0.00     0.164 HD
ATOM     16  O   UNL A   1      32.406  24.485  22.083  1.00  0.00    -0.274 OA
BRANCH  14  17
ATOM     17  C   UNL A   1      32.210  25.645  24.191  1.00  0.00     0.150 C 
ATOM     18  C   UNL A   1      33.789  26.778  23.680  1.00  0.00     0.248 C 
ATOM     19  C   UNL A   1      30.625  26.661  23.748  1.00  0.00     0.010 A 
ATOM     20  O   UNL A   1      32.931  28.333  22.894  1.00  0.00    -0.492 OA
ATOM     21  C   UNL A   1      31.058  28.222  23.053  1.00  0.00     0.123 A 
ATOM     22  C   UNL A   1      29.310  26.375  23.854  1.00  0.00     0.008 A 
ATOM     23  C   UNL A   1      30.211  29.247  22.782  1.00  0.00     0.047 A 
ATOM     24  C   UNL A   1      28.484  27.465  23.434  1.00  0.00     0.001 A 
ATOM     25  C   UNL A   1      28.900  28.810  22.972  1.00  0.00     0.004 A 
ENDBRANCH  14  17
ENDBRANCH  11  13
BRANCH  11  26
ATOM     26  C   UNL A   1      32.788  21.002  25.178  1.00  0.00     0.422 C 
ATOM     27  F   UNL A   1      31.769  20.113  25.225  1.00  0.00    -0.168 F 
ATOM     28  F   UNL A   1      33.455  20.738  24.021  1.00  0.00    -0.168 F 
ATOM     29  F   UNL A   1      33.638  20.722  26.188  1.00  0.00    -0.168 F 
ENDBRANCH  11  26
ENDBRANCH   9  11
ENDBRANCH   8   9
ENDBRANCH   7   8
ENDBRANCH   6   7
ENDBRANCH   5   6
ENDBRANCH   4   5
ENDBRANCH   3   4
ENDBRANCH   2   3
ENDBRANCH   1   2
BRANCH   1  30
ATOM     30  C   UNL A   1      43.810  21.026  26.040  1.00  0.00     0.188 C 
BRANCH  30  31
ATOM     31  O   UNL A   1      44.702  21.507  25.035  1.00  0.00    -0.376 OA
BRANCH  31  32
ATOM     32  C   UNL A   1      45.696  22.487  25.277  1.00  0.00     0.202 C 
BRANCH  32  33
ATOM     33  C   UNL A   1      45.415  23.649  26.233  1.00  0.00     0.261 C 
BRANCH  33  34
ATOM     34  O   UNL A   1      45.004  24.869  25.618  1.00  0.00    -0.460 OA
BRANCH  34  35
ATOM     35  C   UNL A   1      43.725  24.874  25.167  1.00  0.00     0.338 C 
ATOM     36  O   UNL A   1      43.258  24.187  24.278  1.00  0.00    -0.246 OA
BRANCH  35  37
ATOM     37  C   UNL A   1      42.921  25.692  26.100  1.00  0.00     0.060 A 
ATOM     38  C   UNL A   1      43.311  27.024  26.321  1.00  0.00     0.016 A 
ATOM     39  C   UNL A   1      41.754  25.187  26.679  1.00  0.00     0.016 A 
ATOM     40  C   UNL A   1      42.544  27.857  27.119  1.00  0.00     0.010 A 
ATOM     41  C   UNL A   1      41.032  25.993  27.557  1.00  0.00     0.010 A 
ATOM     42  C   UNL A   1      41.463  27.308  27.812  1.00  0.00    -0.014 A 
BRANCH  42  43
ATOM     43  C   UNL A   1      41.094  27.959  29.084  1.00  0.00     0.031 A 
ATOM     44  C   UNL A   1      39.794  28.715  29.087  1.00  0.00     0.074 A 
ATOM     45  C   UNL A   1      41.831  27.818  30.193  1.00  0.00     0.049 A 
ATOM     46  N   UNL A   1      39.239  29.418  30.035  1.00  0.00    -0.248 NA
ATOM     47  C   UNL A   1      39.015  28.671  27.837  1.00  0.00     0.031 C 
ATOM     48  C   UNL A   1      43.049  27.018  30.306  1.00  0.00     0.029 A 
ATOM     49  N   UNL A   1      41.650  28.346  31.442  1.00  0.00    -0.354 N 
ATOM     50  C   UNL A   1      38.057  29.911  29.489  1.00  0.00     0.074 A 
ATOM     51  C   UNL A   1      37.997  29.461  28.118  1.00  0.00     0.031 C 
ATOM     52  C   UNL A   1      43.515  27.120  31.564  1.00  0.00     0.029 A 
ATOM     53  C   UNL A   1      42.652  28.025  32.322  1.00  0.00     0.049 A 
ATOM     54  H   UNL A   1      40.874  28.901  31.685  1.00  0.00     0.167 HD
ATOM     55  C   UNL A   1      37.107  30.667  30.084  1.00  0.00     0.034 A 
ATOM     56  C   UNL A   1      42.852  28.448  33.586  1.00  0.00     0.034 A 
ATOM     57  C   UNL A   1      37.213  31.119  31.445  1.00  0.00     0.049 A 
ATOM     58  C   UNL A   1      41.844  29.394  34.196  1.00  0.00     0.074 A 
ATOM     59  C   UNL A   1      36.332  31.902  32.166  1.00  0.00     0.029 A 
ATOM     60  N   UNL A   1      38.282  30.838  32.290  1.00  0.00    -0.354 N 
ATOM     61  N   UNL A   1      40.740  29.881  33.671  1.00  0.00    -0.248 NA
ATOM     62  C   UNL A   1      42.104  29.838  35.569  1.00  0.00     0.031 C 
ATOM     63  C   UNL A   1      36.911  32.172  33.410  1.00  0.00     0.029 A 
ATOM     64  C   UNL A   1      38.102  31.468  33.510  1.00  0.00     0.049 A 
ATOM     65  H   UNL A   1      39.055  30.276  32.053  1.00  0.00     0.167 HD
ATOM     66  C   UNL A   1      40.153  30.655  34.670  1.00  0.00     0.074 A 
ATOM     67  C   UNL A   1      41.025  30.563  35.824  1.00  0.00     0.031 C 
ATOM     68  C   UNL A   1      38.995  31.366  34.644  1.00  0.00     0.034 A 
BRANCH  55  69
ATOM     69  C   UNL A   1      35.946  31.113  29.226  1.00  0.00     0.023 A 
ATOM     70  C   UNL A   1      35.031  30.198  28.672  1.00  0.00     0.031 A 
ATOM     71  C   UNL A   1      35.806  32.469  28.880  1.00  0.00     0.131 A 
ATOM     72  C   UNL A   1      34.086  30.635  27.731  1.00  0.00     0.055 A 
ATOM     73  C   UNL A   1      34.798  32.911  28.022  1.00  0.00     0.041 A 
ATOM     74  F   UNL A   1      36.670  33.385  29.345  1.00  0.00    -0.206 F 
ATOM     75  C   UNL A   1      33.944  31.990  27.425  1.00  0.00     0.022 A 
BRANCH  72  76
ATOM     76  S   UNL A   1      33.185  29.391  26.766  1.00  0.00     0.124 S 
ATOM     77  O   UNL A   1      32.113  29.025  27.687  1.00  0.00    -0.237 OA
ATOM     78  O   UNL A   1      32.783  30.141  25.582  1.00  0.00    -0.237 OA
ATOM     79  O   UNL A   1      34.182  28.347  26.536  1.00  0.00    -0.744 OA
ENDBRANCH  72  76
ENDBRANCH  55  69
BRANCH  56  80
ATOM     80  C   UNL A   1      44.058  28.011  34.341  1.00  0.00     0.023 A 
ATOM     81  C   UNL A   1      45.221  28.795  34.364  1.00  0.00     0.031 A 
ATOM     82  C   UNL A   1      44.074  26.785  35.033  1.00  0.00     0.131 A 
ATOM     83  C   UNL A   1      46.365  28.328  35.031  1.00  0.00     0.055 A 
ATOM     84  C   UNL A   1      45.197  26.351  35.740  1.00  0.00     0.041 A 
ATOM     85  F   UNL A   1      42.990  25.996  35.043  1.00  0.00    -0.206 F 
ATOM     86  C   UNL A   1      46.356  27.121  35.732  1.00  0.00     0.022 A 
BRANCH  83  87
ATOM     87  S   UNL A   1      47.895  29.294  34.905  1.00  0.00     0.124 S 
ATOM     88  O   UNL A   1      48.015  29.836  36.253  1.00  0.00    -0.237 OA
ATOM     89  O   UNL A   1      48.867  28.272  34.533  1.00  0.00    -0.237 OA
ATOM     90  O   UNL A   1      47.592  30.272  33.862  1.00  0.00    -0.744 OA
ENDBRANCH  83  87
ENDBRANCH  56  80
BRANCH  68  91
ATOM     91  C   UNL A   1      38.574  32.046  35.926  1.00  0.00     0.023 A 
ATOM     92  C   UNL A   1      38.024  31.334  37.004  1.00  0.00     0.031 A 
ATOM     93  C   UNL A   1      38.727  33.439  36.063  1.00  0.00     0.131 A 
ATOM     94  C   UNL A   1      37.581  32.024  38.143  1.00  0.00     0.055 A 
ATOM     95  C   UNL A   1      38.361  34.108  37.230  1.00  0.00     0.041 A 
ATOM     96  F   UNL A   1      39.243  34.172  35.064  1.00  0.00    -0.206 F 
ATOM     97  C   UNL A   1      37.769  33.402  38.272  1.00  0.00     0.022 A 
BRANCH  94  98
ATOM     98  S   UNL A   1      36.642  31.114  39.399  1.00  0.00     0.124 S 
ATOM     99  O   UNL A   1      37.671  30.817  40.389  1.00  0.00    -0.237 OA
ATOM    100  O   UNL A   1      35.632  32.087  39.800  1.00  0.00    -0.237 OA
ATOM    101  O   UNL A   1      36.131  29.954  38.669  1.00  0.00    -0.744 OA
ENDBRANCH  94  98
ENDBRANCH  68  91
ENDBRANCH  42  43
ENDBRANCH  35  37
ENDBRANCH  34  35
ENDBRANCH  33  34
ENDBRANCH  32  33
ENDBRANCH  31  32
ENDBRANCH  30  31
ENDBRANCH   1  30
TORSDOF 26
ENDMDL
MODEL 2
REMARK VINA RESULT:     -10.1      5.262      8.718
REMARK SMILES C[C@@](NC(=O)[C@H]1COc2ccccc21)(C(=O)OCCOCCOCCOCCOC(=O)c1ccc(-c2c3nc(c(-c4cc(S(=O)(=O)[O-])ccc4F)c4ccc([nH]4)c(-c4cc(S(=O)(=O)[O-])ccc4F)c4nc(c(-c5cc(S(=O)(=O)[O-])ccc5F)c5ccc2[nH]5)C=C4)C=C3)cc1)C(F)(F)F
REMARK SMILES IDX 24 1 23 2 22 3 21 4 20 5 19 6 18 7 17 8 15 9 16 10 2 11 1 12
REMARK SMILES IDX 3 13 4 14 5 16 6 17 7 18 14 19 8 20 9 21 13 22 10 23 12 24
REMARK SMILES IDX 11 25 95 26 96 27 97 28 98 29 25 30 26 31 27 32 28 33 29 34
REMARK SMILES IDX 30 35 31 36 32 37 33 38 94 39 34 40 93 41 35 42 36 43 37 44
REMARK SMILES IDX 87 45 38 46 92 47 86 48 88 49 39 50 91 51 85 52 84 53 40 55
REMARK SMILES IDX 72 56 52 57 71 58 53 59 56 60 70 61 89 62 54 63 55 64 69 66
REMARK SMILES IDX 90 67 57 68 41 69 42 70 50 71 43 72 49 73 51 74 48 75 44 76
REMARK SMILES IDX 45 77 46 78 47 79 73 80 74 81 82 82 75 83 81 84 83 85 80 86
REMARK SMILES IDX 76 87 77 88 78 89 79 90 58 91 59 92 67 93 60 94 66 95 68 96
REMARK SMILES IDX 65 97 61 98 62 99 63 100 64 101
REMARK H PARENT 3 15 88 54 56 65
REMARK Flexibility Score: inf
ROOT
ATOM      1  C   UNL A   1      43.414  18.635  25.875  1.00  0.00     0.188 C 
ENDROOT
BRANCH   1   2
ATOM      2  O   UNL A   1      42.506  19.521  25.270  1.00  0.00    -0.377 OA
BRANCH   2   3
ATOM      3  C   UNL A   1      42.637  20.838  25.759  1.00  0.00     0.188 C 
BRANCH   3   4
ATOM      4  C   UNL A   1      41.819  21.236  27.045  1.00  0.00     0.188 C 
BRANCH   4   5
ATOM      5  O   UNL A   1      40.960  22.426  27.199  1.00  0.00    -0.376 OA
BRANCH   5   6
ATOM      6  C   UNL A   1      39.518  22.624  26.950  1.00  0.00     0.202 C 
BRANCH   6   7
ATOM      7  C   UNL A   1      38.665  24.114  26.334  1.00  0.00     0.261 C 
BRANCH   7   8
ATOM      8  O   UNL A   1      37.063  23.903  25.056  1.00  0.00    -0.461 OA
BRANCH   8   9
ATOM      9  C   UNL A   1      36.434  23.246  23.959  1.00  0.00     0.341 C 
ATOM     10  O   UNL A   1      36.860  23.146  22.814  1.00  0.00    -0.249 OA
BRANCH   9  11
ATOM     11  C   UNL A   1      35.273  22.464  24.481  1.00  0.00     0.231 C 
ATOM     12  C   UNL A   1      34.765  23.149  25.772  1.00  0.00     0.058 C 
BRANCH  11  13
ATOM     13  N   UNL A   1      34.169  22.279  23.460  1.00  0.00    -0.332 N 
ATOM     14  C   UNL A   1      33.374  23.143  22.745  1.00  0.00     0.232 C 
ATOM     15  H   UNL A   1      33.979  21.332  23.265  1.00  0.00     0.164 HD
ATOM     16  O   UNL A   1      32.660  22.630  21.878  1.00  0.00    -0.274 OA
BRANCH  14  17
ATOM     17  C   UNL A   1      33.327  24.686  22.953  1.00  0.00     0.150 C 
ATOM     18  C   UNL A   1      32.965  25.469  21.139  1.00  0.00     0.248 C 
ATOM     19  C   UNL A   1      31.836  25.176  24.083  1.00  0.00     0.010 A 
ATOM     20  O   UNL A   1      31.216  26.276  21.391  1.00  0.00    -0.492 OA
ATOM     21  C   UNL A   1      30.659  26.131  23.183  1.00  0.00     0.123 A 
ATOM     22  C   UNL A   1      31.551  24.897  25.372  1.00  0.00     0.008 A 
ATOM     23  C   UNL A   1      29.583  26.777  23.698  1.00  0.00     0.047 A 
ATOM     24  C   UNL A   1      30.336  25.517  25.803  1.00  0.00     0.001 A 
ATOM     25  C   UNL A   1      29.441  26.419  25.039  1.00  0.00     0.004 A 
ENDBRANCH  14  17
ENDBRANCH  11  13
BRANCH  11  26
ATOM     26  C   UNL A   1      35.926  21.135  24.905  1.00  0.00     0.422 C 
ATOM     27  F   UNL A   1      37.122  20.902  24.319  1.00  0.00    -0.168 F 
ATOM     28  F   UNL A   1      36.169  21.160  26.244  1.00  0.00    -0.168 F 
ATOM     29  F   UNL A   1      35.130  20.070  24.676  1.00  0.00    -0.168 F 
ENDBRANCH  11  26
ENDBRANCH   9  11
ENDBRANCH   8   9
ENDBRANCH   7   8
ENDBRANCH   6   7
ENDBRANCH   5   6
ENDBRANCH   4   5
ENDBRANCH   3   4
ENDBRANCH   2   3
ENDBRANCH   1   2
BRANCH   1  30
ATOM     30  C   UNL A   1      44.827  18.676  25.253  1.00  0.00     0.188 C 
BRANCH  30  31
ATOM     31  O   UNL A   1      45.798  19.683  25.537  1.00  0.00    -0.376 OA
BRANCH  31  32
ATOM     32  C   UNL A   1      46.350  20.536  24.551  1.00  0.00     0.202 C 
BRANCH  32  33
ATOM     33  C   UNL A   1      45.723  21.906  24.278  1.00  0.00     0.261 C 
BRANCH  33  34
ATOM     34  O   UNL A   1      45.797  22.844  25.350  1.00  0.00    -0.460 OA
BRANCH  34  35
ATOM     35  C   UNL A   1      46.389  24.022  25.033  1.00  0.00     0.338 C 
ATOM     36  O   UNL A   1      47.195  24.223  24.144  1.00  0.00    -0.246 OA
BRANCH  35  37
ATOM     37  C   UNL A   1      45.712  25.088  25.802  1.00  0.00     0.060 A 
ATOM     38  C   UNL A   1      45.102  26.136  25.091  1.00  0.00     0.016 A 
ATOM     39  C   UNL A   1      45.602  25.015  27.193  1.00  0.00     0.016 A 
ATOM     40  C   UNL A   1      44.383  27.113  25.760  1.00  0.00     0.010 A 
ATOM     41  C   UNL A   1      44.961  26.047  27.876  1.00  0.00     0.010 A 
ATOM     42  C   UNL A   1      44.401  27.118  27.156  1.00  0.00    -0.014 A 
BRANCH  42  43
ATOM     43  C   UNL A   1      44.234  28.428  27.814  1.00  0.00     0.031 A 
ATOM     44  C   UNL A   1      45.461  29.295  27.883  1.00  0.00     0.074 A 
ATOM     45  C   UNL A   1      43.042  28.855  28.250  1.00  0.00     0.049 A 
ATOM     46  N   UNL A   1      45.627  30.464  28.436  1.00  0.00    -0.248 NA
ATOM     47  C   UNL A   1      46.672  28.758  27.238  1.00  0.00     0.031 C 
ATOM     48  C   UNL A   1      41.783  28.124  28.129  1.00  0.00     0.029 A 
ATOM     49  N   UNL A   1      42.704  30.020  28.881  1.00  0.00    -0.354 N 
ATOM     50  C   UNL A   1      46.962  30.792  28.218  1.00  0.00     0.074 A 
ATOM     51  C   UNL A   1      47.569  29.683  27.521  1.00  0.00     0.031 C 
ATOM     52  C   UNL A   1      40.803  28.860  28.685  1.00  0.00     0.029 A 
ATOM     53  C   UNL A   1      41.380  30.086  29.236  1.00  0.00     0.049 A 
ATOM     54  H   UNL A   1      43.348  30.742  29.063  1.00  0.00     0.167 HD
ATOM     55  C   UNL A   1      47.619  31.922  28.567  1.00  0.00     0.034 A 
ATOM     56  C   UNL A   1      40.729  31.024  29.951  1.00  0.00     0.034 A 
ATOM     57  C   UNL A   1      46.988  32.997  29.285  1.00  0.00     0.049 A 
ATOM     58  C   UNL A   1      41.506  32.224  30.440  1.00  0.00     0.074 A 
ATOM     59  C   UNL A   1      47.539  34.189  29.714  1.00  0.00     0.029 A 
ATOM     60  N   UNL A   1      45.659  33.000  29.696  1.00  0.00    -0.354 N 
ATOM     61  N   UNL A   1      42.774  32.521  30.258  1.00  0.00    -0.248 NA
ATOM     62  C   UNL A   1      40.762  33.215  31.224  1.00  0.00     0.031 C 
ATOM     63  C   UNL A   1      46.573  34.868  30.463  1.00  0.00     0.029 A 
ATOM     64  C   UNL A   1      45.384  34.154  30.411  1.00  0.00     0.049 A 
ATOM     65  H   UNL A   1      45.009  32.284  29.509  1.00  0.00     0.167 HD
ATOM     66  C   UNL A   1      42.967  33.759  30.868  1.00  0.00     0.074 A 
ATOM     67  C   UNL A   1      41.683  34.148  31.418  1.00  0.00     0.031 C 
ATOM     68  C   UNL A   1      44.094  34.513  30.957  1.00  0.00     0.034 A 
BRANCH  55  69
ATOM     69  C   UNL A   1      49.095  31.984  28.254  1.00  0.00     0.023 A 
ATOM     70  C   UNL A   1      49.598  32.704  27.154  1.00  0.00     0.031 A 
ATOM     71  C   UNL A   1      50.008  31.233  29.016  1.00  0.00     0.131 A 
ATOM     72  C   UNL A   1      50.947  32.578  26.792  1.00  0.00     0.055 A 
ATOM     73  C   UNL A   1      51.369  31.194  28.710  1.00  0.00     0.041 A 
ATOM     74  F   UNL A   1      49.586  30.494  30.054  1.00  0.00    -0.206 F 
ATOM     75  C   UNL A   1      51.843  31.852  27.580  1.00  0.00     0.022 A 
BRANCH  72  76
ATOM     76  S   UNL A   1      51.471  33.207  25.173  1.00  0.00     0.124 S 
ATOM     77  O   UNL A   1      50.382  34.124  24.847  1.00  0.00    -0.237 OA
ATOM     78  O   UNL A   1      52.757  33.824  25.475  1.00  0.00    -0.237 OA
ATOM     79  O   UNL A   1      51.534  32.006  24.342  1.00  0.00    -0.744 OA
ENDBRANCH  72  76
ENDBRANCH  55  69
BRANCH  56  80
ATOM     80  C   UNL A   1      39.285  30.855  30.271  1.00  0.00     0.023 A 
ATOM     81  C   UNL A   1      38.293  31.431  29.462  1.00  0.00     0.031 A 
ATOM     82  C   UNL A   1      38.873  30.137  31.409  1.00  0.00     0.131 A 
ATOM     83  C   UNL A   1      36.941  31.311  29.822  1.00  0.00     0.055 A 
ATOM     84  C   UNL A   1      37.525  29.975  31.733  1.00  0.00     0.041 A 
ATOM     85  F   UNL A   1      39.779  29.567  32.218  1.00  0.00    -0.206 F 
ATOM     86  C   UNL A   1      36.550  30.574  30.942  1.00  0.00     0.022 A 
BRANCH  83  87
ATOM     87  S   UNL A   1      35.702  32.200  28.841  1.00  0.00     0.124 S 
ATOM     88  O   UNL A   1      36.459  33.360  28.388  1.00  0.00    -0.237 OA
ATOM     89  O   UNL A   1      35.362  31.214  27.821  1.00  0.00    -0.237 OA
ATOM     90  O   UNL A   1      34.644  32.482  29.809  1.00  0.00    -0.744 OA
ENDBRANCH  83  87
ENDBRANCH  56  80
BRANCH  68  91
ATOM     91  C   UNL A   1      43.968  35.866  31.618  1.00  0.00     0.023 A 
ATOM     92  C   UNL A   1      43.824  37.050  30.878  1.00  0.00     0.031 A 
ATOM     93  C   UNL A   1      43.999  35.964  33.022  1.00  0.00     0.131 A 
ATOM     94  C   UNL A   1      43.787  38.286  31.540  1.00  0.00     0.055 A 
ATOM     95  C   UNL A   1      43.878  37.189  33.678  1.00  0.00     0.041 A 
ATOM     96  F   UNL A   1      44.140  34.866  33.783  1.00  0.00    -0.206 F 
ATOM     97  C   UNL A   1      43.789  38.361  32.935  1.00  0.00     0.022 A 
BRANCH  94  98
ATOM     98  S   UNL A   1      43.864  39.804  30.549  1.00  0.00     0.124 S 
ATOM     99  O   UNL A   1      43.858  39.276  29.190  1.00  0.00    -0.237 OA
ATOM    100  O   UNL A   1      42.657  40.510  30.966  1.00  0.00    -0.237 OA
ATOM    101  O   UNL A   1      45.121  40.422  30.969  1.00  0.00    -0.744 OA
ENDBRANCH  94  98
ENDBRANCH  68  91
ENDBRANCH  42  43
ENDBRANCH  35  37
ENDBRANCH  34  35
ENDBRANCH  33  34
ENDBRANCH  32  33
ENDBRANCH  31  32
ENDBRANCH  30  31
ENDBRANCH   1  30
TORSDOF 26
ENDMDL
MODEL 3
REMARK VINA RESULT:      -9.6      3.562      5.596
REMARK SMILES C[C@@](NC(=O)[C@H]1COc2ccccc21)(C(=O)OCCOCCOCCOCCOC(=O)c1ccc(-c2c3nc(c(-c4cc(S(=O)(=O)[O-])ccc4F)c4ccc([nH]4)c(-c4cc(S(=O)(=O)[O-])ccc4F)c4nc(c(-c5cc(S(=O)(=O)[O-])ccc5F)c5ccc2[nH]5)C=C4)C=C3)cc1)C(F)(F)F
REMARK SMILES IDX 24 1 23 2 22 3 21 4 20 5 19 6 18 7 17 8 15 9 16 10 2 11 1 12
REMARK SMILES IDX 3 13 4 14 5 16 6 17 7 18 14 19 8 20 9 21 13 22 10 23 12 24
REMARK SMILES IDX 11 25 95 26 96 27 97 28 98 29 25 30 26 31 27 32 28 33 29 34
REMARK SMILES IDX 30 35 31 36 32 37 33 38 94 39 34 40 93 41 35 42 36 43 37 44
REMARK SMILES IDX 87 45 38 46 92 47 86 48 88 49 39 50 91 51 85 52 84 53 40 55
REMARK SMILES IDX 72 56 52 57 71 58 53 59 56 60 70 61 89 62 54 63 55 64 69 66
REMARK SMILES IDX 90 67 57 68 41 69 42 70 50 71 43 72 49 73 51 74 48 75 44 76
REMARK SMILES IDX 45 77 46 78 47 79 73 80 74 81 82 82 75 83 81 84 83 85 80 86
REMARK SMILES IDX 76 87 77 88 78 89 79 90 58 91 59 92 67 93 60 94 66 95 68 96
REMARK SMILES IDX 65 97 61 98 62 99 63 100 64 101
REMARK H PARENT 3 15 88 54 56 65
REMARK Flexibility Score: inf
ROOT
ATOM      1  C   UNL A   1      42.842  20.095  25.922  1.00  0.00     0.188 C 
ENDROOT
BRANCH   1   2
ATOM      2  O   UNL A   1      41.857  19.984  26.918  1.00  0.00    -0.377 OA
BRANCH   2   3
ATOM      3  C   UNL A   1      40.562  20.253  26.424  1.00  0.00     0.188 C 
BRANCH   3   4
ATOM      4  C   UNL A   1      39.935  21.667  26.721  1.00  0.00     0.188 C 
BRANCH   4   5
ATOM      5  O   UNL A   1      38.974  22.392  25.867  1.00  0.00    -0.376 OA
BRANCH   5   6
ATOM      6  C   UNL A   1      37.530  22.184  25.631  1.00  0.00     0.202 C 
BRANCH   6   7
ATOM      7  C   UNL A   1      36.334  23.310  24.839  1.00  0.00     0.261 C 
BRANCH   7   8
ATOM      8  O   UNL A   1      34.524  23.667  25.758  1.00  0.00    -0.461 OA
BRANCH   8   9
ATOM      9  C   UNL A   1      33.187  23.272  26.049  1.00  0.00     0.341 C 
ATOM     10  O   UNL A   1      32.617  23.337  27.132  1.00  0.00    -0.249 OA
BRANCH   9  11
ATOM     11  C   UNL A   1      32.485  22.998  24.759  1.00  0.00     0.231 C 
ATOM     12  C   UNL A   1      30.967  23.197  24.977  1.00  0.00     0.058 C 
BRANCH  11  13
ATOM     13  N   UNL A   1      33.009  23.828  23.605  1.00  0.00    -0.332 N 
ATOM     14  C   UNL A   1      33.185  25.176  23.400  1.00  0.00     0.232 C 
ATOM     15  H   UNL A   1      33.284  23.283  22.832  1.00  0.00     0.164 HD
ATOM     16  O   UNL A   1      33.784  25.493  22.367  1.00  0.00    -0.274 OA
BRANCH  14  17
ATOM     17  C   UNL A   1      32.698  26.293  24.369  1.00  0.00     0.150 C 
ATOM     18  C   UNL A   1      33.930  27.851  24.069  1.00  0.00     0.248 C 
ATOM     19  C   UNL A   1      30.920  26.884  23.886  1.00  0.00     0.010 A 
ATOM     20  O   UNL A   1      32.721  29.187  23.342  1.00  0.00    -0.492 OA
ATOM     21  C   UNL A   1      30.945  28.562  23.348  1.00  0.00     0.123 A 
ATOM     22  C   UNL A   1      29.731  26.246  23.869  1.00  0.00     0.008 A 
ATOM     23  C   UNL A   1      29.865  29.343  23.094  1.00  0.00     0.047 A 
ATOM     24  C   UNL A   1      28.661  27.110  23.473  1.00  0.00     0.001 A 
ATOM     25  C   UNL A   1      28.716  28.555  23.149  1.00  0.00     0.004 A 
ENDBRANCH  14  17
ENDBRANCH  11  13
BRANCH  11  26
ATOM     26  C   UNL A   1      32.717  21.488  24.564  1.00  0.00     0.422 C 
ATOM     27  F   UNL A   1      33.961  21.078  24.899  1.00  0.00    -0.168 F 
ATOM     28  F   UNL A   1      31.869  20.795  25.373  1.00  0.00    -0.168 F 
ATOM     29  F   UNL A   1      32.466  21.083  23.302  1.00  0.00    -0.168 F 
ENDBRANCH  11  26
ENDBRANCH   9  11
ENDBRANCH   8   9
ENDBRANCH   7   8
ENDBRANCH   6   7
ENDBRANCH   5   6
ENDBRANCH   4   5
ENDBRANCH   3   4
ENDBRANCH   2   3
ENDBRANCH   1   2
BRANCH   1  30
ATOM     30  C   UNL A   1      43.435  21.515  25.794  1.00  0.00     0.188 C 
BRANCH  30  31
ATOM     31  O   UNL A   1      43.423  22.283  24.590  1.00  0.00    -0.376 OA
BRANCH  31  32
ATOM     32  C   UNL A   1      44.295  23.372  24.351  1.00  0.00     0.202 C 
BRANCH  32  33
ATOM     33  C   UNL A   1      44.610  24.368  25.471  1.00  0.00     0.261 C 
BRANCH  33  34
ATOM     34  O   UNL A   1      44.185  25.710  25.241  1.00  0.00    -0.460 OA
BRANCH  34  35
ATOM     35  C   UNL A   1      42.904  25.969  25.601  1.00  0.00     0.338 C 
ATOM     36  O   UNL A   1      41.894  25.638  25.008  1.00  0.00    -0.246 OA
BRANCH  35  37
ATOM     37  C   UNL A   1      42.923  26.523  26.972  1.00  0.00     0.060 A 
ATOM     38  C   UNL A   1      43.823  27.565  27.254  1.00  0.00     0.016 A 
ATOM     39  C   UNL A   1      42.014  26.087  27.939  1.00  0.00     0.016 A 
ATOM     40  C   UNL A   1      43.821  28.176  28.498  1.00  0.00     0.010 A 
ATOM     41  C   UNL A   1      42.074  26.634  29.219  1.00  0.00     0.010 A 
ATOM     42  C   UNL A   1      43.016  27.639  29.504  1.00  0.00    -0.014 A 
BRANCH  42  43
ATOM     43  C   UNL A   1      43.480  27.827  30.892  1.00  0.00     0.031 A 
ATOM     44  C   UNL A   1      42.831  28.945  31.662  1.00  0.00     0.074 A 
ATOM     45  C   UNL A   1      44.366  27.000  31.462  1.00  0.00     0.049 A 
ATOM     46  N   UNL A   1      43.064  29.371  32.872  1.00  0.00    -0.248 NA
ATOM     47  C   UNL A   1      41.769  29.686  30.957  1.00  0.00     0.031 C 
ATOM     48  C   UNL A   1      44.967  25.830  30.824  1.00  0.00     0.029 A 
ATOM     49  N   UNL A   1      44.909  27.024  32.717  1.00  0.00    -0.354 N 
ATOM     50  C   UNL A   1      42.192  30.439  33.064  1.00  0.00     0.074 A 
ATOM     51  C   UNL A   1      41.455  30.619  31.835  1.00  0.00     0.031 C 
ATOM     52  C   UNL A   1      45.811  25.251  31.696  1.00  0.00     0.029 A 
ATOM     53  C   UNL A   1      45.839  26.037  32.930  1.00  0.00     0.049 A 
ATOM     54  H   UNL A   1      44.656  27.684  33.402  1.00  0.00     0.167 HD
ATOM     55  C   UNL A   1      42.019  31.196  34.171  1.00  0.00     0.034 A 
ATOM     56  C   UNL A   1      46.636  25.824  33.994  1.00  0.00     0.034 A 
ATOM     57  C   UNL A   1      42.790  31.004  35.371  1.00  0.00     0.049 A 
ATOM     58  C   UNL A   1      46.519  26.756  35.179  1.00  0.00     0.074 A 
ATOM     59  C   UNL A   1      42.729  31.708  36.558  1.00  0.00     0.029 A 
ATOM     60  N   UNL A   1      43.781  30.040  35.528  1.00  0.00    -0.354 N 
ATOM     61  N   UNL A   1      45.713  27.781  35.350  1.00  0.00    -0.248 NA
ATOM     62  C   UNL A   1      47.412  26.495  36.312  1.00  0.00     0.031 C 
ATOM     63  C   UNL A   1      43.743  31.233  37.395  1.00  0.00     0.029 A 
ATOM     64  C   UNL A   1      44.367  30.159  36.777  1.00  0.00     0.049 A 
ATOM     65  H   UNL A   1      44.030  29.372  34.849  1.00  0.00     0.167 HD
ATOM     66  C   UNL A   1      45.973  28.260  36.633  1.00  0.00     0.074 A 
ATOM     67  C   UNL A   1      47.007  27.407  37.185  1.00  0.00     0.031 C 
ATOM     68  C   UNL A   1      45.405  29.299  37.300  1.00  0.00     0.034 A 
BRANCH  55  69
ATOM     69  C   UNL A   1      41.035  32.337  34.078  1.00  0.00     0.023 A 
ATOM     70  C   UNL A   1      39.677  32.184  34.417  1.00  0.00     0.031 A 
ATOM     71  C   UNL A   1      41.442  33.577  33.552  1.00  0.00     0.131 A 
ATOM     72  C   UNL A   1      38.765  33.212  34.135  1.00  0.00     0.055 A 
ATOM     73  C   UNL A   1      40.546  34.631  33.370  1.00  0.00     0.041 A 
ATOM     74  F   UNL A   1      42.715  33.773  33.174  1.00  0.00    -0.206 F 
ATOM     75  C   UNL A   1      39.195  34.445  33.642  1.00  0.00     0.022 A 
BRANCH  72  76
ATOM     76  S   UNL A   1      36.990  32.845  34.231  1.00  0.00     0.124 S 
ATOM     77  O   UNL A   1      36.927  31.532  33.594  1.00  0.00    -0.237 OA
ATOM     78  O   UNL A   1      36.741  32.871  35.668  1.00  0.00    -0.237 OA
ATOM     79  O   UNL A   1      36.374  33.929  33.469  1.00  0.00    -0.744 OA
ENDBRANCH  72  76
ENDBRANCH  55  69
BRANCH  56  80
ATOM     80  C   UNL A   1      47.626  24.713  33.981  1.00  0.00     0.023 A 
ATOM     81  C   UNL A   1      47.307  23.453  34.508  1.00  0.00     0.031 A 
ATOM     82  C   UNL A   1      48.922  24.903  33.464  1.00  0.00     0.131 A 
ATOM     83  C   UNL A   1      48.280  22.442  34.540  1.00  0.00     0.055 A 
ATOM     84  C   UNL A   1      49.869  23.878  33.449  1.00  0.00     0.041 A 
ATOM     85  F   UNL A   1      49.281  26.089  32.949  1.00  0.00    -0.206 F 
ATOM     86  C   UNL A   1      49.553  22.641  34.001  1.00  0.00     0.022 A 
BRANCH  83  87
ATOM     87  S   UNL A   1      47.879  20.880  35.369  1.00  0.00     0.124 S 
ATOM     88  O   UNL A   1      46.773  21.278  36.232  1.00  0.00    -0.237 OA
ATOM     89  O   UNL A   1      47.538  20.019  34.242  1.00  0.00    -0.237 OA
ATOM     90  O   UNL A   1      49.119  20.535  36.060  1.00  0.00    -0.744 OA
ENDBRANCH  83  87
ENDBRANCH  56  80
BRANCH  68  91
ATOM     91  C   UNL A   1      45.846  29.525  38.727  1.00  0.00     0.023 A 
ATOM     92  C   UNL A   1      45.323  28.782  39.798  1.00  0.00     0.031 A 
ATOM     93  C   UNL A   1      46.808  30.512  39.015  1.00  0.00     0.131 A 
ATOM     94  C   UNL A   1      45.712  29.084  41.112  1.00  0.00     0.055 A 
ATOM     95  C   UNL A   1      47.252  30.751  40.315  1.00  0.00     0.041 A 
ATOM     96  F   UNL A   1      47.340  31.256  38.032  1.00  0.00    -0.206 F 
ATOM     97  C   UNL A   1      46.690  30.046  41.375  1.00  0.00     0.022 A 
BRANCH  94  98
ATOM     98  S   UNL A   1      44.828  28.290  42.483  1.00  0.00     0.124 S 
ATOM     99  O   UNL A   1      45.926  27.879  43.351  1.00  0.00    -0.237 OA
ATOM    100  O   UNL A   1      43.990  29.374  42.984  1.00  0.00    -0.237 OA
ATOM    101  O   UNL A   1      44.106  27.196  41.835  1.00  0.00    -0.744 OA
ENDBRANCH  94  98
ENDBRANCH  68  91
ENDBRANCH  42  43
ENDBRANCH  35  37
ENDBRANCH  34  35
ENDBRANCH  33  34
ENDBRANCH  32  33
ENDBRANCH  31  32
ENDBRANCH  30  31
ENDBRANCH   1  30
TORSDOF 26
ENDMDL
