MODEL 1
REMARK VINA RESULT:     -10.1      0.000      0.000
REMARK SMILES Cc1ccccc1NC(=S)NN1C(=O)CS[C@H]1c1ccccc1C(=O)OCCOCCOCCOCCOC(=O)c1ccc(-c2c3nc(c(-c4cc(S(=O)(=O)[O-])ccc4F)c4ccc([nH]4)c(-c4cc(S(=O)(=O)[O-])ccc4F)c4nc(c(-c5cc(S(=O)(=O)[O-])ccc5F)c5ccc2[nH]5)C=C4)C=C3)cc1
REMARK SMILES IDX 31 1 30 2 29 3 28 4 27 5 26 6 24 7 25 8 23 9 18 10 19 11
REMARK SMILES IDX 20 12 22 13 21 14 17 15 12 16 13 17 14 18 15 19 16 20 11 21
REMARK SMILES IDX 9 23 10 24 8 25 7 27 1 28 2 29 3 30 4 31 6 32 5 33 32 34
REMARK SMILES IDX 33 35 34 36 35 37 36 38 37 39 38 40 39 41 40 42 41 43 42 44
REMARK SMILES IDX 103 45 43 46 102 47 44 48 45 49 46 50 96 51 47 52 101 53
REMARK SMILES IDX 95 54 97 55 48 56 100 57 94 58 93 59 49 61 81 62 61 63 80 64
REMARK SMILES IDX 62 65 65 66 79 67 98 68 63 69 64 70 78 72 99 73 66 74 50 75
REMARK SMILES IDX 51 76 59 77 52 78 58 79 60 80 57 81 53 82 54 83 55 84 56 85
REMARK SMILES IDX 82 86 83 87 91 88 84 89 90 90 92 91 89 92 85 93 86 94 87 95
REMARK SMILES IDX 88 96 67 97 68 98 76 99 69 100 75 101 77 102 74 103 70 104
REMARK SMILES IDX 71 105 72 106 73 107
REMARK H PARENT 11 22 8 26 97 60 65 71
REMARK Flexibility Score: inf
ROOT
ATOM      1  C   UNL A   1      38.469  29.558  29.564  1.00  0.00     0.188 C 
ENDROOT
BRANCH   1   2
ATOM      2  C   UNL A   1      38.122  29.263  28.110  1.00  0.00     0.188 C 
BRANCH   2   3
ATOM      3  O   UNL A   1      36.981  30.043  27.842  1.00  0.00    -0.376 OA
BRANCH   3   4
ATOM      4  C   UNL A   1      35.662  29.435  28.018  1.00  0.00     0.202 C 
BRANCH   4   5
ATOM      5  C   UNL A   1      34.718  28.862  26.535  1.00  0.00     0.261 C 
BRANCH   5   6
ATOM      6  O   UNL A   1      33.755  27.258  26.319  1.00  0.00    -0.460 OA
BRANCH   6   7
ATOM      7  C   UNL A   1      34.079  25.667  26.054  1.00  0.00     0.338 C 
ATOM      8  O   UNL A   1      35.176  25.361  25.580  1.00  0.00    -0.246 OA
BRANCH   7   9
ATOM      9  C   UNL A   1      32.951  24.340  26.029  1.00  0.00     0.066 A 
ATOM     10  C   UNL A   1      32.207  24.175  24.840  1.00  0.00     0.001 A 
ATOM     11  C   UNL A   1      31.048  23.385  24.648  1.00  0.00     0.008 A 
ATOM     12  C   UNL A   1      30.444  22.841  25.747  1.00  0.00     0.000 A 
ATOM     13  C   UNL A   1      32.371  23.644  27.106  1.00  0.00     0.016 A 
ATOM     14  C   UNL A   1      31.099  22.975  26.971  1.00  0.00     0.001 A 
BRANCH  10  15
ATOM     15  C   UNL A   1      32.354  25.265  23.902  1.00  0.00     0.197 C 
ATOM     16  N   UNL A   1      33.408  24.922  22.982  1.00  0.00    -0.236 N 
ATOM     17  C   UNL A   1      33.128  25.851  21.873  1.00  0.00     0.252 C 
ATOM     18  O   UNL A   1      33.916  26.726  21.495  1.00  0.00    -0.272 OA
ATOM     19  C   UNL A   1      31.637  25.987  21.557  1.00  0.00     0.174 C 
ATOM     20  S   UNL A   1      30.816  25.782  23.129  1.00  0.00    -0.120 SA
BRANCH  16  21
ATOM     21  N   UNL A   1      34.082  23.188  23.006  1.00  0.00    -0.270 N 
ATOM     22  H   UNL A   1      33.886  22.736  22.154  1.00  0.00     0.191 HD
BRANCH  21  23
ATOM     23  C   UNL A   1      34.962  22.102  24.081  1.00  0.00     0.189 C 
ATOM     24  S   UNL A   1      33.905  20.820  24.604  1.00  0.00    -0.039 S 
BRANCH  23  25
ATOM     25  N   UNL A   1      36.370  22.405  25.002  1.00  0.00    -0.331 N 
ATOM     26  H   UNL A   1      36.010  23.191  25.471  1.00  0.00     0.169 HD
BRANCH  25  27
ATOM     27  C   UNL A   1      37.982  22.442  25.805  1.00  0.00     0.043 A 
ATOM     28  C   UNL A   1      39.089  24.889  26.564  1.00  0.00     0.046 C 
ATOM     29  C   UNL A   1      38.832  23.374  26.642  1.00  0.00    -0.028 A 
ATOM     30  C   UNL A   1      40.096  22.972  27.397  1.00  0.00     0.005 A 
ATOM     31  C   UNL A   1      40.769  21.809  27.212  1.00  0.00     0.000 A 
ATOM     32  C   UNL A   1      38.844  21.403  25.769  1.00  0.00     0.026 A 
ATOM     33  C   UNL A   1      40.155  21.051  26.303  1.00  0.00     0.002 A 
ENDBRANCH  25  27
ENDBRANCH  23  25
ENDBRANCH  21  23
ENDBRANCH  16  21
ENDBRANCH  10  15
ENDBRANCH   7   9
ENDBRANCH   6   7
ENDBRANCH   5   6
ENDBRANCH   4   5
ENDBRANCH   3   4
ENDBRANCH   2   3
ENDBRANCH   1   2
BRANCH   1  34
ATOM     34  O   UNL A   1      39.620  28.883  30.046  1.00  0.00    -0.377 OA
BRANCH  34  35
ATOM     35  C   UNL A   1      39.559  28.635  31.452  1.00  0.00     0.188 C 
BRANCH  35  36
ATOM     36  C   UNL A   1      38.287  27.886  31.830  1.00  0.00     0.188 C 
BRANCH  36  37
ATOM     37  O   UNL A   1      37.517  28.444  32.888  1.00  0.00    -0.376 OA
BRANCH  37  38
ATOM     38  C   UNL A   1      37.953  29.716  33.342  1.00  0.00     0.202 C 
BRANCH  38  39
ATOM     39  C   UNL A   1      37.061  30.882  32.887  1.00  0.00     0.261 C 
BRANCH  39  40
ATOM     40  O   UNL A   1      37.853  31.817  32.127  1.00  0.00    -0.460 OA
BRANCH  40  41
ATOM     41  C   UNL A   1      37.189  32.941  31.726  1.00  0.00     0.338 C 
ATOM     42  O   UNL A   1      35.990  33.069  31.692  1.00  0.00    -0.246 OA
BRANCH  41  43
ATOM     43  C   UNL A   1      38.171  33.897  31.131  1.00  0.00     0.060 A 
ATOM     44  C   UNL A   1      38.271  33.982  29.740  1.00  0.00     0.016 A 
ATOM     45  C   UNL A   1      39.196  34.392  31.939  1.00  0.00     0.016 A 
ATOM     46  C   UNL A   1      39.483  34.376  29.180  1.00  0.00     0.010 A 
ATOM     47  C   UNL A   1      40.443  34.599  31.385  1.00  0.00     0.010 A 
ATOM     48  C   UNL A   1      40.618  34.535  30.013  1.00  0.00    -0.014 A 
BRANCH  48  49
ATOM     49  C   UNL A   1      41.995  34.456  29.450  1.00  0.00     0.031 A 
ATOM     50  C   UNL A   1      42.779  32.950  29.668  1.00  0.00     0.074 A 
ATOM     51  C   UNL A   1      42.273  35.695  28.861  1.00  0.00     0.049 A 
ATOM     52  N   UNL A   1      44.008  32.561  29.410  1.00  0.00    -0.248 NA
ATOM     53  C   UNL A   1      42.118  31.756  30.221  1.00  0.00     0.031 C 
ATOM     54  C   UNL A   1      41.409  36.409  27.878  1.00  0.00     0.029 A 
ATOM     55  N   UNL A   1      43.334  36.579  28.829  1.00  0.00    -0.354 N 
ATOM     56  C   UNL A   1      44.308  31.211  29.563  1.00  0.00     0.074 A 
ATOM     57  C   UNL A   1      43.034  30.771  30.107  1.00  0.00     0.031 C 
ATOM     58  C   UNL A   1      42.134  37.250  27.112  1.00  0.00     0.029 A 
ATOM     59  C   UNL A   1      43.465  37.387  27.667  1.00  0.00     0.049 A 
ATOM     60  H   UNL A   1      43.969  36.646  29.578  1.00  0.00     0.167 HD
ATOM     61  C   UNL A   1      45.497  30.613  29.086  1.00  0.00     0.034 A 
ATOM     62  C   UNL A   1      44.433  38.304  27.272  1.00  0.00     0.034 A 
ATOM     63  C   UNL A   1      46.601  31.518  28.379  1.00  0.00     0.049 A 
ATOM     64  C   UNL A   1      46.118  37.815  27.022  1.00  0.00     0.074 A 
ATOM     65  C   UNL A   1      47.231  31.395  27.135  1.00  0.00     0.029 A 
ATOM     66  N   UNL A   1      47.151  32.780  28.809  1.00  0.00    -0.354 N 
ATOM     67  N   UNL A   1      46.551  36.574  26.672  1.00  0.00    -0.248 NA
ATOM     68  C   UNL A   1      47.335  38.579  27.355  1.00  0.00     0.031 C 
ATOM     69  C   UNL A   1      47.843  32.619  26.740  1.00  0.00     0.029 A 
ATOM     70  C   UNL A   1      47.654  33.603  27.695  1.00  0.00     0.049 A 
ATOM     71  H   UNL A   1      47.186  33.063  29.751  1.00  0.00     0.167 HD
ATOM     72  C   UNL A   1      47.831  36.238  27.280  1.00  0.00     0.074 A 
ATOM     73  C   UNL A   1      48.310  37.628  27.459  1.00  0.00     0.031 C 
ATOM     74  C   UNL A   1      48.354  34.974  27.797  1.00  0.00     0.034 A 
BRANCH  61  75
ATOM     75  C   UNL A   1      45.493  29.033  28.750  1.00  0.00     0.023 A 
ATOM     76  C   UNL A   1      44.379  28.413  28.122  1.00  0.00     0.031 A 
ATOM     77  C   UNL A   1      46.454  28.086  29.165  1.00  0.00     0.131 A 
ATOM     78  C   UNL A   1      44.115  27.020  28.206  1.00  0.00     0.055 A 
ATOM     79  C   UNL A   1      46.219  26.693  29.230  1.00  0.00     0.041 A 
ATOM     80  F   UNL A   1      47.720  28.433  29.412  1.00  0.00    -0.206 F 
ATOM     81  C   UNL A   1      45.022  26.156  28.796  1.00  0.00     0.022 A 
BRANCH  78  82
ATOM     82  S   UNL A   1      42.564  26.320  27.547  1.00  0.00     0.124 S 
ATOM     83  O   UNL A   1      42.903  26.093  26.145  1.00  0.00    -0.237 OA
ATOM     84  O   UNL A   1      42.366  25.130  28.366  1.00  0.00    -0.237 OA
ATOM     85  O   UNL A   1      41.591  27.388  27.779  1.00  0.00    -0.744 OA
ENDBRANCH  78  82
ENDBRANCH  61  75
BRANCH  62  86
ATOM     86  C   UNL A   1      43.740  39.652  27.747  1.00  0.00     0.023 A 
ATOM     87  C   UNL A   1      44.208  40.160  29.006  1.00  0.00     0.031 A 
ATOM     88  C   UNL A   1      43.583  40.668  26.750  1.00  0.00     0.131 A 
ATOM     89  C   UNL A   1      44.814  41.458  29.103  1.00  0.00     0.055 A 
ATOM     90  C   UNL A   1      44.154  41.962  26.864  1.00  0.00     0.041 A 
ATOM     91  F   UNL A   1      43.106  40.355  25.536  1.00  0.00    -0.206 F 
ATOM     92  C   UNL A   1      44.829  42.336  28.019  1.00  0.00     0.022 A 
BRANCH  89  93
ATOM     93  S   UNL A   1      45.927  41.857  30.522  1.00  0.00     0.124 S 
ATOM     94  O   UNL A   1      47.165  41.200  30.122  1.00  0.00    -0.237 OA
ATOM     95  O   UNL A   1      45.952  43.317  30.535  1.00  0.00    -0.237 OA
ATOM     96  O   UNL A   1      45.246  41.268  31.674  1.00  0.00    -0.744 OA
ENDBRANCH  89  93
ENDBRANCH  62  86
BRANCH  74  97
ATOM     97  C   UNL A   1      49.783  34.728  28.459  1.00  0.00     0.023 A 
ATOM     98  C   UNL A   1      50.026  34.579  29.824  1.00  0.00     0.031 A 
ATOM     99  C   UNL A   1      50.987  34.618  27.659  1.00  0.00     0.131 A 
ATOM    100  C   UNL A   1      51.353  34.429  30.324  1.00  0.00     0.055 A 
ATOM    101  C   UNL A   1      52.279  34.436  28.151  1.00  0.00     0.041 A 
ATOM    102  F   UNL A   1      51.015  34.656  26.325  1.00  0.00    -0.206 F 
ATOM    103  C   UNL A   1      52.475  34.358  29.500  1.00  0.00     0.022 A 
BRANCH 100 104
ATOM    104  S   UNL A   1      51.612  34.367  32.111  1.00  0.00     0.124 S 
ATOM    105  O   UNL A   1      50.317  33.895  32.589  1.00  0.00    -0.237 OA
ATOM    106  O   UNL A   1      52.719  33.423  32.226  1.00  0.00    -0.237 OA
ATOM    107  O   UNL A   1      51.937  35.749  32.465  1.00  0.00    -0.744 OA
ENDBRANCH 100 104
ENDBRANCH  74  97
ENDBRANCH  48  49
ENDBRANCH  41  43
ENDBRANCH  40  41
ENDBRANCH  39  40
ENDBRANCH  38  39
ENDBRANCH  37  38
ENDBRANCH  36  37
ENDBRANCH  35  36
ENDBRANCH  34  35
ENDBRANCH   1  34
TORSDOF 28
ENDMDL
MODEL 2
REMARK VINA RESULT:      -9.0      1.893      2.331
REMARK SMILES Cc1ccccc1NC(=S)NN1C(=O)CS[C@H]1c1ccccc1C(=O)OCCOCCOCCOCCOC(=O)c1ccc(-c2c3nc(c(-c4cc(S(=O)(=O)[O-])ccc4F)c4ccc([nH]4)c(-c4cc(S(=O)(=O)[O-])ccc4F)c4nc(c(-c5cc(S(=O)(=O)[O-])ccc5F)c5ccc2[nH]5)C=C4)C=C3)cc1
REMARK SMILES IDX 31 1 30 2 29 3 28 4 27 5 26 6 24 7 25 8 23 9 18 10 19 11
REMARK SMILES IDX 20 12 22 13 21 14 17 15 12 16 13 17 14 18 15 19 16 20 11 21
REMARK SMILES IDX 9 23 10 24 8 25 7 27 1 28 2 29 3 30 4 31 6 32 5 33 32 34
REMARK SMILES IDX 33 35 34 36 35 37 36 38 37 39 38 40 39 41 40 42 41 43 42 44
REMARK SMILES IDX 103 45 43 46 102 47 44 48 45 49 46 50 96 51 47 52 101 53
REMARK SMILES IDX 95 54 97 55 48 56 100 57 94 58 93 59 49 61 81 62 61 63 80 64
REMARK SMILES IDX 62 65 65 66 79 67 98 68 63 69 64 70 78 72 99 73 66 74 50 75
REMARK SMILES IDX 51 76 59 77 52 78 58 79 60 80 57 81 53 82 54 83 55 84 56 85
REMARK SMILES IDX 82 86 83 87 91 88 84 89 90 90 92 91 89 92 85 93 86 94 87 95
REMARK SMILES IDX 88 96 67 97 68 98 76 99 69 100 75 101 77 102 74 103 70 104
REMARK SMILES IDX 71 105 72 106 73 107
REMARK H PARENT 11 22 8 26 97 60 65 71
REMARK Flexibility Score: inf
ROOT
ATOM      1  C   UNL A   1      38.378  29.320  29.441  1.00  0.00     0.188 C 
ENDROOT
BRANCH   1   2
ATOM      2  C   UNL A   1      38.179  29.040  27.957  1.00  0.00     0.188 C 
BRANCH   2   3
ATOM      3  O   UNL A   1      37.089  29.847  27.577  1.00  0.00    -0.376 OA
BRANCH   3   4
ATOM      4  C   UNL A   1      35.764  29.531  28.114  1.00  0.00     0.202 C 
BRANCH   4   5
ATOM      5  C   UNL A   1      34.352  29.258  26.953  1.00  0.00     0.261 C 
BRANCH   5   6
ATOM      6  O   UNL A   1      33.474  27.641  26.551  1.00  0.00    -0.460 OA
BRANCH   6   7
ATOM      7  C   UNL A   1      33.629  26.403  25.477  1.00  0.00     0.338 C 
ATOM      8  O   UNL A   1      34.033  26.658  24.340  1.00  0.00    -0.246 OA
BRANCH   7   9
ATOM      9  C   UNL A   1      32.972  24.795  25.606  1.00  0.00     0.066 A 
ATOM     10  C   UNL A   1      31.648  24.622  25.148  1.00  0.00     0.001 A 
ATOM     11  C   UNL A   1      30.787  23.525  25.390  1.00  0.00     0.008 A 
ATOM     12  C   UNL A   1      31.172  22.585  26.303  1.00  0.00     0.000 A 
ATOM     13  C   UNL A   1      33.381  23.730  26.430  1.00  0.00     0.016 A 
ATOM     14  C   UNL A   1      32.461  22.690  26.826  1.00  0.00     0.001 A 
BRANCH  10  15
ATOM     15  C   UNL A   1      30.971  25.860  24.833  1.00  0.00     0.197 C 
ATOM     16  N   UNL A   1      31.104  26.093  23.418  1.00  0.00    -0.236 N 
ATOM     17  C   UNL A   1      30.025  27.071  23.191  1.00  0.00     0.252 C 
ATOM     18  O   UNL A   1      30.216  28.221  22.777  1.00  0.00    -0.272 OA
ATOM     19  C   UNL A   1      28.741  26.746  23.955  1.00  0.00     0.174 C 
ATOM     20  S   UNL A   1      29.291  25.960  25.460  1.00  0.00    -0.120 SA
BRANCH  16  21
ATOM     21  N   UNL A   1      31.787  24.730  22.352  1.00  0.00    -0.270 N 
ATOM     22  H   UNL A   1      31.078  24.366  21.772  1.00  0.00     0.191 HD
BRANCH  21  23
ATOM     23  C   UNL A   1      33.306  23.886  22.056  1.00  0.00     0.189 C 
ATOM     24  S   UNL A   1      33.135  22.849  20.668  1.00  0.00    -0.039 S 
BRANCH  23  25
ATOM     25  N   UNL A   1      34.590  23.568  23.139  1.00  0.00    -0.331 N 
ATOM     26  H   UNL A   1      34.691  24.498  23.445  1.00  0.00     0.169 HD
BRANCH  25  27
ATOM     27  C   UNL A   1      35.907  22.900  24.171  1.00  0.00     0.043 A 
ATOM     28  C   UNL A   1      35.811  20.229  24.975  1.00  0.00     0.046 C 
ATOM     29  C   UNL A   1      36.477  21.563  24.592  1.00  0.00    -0.028 A 
ATOM     30  C   UNL A   1      37.811  21.359  25.306  1.00  0.00     0.005 A 
ATOM     31  C   UNL A   1      38.532  22.347  25.890  1.00  0.00     0.000 A 
ATOM     32  C   UNL A   1      36.767  23.682  24.860  1.00  0.00     0.026 A 
ATOM     33  C   UNL A   1      37.932  23.527  25.725  1.00  0.00     0.002 A 
ENDBRANCH  25  27
ENDBRANCH  23  25
ENDBRANCH  21  23
ENDBRANCH  16  21
ENDBRANCH  10  15
ENDBRANCH   7   9
ENDBRANCH   6   7
ENDBRANCH   5   6
ENDBRANCH   4   5
ENDBRANCH   3   4
ENDBRANCH   2   3
ENDBRANCH   1   2
BRANCH   1  34
ATOM     34  O   UNL A   1      39.669  29.000  29.935  1.00  0.00    -0.377 OA
BRANCH  34  35
ATOM     35  C   UNL A   1      39.708  28.938  31.362  1.00  0.00     0.188 C 
BRANCH  35  36
ATOM     36  C   UNL A   1      38.722  27.910  31.902  1.00  0.00     0.188 C 
BRANCH  36  37
ATOM     37  O   UNL A   1      37.524  28.424  32.473  1.00  0.00    -0.376 OA
BRANCH  37  38
ATOM     38  C   UNL A   1      37.646  29.704  33.071  1.00  0.00     0.202 C 
BRANCH  38  39
ATOM     39  C   UNL A   1      36.836  30.804  32.366  1.00  0.00     0.261 C 
BRANCH  39  40
ATOM     40  O   UNL A   1      37.707  31.911  32.058  1.00  0.00    -0.460 OA
BRANCH  40  41
ATOM     41  C   UNL A   1      37.068  33.093  31.808  1.00  0.00     0.338 C 
ATOM     42  O   UNL A   1      35.888  33.294  31.958  1.00  0.00    -0.246 OA
BRANCH  41  43
ATOM     43  C   UNL A   1      38.015  34.018  31.114  1.00  0.00     0.060 A 
ATOM     44  C   UNL A   1      38.126  33.949  29.723  1.00  0.00     0.016 A 
ATOM     45  C   UNL A   1      39.009  34.645  31.867  1.00  0.00     0.016 A 
ATOM     46  C   UNL A   1      39.327  34.330  29.130  1.00  0.00     0.010 A 
ATOM     47  C   UNL A   1      40.252  34.842  31.300  1.00  0.00     0.010 A 
ATOM     48  C   UNL A   1      40.444  34.631  29.946  1.00  0.00    -0.014 A 
BRANCH  48  49
ATOM     49  C   UNL A   1      41.829  34.548  29.404  1.00  0.00     0.031 A 
ATOM     50  C   UNL A   1      42.610  33.043  29.639  1.00  0.00     0.074 A 
ATOM     51  C   UNL A   1      42.118  35.785  28.815  1.00  0.00     0.049 A 
ATOM     52  N   UNL A   1      43.842  32.652  29.401  1.00  0.00    -0.248 NA
ATOM     53  C   UNL A   1      41.939  31.852  30.186  1.00  0.00     0.031 C 
ATOM     54  C   UNL A   1      41.269  36.496  27.816  1.00  0.00     0.029 A 
ATOM     55  N   UNL A   1      43.180  36.668  28.796  1.00  0.00    -0.354 N 
ATOM     56  C   UNL A   1      44.138  31.302  29.563  1.00  0.00     0.074 A 
ATOM     57  C   UNL A   1      42.856  30.865  30.089  1.00  0.00     0.031 C 
ATOM     58  C   UNL A   1      42.006  37.334  27.059  1.00  0.00     0.029 A 
ATOM     59  C   UNL A   1      43.329  37.472  27.633  1.00  0.00     0.049 A 
ATOM     60  H   UNL A   1      43.804  36.738  29.553  1.00  0.00     0.167 HD
ATOM     61  C   UNL A   1      45.333  30.702  29.106  1.00  0.00     0.034 A 
ATOM     62  C   UNL A   1      44.303  38.387  27.249  1.00  0.00     0.034 A 
ATOM     63  C   UNL A   1      46.448  31.603  28.413  1.00  0.00     0.049 A 
ATOM     64  C   UNL A   1      45.992  37.896  27.026  1.00  0.00     0.074 A 
ATOM     65  C   UNL A   1      47.097  31.475  27.179  1.00  0.00     0.029 A 
ATOM     66  N   UNL A   1      46.993  32.866  28.846  1.00  0.00    -0.354 N 
ATOM     67  N   UNL A   1      46.429  36.653  26.687  1.00  0.00    -0.248 NA
ATOM     68  C   UNL A   1      47.204  38.660  27.375  1.00  0.00     0.031 C 
ATOM     69  C   UNL A   1      47.716  32.698  26.788  1.00  0.00     0.029 A 
ATOM     70  C   UNL A   1      47.514  33.685  27.738  1.00  0.00     0.049 A 
ATOM     71  H   UNL A   1      47.015  33.152  29.788  1.00  0.00     0.167 HD
ATOM     72  C   UNL A   1      47.699  36.318  27.315  1.00  0.00     0.074 A 
ATOM     73  C   UNL A   1      48.177  37.708  27.497  1.00  0.00     0.031 C 
ATOM     74  C   UNL A   1      48.214  35.056  27.844  1.00  0.00     0.034 A 
BRANCH  61  75
ATOM     75  C   UNL A   1      45.334  29.120  28.775  1.00  0.00     0.023 A 
ATOM     76  C   UNL A   1      45.552  28.152  29.792  1.00  0.00     0.031 A 
ATOM     77  C   UNL A   1      45.299  28.533  27.492  1.00  0.00     0.131 A 
ATOM     78  C   UNL A   1      46.006  26.833  29.525  1.00  0.00     0.055 A 
ATOM     79  C   UNL A   1      45.722  27.213  27.212  1.00  0.00     0.041 A 
ATOM     80  F   UNL A   1      44.734  29.153  26.452  1.00  0.00    -0.206 F 
ATOM     81  C   UNL A   1      46.129  26.369  28.227  1.00  0.00     0.022 A 
BRANCH  78  82
ATOM     82  S   UNL A   1      46.456  25.705  30.888  1.00  0.00     0.124 S 
ATOM     83  O   UNL A   1      47.843  25.378  30.569  1.00  0.00    -0.237 OA
ATOM     84  O   UNL A   1      46.239  26.522  32.076  1.00  0.00    -0.237 OA
ATOM     85  O   UNL A   1      45.512  24.597  30.730  1.00  0.00    -0.744 OA
ENDBRANCH  78  82
ENDBRANCH  61  75
BRANCH  62  86
ATOM     86  C   UNL A   1      43.604  39.737  27.709  1.00  0.00     0.023 A 
ATOM     87  C   UNL A   1      43.875  40.125  29.065  1.00  0.00     0.031 A 
ATOM     88  C   UNL A   1      43.668  40.829  26.784  1.00  0.00     0.131 A 
ATOM     89  C   UNL A   1      44.517  41.374  29.365  1.00  0.00     0.055 A 
ATOM     90  C   UNL A   1      44.272  42.075  27.095  1.00  0.00     0.041 A 
ATOM     91  F   UNL A   1      43.391  40.633  25.487  1.00  0.00    -0.206 F 
ATOM     92  C   UNL A   1      44.758  42.325  28.372  1.00  0.00     0.022 A 
BRANCH  89  93
ATOM     93  S   UNL A   1      45.390  41.604  30.977  1.00  0.00     0.124 S 
ATOM     94  O   UNL A   1      46.581  42.338  30.567  1.00  0.00    -0.237 OA
ATOM     95  O   UNL A   1      44.426  42.346  31.783  1.00  0.00    -0.237 OA
ATOM     96  O   UNL A   1      45.623  40.237  31.443  1.00  0.00    -0.744 OA
ENDBRANCH  89  93
ENDBRANCH  62  86
BRANCH  74  97
ATOM     97  C   UNL A   1      49.632  34.811  28.529  1.00  0.00     0.023 A 
ATOM     98  C   UNL A   1      50.700  34.123  27.952  1.00  0.00     0.031 A 
ATOM     99  C   UNL A   1      49.942  35.320  29.850  1.00  0.00     0.131 A 
ATOM    100  C   UNL A   1      51.908  33.900  28.674  1.00  0.00     0.055 A 
ATOM    101  C   UNL A   1      51.139  35.128  30.539  1.00  0.00     0.041 A 
ATOM    102  F   UNL A   1      49.115  36.069  30.585  1.00  0.00    -0.206 F 
ATOM    103  C   UNL A   1      52.133  34.394  29.958  1.00  0.00     0.022 A 
BRANCH 100 104
ATOM    104  S   UNL A   1      53.206  32.894  27.918  1.00  0.00     0.124 S 
ATOM    105  O   UNL A   1      52.794  31.543  28.286  1.00  0.00    -0.237 OA
ATOM    106  O   UNL A   1      53.077  33.240  26.507  1.00  0.00    -0.237 OA
ATOM    107  O   UNL A   1      54.432  33.364  28.562  1.00  0.00    -0.744 OA
ENDBRANCH 100 104
ENDBRANCH  74  97
ENDBRANCH  48  49
ENDBRANCH  41  43
ENDBRANCH  40  41
ENDBRANCH  39  40
ENDBRANCH  38  39
ENDBRANCH  37  38
ENDBRANCH  36  37
ENDBRANCH  35  36
ENDBRANCH  34  35
ENDBRANCH   1  34
TORSDOF 28
ENDMDL
MODEL 3
REMARK VINA RESULT:      -8.1      6.821      9.451
REMARK SMILES Cc1ccccc1NC(=S)NN1C(=O)CS[C@H]1c1ccccc1C(=O)OCCOCCOCCOCCOC(=O)c1ccc(-c2c3nc(c(-c4cc(S(=O)(=O)[O-])ccc4F)c4ccc([nH]4)c(-c4cc(S(=O)(=O)[O-])ccc4F)c4nc(c(-c5cc(S(=O)(=O)[O-])ccc5F)c5ccc2[nH]5)C=C4)C=C3)cc1
REMARK SMILES IDX 31 1 30 2 29 3 28 4 27 5 26 6 24 7 25 8 23 9 18 10 19 11
REMARK SMILES IDX 20 12 22 13 21 14 17 15 12 16 13 17 14 18 15 19 16 20 11 21
REMARK SMILES IDX 9 23 10 24 8 25 7 27 1 28 2 29 3 30 4 31 6 32 5 33 32 34
REMARK SMILES IDX 33 35 34 36 35 37 36 38 37 39 38 40 39 41 40 42 41 43 42 44
REMARK SMILES IDX 103 45 43 46 102 47 44 48 45 49 46 50 96 51 47 52 101 53
REMARK SMILES IDX 95 54 97 55 48 56 100 57 94 58 93 59 49 61 81 62 61 63 80 64
REMARK SMILES IDX 62 65 65 66 79 67 98 68 63 69 64 70 78 72 99 73 66 74 50 75
REMARK SMILES IDX 51 76 59 77 52 78 58 79 60 80 57 81 53 82 54 83 55 84 56 85
REMARK SMILES IDX 82 86 83 87 91 88 84 89 90 90 92 91 89 92 85 93 86 94 87 95
REMARK SMILES IDX 88 96 67 97 68 98 76 99 69 100 75 101 77 102 74 103 70 104
REMARK SMILES IDX 71 105 72 106 73 107
REMARK H PARENT 11 22 8 26 97 60 65 71
REMARK Flexibility Score: inf
ROOT
ATOM      1  C   UNL A   1      38.403  29.457  29.390  1.00  0.00     0.188 C 
ENDROOT
BRANCH   1   2
ATOM      2  C   UNL A   1      38.310  29.158  27.899  1.00  0.00     0.188 C 
BRANCH   2   3
ATOM      3  O   UNL A   1      37.210  29.910  27.444  1.00  0.00    -0.376 OA
BRANCH   3   4
ATOM      4  C   UNL A   1      35.890  29.632  28.013  1.00  0.00     0.202 C 
BRANCH   4   5
ATOM      5  C   UNL A   1      34.466  29.293  26.885  1.00  0.00     0.261 C 
BRANCH   5   6
ATOM      6  O   UNL A   1      33.596  27.652  26.573  1.00  0.00    -0.460 OA
BRANCH   6   7
ATOM      7  C   UNL A   1      33.712  26.390  25.522  1.00  0.00     0.338 C 
ATOM      8  O   UNL A   1      34.136  26.609  24.385  1.00  0.00    -0.246 OA
BRANCH   7   9
ATOM      9  C   UNL A   1      32.993  24.811  25.671  1.00  0.00     0.066 A 
ATOM     10  C   UNL A   1      31.666  24.683  25.207  1.00  0.00     0.001 A 
ATOM     11  C   UNL A   1      30.760  23.624  25.460  1.00  0.00     0.008 A 
ATOM     12  C   UNL A   1      31.103  22.685  26.391  1.00  0.00     0.000 A 
ATOM     13  C   UNL A   1      33.354  23.745  26.516  1.00  0.00     0.016 A 
ATOM     14  C   UNL A   1      32.391  22.748  26.922  1.00  0.00     0.001 A 
BRANCH  10  15
ATOM     15  C   UNL A   1      31.040  25.941  24.868  1.00  0.00     0.197 C 
ATOM     16  N   UNL A   1      31.207  26.154  23.453  1.00  0.00    -0.236 N 
ATOM     17  C   UNL A   1      30.169  27.167  23.196  1.00  0.00     0.252 C 
ATOM     18  O   UNL A   1      30.409  28.305  22.775  1.00  0.00    -0.272 OA
ATOM     19  C   UNL A   1      28.859  26.896  23.939  1.00  0.00     0.174 C 
ATOM     20  S   UNL A   1      29.353  26.107  25.462  1.00  0.00    -0.120 SA
BRANCH  16  21
ATOM     21  N   UNL A   1      31.859  24.757  22.413  1.00  0.00    -0.270 N 
ATOM     22  H   UNL A   1      31.143  24.397  21.840  1.00  0.00     0.191 HD
BRANCH  21  23
ATOM     23  C   UNL A   1      33.360  23.875  22.133  1.00  0.00     0.189 C 
ATOM     24  S   UNL A   1      33.168  22.820  20.761  1.00  0.00    -0.039 S 
BRANCH  23  25
ATOM     25  N   UNL A   1      34.635  23.545  23.224  1.00  0.00    -0.331 N 
ATOM     26  H   UNL A   1      34.666  24.449  23.611  1.00  0.00     0.169 HD
BRANCH  25  27
ATOM     27  C   UNL A   1      35.968  22.875  24.233  1.00  0.00     0.043 A 
ATOM     28  C   UNL A   1      35.961  20.167  24.908  1.00  0.00     0.046 C 
ATOM     29  C   UNL A   1      36.582  21.540  24.594  1.00  0.00    -0.028 A 
ATOM     30  C   UNL A   1      37.917  21.348  25.309  1.00  0.00     0.005 A 
ATOM     31  C   UNL A   1      38.600  22.332  25.945  1.00  0.00     0.000 A 
ATOM     32  C   UNL A   1      36.796  23.652  24.965  1.00  0.00     0.026 A 
ATOM     33  C   UNL A   1      37.959  23.497  25.832  1.00  0.00     0.002 A 
ENDBRANCH  25  27
ENDBRANCH  23  25
ENDBRANCH  21  23
ENDBRANCH  16  21
ENDBRANCH  10  15
ENDBRANCH   7   9
ENDBRANCH   6   7
ENDBRANCH   5   6
ENDBRANCH   4   5
ENDBRANCH   3   4
ENDBRANCH   2   3
ENDBRANCH   1   2
BRANCH   1  34
ATOM     34  O   UNL A   1      39.684  29.236  29.959  1.00  0.00    -0.377 OA
BRANCH  34  35
ATOM     35  C   UNL A   1      39.636  29.117  31.382  1.00  0.00     0.188 C 
BRANCH  35  36
ATOM     36  C   UNL A   1      38.657  28.033  31.817  1.00  0.00     0.188 C 
BRANCH  36  37
ATOM     37  O   UNL A   1      37.379  28.478  32.256  1.00  0.00    -0.376 OA
BRANCH  37  38
ATOM     38  C   UNL A   1      37.355  29.781  32.815  1.00  0.00     0.202 C 
BRANCH  38  39
ATOM     39  C   UNL A   1      36.286  30.703  32.209  1.00  0.00     0.261 C 
BRANCH  39  40
ATOM     40  O   UNL A   1      36.894  31.957  31.840  1.00  0.00    -0.460 OA
BRANCH  40  41
ATOM     41  C   UNL A   1      36.201  33.069  32.229  1.00  0.00     0.338 C 
ATOM     42  O   UNL A   1      35.292  33.575  31.616  1.00  0.00    -0.246 OA
BRANCH  41  43
ATOM     43  C   UNL A   1      36.888  33.681  33.406  1.00  0.00     0.060 A 
ATOM     44  C   UNL A   1      37.861  34.659  33.185  1.00  0.00     0.016 A 
ATOM     45  C   UNL A   1      36.821  33.024  34.635  1.00  0.00     0.016 A 
ATOM     46  C   UNL A   1      38.876  34.816  34.125  1.00  0.00     0.010 A 
ATOM     47  C   UNL A   1      37.922  33.050  35.467  1.00  0.00     0.010 A 
ATOM     48  C   UNL A   1      38.984  33.895  35.195  1.00  0.00    -0.014 A 
BRANCH  48  49
ATOM     49  C   UNL A   1      40.278  33.702  35.908  1.00  0.00     0.031 A 
ATOM     50  C   UNL A   1      41.528  33.009  34.966  1.00  0.00     0.074 A 
ATOM     51  C   UNL A   1      40.104  34.176  37.215  1.00  0.00     0.049 A 
ATOM     52  N   UNL A   1      42.736  32.601  35.284  1.00  0.00    -0.248 NA
ATOM     53  C   UNL A   1      41.417  32.759  33.519  1.00  0.00     0.031 C 
ATOM     54  C   UNL A   1      39.557  35.510  37.595  1.00  0.00     0.029 A 
ATOM     55  N   UNL A   1      40.428  33.754  38.489  1.00  0.00    -0.354 N 
ATOM     56  C   UNL A   1      43.583  32.213  34.251  1.00  0.00     0.074 A 
ATOM     57  C   UNL A   1      42.643  32.331  33.149  1.00  0.00     0.031 C 
ATOM     58  C   UNL A   1      39.994  35.886  38.815  1.00  0.00     0.029 A 
ATOM     59  C   UNL A   1      40.633  34.762  39.470  1.00  0.00     0.049 A 
ATOM     60  H   UNL A   1      40.511  32.798  38.709  1.00  0.00     0.167 HD
ATOM     61  C   UNL A   1      44.971  31.998  34.414  1.00  0.00     0.034 A 
ATOM     62  C   UNL A   1      41.036  34.704  40.799  1.00  0.00     0.034 A 
ATOM     63  C   UNL A   1      45.622  32.143  35.861  1.00  0.00     0.049 A 
ATOM     64  C   UNL A   1      42.624  34.056  41.253  1.00  0.00     0.074 A 
ATOM     65  C   UNL A   1      46.708  32.904  36.307  1.00  0.00     0.029 A 
ATOM     66  N   UNL A   1      45.169  31.600  37.117  1.00  0.00    -0.354 N 
ATOM     67  N   UNL A   1      43.740  34.050  40.476  1.00  0.00    -0.248 NA
ATOM     68  C   UNL A   1      42.955  33.232  42.429  1.00  0.00     0.031 C 
ATOM     69  C   UNL A   1      46.696  33.045  37.725  1.00  0.00     0.029 A 
ATOM     70  C   UNL A   1      45.613  32.385  38.282  1.00  0.00     0.049 A 
ATOM     71  H   UNL A   1      44.619  30.787  37.190  1.00  0.00     0.167 HD
ATOM     72  C   UNL A   1      44.563  32.868  40.693  1.00  0.00     0.074 A 
ATOM     73  C   UNL A   1      44.107  32.588  42.074  1.00  0.00     0.031 C 
ATOM     74  C   UNL A   1      45.362  32.063  39.770  1.00  0.00     0.034 A 
BRANCH  61  75
ATOM     75  C   UNL A   1      45.942  32.166  33.134  1.00  0.00     0.023 A 
ATOM     76  C   UNL A   1      46.225  33.446  32.583  1.00  0.00     0.031 A 
ATOM     77  C   UNL A   1      46.461  31.126  32.333  1.00  0.00     0.131 A 
ATOM     78  C   UNL A   1      46.670  33.637  31.248  1.00  0.00     0.055 A 
ATOM     79  C   UNL A   1      46.934  31.302  31.012  1.00  0.00     0.041 A 
ATOM     80  F   UNL A   1      46.664  29.899  32.823  1.00  0.00    -0.206 F 
ATOM     81  C   UNL A   1      46.993  32.559  30.442  1.00  0.00     0.022 A 
BRANCH  78  82
ATOM     82  S   UNL A   1      46.824  35.314  30.544  1.00  0.00     0.124 S 
ATOM     83  O   UNL A   1      45.502  35.877  30.804  1.00  0.00    -0.237 OA
ATOM     84  O   UNL A   1      47.932  35.887  31.299  1.00  0.00    -0.237 OA
ATOM     85  O   UNL A   1      47.116  35.058  29.133  1.00  0.00    -0.744 OA
ENDBRANCH  78  82
ENDBRANCH  61  75
BRANCH  62  86
ATOM     86  C   UNL A   1      39.619  34.738  41.516  1.00  0.00     0.023 A 
ATOM     87  C   UNL A   1      38.945  33.472  41.579  1.00  0.00     0.031 A 
ATOM     88  C   UNL A   1      39.547  35.480  42.739  1.00  0.00     0.131 A 
ATOM     89  C   UNL A   1      38.598  32.879  42.840  1.00  0.00     0.055 A 
ATOM     90  C   UNL A   1      39.169  34.900  43.977  1.00  0.00     0.041 A 
ATOM     91  F   UNL A   1      40.088  36.705  42.819  1.00  0.00    -0.206 F 
ATOM     92  C   UNL A   1      38.756  33.576  44.039  1.00  0.00     0.022 A 
BRANCH  89  93
ATOM     93  S   UNL A   1      38.303  31.060  42.959  1.00  0.00     0.124 S 
ATOM     94  O   UNL A   1      38.489  30.822  44.386  1.00  0.00    -0.237 OA
ATOM     95  O   UNL A   1      36.942  30.901  42.456  1.00  0.00    -0.237 OA
ATOM     96  O   UNL A   1      39.327  30.485  42.087  1.00  0.00    -0.744 OA
ENDBRANCH  89  93
ENDBRANCH  62  86
BRANCH  74  97
ATOM     97  C   UNL A   1      46.221  30.769  40.126  1.00  0.00     0.023 A 
ATOM     98  C   UNL A   1      45.850  29.452  39.853  1.00  0.00     0.031 A 
ATOM     99  C   UNL A   1      47.516  30.864  40.770  1.00  0.00     0.131 A 
ATOM    100  C   UNL A   1      46.661  28.357  40.271  1.00  0.00     0.055 A 
ATOM    101  C   UNL A   1      48.321  29.790  41.148  1.00  0.00     0.041 A 
ATOM    102  F   UNL A   1      48.127  32.012  41.075  1.00  0.00    -0.206 F 
ATOM    103  C   UNL A   1      47.886  28.516  40.915  1.00  0.00     0.022 A 
BRANCH 100 104
ATOM    104  S   UNL A   1      46.064  26.673  40.000  1.00  0.00     0.124 S 
ATOM    105  O   UNL A   1      45.690  26.708  38.589  1.00  0.00    -0.237 OA
ATOM    106  O   UNL A   1      47.239  25.875  40.330  1.00  0.00    -0.237 OA
ATOM    107  O   UNL A   1      44.944  26.543  40.932  1.00  0.00    -0.744 OA
ENDBRANCH 100 104
ENDBRANCH  74  97
ENDBRANCH  48  49
ENDBRANCH  41  43
ENDBRANCH  40  41
ENDBRANCH  39  40
ENDBRANCH  38  39
ENDBRANCH  37  38
ENDBRANCH  36  37
ENDBRANCH  35  36
ENDBRANCH  34  35
ENDBRANCH   1  34
TORSDOF 28
ENDMDL
