MODEL 1
REMARK VINA RESULT:      -9.4      0.000      0.000
REMARK SMILES C[C@H]([NH2+]C1C(C)(C)C1(C)C)[C@H](C)C(=O)OCCOCCOCCOCCOC(=O)c1ccc(-c2c3nc(c(-c4cc(S(=O)(=O)[O-])ccc4F)c4ccc([nH]4)c(-c4cc(S(=O)(=O)[O-])ccc4F)c4nc(c(-c5cc(S(=O)(=O)[O-])ccc5F)c5ccc2[nH]5)C=C4)C=C3)cc1
REMARK SMILES IDX 21 1 20 2 19 3 18 4 17 5 16 6 15 7 13 8 14 9 11 10 12 11
REMARK SMILES IDX 2 12 1 13 3 14 4 17 5 18 8 19 6 20 7 21 9 22 10 23 22 24
REMARK SMILES IDX 23 25 24 26 25 27 26 28 27 29 28 30 29 31 30 32 31 33 92 34
REMARK SMILES IDX 32 35 91 36 33 37 34 38 35 39 85 40 36 41 90 42 84 43 86 44
REMARK SMILES IDX 37 45 89 46 83 47 82 48 38 50 70 51 50 52 69 53 51 54 54 55
REMARK SMILES IDX 68 56 87 57 52 58 53 59 67 61 88 62 55 63 39 64 40 65 48 66
REMARK SMILES IDX 41 67 47 68 49 69 46 70 42 71 43 72 44 73 45 74 71 75 72 76
REMARK SMILES IDX 80 77 73 78 79 79 81 80 78 81 74 82 75 83 76 84 77 85 56 86
REMARK SMILES IDX 57 87 65 88 58 89 64 90 66 91 63 92 59 93 60 94 61 95 62 96
REMARK H PARENT 3 15 3 16 86 49 54 60
REMARK Flexibility Score: inf
ROOT
ATOM      1  O   UNL A   1      34.923  21.575  26.588  1.00  0.00    -0.377 OA
ENDROOT
BRANCH   1   2
ATOM      2  C   UNL A   1      33.532  21.786  26.539  1.00  0.00     0.188 C 
BRANCH   2   3
ATOM      3  C   UNL A   1      33.067  22.801  25.489  1.00  0.00     0.188 C 
BRANCH   3   4
ATOM      4  O   UNL A   1      31.993  22.545  24.596  1.00  0.00    -0.376 OA
BRANCH   4   5
ATOM      5  C   UNL A   1      32.123  22.607  23.183  1.00  0.00     0.202 C 
BRANCH   5   6
ATOM      6  C   UNL A   1      32.093  23.927  22.397  1.00  0.00     0.261 C 
BRANCH   6   7
ATOM      7  O   UNL A   1      33.215  24.799  22.579  1.00  0.00    -0.463 OA
BRANCH   7   8
ATOM      8  C   UNL A   1      33.190  25.896  21.802  1.00  0.00     0.314 C 
ATOM      9  O   UNL A   1      33.183  25.872  20.572  1.00  0.00    -0.252 OA
BRANCH   8  10
ATOM     10  C   UNL A   1      33.191  27.210  22.553  1.00  0.00     0.154 C 
ATOM     11  C   UNL A   1      34.056  28.396  22.105  1.00  0.00     0.026 C 
BRANCH  10  12
ATOM     12  C   UNL A   1      31.704  27.530  22.809  1.00  0.00     0.193 C 
ATOM     13  C   UNL A   1      31.298  28.967  22.463  1.00  0.00     0.076 C 
BRANCH  12  14
ATOM     14  N   UNL A   1      31.510  27.065  24.178  1.00  0.00    -0.340 N 
ATOM     15  H   UNL A   1      31.951  26.147  24.244  1.00  0.00     0.346 HD
ATOM     16  H   UNL A   1      30.498  27.103  24.303  1.00  0.00     0.346 HD
BRANCH  14  17
ATOM     17  C   UNL A   1      32.013  27.848  25.271  1.00  0.00     0.195 C 
ATOM     18  C   UNL A   1      31.910  27.275  26.672  1.00  0.00     0.028 C 
ATOM     19  C   UNL A   1      33.282  27.453  25.997  1.00  0.00     0.028 C 
ATOM     20  C   UNL A   1      31.493  28.203  27.782  1.00  0.00     0.018 C 
ATOM     21  C   UNL A   1      31.345  25.872  26.857  1.00  0.00     0.018 C 
ATOM     22  C   UNL A   1      34.054  26.193  25.658  1.00  0.00     0.018 C 
ATOM     23  C   UNL A   1      34.194  28.612  26.325  1.00  0.00     0.018 C 
ENDBRANCH  14  17
ENDBRANCH  12  14
ENDBRANCH  10  12
ENDBRANCH   8  10
ENDBRANCH   7   8
ENDBRANCH   6   7
ENDBRANCH   5   6
ENDBRANCH   4   5
ENDBRANCH   3   4
ENDBRANCH   2   3
ENDBRANCH   1   2
BRANCH   1  24
ATOM     24  C   UNL A   1      35.530  20.961  25.459  1.00  0.00     0.188 C 
BRANCH  24  25
ATOM     25  C   UNL A   1      36.688  21.711  24.766  1.00  0.00     0.188 C 
BRANCH  25  26
ATOM     26  O   UNL A   1      37.978  21.217  25.099  1.00  0.00    -0.376 OA
BRANCH  26  27
ATOM     27  C   UNL A   1      38.240  19.830  24.939  1.00  0.00     0.202 C 
BRANCH  27  28
ATOM     28  C   UNL A   1      39.349  19.183  25.788  1.00  0.00     0.261 C 
BRANCH  28  29
ATOM     29  O   UNL A   1      40.626  19.836  25.823  1.00  0.00    -0.460 OA
BRANCH  29  30
ATOM     30  C   UNL A   1      41.242  19.997  27.018  1.00  0.00     0.338 C 
ATOM     31  O   UNL A   1      41.783  19.141  27.678  1.00  0.00    -0.246 OA
BRANCH  30  32
ATOM     32  C   UNL A   1      41.315  21.457  27.274  1.00  0.00     0.060 A 
ATOM     33  C   UNL A   1      40.728  22.348  26.363  1.00  0.00     0.016 A 
ATOM     34  C   UNL A   1      41.943  21.937  28.424  1.00  0.00     0.016 A 
ATOM     35  C   UNL A   1      40.797  23.726  26.586  1.00  0.00     0.010 A 
ATOM     36  C   UNL A   1      42.037  23.315  28.630  1.00  0.00     0.010 A 
ATOM     37  C   UNL A   1      41.493  24.216  27.696  1.00  0.00    -0.014 A 
BRANCH  37  38
ATOM     38  C   UNL A   1      41.883  25.647  27.779  1.00  0.00     0.031 A 
ATOM     39  C   UNL A   1      43.255  26.020  27.288  1.00  0.00     0.074 A 
ATOM     40  C   UNL A   1      41.074  26.581  28.309  1.00  0.00     0.049 A 
ATOM     41  N   UNL A   1      43.915  27.139  27.426  1.00  0.00    -0.248 NA
ATOM     42  C   UNL A   1      43.983  24.974  26.553  1.00  0.00     0.031 C 
ATOM     43  C   UNL A   1      39.698  26.360  28.747  1.00  0.00     0.029 A 
ATOM     44  N   UNL A   1      41.308  27.905  28.588  1.00  0.00    -0.354 N 
ATOM     45  C   UNL A   1      45.145  26.925  26.813  1.00  0.00     0.074 A 
ATOM     46  C   UNL A   1      45.146  25.561  26.329  1.00  0.00     0.031 C 
ATOM     47  C   UNL A   1      39.219  27.505  29.266  1.00  0.00     0.029 A 
ATOM     48  C   UNL A   1      40.271  28.521  29.251  1.00  0.00     0.049 A 
ATOM     49  H   UNL A   1      42.139  28.370  28.338  1.00  0.00     0.167 HD
ATOM     50  C   UNL A   1      46.178  27.790  26.669  1.00  0.00     0.034 A 
ATOM     51  C   UNL A   1      40.203  29.744  29.820  1.00  0.00     0.034 A 
ATOM     52  C   UNL A   1      46.164  29.138  27.176  1.00  0.00     0.049 A 
ATOM     53  C   UNL A   1      41.412  30.654  29.757  1.00  0.00     0.074 A 
ATOM     54  C   UNL A   1      47.154  30.100  27.090  1.00  0.00     0.029 A 
ATOM     55  N   UNL A   1      45.110  29.711  27.876  1.00  0.00    -0.354 N 
ATOM     56  N   UNL A   1      42.581  30.439  29.197  1.00  0.00    -0.248 NA
ATOM     57  C   UNL A   1      41.294  31.970  30.404  1.00  0.00     0.031 C 
ATOM     58  C   UNL A   1      46.735  31.223  27.811  1.00  0.00     0.029 A 
ATOM     59  C   UNL A   1      45.442  31.002  28.258  1.00  0.00     0.049 A 
ATOM     60  H   UNL A   1      44.254  29.267  28.073  1.00  0.00     0.167 HD
ATOM     61  C   UNL A   1      43.315  31.610  29.383  1.00  0.00     0.074 A 
ATOM     62  C   UNL A   1      42.463  32.524  30.110  1.00  0.00     0.031 C 
ATOM     63  C   UNL A   1      44.575  31.908  28.973  1.00  0.00     0.034 A 
BRANCH  50  64
ATOM     64  C   UNL A   1      47.426  27.275  25.995  1.00  0.00     0.023 A 
ATOM     65  C   UNL A   1      48.413  26.568  26.702  1.00  0.00     0.031 A 
ATOM     66  C   UNL A   1      47.648  27.525  24.629  1.00  0.00     0.131 A 
ATOM     67  C   UNL A   1      49.606  26.203  26.062  1.00  0.00     0.055 A 
ATOM     68  C   UNL A   1      48.798  27.081  23.976  1.00  0.00     0.041 A 
ATOM     69  F   UNL A   1      46.755  28.222  23.908  1.00  0.00    -0.206 F 
ATOM     70  C   UNL A   1      49.793  26.428  24.697  1.00  0.00     0.022 A 
BRANCH  67  71
ATOM     71  S   UNL A   1      50.972  25.572  27.075  1.00  0.00     0.124 S 
ATOM     72  O   UNL A   1      51.702  24.755  26.108  1.00  0.00    -0.237 OA
ATOM     73  O   UNL A   1      51.637  26.796  27.506  1.00  0.00    -0.237 OA
ATOM     74  O   UNL A   1      50.298  24.820  28.131  1.00  0.00    -0.744 OA
ENDBRANCH  67  71
ENDBRANCH  50  64
BRANCH  51  75
ATOM     75  C   UNL A   1      38.975  30.174  30.553  1.00  0.00     0.023 A 
ATOM     76  C   UNL A   1      38.025  31.012  29.947  1.00  0.00     0.031 A 
ATOM     77  C   UNL A   1      38.765  29.810  31.897  1.00  0.00     0.131 A 
ATOM     78  C   UNL A   1      36.941  31.500  30.694  1.00  0.00     0.055 A 
ATOM     79  C   UNL A   1      37.651  30.247  32.617  1.00  0.00     0.041 A 
ATOM     80  F   UNL A   1      39.644  29.019  32.532  1.00  0.00    -0.206 F 
ATOM     81  C   UNL A   1      36.738  31.110  32.020  1.00  0.00     0.022 A 
BRANCH  78  82
ATOM     82  S   UNL A   1      35.857  32.743  29.940  1.00  0.00     0.124 S 
ATOM     83  O   UNL A   1      36.804  33.808  29.627  1.00  0.00    -0.237 OA
ATOM     84  O   UNL A   1      35.309  32.016  28.800  1.00  0.00    -0.237 OA
ATOM     85  O   UNL A   1      34.900  33.049  31.001  1.00  0.00    -0.744 OA
ENDBRANCH  78  82
ENDBRANCH  51  75
BRANCH  63  86
ATOM     86  C   UNL A   1      45.087  33.307  29.220  1.00  0.00     0.023 A 
ATOM     87  C   UNL A   1      44.832  34.370  28.336  1.00  0.00     0.031 A 
ATOM     88  C   UNL A   1      45.804  33.585  30.399  1.00  0.00     0.131 A 
ATOM     89  C   UNL A   1      45.314  35.654  28.635  1.00  0.00     0.055 A 
ATOM     90  C   UNL A   1      46.229  34.874  30.718  1.00  0.00     0.041 A 
ATOM     91  F   UNL A   1      46.078  32.606  31.276  1.00  0.00    -0.206 F 
ATOM     92  C   UNL A   1      45.990  35.917  29.829  1.00  0.00     0.022 A 
BRANCH  89  93
ATOM     93  S   UNL A   1      45.098  36.979  27.413  1.00  0.00     0.124 S 
ATOM     94  O   UNL A   1      43.703  36.804  27.021  1.00  0.00    -0.237 OA
ATOM     95  O   UNL A   1      45.396  38.176  28.193  1.00  0.00    -0.237 OA
ATOM     96  O   UNL A   1      46.078  36.655  26.378  1.00  0.00    -0.744 OA
ENDBRANCH  89  93
ENDBRANCH  63  86
ENDBRANCH  37  38
ENDBRANCH  30  32
ENDBRANCH  29  30
ENDBRANCH  28  29
ENDBRANCH  27  28
ENDBRANCH  26  27
ENDBRANCH  25  26
ENDBRANCH  24  25
ENDBRANCH   1  24
TORSDOF 26
ENDMDL
MODEL 2
REMARK VINA RESULT:      -8.8      1.864      7.891
REMARK SMILES C[C@H]([NH2+]C1C(C)(C)C1(C)C)[C@H](C)C(=O)OCCOCCOCCOCCOC(=O)c1ccc(-c2c3nc(c(-c4cc(S(=O)(=O)[O-])ccc4F)c4ccc([nH]4)c(-c4cc(S(=O)(=O)[O-])ccc4F)c4nc(c(-c5cc(S(=O)(=O)[O-])ccc5F)c5ccc2[nH]5)C=C4)C=C3)cc1
REMARK SMILES IDX 21 1 20 2 19 3 18 4 17 5 16 6 15 7 13 8 14 9 11 10 12 11
REMARK SMILES IDX 2 12 1 13 3 14 4 17 5 18 8 19 6 20 7 21 9 22 10 23 22 24
REMARK SMILES IDX 23 25 24 26 25 27 26 28 27 29 28 30 29 31 30 32 31 33 92 34
REMARK SMILES IDX 32 35 91 36 33 37 34 38 35 39 85 40 36 41 90 42 84 43 86 44
REMARK SMILES IDX 37 45 89 46 83 47 82 48 38 50 70 51 50 52 69 53 51 54 54 55
REMARK SMILES IDX 68 56 87 57 52 58 53 59 67 61 88 62 55 63 39 64 40 65 48 66
REMARK SMILES IDX 41 67 47 68 49 69 46 70 42 71 43 72 44 73 45 74 71 75 72 76
REMARK SMILES IDX 80 77 73 78 79 79 81 80 78 81 74 82 75 83 76 84 77 85 56 86
REMARK SMILES IDX 57 87 65 88 58 89 64 90 66 91 63 92 59 93 60 94 61 95 62 96
REMARK H PARENT 3 15 3 16 86 49 54 60
REMARK Flexibility Score: inf
ROOT
ATOM      1  O   UNL A   1      33.782  22.859  26.840  1.00  0.00    -0.377 OA
ENDROOT
BRANCH   1   2
ATOM      2  C   UNL A   1      32.636  23.470  26.298  1.00  0.00     0.188 C 
BRANCH   2   3
ATOM      3  C   UNL A   1      32.460  24.951  26.656  1.00  0.00     0.188 C 
BRANCH   3   4
ATOM      4  O   UNL A   1      33.371  25.955  26.237  1.00  0.00    -0.376 OA
BRANCH   4   5
ATOM      5  C   UNL A   1      33.194  27.336  26.521  1.00  0.00     0.202 C 
BRANCH   5   6
ATOM      6  C   UNL A   1      31.818  27.964  26.797  1.00  0.00     0.261 C 
BRANCH   6   7
ATOM      7  O   UNL A   1      31.338  28.894  25.820  1.00  0.00    -0.463 OA
BRANCH   7   8
ATOM      8  C   UNL A   1      31.585  28.531  24.549  1.00  0.00     0.314 C 
ATOM      9  O   UNL A   1      32.707  28.485  24.048  1.00  0.00    -0.252 OA
BRANCH   8  10
ATOM     10  C   UNL A   1      30.357  28.189  23.733  1.00  0.00     0.154 C 
ATOM     11  C   UNL A   1      30.101  28.817  22.356  1.00  0.00     0.026 C 
BRANCH  10  12
ATOM     12  C   UNL A   1      30.247  26.652  23.794  1.00  0.00     0.193 C 
ATOM     13  C   UNL A   1      29.553  26.119  25.053  1.00  0.00     0.076 C 
BRANCH  12  14
ATOM     14  N   UNL A   1      31.615  26.224  23.522  1.00  0.00    -0.340 N 
ATOM     15  H   UNL A   1      31.966  25.794  24.378  1.00  0.00     0.346 HD
ATOM     16  H   UNL A   1      32.076  27.079  23.210  1.00  0.00     0.346 HD
BRANCH  14  17
ATOM     17  C   UNL A   1      31.869  25.298  22.455  1.00  0.00     0.195 C 
ATOM     18  C   UNL A   1      32.878  25.687  21.390  1.00  0.00     0.028 C 
ATOM     19  C   UNL A   1      33.177  24.540  22.373  1.00  0.00     0.028 C 
ATOM     20  C   UNL A   1      32.539  25.378  19.956  1.00  0.00     0.018 C 
ATOM     21  C   UNL A   1      33.627  27.005  21.531  1.00  0.00     0.018 C 
ATOM     22  C   UNL A   1      34.305  24.755  23.362  1.00  0.00     0.018 C 
ATOM     23  C   UNL A   1      33.029  23.088  21.981  1.00  0.00     0.018 C 
ENDBRANCH  14  17
ENDBRANCH  12  14
ENDBRANCH  10  12
ENDBRANCH   8  10
ENDBRANCH   7   8
ENDBRANCH   6   7
ENDBRANCH   5   6
ENDBRANCH   4   5
ENDBRANCH   3   4
ENDBRANCH   2   3
ENDBRANCH   1   2
BRANCH   1  24
ATOM     24  C   UNL A   1      33.874  21.444  26.743  1.00  0.00     0.188 C 
BRANCH  24  25
ATOM     25  C   UNL A   1      34.343  20.842  25.401  1.00  0.00     0.188 C 
BRANCH  25  26
ATOM     26  O   UNL A   1      35.501  21.464  24.862  1.00  0.00    -0.376 OA
BRANCH  26  27
ATOM     27  C   UNL A   1      36.608  20.649  24.502  1.00  0.00     0.202 C 
BRANCH  27  28
ATOM     28  C   UNL A   1      37.765  20.489  25.505  1.00  0.00     0.261 C 
BRANCH  28  29
ATOM     29  O   UNL A   1      38.621  21.620  25.719  1.00  0.00    -0.460 OA
BRANCH  29  30
ATOM     30  C   UNL A   1      39.826  21.423  26.305  1.00  0.00     0.338 C 
ATOM     31  O   UNL A   1      40.526  20.442  26.214  1.00  0.00    -0.246 OA
BRANCH  30  32
ATOM     32  C   UNL A   1      40.228  22.716  26.912  1.00  0.00     0.060 A 
ATOM     33  C   UNL A   1      39.684  23.910  26.417  1.00  0.00     0.016 A 
ATOM     34  C   UNL A   1      41.123  22.740  27.982  1.00  0.00     0.016 A 
ATOM     35  C   UNL A   1      40.061  25.137  26.973  1.00  0.00     0.010 A 
ATOM     36  C   UNL A   1      41.521  23.967  28.517  1.00  0.00     0.010 A 
ATOM     37  C   UNL A   1      41.017  25.172  27.994  1.00  0.00    -0.014 A 
BRANCH  37  38
ATOM     38  C   UNL A   1      41.690  26.443  28.362  1.00  0.00     0.031 A 
ATOM     39  C   UNL A   1      40.858  27.494  29.045  1.00  0.00     0.074 A 
ATOM     40  C   UNL A   1      42.979  26.684  28.067  1.00  0.00     0.049 A 
ATOM     41  N   UNL A   1      41.133  28.747  29.291  1.00  0.00    -0.248 NA
ATOM     42  C   UNL A   1      39.525  27.067  29.498  1.00  0.00     0.031 C 
ATOM     43  C   UNL A   1      43.907  25.722  27.479  1.00  0.00     0.029 A 
ATOM     44  N   UNL A   1      43.724  27.830  28.205  1.00  0.00    -0.354 N 
ATOM     45  C   UNL A   1      40.000  29.265  29.909  1.00  0.00     0.074 A 
ATOM     46  C   UNL A   1      39.026  28.196  29.972  1.00  0.00     0.031 C 
ATOM     47  C   UNL A   1      45.092  26.327  27.280  1.00  0.00     0.029 A 
ATOM     48  C   UNL A   1      44.990  27.733  27.672  1.00  0.00     0.049 A 
ATOM     49  H   UNL A   1      43.385  28.643  28.644  1.00  0.00     0.167 HD
ATOM     50  C   UNL A   1      39.792  30.519  30.377  1.00  0.00     0.034 A 
ATOM     51  C   UNL A   1      45.931  28.681  27.481  1.00  0.00     0.034 A 
ATOM     52  C   UNL A   1      40.768  31.575  30.286  1.00  0.00     0.049 A 
ATOM     53  C   UNL A   1      45.636  30.107  27.900  1.00  0.00     0.074 A 
ATOM     54  C   UNL A   1      40.665  32.882  30.725  1.00  0.00     0.029 A 
ATOM     55  N   UNL A   1      42.023  31.447  29.705  1.00  0.00    -0.354 N 
ATOM     56  N   UNL A   1      44.554  30.597  28.461  1.00  0.00    -0.248 NA
ATOM     57  C   UNL A   1      46.687  31.107  27.658  1.00  0.00     0.031 C 
ATOM     58  C   UNL A   1      41.820  33.566  30.333  1.00  0.00     0.029 A 
ATOM     59  C   UNL A   1      42.688  32.662  29.742  1.00  0.00     0.049 A 
ATOM     60  H   UNL A   1      42.387  30.616  29.321  1.00  0.00     0.167 HD
ATOM     61  C   UNL A   1      44.816  31.949  28.683  1.00  0.00     0.074 A 
ATOM     62  C   UNL A   1      46.153  32.199  28.190  1.00  0.00     0.031 C 
ATOM     63  C   UNL A   1      44.028  32.894  29.257  1.00  0.00     0.034 A 
BRANCH  50  64
ATOM     64  C   UNL A   1      38.437  30.825  30.966  1.00  0.00     0.023 A 
ATOM     65  C   UNL A   1      37.411  31.405  30.203  1.00  0.00     0.031 A 
ATOM     66  C   UNL A   1      38.179  30.562  32.324  1.00  0.00     0.131 A 
ATOM     67  C   UNL A   1      36.205  31.773  30.817  1.00  0.00     0.055 A 
ATOM     68  C   UNL A   1      36.945  30.849  32.908  1.00  0.00     0.041 A 
ATOM     69  F   UNL A   1      39.131  30.037  33.111  1.00  0.00    -0.206 F 
ATOM     70  C   UNL A   1      35.953  31.472  32.157  1.00  0.00     0.022 A 
BRANCH  67  71
ATOM     71  S   UNL A   1      35.032  32.791  29.879  1.00  0.00     0.124 S 
ATOM     72  O   UNL A   1      35.916  33.801  29.302  1.00  0.00    -0.237 OA
ATOM     73  O   UNL A   1      34.460  31.831  28.942  1.00  0.00    -0.237 OA
ATOM     74  O   UNL A   1      34.115  33.289  30.902  1.00  0.00    -0.744 OA
ENDBRANCH  67  71
ENDBRANCH  50  64
BRANCH  51  75
ATOM     75  C   UNL A   1      47.224  28.346  26.813  1.00  0.00     0.023 A 
ATOM     76  C   UNL A   1      47.312  28.243  25.415  1.00  0.00     0.031 A 
ATOM     77  C   UNL A   1      48.377  28.054  27.565  1.00  0.00     0.131 A 
ATOM     78  C   UNL A   1      48.506  27.811  24.817  1.00  0.00     0.055 A 
ATOM     79  C   UNL A   1      49.581  27.686  26.961  1.00  0.00     0.041 A 
ATOM     80  F   UNL A   1      48.351  28.126  28.905  1.00  0.00    -0.206 F 
ATOM     81  C   UNL A   1      49.647  27.548  25.578  1.00  0.00     0.022 A 
BRANCH  78  82
ATOM     82  S   UNL A   1      48.515  27.489  23.032  1.00  0.00     0.124 S 
ATOM     83  O   UNL A   1      49.756  28.138  22.622  1.00  0.00    -0.237 OA
ATOM     84  O   UNL A   1      48.506  26.031  22.986  1.00  0.00    -0.237 OA
ATOM     85  O   UNL A   1      47.289  28.133  22.564  1.00  0.00    -0.744 OA
ENDBRANCH  78  82
ENDBRANCH  51  75
BRANCH  63  86
ATOM     86  C   UNL A   1      44.615  34.269  29.470  1.00  0.00     0.023 A 
ATOM     87  C   UNL A   1      44.385  35.333  28.580  1.00  0.00     0.031 A 
ATOM     88  C   UNL A   1      45.380  34.524  30.623  1.00  0.00     0.131 A 
ATOM     89  C   UNL A   1      44.939  36.595  28.847  1.00  0.00     0.055 A 
ATOM     90  C   UNL A   1      45.878  35.795  30.912  1.00  0.00     0.041 A 
ATOM     91  F   UNL A   1      45.633  33.543  31.505  1.00  0.00    -0.206 F 
ATOM     92  C   UNL A   1      45.664  36.838  30.018  1.00  0.00     0.022 A 
BRANCH  89  93
ATOM     93  S   UNL A   1      44.751  37.914  27.615  1.00  0.00     0.124 S 
ATOM     94  O   UNL A   1      43.596  37.452  26.852  1.00  0.00    -0.237 OA
ATOM     95  O   UNL A   1      44.535  39.093  28.448  1.00  0.00    -0.237 OA
ATOM     96  O   UNL A   1      46.021  37.892  26.891  1.00  0.00    -0.744 OA
ENDBRANCH  89  93
ENDBRANCH  63  86
ENDBRANCH  37  38
ENDBRANCH  30  32
ENDBRANCH  29  30
ENDBRANCH  28  29
ENDBRANCH  27  28
ENDBRANCH  26  27
ENDBRANCH  25  26
ENDBRANCH  24  25
ENDBRANCH   1  24
TORSDOF 26
ENDMDL
MODEL 3
REMARK VINA RESULT:      -8.7      2.711      8.923
REMARK SMILES C[C@H]([NH2+]C1C(C)(C)C1(C)C)[C@H](C)C(=O)OCCOCCOCCOCCOC(=O)c1ccc(-c2c3nc(c(-c4cc(S(=O)(=O)[O-])ccc4F)c4ccc([nH]4)c(-c4cc(S(=O)(=O)[O-])ccc4F)c4nc(c(-c5cc(S(=O)(=O)[O-])ccc5F)c5ccc2[nH]5)C=C4)C=C3)cc1
REMARK SMILES IDX 21 1 20 2 19 3 18 4 17 5 16 6 15 7 13 8 14 9 11 10 12 11
REMARK SMILES IDX 2 12 1 13 3 14 4 17 5 18 8 19 6 20 7 21 9 22 10 23 22 24
REMARK SMILES IDX 23 25 24 26 25 27 26 28 27 29 28 30 29 31 30 32 31 33 92 34
REMARK SMILES IDX 32 35 91 36 33 37 34 38 35 39 85 40 36 41 90 42 84 43 86 44
REMARK SMILES IDX 37 45 89 46 83 47 82 48 38 50 70 51 50 52 69 53 51 54 54 55
REMARK SMILES IDX 68 56 87 57 52 58 53 59 67 61 88 62 55 63 39 64 40 65 48 66
REMARK SMILES IDX 41 67 47 68 49 69 46 70 42 71 43 72 44 73 45 74 71 75 72 76
REMARK SMILES IDX 80 77 73 78 79 79 81 80 78 81 74 82 75 83 76 84 77 85 56 86
REMARK SMILES IDX 57 87 65 88 58 89 64 90 66 91 63 92 59 93 60 94 61 95 62 96
REMARK H PARENT 3 15 3 16 86 49 54 60
REMARK Flexibility Score: inf
ROOT
ATOM      1  O   UNL A   1      34.017  30.579  27.218  1.00  0.00    -0.377 OA
ENDROOT
BRANCH   1   2
ATOM      2  C   UNL A   1      32.672  30.934  27.002  1.00  0.00     0.188 C 
BRANCH   2   3
ATOM      3  C   UNL A   1      31.832  29.881  26.270  1.00  0.00     0.188 C 
BRANCH   3   4
ATOM      4  O   UNL A   1      32.066  29.517  24.918  1.00  0.00    -0.376 OA
BRANCH   4   5
ATOM      5  C   UNL A   1      31.081  28.912  24.092  1.00  0.00     0.202 C 
BRANCH   5   6
ATOM      6  C   UNL A   1      30.645  27.447  24.246  1.00  0.00     0.261 C 
BRANCH   6   7
ATOM      7  O   UNL A   1      31.407  26.479  23.516  1.00  0.00    -0.463 OA
BRANCH   7   8
ATOM      8  C   UNL A   1      32.201  25.713  24.284  1.00  0.00     0.314 C 
ATOM      9  O   UNL A   1      32.838  26.128  25.251  1.00  0.00    -0.252 OA
BRANCH   8  10
ATOM     10  C   UNL A   1      32.288  24.261  23.864  1.00  0.00     0.154 C 
ATOM     11  C   UNL A   1      31.036  23.439  23.530  1.00  0.00     0.026 C 
BRANCH  10  12
ATOM     12  C   UNL A   1      33.417  24.212  22.815  1.00  0.00     0.193 C 
ATOM     13  C   UNL A   1      32.974  23.717  21.433  1.00  0.00     0.076 C 
BRANCH  12  14
ATOM     14  N   UNL A   1      34.467  23.475  23.511  1.00  0.00    -0.340 N 
ATOM     15  H   UNL A   1      35.002  24.159  24.046  1.00  0.00     0.346 HD
ATOM     16  H   UNL A   1      34.957  22.989  22.759  1.00  0.00     0.346 HD
BRANCH  14  17
ATOM     17  C   UNL A   1      34.112  22.421  24.417  1.00  0.00     0.195 C 
ATOM     18  C   UNL A   1      35.211  21.499  24.913  1.00  0.00     0.028 C 
ATOM     19  C   UNL A   1      34.513  22.476  25.876  1.00  0.00     0.028 C 
ATOM     20  C   UNL A   1      34.911  20.026  24.989  1.00  0.00     0.018 C 
ATOM     21  C   UNL A   1      36.648  21.769  24.487  1.00  0.00     0.018 C 
ATOM     22  C   UNL A   1      35.354  23.602  26.446  1.00  0.00     0.018 C 
ATOM     23  C   UNL A   1      33.434  22.027  26.834  1.00  0.00     0.018 C 
ENDBRANCH  14  17
ENDBRANCH  12  14
ENDBRANCH  10  12
ENDBRANCH   8  10
ENDBRANCH   7   8
ENDBRANCH   6   7
ENDBRANCH   5   6
ENDBRANCH   4   5
ENDBRANCH   3   4
ENDBRANCH   2   3
ENDBRANCH   1   2
BRANCH   1  24
ATOM     24  C   UNL A   1      34.869  31.566  27.784  1.00  0.00     0.188 C 
BRANCH  24  25
ATOM     25  C   UNL A   1      34.426  32.229  29.106  1.00  0.00     0.188 C 
BRANCH  25  26
ATOM     26  O   UNL A   1      34.681  33.625  29.166  1.00  0.00    -0.376 OA
BRANCH  26  27
ATOM     27  C   UNL A   1      33.977  34.407  30.120  1.00  0.00     0.202 C 
BRANCH  27  28
ATOM     28  C   UNL A   1      34.470  34.416  31.578  1.00  0.00     0.261 C 
BRANCH  28  29
ATOM     29  O   UNL A   1      35.830  34.031  31.822  1.00  0.00    -0.460 OA
BRANCH  29  30
ATOM     30  C   UNL A   1      36.080  32.789  32.299  1.00  0.00     0.338 C 
ATOM     31  O   UNL A   1      35.319  32.079  32.914  1.00  0.00    -0.246 OA
BRANCH  30  32
ATOM     32  C   UNL A   1      37.394  32.371  31.749  1.00  0.00     0.060 A 
ATOM     33  C   UNL A   1      37.719  32.687  30.422  1.00  0.00     0.016 A 
ATOM     34  C   UNL A   1      38.306  31.688  32.555  1.00  0.00     0.016 A 
ATOM     35  C   UNL A   1      38.949  32.292  29.888  1.00  0.00     0.010 A 
ATOM     36  C   UNL A   1      39.522  31.268  32.012  1.00  0.00     0.010 A 
ATOM     37  C   UNL A   1      39.836  31.539  30.667  1.00  0.00    -0.014 A 
BRANCH  37  38
ATOM     38  C   UNL A   1      40.971  30.816  30.042  1.00  0.00     0.031 A 
ATOM     39  C   UNL A   1      42.243  31.586  29.817  1.00  0.00     0.074 A 
ATOM     40  C   UNL A   1      40.874  29.534  29.645  1.00  0.00     0.049 A 
ATOM     41  N   UNL A   1      43.302  31.265  29.122  1.00  0.00    -0.248 NA
ATOM     42  C   UNL A   1      42.318  32.909  30.457  1.00  0.00     0.031 C 
ATOM     43  C   UNL A   1      39.726  28.661  29.875  1.00  0.00     0.029 A 
ATOM     44  N   UNL A   1      41.757  28.753  28.940  1.00  0.00    -0.354 N 
ATOM     45  C   UNL A   1      44.161  32.354  29.224  1.00  0.00     0.074 A 
ATOM     46  C   UNL A   1      43.485  33.353  30.023  1.00  0.00     0.031 C 
ATOM     47  C   UNL A   1      39.964  27.470  29.297  1.00  0.00     0.029 A 
ATOM     48  C   UNL A   1      41.253  27.516  28.607  1.00  0.00     0.049 A 
ATOM     49  H   UNL A   1      42.663  29.049  28.697  1.00  0.00     0.167 HD
ATOM     50  C   UNL A   1      45.399  32.506  28.695  1.00  0.00     0.034 A 
ATOM     51  C   UNL A   1      41.755  26.558  27.798  1.00  0.00     0.034 A 
ATOM     52  C   UNL A   1      46.046  31.506  27.884  1.00  0.00     0.049 A 
ATOM     53  C   UNL A   1      43.087  26.794  27.116  1.00  0.00     0.074 A 
ATOM     54  C   UNL A   1      47.297  31.553  27.296  1.00  0.00     0.029 A 
ATOM     55  N   UNL A   1      45.487  30.283  27.537  1.00  0.00    -0.354 N 
ATOM     56  N   UNL A   1      43.884  27.836  27.196  1.00  0.00    -0.248 NA
ATOM     57  C   UNL A   1      43.586  25.728  26.234  1.00  0.00     0.031 C 
ATOM     58  C   UNL A   1      47.458  30.398  26.524  1.00  0.00     0.029 A 
ATOM     59  C   UNL A   1      46.354  29.583  26.713  1.00  0.00     0.049 A 
ATOM     60  H   UNL A   1      44.605  29.960  27.832  1.00  0.00     0.167 HD
ATOM     61  C   UNL A   1      44.998  27.526  26.415  1.00  0.00     0.074 A 
ATOM     62  C   UNL A   1      44.768  26.207  25.868  1.00  0.00     0.031 C 
ATOM     63  C   UNL A   1      46.116  28.261  26.185  1.00  0.00     0.034 A 
BRANCH  50  64
ATOM     64  C   UNL A   1      46.096  33.823  28.926  1.00  0.00     0.023 A 
ATOM     65  C   UNL A   1      46.085  34.847  27.964  1.00  0.00     0.031 A 
ATOM     66  C   UNL A   1      46.813  34.047  30.116  1.00  0.00     0.131 A 
ATOM     67  C   UNL A   1      46.837  36.012  28.173  1.00  0.00     0.055 A 
ATOM     68  C   UNL A   1      47.486  35.245  30.356  1.00  0.00     0.041 A 
ATOM     69  F   UNL A   1      46.886  33.094  31.058  1.00  0.00    -0.206 F 
ATOM     70  C   UNL A   1      47.513  36.231  29.375  1.00  0.00     0.022 A 
BRANCH  67  71
ATOM     71  S   UNL A   1      47.046  37.167  26.789  1.00  0.00     0.124 S 
ATOM     72  O   UNL A   1      46.962  36.268  25.641  1.00  0.00    -0.237 OA
ATOM     73  O   UNL A   1      45.924  38.080  26.969  1.00  0.00    -0.237 OA
ATOM     74  O   UNL A   1      48.368  37.746  27.023  1.00  0.00    -0.744 OA
ENDBRANCH  67  71
ENDBRANCH  50  64
BRANCH  51  75
ATOM     75  C   UNL A   1      40.985  25.307  27.532  1.00  0.00     0.023 A 
ATOM     76  C   UNL A   1      41.579  24.044  27.685  1.00  0.00     0.031 A 
ATOM     77  C   UNL A   1      39.663  25.356  27.051  1.00  0.00     0.131 A 
ATOM     78  C   UNL A   1      40.874  22.888  27.314  1.00  0.00     0.055 A 
ATOM     79  C   UNL A   1      38.943  24.199  26.744  1.00  0.00     0.041 A 
ATOM     80  F   UNL A   1      39.046  26.535  26.875  1.00  0.00    -0.206 F 
ATOM     81  C   UNL A   1      39.555  22.954  26.861  1.00  0.00     0.022 A 
BRANCH  78  82
ATOM     82  S   UNL A   1      41.747  21.298  27.327  1.00  0.00     0.124 S 
ATOM     83  O   UNL A   1      42.853  21.577  28.238  1.00  0.00    -0.237 OA
ATOM     84  O   UNL A   1      40.718  20.390  27.825  1.00  0.00    -0.237 OA
ATOM     85  O   UNL A   1      42.124  21.104  25.929  1.00  0.00    -0.744 OA
ENDBRANCH  78  82
ENDBRANCH  51  75
BRANCH  63  86
ATOM     86  C   UNL A   1      47.224  27.627  25.377  1.00  0.00     0.023 A 
ATOM     87  C   UNL A   1      47.429  27.921  24.018  1.00  0.00     0.031 A 
ATOM     88  C   UNL A   1      48.123  26.746  26.007  1.00  0.00     0.131 A 
ATOM     89  C   UNL A   1      48.492  27.317  23.328  1.00  0.00     0.055 A 
ATOM     90  C   UNL A   1      49.212  26.196  25.331  1.00  0.00     0.041 A 
ATOM     91  F   UNL A   1      47.971  26.428  27.302  1.00  0.00    -0.206 F 
ATOM     92  C   UNL A   1      49.397  26.475  23.981  1.00  0.00     0.022 A 
BRANCH  89  93
ATOM     93  S   UNL A   1      48.652  27.598  21.543  1.00  0.00     0.124 S 
ATOM     94  O   UNL A   1      47.267  27.836  21.148  1.00  0.00    -0.237 OA
ATOM     95  O   UNL A   1      49.539  28.756  21.486  1.00  0.00    -0.237 OA
ATOM     96  O   UNL A   1      49.232  26.351  21.048  1.00  0.00    -0.744 OA
ENDBRANCH  89  93
ENDBRANCH  63  86
ENDBRANCH  37  38
ENDBRANCH  30  32
ENDBRANCH  29  30
ENDBRANCH  28  29
ENDBRANCH  27  28
ENDBRANCH  26  27
ENDBRANCH  25  26
ENDBRANCH  24  25
ENDBRANCH   1  24
TORSDOF 26
ENDMDL
