MODEL 1
REMARK VINA RESULT:      -8.7      0.000      0.000
REMARK SMILES NS(=O)(=O)c1ccc(-c2coc(=O)n2-c2ccc(C(=O)OCCOCCOCCOCCOC(=O)c3ccc(-c4c5nc(c(-c6cc(S(=O)(=O)[O-])ccc6F)c6ccc([nH]6)c(-c6cc(S(=O)(=O)[O-])ccc6F)c6nc(c(-c7cc(S(=O)(=O)[O-])ccc7F)c7ccc4[nH]7)C=C6)C=C5)cc3)cc2)cc1
REMARK SMILES IDX 26 1 25 2 24 3 23 4 22 5 21 6 19 7 20 8 18 9 15 10 16 11
REMARK SMILES IDX 100 12 17 13 99 14 14 15 9 16 10 17 11 18 12 19 13 20 8 21
REMARK SMILES IDX 5 22 6 23 102 24 7 25 101 26 2 27 3 28 4 29 1 30 27 33 28 34
REMARK SMILES IDX 29 35 30 36 31 37 32 38 33 39 34 40 35 41 36 42 37 43 98 44
REMARK SMILES IDX 38 45 97 46 39 47 40 48 41 49 91 50 42 51 96 52 90 53 92 54
REMARK SMILES IDX 43 55 95 56 89 57 88 58 44 60 76 61 56 62 75 63 57 64 60 65
REMARK SMILES IDX 74 66 93 67 58 68 59 69 73 71 94 72 61 73 45 74 46 75 54 76
REMARK SMILES IDX 47 77 53 78 55 79 52 80 48 81 49 82 50 83 51 84 77 85 78 86
REMARK SMILES IDX 86 87 79 88 85 89 87 90 84 91 80 92 81 93 82 94 83 95 62 96
REMARK SMILES IDX 63 97 71 98 64 99 70 100 72 101 69 102 65 103 66 104 67 105
REMARK SMILES IDX 68 106
REMARK H PARENT 1 31 1 32 92 59 60 70
REMARK Flexibility Score: inf
ROOT
ATOM      1  C   UNL A   1      40.483  26.536  27.856  1.00  0.00     0.188 C 
ENDROOT
BRANCH   1   2
ATOM      2  C   UNL A   1      41.977  26.137  27.860  1.00  0.00     0.188 C 
BRANCH   2   3
ATOM      3  O   UNL A   1      42.505  25.152  26.982  1.00  0.00    -0.376 OA
BRANCH   3   4
ATOM      4  C   UNL A   1      42.168  23.780  27.081  1.00  0.00     0.202 C 
BRANCH   4   5
ATOM      5  C   UNL A   1      40.770  23.284  27.485  1.00  0.00     0.261 C 
BRANCH   5   6
ATOM      6  O   UNL A   1      39.760  23.316  26.478  1.00  0.00    -0.460 OA
BRANCH   6   7
ATOM      7  C   UNL A   1      39.379  22.115  26.000  1.00  0.00     0.338 C 
ATOM      8  O   UNL A   1      40.038  21.091  25.941  1.00  0.00    -0.246 OA
BRANCH   7   9
ATOM      9  C   UNL A   1      37.935  22.181  25.691  1.00  0.00     0.060 A 
ATOM     10  C   UNL A   1      35.182  22.248  25.284  1.00  0.00     0.053 A 
ATOM     11  C   UNL A   1      35.759  23.115  26.214  1.00  0.00     0.028 A 
ATOM     12  C   UNL A   1      36.001  21.443  24.473  1.00  0.00     0.028 A 
ATOM     13  C   UNL A   1      37.131  23.046  26.447  1.00  0.00     0.018 A 
ATOM     14  C   UNL A   1      37.382  21.423  24.659  1.00  0.00     0.018 A 
BRANCH  10  15
ATOM     15  N   UNL A   1      33.791  22.025  25.312  1.00  0.00    -0.242 N 
ATOM     16  C   UNL A   1      32.810  22.956  25.102  1.00  0.00     0.095 A 
ATOM     17  C   UNL A   1      31.659  22.298  25.167  1.00  0.00     0.228 A 
ATOM     18  O   UNL A   1      31.794  20.930  25.401  1.00  0.00    -0.415 OA
ATOM     19  C   UNL A   1      33.183  20.780  25.441  1.00  0.00     0.424 A 
ATOM     20  O   UNL A   1      33.722  19.690  25.577  1.00  0.00    -0.223 OA
BRANCH  16  21
ATOM     21  C   UNL A   1      33.036  24.336  24.668  1.00  0.00     0.002 A 
ATOM     22  C   UNL A   1      33.261  27.012  23.867  1.00  0.00     0.082 A 
ATOM     23  C   UNL A   1      33.048  26.717  25.211  1.00  0.00     0.022 A 
ATOM     24  C   UNL A   1      33.397  25.983  22.926  1.00  0.00     0.022 A 
ATOM     25  C   UNL A   1      32.948  25.382  25.607  1.00  0.00     0.012 A 
ATOM     26  C   UNL A   1      33.283  24.647  23.327  1.00  0.00     0.012 A 
BRANCH  22  27
ATOM     27  S   UNL A   1      33.350  28.683  23.297  1.00  0.00     0.238 S 
ATOM     28  O   UNL A   1      32.043  29.065  22.810  1.00  0.00    -0.207 OA
ATOM     29  O   UNL A   1      34.552  28.833  22.516  1.00  0.00    -0.207 OA
BRANCH  27  30
ATOM     30  N   UNL A   1      33.601  29.602  24.682  1.00  0.00    -0.225 NA
ATOM     31  H   UNL A   1      32.950  29.305  25.410  1.00  0.00     0.137 HD
ATOM     32  H   UNL A   1      33.445  30.587  24.470  1.00  0.00     0.137 HD
ENDBRANCH  27  30
ENDBRANCH  22  27
ENDBRANCH  16  21
ENDBRANCH  10  15
ENDBRANCH   7   9
ENDBRANCH   6   7
ENDBRANCH   5   6
ENDBRANCH   4   5
ENDBRANCH   3   4
ENDBRANCH   2   3
ENDBRANCH   1   2
BRANCH   1  33
ATOM     33  O   UNL A   1      40.147  27.517  28.823  1.00  0.00    -0.377 OA
BRANCH  33  34
ATOM     34  C   UNL A   1      38.814  28.021  28.751  1.00  0.00     0.188 C 
BRANCH  34  35
ATOM     35  C   UNL A   1      38.549  29.268  27.869  1.00  0.00     0.188 C 
BRANCH  35  36
ATOM     36  O   UNL A   1      37.415  30.035  28.261  1.00  0.00    -0.376 OA
BRANCH  36  37
ATOM     37  C   UNL A   1      36.176  29.915  27.586  1.00  0.00     0.202 C 
BRANCH  37  38
ATOM     38  C   UNL A   1      35.133  30.984  27.892  1.00  0.00     0.261 C 
BRANCH  38  39
ATOM     39  O   UNL A   1      35.673  32.141  28.499  1.00  0.00    -0.460 OA
BRANCH  39  40
ATOM     40  C   UNL A   1      34.977  32.600  29.557  1.00  0.00     0.338 C 
ATOM     41  O   UNL A   1      33.784  32.839  29.607  1.00  0.00    -0.246 OA
BRANCH  40  42
ATOM     42  C   UNL A   1      35.934  32.895  30.623  1.00  0.00     0.060 A 
ATOM     43  C   UNL A   1      37.003  33.708  30.259  1.00  0.00     0.016 A 
ATOM     44  C   UNL A   1      35.962  32.056  31.751  1.00  0.00     0.016 A 
ATOM     45  C   UNL A   1      38.214  33.442  30.842  1.00  0.00     0.010 A 
ATOM     46  C   UNL A   1      37.177  31.776  32.313  1.00  0.00     0.010 A 
ATOM     47  C   UNL A   1      38.294  32.397  31.771  1.00  0.00    -0.014 A 
BRANCH  47  48
ATOM     48  C   UNL A   1      39.603  32.031  32.243  1.00  0.00     0.031 A 
ATOM     49  C   UNL A   1      40.318  33.184  32.801  1.00  0.00     0.074 A 
ATOM     50  C   UNL A   1      40.090  30.781  32.198  1.00  0.00     0.049 A 
ATOM     51  N   UNL A   1      41.208  33.896  32.201  1.00  0.00    -0.248 NA
ATOM     52  C   UNL A   1      39.807  33.770  34.048  1.00  0.00     0.031 C 
ATOM     53  C   UNL A   1      39.396  29.527  31.902  1.00  0.00     0.029 A 
ATOM     54  N   UNL A   1      41.348  30.375  32.498  1.00  0.00    -0.354 N 
ATOM     55  C   UNL A   1      41.563  34.874  33.114  1.00  0.00     0.074 A 
ATOM     56  C   UNL A   1      40.508  34.904  34.089  1.00  0.00     0.031 C 
ATOM     57  C   UNL A   1      40.194  28.489  32.252  1.00  0.00     0.029 A 
ATOM     58  C   UNL A   1      41.492  29.005  32.663  1.00  0.00     0.049 A 
ATOM     59  H   UNL A   1      42.100  31.003  32.592  1.00  0.00     0.167 HD
ATOM     60  C   UNL A   1      42.830  35.364  33.138  1.00  0.00     0.034 A 
ATOM     61  C   UNL A   1      42.585  28.373  33.169  1.00  0.00     0.034 A 
ATOM     62  C   UNL A   1      43.528  35.047  31.907  1.00  0.00     0.049 A 
ATOM     63  C   UNL A   1      43.740  29.291  32.970  1.00  0.00     0.074 A 
ATOM     64  C   UNL A   1      43.291  35.316  30.570  1.00  0.00     0.029 A 
ATOM     65  N   UNL A   1      44.422  33.996  31.918  1.00  0.00    -0.354 N 
ATOM     66  N   UNL A   1      44.195  29.617  31.790  1.00  0.00    -0.248 NA
ATOM     67  C   UNL A   1      44.061  30.238  34.030  1.00  0.00     0.031 C 
ATOM     68  C   UNL A   1      43.657  34.122  29.881  1.00  0.00     0.029 A 
ATOM     69  C   UNL A   1      44.172  33.219  30.812  1.00  0.00     0.049 A 
ATOM     70  H   UNL A   1      45.117  33.833  32.597  1.00  0.00     0.167 HD
ATOM     71  C   UNL A   1      44.460  30.977  31.864  1.00  0.00     0.074 A 
ATOM     72  C   UNL A   1      44.453  31.283  33.293  1.00  0.00     0.031 C 
ATOM     73  C   UNL A   1      44.374  31.779  30.759  1.00  0.00     0.034 A 
BRANCH  60  74
ATOM     74  C   UNL A   1      43.548  35.768  34.403  1.00  0.00     0.023 A 
ATOM     75  C   UNL A   1      44.143  34.735  35.145  1.00  0.00     0.031 A 
ATOM     76  C   UNL A   1      43.451  37.018  35.061  1.00  0.00     0.131 A 
ATOM     77  C   UNL A   1      44.496  34.925  36.490  1.00  0.00     0.055 A 
ATOM     78  C   UNL A   1      43.869  37.220  36.377  1.00  0.00     0.041 A 
ATOM     79  F   UNL A   1      42.869  38.092  34.518  1.00  0.00    -0.206 F 
ATOM     80  C   UNL A   1      44.362  36.162  37.114  1.00  0.00     0.022 A 
BRANCH  77  81
ATOM     81  S   UNL A   1      44.960  33.471  37.459  1.00  0.00     0.124 S 
ATOM     82  O   UNL A   1      43.740  32.673  37.386  1.00  0.00    -0.237 OA
ATOM     83  O   UNL A   1      46.106  32.967  36.710  1.00  0.00    -0.237 OA
ATOM     84  O   UNL A   1      45.268  34.026  38.774  1.00  0.00    -0.744 OA
ENDBRANCH  77  81
ENDBRANCH  60  74
BRANCH  61  85
ATOM     85  C   UNL A   1      42.589  27.227  34.121  1.00  0.00     0.023 A 
ATOM     86  C   UNL A   1      43.382  26.075  33.931  1.00  0.00     0.031 A 
ATOM     87  C   UNL A   1      41.974  27.367  35.387  1.00  0.00     0.131 A 
ATOM     88  C   UNL A   1      43.531  25.130  34.976  1.00  0.00     0.055 A 
ATOM     89  C   UNL A   1      42.122  26.431  36.413  1.00  0.00     0.041 A 
ATOM     90  F   UNL A   1      41.276  28.469  35.705  1.00  0.00    -0.206 F 
ATOM     91  C   UNL A   1      42.911  25.311  36.214  1.00  0.00     0.022 A 
BRANCH  88  92
ATOM     92  S   UNL A   1      44.619  23.682  34.769  1.00  0.00     0.124 S 
ATOM     93  O   UNL A   1      45.944  24.290  34.750  1.00  0.00    -0.237 OA
ATOM     94  O   UNL A   1      44.292  22.874  35.938  1.00  0.00    -0.237 OA
ATOM     95  O   UNL A   1      44.188  23.110  33.492  1.00  0.00    -0.744 OA
ENDBRANCH  88  92
ENDBRANCH  61  85
BRANCH  73  96
ATOM     96  C   UNL A   1      44.281  31.121  29.393  1.00  0.00     0.023 A 
ATOM     97  C   UNL A   1      45.383  30.657  28.636  1.00  0.00     0.031 A 
ATOM     98  C   UNL A   1      42.993  30.853  28.895  1.00  0.00     0.131 A 
ATOM     99  C   UNL A   1      45.167  29.964  27.427  1.00  0.00     0.055 A 
ATOM    100  C   UNL A   1      42.784  30.147  27.710  1.00  0.00     0.041 A 
ATOM    101  F   UNL A   1      41.905  31.245  29.576  1.00  0.00    -0.206 F 
ATOM    102  C   UNL A   1      43.872  29.705  26.968  1.00  0.00     0.022 A 
BRANCH  99 103
ATOM    103  S   UNL A   1      46.572  29.399  26.410  1.00  0.00     0.124 S 
ATOM    104  O   UNL A   1      46.358  27.960  26.301  1.00  0.00    -0.237 OA
ATOM    105  O   UNL A   1      46.400  30.166  25.180  1.00  0.00    -0.237 OA
ATOM    106  O   UNL A   1      47.741  29.780  27.205  1.00  0.00    -0.744 OA
ENDBRANCH  99 103
ENDBRANCH  73  96
ENDBRANCH  47  48
ENDBRANCH  40  42
ENDBRANCH  39  40
ENDBRANCH  38  39
ENDBRANCH  37  38
ENDBRANCH  36  37
ENDBRANCH  35  36
ENDBRANCH  34  35
ENDBRANCH  33  34
ENDBRANCH   1  33
TORSDOF 27
ENDMDL
MODEL 2
REMARK VINA RESULT:      -8.5      4.113      8.877
REMARK SMILES NS(=O)(=O)c1ccc(-c2coc(=O)n2-c2ccc(C(=O)OCCOCCOCCOCCOC(=O)c3ccc(-c4c5nc(c(-c6cc(S(=O)(=O)[O-])ccc6F)c6ccc([nH]6)c(-c6cc(S(=O)(=O)[O-])ccc6F)c6nc(c(-c7cc(S(=O)(=O)[O-])ccc7F)c7ccc4[nH]7)C=C6)C=C5)cc3)cc2)cc1
REMARK SMILES IDX 26 1 25 2 24 3 23 4 22 5 21 6 19 7 20 8 18 9 15 10 16 11
REMARK SMILES IDX 100 12 17 13 99 14 14 15 9 16 10 17 11 18 12 19 13 20 8 21
REMARK SMILES IDX 5 22 6 23 102 24 7 25 101 26 2 27 3 28 4 29 1 30 27 33 28 34
REMARK SMILES IDX 29 35 30 36 31 37 32 38 33 39 34 40 35 41 36 42 37 43 98 44
REMARK SMILES IDX 38 45 97 46 39 47 40 48 41 49 91 50 42 51 96 52 90 53 92 54
REMARK SMILES IDX 43 55 95 56 89 57 88 58 44 60 76 61 56 62 75 63 57 64 60 65
REMARK SMILES IDX 74 66 93 67 58 68 59 69 73 71 94 72 61 73 45 74 46 75 54 76
REMARK SMILES IDX 47 77 53 78 55 79 52 80 48 81 49 82 50 83 51 84 77 85 78 86
REMARK SMILES IDX 86 87 79 88 85 89 87 90 84 91 80 92 81 93 82 94 83 95 62 96
REMARK SMILES IDX 63 97 71 98 64 99 70 100 72 101 69 102 65 103 66 104 67 105
REMARK SMILES IDX 68 106
REMARK H PARENT 1 31 1 32 92 59 60 70
REMARK Flexibility Score: inf
ROOT
ATOM      1  C   UNL A   1      46.281  31.445  27.796  1.00  0.00     0.188 C 
ENDROOT
BRANCH   1   2
ATOM      2  C   UNL A   1      45.144  30.941  26.877  1.00  0.00     0.188 C 
BRANCH   2   3
ATOM      3  O   UNL A   1      45.289  29.802  26.039  1.00  0.00    -0.376 OA
BRANCH   3   4
ATOM      4  C   UNL A   1      46.394  28.921  26.131  1.00  0.00     0.202 C 
BRANCH   4   5
ATOM      5  C   UNL A   1      46.697  27.839  25.081  1.00  0.00     0.261 C 
BRANCH   5   6
ATOM      6  O   UNL A   1      45.909  26.653  25.134  1.00  0.00    -0.460 OA
BRANCH   6   7
ATOM      7  C   UNL A   1      46.588  25.515  25.389  1.00  0.00     0.338 C 
ATOM      8  O   UNL A   1      47.790  25.381  25.538  1.00  0.00    -0.246 OA
BRANCH   7   9
ATOM      9  C   UNL A   1      45.605  24.438  25.630  1.00  0.00     0.060 A 
ATOM     10  C   UNL A   1      43.618  22.532  26.042  1.00  0.00     0.053 A 
ATOM     11  C   UNL A   1      43.805  23.063  24.764  1.00  0.00     0.028 A 
ATOM     12  C   UNL A   1      44.509  22.866  27.076  1.00  0.00     0.028 A 
ATOM     13  C   UNL A   1      44.770  24.049  24.572  1.00  0.00     0.018 A 
ATOM     14  C   UNL A   1      45.518  23.803  26.869  1.00  0.00     0.018 A 
BRANCH  10  15
ATOM     15  N   UNL A   1      42.424  21.845  26.341  1.00  0.00    -0.242 N 
ATOM     16  C   UNL A   1      41.314  22.364  26.950  1.00  0.00     0.095 A 
ATOM     17  C   UNL A   1      40.420  21.385  26.979  1.00  0.00     0.228 A 
ATOM     18  O   UNL A   1      40.854  20.195  26.398  1.00  0.00    -0.415 OA
ATOM     19  C   UNL A   1      42.133  20.541  25.953  1.00  0.00     0.424 A 
ATOM     20  O   UNL A   1      42.843  19.767  25.326  1.00  0.00    -0.223 OA
BRANCH  16  21
ATOM     21  C   UNL A   1      41.114  23.778  27.277  1.00  0.00     0.002 A 
ATOM     22  C   UNL A   1      40.882  26.529  27.759  1.00  0.00     0.082 A 
ATOM     23  C   UNL A   1      40.395  26.000  26.565  1.00  0.00     0.022 A 
ATOM     24  C   UNL A   1      41.452  25.691  28.726  1.00  0.00     0.022 A 
ATOM     25  C   UNL A   1      40.502  24.628  26.335  1.00  0.00     0.012 A 
ATOM     26  C   UNL A   1      41.568  24.318  28.484  1.00  0.00     0.012 A 
BRANCH  22  27
ATOM     27  S   UNL A   1      40.817  28.264  28.088  1.00  0.00     0.238 S 
ATOM     28  O   UNL A   1      40.148  28.459  29.356  1.00  0.00    -0.207 OA
ATOM     29  O   UNL A   1      40.419  28.941  26.880  1.00  0.00    -0.207 OA
BRANCH  27  30
ATOM     30  N   UNL A   1      42.414  28.718  28.348  1.00  0.00    -0.225 NA
ATOM     31  H   UNL A   1      42.872  28.878  27.451  1.00  0.00     0.137 HD
ATOM     32  H   UNL A   1      42.902  27.977  28.851  1.00  0.00     0.137 HD
ENDBRANCH  27  30
ENDBRANCH  22  27
ENDBRANCH  16  21
ENDBRANCH  10  15
ENDBRANCH   7   9
ENDBRANCH   6   7
ENDBRANCH   5   6
ENDBRANCH   4   5
ENDBRANCH   3   4
ENDBRANCH   2   3
ENDBRANCH   1   2
BRANCH   1  33
ATOM     33  O   UNL A   1      46.860  32.670  27.376  1.00  0.00    -0.377 OA
BRANCH  33  34
ATOM     34  C   UNL A   1      47.096  33.624  28.410  1.00  0.00     0.188 C 
BRANCH  34  35
ATOM     35  C   UNL A   1      46.760  35.111  28.125  1.00  0.00     0.188 C 
BRANCH  35  36
ATOM     36  O   UNL A   1      45.403  35.349  27.768  1.00  0.00    -0.376 OA
BRANCH  36  37
ATOM     37  C   UNL A   1      44.539  36.089  28.612  1.00  0.00     0.202 C 
BRANCH  37  38
ATOM     38  C   UNL A   1      45.033  37.466  29.043  1.00  0.00     0.261 C 
BRANCH  38  39
ATOM     39  O   UNL A   1      44.692  37.796  30.375  1.00  0.00    -0.460 OA
BRANCH  39  40
ATOM     40  C   UNL A   1      45.659  37.557  31.281  1.00  0.00     0.338 C 
ATOM     41  O   UNL A   1      46.786  38.021  31.295  1.00  0.00    -0.246 OA
BRANCH  40  42
ATOM     42  C   UNL A   1      45.169  36.525  32.192  1.00  0.00     0.060 A 
ATOM     43  C   UNL A   1      45.659  35.242  31.963  1.00  0.00     0.016 A 
ATOM     44  C   UNL A   1      43.989  36.773  32.915  1.00  0.00     0.016 A 
ATOM     45  C   UNL A   1      44.800  34.198  32.185  1.00  0.00     0.010 A 
ATOM     46  C   UNL A   1      43.125  35.731  33.112  1.00  0.00     0.010 A 
ATOM     47  C   UNL A   1      43.507  34.482  32.642  1.00  0.00    -0.014 A 
BRANCH  47  48
ATOM     48  C   UNL A   1      42.575  33.388  32.708  1.00  0.00     0.031 A 
ATOM     49  C   UNL A   1      41.463  33.569  31.767  1.00  0.00     0.074 A 
ATOM     50  C   UNL A   1      42.726  32.325  33.513  1.00  0.00     0.049 A 
ATOM     51  N   UNL A   1      40.289  34.018  32.047  1.00  0.00    -0.248 NA
ATOM     52  C   UNL A   1      41.762  33.498  30.330  1.00  0.00     0.031 C 
ATOM     53  C   UNL A   1      43.892  31.917  34.298  1.00  0.00     0.029 A 
ATOM     54  N   UNL A   1      41.840  31.323  33.731  1.00  0.00    -0.354 N 
ATOM     55  C   UNL A   1      39.611  34.033  30.840  1.00  0.00     0.074 A 
ATOM     56  C   UNL A   1      40.622  33.964  29.821  1.00  0.00     0.031 C 
ATOM     57  C   UNL A   1      43.710  30.644  34.726  1.00  0.00     0.029 A 
ATOM     58  C   UNL A   1      42.369  30.208  34.363  1.00  0.00     0.049 A 
ATOM     59  H   UNL A   1      40.895  31.382  33.461  1.00  0.00     0.167 HD
ATOM     60  C   UNL A   1      38.272  33.810  30.802  1.00  0.00     0.034 A 
ATOM     61  C   UNL A   1      41.755  29.002  34.502  1.00  0.00     0.034 A 
ATOM     62  C   UNL A   1      37.684  33.979  32.117  1.00  0.00     0.049 A 
ATOM     63  C   UNL A   1      40.291  29.253  34.393  1.00  0.00     0.074 A 
ATOM     64  C   UNL A   1      37.633  35.026  33.021  1.00  0.00     0.029 A 
ATOM     65  N   UNL A   1      37.390  32.847  32.849  1.00  0.00    -0.354 N 
ATOM     66  N   UNL A   1      39.622  29.950  35.272  1.00  0.00    -0.248 NA
ATOM     67  C   UNL A   1      39.673  29.178  33.076  1.00  0.00     0.031 C 
ATOM     68  C   UNL A   1      37.801  34.419  34.301  1.00  0.00     0.029 A 
ATOM     69  C   UNL A   1      37.863  33.035  34.126  1.00  0.00     0.049 A 
ATOM     70  H   UNL A   1      36.923  32.046  32.515  1.00  0.00     0.167 HD
ATOM     71  C   UNL A   1      38.761  30.746  34.530  1.00  0.00     0.074 A 
ATOM     72  C   UNL A   1      38.767  30.156  33.192  1.00  0.00     0.031 C 
ATOM     73  C   UNL A   1      38.352  31.969  34.985  1.00  0.00     0.034 A 
BRANCH  60  74
ATOM     74  C   UNL A   1      37.577  33.066  29.687  1.00  0.00     0.023 A 
ATOM     75  C   UNL A   1      36.421  33.663  29.158  1.00  0.00     0.031 A 
ATOM     76  C   UNL A   1      37.799  31.719  29.311  1.00  0.00     0.131 A 
ATOM     77  C   UNL A   1      35.501  32.912  28.410  1.00  0.00     0.055 A 
ATOM     78  C   UNL A   1      36.914  30.997  28.508  1.00  0.00     0.041 A 
ATOM     79  F   UNL A   1      38.822  30.987  29.763  1.00  0.00    -0.206 F 
ATOM     80  C   UNL A   1      35.738  31.580  28.081  1.00  0.00     0.022 A 
BRANCH  77  81
ATOM     81  S   UNL A   1      33.899  33.662  28.035  1.00  0.00     0.124 S 
ATOM     82  O   UNL A   1      34.305  34.877  27.336  1.00  0.00    -0.237 OA
ATOM     83  O   UNL A   1      33.270  32.629  27.221  1.00  0.00    -0.237 OA
ATOM     84  O   UNL A   1      33.306  33.867  29.354  1.00  0.00    -0.744 OA
ENDBRANCH  77  81
ENDBRANCH  60  74
BRANCH  61  85
ATOM     85  C   UNL A   1      42.381  27.660  34.341  1.00  0.00     0.023 A 
ATOM     86  C   UNL A   1      43.510  27.434  33.525  1.00  0.00     0.031 A 
ATOM     87  C   UNL A   1      42.004  26.603  35.203  1.00  0.00     0.131 A 
ATOM     88  C   UNL A   1      44.205  26.202  33.593  1.00  0.00     0.055 A 
ATOM     89  C   UNL A   1      42.691  25.389  35.264  1.00  0.00     0.041 A 
ATOM     90  F   UNL A   1      41.002  26.747  36.085  1.00  0.00    -0.206 F 
ATOM     91  C   UNL A   1      43.803  25.187  34.465  1.00  0.00     0.022 A 
BRANCH  88  92
ATOM     92  S   UNL A   1      45.714  25.931  32.606  1.00  0.00     0.124 S 
ATOM     93  O   UNL A   1      45.600  24.523  32.244  1.00  0.00    -0.237 OA
ATOM     94  O   UNL A   1      45.559  26.895  31.524  1.00  0.00    -0.237 OA
ATOM     95  O   UNL A   1      46.795  26.237  33.545  1.00  0.00    -0.744 OA
ENDBRANCH  88  92
ENDBRANCH  61  85
BRANCH  73  96
ATOM     96  C   UNL A   1      38.605  32.320  36.441  1.00  0.00     0.023 A 
ATOM     97  C   UNL A   1      37.756  31.979  37.520  1.00  0.00     0.031 A 
ATOM     98  C   UNL A   1      39.833  32.933  36.751  1.00  0.00     0.131 A 
ATOM     99  C   UNL A   1      38.148  32.265  38.845  1.00  0.00     0.055 A 
ATOM    100  C   UNL A   1      40.226  33.193  38.063  1.00  0.00     0.041 A 
ATOM    101  F   UNL A   1      40.695  33.261  35.775  1.00  0.00    -0.206 F 
ATOM    102  C   UNL A   1      39.381  32.864  39.116  1.00  0.00     0.022 A 
BRANCH  99 103
ATOM    103  S   UNL A   1      37.050  31.878  40.249  1.00  0.00     0.124 S 
ATOM    104  O   UNL A   1      35.911  31.219  39.620  1.00  0.00    -0.237 OA
ATOM    105  O   UNL A   1      37.895  31.033  41.087  1.00  0.00    -0.237 OA
ATOM    106  O   UNL A   1      36.751  33.194  40.819  1.00  0.00    -0.744 OA
ENDBRANCH  99 103
ENDBRANCH  73  96
ENDBRANCH  47  48
ENDBRANCH  40  42
ENDBRANCH  39  40
ENDBRANCH  38  39
ENDBRANCH  37  38
ENDBRANCH  36  37
ENDBRANCH  35  36
ENDBRANCH  34  35
ENDBRANCH  33  34
ENDBRANCH   1  33
TORSDOF 27
ENDMDL
MODEL 3
REMARK VINA RESULT:      -8.5      6.012     11.281
REMARK SMILES NS(=O)(=O)c1ccc(-c2coc(=O)n2-c2ccc(C(=O)OCCOCCOCCOCCOC(=O)c3ccc(-c4c5nc(c(-c6cc(S(=O)(=O)[O-])ccc6F)c6ccc([nH]6)c(-c6cc(S(=O)(=O)[O-])ccc6F)c6nc(c(-c7cc(S(=O)(=O)[O-])ccc7F)c7ccc4[nH]7)C=C6)C=C5)cc3)cc2)cc1
REMARK SMILES IDX 26 1 25 2 24 3 23 4 22 5 21 6 19 7 20 8 18 9 15 10 16 11
REMARK SMILES IDX 100 12 17 13 99 14 14 15 9 16 10 17 11 18 12 19 13 20 8 21
REMARK SMILES IDX 5 22 6 23 102 24 7 25 101 26 2 27 3 28 4 29 1 30 27 33 28 34
REMARK SMILES IDX 29 35 30 36 31 37 32 38 33 39 34 40 35 41 36 42 37 43 98 44
REMARK SMILES IDX 38 45 97 46 39 47 40 48 41 49 91 50 42 51 96 52 90 53 92 54
REMARK SMILES IDX 43 55 95 56 89 57 88 58 44 60 76 61 56 62 75 63 57 64 60 65
REMARK SMILES IDX 74 66 93 67 58 68 59 69 73 71 94 72 61 73 45 74 46 75 54 76
REMARK SMILES IDX 47 77 53 78 55 79 52 80 48 81 49 82 50 83 51 84 77 85 78 86
REMARK SMILES IDX 86 87 79 88 85 89 87 90 84 91 80 92 81 93 82 94 83 95 62 96
REMARK SMILES IDX 63 97 71 98 64 99 70 100 72 101 69 102 65 103 66 104 67 105
REMARK SMILES IDX 68 106
REMARK H PARENT 1 31 1 32 92 59 60 70
REMARK Flexibility Score: inf
ROOT
ATOM      1  C   UNL A   1      38.469  31.412  29.496  1.00  0.00     0.188 C 
ENDROOT
BRANCH   1   2
ATOM      2  C   UNL A   1      38.331  30.322  28.408  1.00  0.00     0.188 C 
BRANCH   2   3
ATOM      3  O   UNL A   1      37.347  29.298  28.475  1.00  0.00    -0.376 OA
BRANCH   3   4
ATOM      4  C   UNL A   1      35.977  29.569  28.708  1.00  0.00     0.202 C 
BRANCH   4   5
ATOM      5  C   UNL A   1      35.094  30.352  27.723  1.00  0.00     0.261 C 
BRANCH   5   6
ATOM      6  O   UNL A   1      33.772  30.665  28.154  1.00  0.00    -0.460 OA
BRANCH   6   7
ATOM      7  C   UNL A   1      32.822  30.624  27.197  1.00  0.00     0.338 C 
ATOM      8  O   UNL A   1      32.278  31.564  26.644  1.00  0.00    -0.246 OA
BRANCH   7   9
ATOM      9  C   UNL A   1      32.646  29.215  26.786  1.00  0.00     0.060 A 
ATOM     10  C   UNL A   1      32.276  26.624  25.840  1.00  0.00     0.053 A 
ATOM     11  C   UNL A   1      33.331  27.391  25.343  1.00  0.00     0.028 A 
ATOM     12  C   UNL A   1      31.491  27.113  26.898  1.00  0.00     0.028 A 
ATOM     13  C   UNL A   1      33.485  28.703  25.786  1.00  0.00     0.018 A 
ATOM     14  C   UNL A   1      31.687  28.402  27.390  1.00  0.00     0.018 A 
BRANCH  10  15
ATOM     15  N   UNL A   1      31.868  25.468  25.143  1.00  0.00    -0.242 N 
ATOM     16  C   UNL A   1      30.900  25.396  24.178  1.00  0.00     0.095 A 
ATOM     17  C   UNL A   1      30.889  24.136  23.763  1.00  0.00     0.228 A 
ATOM     18  O   UNL A   1      31.827  23.318  24.391  1.00  0.00    -0.415 OA
ATOM     19  C   UNL A   1      32.474  24.219  25.240  1.00  0.00     0.424 A 
ATOM     20  O   UNL A   1      33.422  23.896  25.942  1.00  0.00    -0.223 OA
BRANCH  16  21
ATOM     21  C   UNL A   1      30.206  26.544  23.592  1.00  0.00     0.002 A 
ATOM     22  C   UNL A   1      28.991  28.867  22.599  1.00  0.00     0.082 A 
ATOM     23  C   UNL A   1      30.313  28.588  22.260  1.00  0.00     0.022 A 
ATOM     24  C   UNL A   1      28.261  27.980  23.401  1.00  0.00     0.022 A 
ATOM     25  C   UNL A   1      30.909  27.424  22.747  1.00  0.00     0.012 A 
ATOM     26  C   UNL A   1      28.869  26.821  23.897  1.00  0.00     0.012 A 
BRANCH  22  27
ATOM     27  S   UNL A   1      28.195  30.347  22.052  1.00  0.00     0.238 S 
ATOM     28  O   UNL A   1      27.305  30.797  23.100  1.00  0.00    -0.207 OA
ATOM     29  O   UNL A   1      27.767  30.154  20.689  1.00  0.00    -0.207 OA
BRANCH  27  30
ATOM     30  N   UNL A   1      29.419  31.497  21.977  1.00  0.00    -0.225 NA
ATOM     31  H   UNL A   1      29.235  32.234  22.658  1.00  0.00     0.137 HD
ATOM     32  H   UNL A   1      29.451  31.900  21.040  1.00  0.00     0.137 HD
ENDBRANCH  27  30
ENDBRANCH  22  27
ENDBRANCH  16  21
ENDBRANCH  10  15
ENDBRANCH   7   9
ENDBRANCH   6   7
ENDBRANCH   5   6
ENDBRANCH   4   5
ENDBRANCH   3   4
ENDBRANCH   2   3
ENDBRANCH   1   2
BRANCH   1  33
ATOM     33  O   UNL A   1      37.458  32.405  29.448  1.00  0.00    -0.377 OA
BRANCH  33  34
ATOM     34  C   UNL A   1      37.023  32.901  30.713  1.00  0.00     0.188 C 
BRANCH  34  35
ATOM     35  C   UNL A   1      35.705  32.340  31.307  1.00  0.00     0.188 C 
BRANCH  35  36
ATOM     36  O   UNL A   1      35.829  31.821  32.626  1.00  0.00    -0.376 OA
BRANCH  36  37
ATOM     37  C   UNL A   1      36.922  30.998  32.994  1.00  0.00     0.202 C 
BRANCH  37  38
ATOM     38  C   UNL A   1      37.949  31.619  33.935  1.00  0.00     0.261 C 
BRANCH  38  39
ATOM     39  O   UNL A   1      37.458  31.836  35.242  1.00  0.00    -0.460 OA
BRANCH  39  40
ATOM     40  C   UNL A   1      37.346  33.131  35.595  1.00  0.00     0.338 C 
ATOM     41  O   UNL A   1      36.344  33.822  35.555  1.00  0.00    -0.246 OA
BRANCH  40  42
ATOM     42  C   UNL A   1      38.686  33.621  35.919  1.00  0.00     0.060 A 
ATOM     43  C   UNL A   1      39.257  33.084  37.069  1.00  0.00     0.016 A 
ATOM     44  C   UNL A   1      39.115  34.831  35.347  1.00  0.00     0.016 A 
ATOM     45  C   UNL A   1      40.040  33.919  37.822  1.00  0.00     0.010 A 
ATOM     46  C   UNL A   1      39.877  35.669  36.112  1.00  0.00     0.010 A 
ATOM     47  C   UNL A   1      40.233  35.234  37.382  1.00  0.00    -0.014 A 
BRANCH  47  48
ATOM     48  C   UNL A   1      40.918  36.135  38.270  1.00  0.00     0.031 A 
ATOM     49  C   UNL A   1      42.375  36.039  38.117  1.00  0.00     0.074 A 
ATOM     50  C   UNL A   1      40.294  36.974  39.110  1.00  0.00     0.049 A 
ATOM     51  N   UNL A   1      43.181  35.373  38.870  1.00  0.00    -0.248 NA
ATOM     52  C   UNL A   1      42.965  36.506  36.855  1.00  0.00     0.031 C 
ATOM     53  C   UNL A   1      38.877  37.335  39.176  1.00  0.00     0.029 A 
ATOM     54  N   UNL A   1      40.856  37.756  40.065  1.00  0.00    -0.354 N 
ATOM     55  C   UNL A   1      44.434  35.564  38.313  1.00  0.00     0.074 A 
ATOM     56  C   UNL A   1      44.202  36.026  36.973  1.00  0.00     0.031 C 
ATOM     57  C   UNL A   1      38.736  38.422  39.972  1.00  0.00     0.029 A 
ATOM     58  C   UNL A   1      40.024  38.742  40.572  1.00  0.00     0.049 A 
ATOM     59  H   UNL A   1      41.784  37.633  40.372  1.00  0.00     0.167 HD
ATOM     60  C   UNL A   1      45.538  35.598  39.104  1.00  0.00     0.034 A 
ATOM     61  C   UNL A   1      40.405  39.776  41.370  1.00  0.00     0.034 A 
ATOM     62  C   UNL A   1      45.257  35.027  40.407  1.00  0.00     0.049 A 
ATOM     63  C   UNL A   1      41.666  39.356  42.041  1.00  0.00     0.074 A 
ATOM     64  C   UNL A   1      44.806  33.791  40.838  1.00  0.00     0.029 A 
ATOM     65  N   UNL A   1      45.036  35.888  41.461  1.00  0.00    -0.354 N 
ATOM     66  N   UNL A   1      41.721  38.376  42.902  1.00  0.00    -0.248 NA
ATOM     67  C   UNL A   1      42.932  39.668  41.390  1.00  0.00     0.031 C 
ATOM     68  C   UNL A   1      43.906  34.078  41.907  1.00  0.00     0.029 A 
ATOM     69  C   UNL A   1      43.915  35.456  42.130  1.00  0.00     0.049 A 
ATOM     70  H   UNL A   1      45.584  36.672  41.694  1.00  0.00     0.167 HD
ATOM     71  C   UNL A   1      42.877  37.676  42.586  1.00  0.00     0.074 A 
ATOM     72  C   UNL A   1      43.632  38.575  41.714  1.00  0.00     0.031 C 
ATOM     73  C   UNL A   1      42.983  36.333  42.822  1.00  0.00     0.034 A 
BRANCH  60  74
ATOM     74  C   UNL A   1      46.727  36.491  38.843  1.00  0.00     0.023 A 
ATOM     75  C   UNL A   1      47.986  35.868  38.812  1.00  0.00     0.031 A 
ATOM     76  C   UNL A   1      46.745  37.905  38.905  1.00  0.00     0.131 A 
ATOM     77  C   UNL A   1      49.164  36.616  38.958  1.00  0.00     0.055 A 
ATOM     78  C   UNL A   1      47.924  38.650  38.979  1.00  0.00     0.041 A 
ATOM     79  F   UNL A   1      45.640  38.653  38.991  1.00  0.00    -0.206 F 
ATOM     80  C   UNL A   1      49.143  38.005  39.043  1.00  0.00     0.022 A 
BRANCH  77  81
ATOM     81  S   UNL A   1      50.712  35.719  39.221  1.00  0.00     0.124 S 
ATOM     82  O   UNL A   1      50.239  34.341  39.294  1.00  0.00    -0.237 OA
ATOM     83  O   UNL A   1      51.471  36.079  38.029  1.00  0.00    -0.237 OA
ATOM     84  O   UNL A   1      51.215  36.276  40.474  1.00  0.00    -0.744 OA
ENDBRANCH  77  81
ENDBRANCH  60  74
BRANCH  61  85
ATOM     85  C   UNL A   1      39.948  41.191  41.273  1.00  0.00     0.023 A 
ATOM     86  C   UNL A   1      39.117  41.796  42.240  1.00  0.00     0.031 A 
ATOM     87  C   UNL A   1      40.539  42.054  40.321  1.00  0.00     0.131 A 
ATOM     88  C   UNL A   1      38.910  43.197  42.227  1.00  0.00     0.055 A 
ATOM     89  C   UNL A   1      40.329  43.435  40.311  1.00  0.00     0.041 A 
ATOM     90  F   UNL A   1      41.418  41.596  39.415  1.00  0.00    -0.206 F 
ATOM     91  C   UNL A   1      39.519  44.013  41.273  1.00  0.00     0.022 A 
BRANCH  88  92
ATOM     92  S   UNL A   1      37.907  43.999  43.522  1.00  0.00     0.124 S 
ATOM     93  O   UNL A   1      37.360  42.856  44.244  1.00  0.00    -0.237 OA
ATOM     94  O   UNL A   1      38.893  44.804  44.231  1.00  0.00    -0.237 OA
ATOM     95  O   UNL A   1      36.922  44.771  42.761  1.00  0.00    -0.744 OA
ENDBRANCH  88  92
ENDBRANCH  61  85
BRANCH  73  96
ATOM     96  C   UNL A   1      41.943  35.670  43.708  1.00  0.00     0.023 A 
ATOM     97  C   UNL A   1      40.638  35.305  43.298  1.00  0.00     0.031 A 
ATOM     98  C   UNL A   1      42.347  35.288  45.000  1.00  0.00     0.131 A 
ATOM     99  C   UNL A   1      39.794  34.596  44.178  1.00  0.00     0.055 A 
ATOM    100  C   UNL A   1      41.518  34.566  45.858  1.00  0.00     0.041 A 
ATOM    101  F   UNL A   1      43.581  35.582  45.441  1.00  0.00    -0.206 F 
ATOM    102  C   UNL A   1      40.235  34.222  45.451  1.00  0.00     0.022 A 
BRANCH  99 103
ATOM    103  S   UNL A   1      38.093  34.157  43.691  1.00  0.00     0.124 S 
ATOM    104  O   UNL A   1      37.533  35.421  43.228  1.00  0.00    -0.237 OA
ATOM    105  O   UNL A   1      38.311  33.140  42.666  1.00  0.00    -0.237 OA
ATOM    106  O   UNL A   1      37.504  33.650  44.932  1.00  0.00    -0.744 OA
ENDBRANCH  99 103
ENDBRANCH  73  96
ENDBRANCH  47  48
ENDBRANCH  40  42
ENDBRANCH  39  40
ENDBRANCH  38  39
ENDBRANCH  37  38
ENDBRANCH  36  37
ENDBRANCH  35  36
ENDBRANCH  34  35
ENDBRANCH  33  34
ENDBRANCH   1  33
TORSDOF 27
ENDMDL
