MODEL 1
REMARK VINA RESULT:      -7.1      0.000      0.000
REMARK SMILES O=C(CNC(=O)N1CC(OCCOCCOCCOCCOC(=O)c2ccc(-c3c4nc(c(-c5cc(S(=O)(=O)[O-])ccc5F)c5ccc([nH]5)c(-c5cc(S(=O)(=O)[O-])ccc5F)c5nc(c(-c6cc(S(=O)(=O)[O-])ccc6F)c6ccc3[nH]6)C=C5)C=C4)cc2)=Nc2ccccc21)N[C@H](C(=O)[O-])c1ccccc1
REMARK SMILES IDX 15 1 14 2 13 3 12 4 11 5 10 6 9 7 7 8 8 9 94 10 89 11 93 12
REMARK SMILES IDX 88 13 90 14 92 15 91 16 5 17 4 18 6 20 3 21 2 22 1 23 95 24
REMARK SMILES IDX 96 26 100 27 101 28 105 29 102 30 104 31 103 32 97 33 98 34
REMARK SMILES IDX 99 35 16 36 17 37 18 38 19 39 20 40 21 41 22 42 23 43 24 44
REMARK SMILES IDX 25 45 26 46 87 47 27 48 86 49 28 50 29 51 30 52 80 53 31 54
REMARK SMILES IDX 85 55 79 56 81 57 32 58 84 59 78 60 77 61 33 63 65 64 45 65
REMARK SMILES IDX 64 66 46 67 49 68 63 69 82 70 47 71 48 72 62 74 83 75 50 76
REMARK SMILES IDX 34 77 35 78 43 79 36 80 42 81 44 82 41 83 37 84 38 85 39 86
REMARK SMILES IDX 40 87 66 88 67 89 75 90 68 91 74 92 76 93 73 94 69 95 70 96
REMARK SMILES IDX 71 97 72 98 51 99 52 100 60 101 53 102 59 103 61 104 58 105
REMARK SMILES IDX 54 106 55 107 56 108 57 109
REMARK H PARENT 4 19 95 25 81 62 49 73
REMARK Flexibility Score: inf
ROOT
ATOM      1  C   UNL A   1      38.900  34.754  30.070  1.00  0.00     0.188 C 
ENDROOT
BRANCH   1   2
ATOM      2  C   UNL A   1      40.178  33.913  30.092  1.00  0.00     0.188 C 
BRANCH   2   3
ATOM      3  O   UNL A   1      41.422  34.367  29.601  1.00  0.00    -0.376 OA
BRANCH   3   4
ATOM      4  C   UNL A   1      41.569  35.416  28.674  1.00  0.00     0.201 C 
BRANCH   4   5
ATOM      5  C   UNL A   1      42.892  35.766  27.955  1.00  0.00     0.259 C 
BRANCH   5   6
ATOM      6  O   UNL A   1      43.957  34.802  27.849  1.00  0.00    -0.477 OA
BRANCH   6   7
ATOM      7  C   UNL A   1      44.665  34.484  28.956  1.00  0.00     0.209 C 
ATOM      8  N   UNL A   1      46.973  34.911  29.718  1.00  0.00    -0.283 N 
ATOM      9  C   UNL A   1      45.689  35.543  29.338  1.00  0.00     0.224 C 
ATOM     10  C   UNL A   1      46.813  33.732  30.511  1.00  0.00     0.072 A 
ATOM     11  C   UNL A   1      45.609  32.979  30.395  1.00  0.00     0.091 A 
ATOM     12  C   UNL A   1      47.817  33.270  31.357  1.00  0.00     0.029 A 
ATOM     13  N   UNL A   1      44.544  33.342  29.546  1.00  0.00    -0.214 NA
ATOM     14  C   UNL A   1      45.548  31.698  30.942  1.00  0.00     0.030 A 
ATOM     15  C   UNL A   1      47.736  31.991  31.907  1.00  0.00     0.002 A 
ATOM     16  C   UNL A   1      46.624  31.189  31.664  1.00  0.00     0.002 A 
BRANCH   8  17
ATOM     17  C   UNL A   1      48.131  35.549  29.326  1.00  0.00     0.322 C 
ATOM     18  N   UNL A   1      49.113  34.972  28.579  1.00  0.00    -0.329 N 
ATOM     19  H   UNL A   1      49.874  35.579  28.431  1.00  0.00     0.165 HD
ATOM     20  O   UNL A   1      48.288  36.756  29.545  1.00  0.00    -0.248 OA
BRANCH  18  21
ATOM     21  C   UNL A   1      49.318  33.663  27.940  1.00  0.00     0.218 C 
BRANCH  21  22
ATOM     22  C   UNL A   1      48.225  33.052  26.985  1.00  0.00     0.240 C 
ATOM     23  O   UNL A   1      48.217  33.336  25.787  1.00  0.00    -0.273 OA
ATOM     24  N   UNL A   1      47.418  32.064  27.489  1.00  0.00    -0.342 N 
ATOM     25  H   UNL A   1      47.467  31.895  28.459  1.00  0.00     0.164 HD
BRANCH  24  26
ATOM     26  C   UNL A   1      46.478  31.227  26.701  1.00  0.00     0.158 C 
BRANCH  26  27
ATOM     27  C   UNL A   1      46.290  29.785  27.133  1.00  0.00    -0.020 A 
ATOM     28  C   UNL A   1      46.729  29.411  28.421  1.00  0.00     0.006 A 
ATOM     29  C   UNL A   1      46.025  28.794  26.186  1.00  0.00     0.006 A 
ATOM     30  C   UNL A   1      46.958  28.075  28.733  1.00  0.00     0.000 A 
ATOM     31  C   UNL A   1      46.260  27.455  26.503  1.00  0.00     0.000 A 
ATOM     32  C   UNL A   1      46.738  27.099  27.767  1.00  0.00     0.000 A 
ENDBRANCH  26  27
BRANCH  26  33
ATOM     33  C   UNL A   1      45.112  31.737  26.099  1.00  0.00     0.068 C 
ATOM     34  O   UNL A   1      44.969  32.729  25.394  1.00  0.00    -0.548 OA
ATOM     35  O   UNL A   1      44.003  31.111  26.535  1.00  0.00    -0.548 OA
ENDBRANCH  26  33
ENDBRANCH  24  26
ENDBRANCH  21  22
ENDBRANCH  18  21
ENDBRANCH   8  17
ENDBRANCH   6   7
ENDBRANCH   5   6
ENDBRANCH   4   5
ENDBRANCH   3   4
ENDBRANCH   2   3
ENDBRANCH   1   2
BRANCH   1  36
ATOM     36  O   UNL A   1      37.943  34.566  31.096  1.00  0.00    -0.377 OA
BRANCH  36  37
ATOM     37  C   UNL A   1      36.836  33.741  30.787  1.00  0.00     0.188 C 
BRANCH  37  38
ATOM     38  C   UNL A   1      36.345  33.851  29.332  1.00  0.00     0.188 C 
BRANCH  38  39
ATOM     39  O   UNL A   1      35.155  34.596  29.151  1.00  0.00    -0.376 OA
BRANCH  39  40
ATOM     40  C   UNL A   1      33.961  33.866  28.898  1.00  0.00     0.202 C 
BRANCH  40  41
ATOM     41  C   UNL A   1      34.027  32.669  27.955  1.00  0.00     0.261 C 
BRANCH  41  42
ATOM     42  O   UNL A   1      34.292  31.417  28.552  1.00  0.00    -0.460 OA
BRANCH  42  43
ATOM     43  C   UNL A   1      34.524  30.405  27.694  1.00  0.00     0.338 C 
ATOM     44  O   UNL A   1      33.917  30.106  26.684  1.00  0.00    -0.246 OA
BRANCH  43  45
ATOM     45  C   UNL A   1      35.785  29.878  28.182  1.00  0.00     0.060 A 
ATOM     46  C   UNL A   1      36.910  30.077  27.380  1.00  0.00     0.016 A 
ATOM     47  C   UNL A   1      35.866  29.421  29.501  1.00  0.00     0.016 A 
ATOM     48  C   UNL A   1      38.154  29.814  27.909  1.00  0.00     0.010 A 
ATOM     49  C   UNL A   1      37.115  29.137  30.023  1.00  0.00     0.010 A 
ATOM     50  C   UNL A   1      38.249  29.318  29.215  1.00  0.00    -0.014 A 
BRANCH  50  51
ATOM     51  C   UNL A   1      39.541  28.778  29.645  1.00  0.00     0.031 A 
ATOM     52  C   UNL A   1      40.207  29.464  30.795  1.00  0.00     0.074 A 
ATOM     53  C   UNL A   1      40.027  27.675  29.059  1.00  0.00     0.049 A 
ATOM     54  N   UNL A   1      41.340  29.190  31.372  1.00  0.00    -0.248 NA
ATOM     55  C   UNL A   1      39.493  30.617  31.373  1.00  0.00     0.031 C 
ATOM     56  C   UNL A   1      39.376  26.941  27.971  1.00  0.00     0.029 A 
ATOM     57  N   UNL A   1      41.172  26.974  29.301  1.00  0.00    -0.354 N 
ATOM     58  C   UNL A   1      41.479  30.139  32.379  1.00  0.00     0.074 A 
ATOM     59  C   UNL A   1      40.336  31.018  32.309  1.00  0.00     0.031 C 
ATOM     60  C   UNL A   1      40.141  25.888  27.639  1.00  0.00     0.029 A 
ATOM     61  C   UNL A   1      41.349  25.906  28.457  1.00  0.00     0.049 A 
ATOM     62  H   UNL A   1      41.810  27.212  30.013  1.00  0.00     0.167 HD
ATOM     63  C   UNL A   1      42.480  30.247  33.280  1.00  0.00     0.034 A 
ATOM     64  C   UNL A   1      42.397  25.067  28.353  1.00  0.00     0.034 A 
ATOM     65  C   UNL A   1      43.608  29.353  33.288  1.00  0.00     0.049 A 
ATOM     66  C   UNL A   1      43.546  25.268  29.311  1.00  0.00     0.074 A 
ATOM     67  C   UNL A   1      44.700  29.347  34.133  1.00  0.00     0.029 A 
ATOM     68  N   UNL A   1      43.791  28.309  32.386  1.00  0.00    -0.354 N 
ATOM     69  N   UNL A   1      43.675  26.164  30.268  1.00  0.00    -0.248 NA
ATOM     70  C   UNL A   1      44.680  24.349  29.187  1.00  0.00     0.031 C 
ATOM     71  C   UNL A   1      45.580  28.355  33.691  1.00  0.00     0.029 A 
ATOM     72  C   UNL A   1      44.998  27.677  32.630  1.00  0.00     0.049 A 
ATOM     73  H   UNL A   1      43.155  28.057  31.678  1.00  0.00     0.167 HD
ATOM     74  C   UNL A   1      44.897  25.896  30.878  1.00  0.00     0.074 A 
ATOM     75  C   UNL A   1      45.451  24.745  30.190  1.00  0.00     0.031 C 
ATOM     76  C   UNL A   1      45.510  26.535  31.908  1.00  0.00     0.034 A 
BRANCH  63  77
ATOM     77  C   UNL A   1      42.422  31.400  34.249  1.00  0.00     0.023 A 
ATOM     78  C   UNL A   1      42.683  32.724  33.850  1.00  0.00     0.031 A 
ATOM     79  C   UNL A   1      42.155  31.164  35.608  1.00  0.00     0.131 A 
ATOM     80  C   UNL A   1      42.736  33.746  34.810  1.00  0.00     0.055 A 
ATOM     81  C   UNL A   1      42.127  32.197  36.544  1.00  0.00     0.041 A 
ATOM     82  F   UNL A   1      41.939  29.916  36.055  1.00  0.00    -0.206 F 
ATOM     83  C   UNL A   1      42.432  33.497  36.150  1.00  0.00     0.022 A 
BRANCH  80  84
ATOM     84  S   UNL A   1      43.349  35.379  34.307  1.00  0.00     0.124 S 
ATOM     85  O   UNL A   1      43.776  35.122  32.933  1.00  0.00    -0.237 OA
ATOM     86  O   UNL A   1      42.169  36.220  34.462  1.00  0.00    -0.237 OA
ATOM     87  O   UNL A   1      44.433  35.643  35.251  1.00  0.00    -0.744 OA
ENDBRANCH  80  84
ENDBRANCH  63  77
BRANCH  64  88
ATOM     88  C   UNL A   1      42.428  24.018  27.295  1.00  0.00     0.023 A 
ATOM     89  C   UNL A   1      41.770  22.791  27.467  1.00  0.00     0.031 A 
ATOM     90  C   UNL A   1      43.155  24.211  26.106  1.00  0.00     0.131 A 
ATOM     91  C   UNL A   1      41.892  21.788  26.491  1.00  0.00     0.055 A 
ATOM     92  C   UNL A   1      43.223  23.235  25.111  1.00  0.00     0.041 A 
ATOM     93  F   UNL A   1      43.806  25.366  25.886  1.00  0.00    -0.206 F 
ATOM     94  C   UNL A   1      42.601  22.007  25.308  1.00  0.00     0.022 A 
BRANCH  91  95
ATOM     95  S   UNL A   1      41.192  20.152  26.839  1.00  0.00     0.124 S 
ATOM     96  O   UNL A   1      40.006  20.151  25.992  1.00  0.00    -0.237 OA
ATOM     97  O   UNL A   1      42.277  19.268  26.428  1.00  0.00    -0.237 OA
ATOM     98  O   UNL A   1      40.933  20.193  28.277  1.00  0.00    -0.744 OA
ENDBRANCH  91  95
ENDBRANCH  64  88
BRANCH  76  99
ATOM     99  C   UNL A   1      46.827  25.964  32.368  1.00  0.00     0.023 A 
ATOM    100  C   UNL A   1      48.036  26.305  31.743  1.00  0.00     0.031 A 
ATOM    101  C   UNL A   1      46.866  25.077  33.458  1.00  0.00     0.131 A 
ATOM    102  C   UNL A   1      49.231  25.715  32.174  1.00  0.00     0.055 A 
ATOM    103  C   UNL A   1      48.067  24.551  33.932  1.00  0.00     0.041 A 
ATOM    104  F   UNL A   1      45.736  24.719  34.090  1.00  0.00    -0.206 F 
ATOM    105  C   UNL A   1      49.257  24.858  33.279  1.00  0.00     0.022 A 
BRANCH 102 106
ATOM    106  S   UNL A   1      50.735  26.000  31.206  1.00  0.00     0.124 S 
ATOM    107  O   UNL A   1      51.707  25.167  31.907  1.00  0.00    -0.237 OA
ATOM    108  O   UNL A   1      50.344  25.542  29.877  1.00  0.00    -0.237 OA
ATOM    109  O   UNL A   1      50.951  27.441  31.327  1.00  0.00    -0.744 OA
ENDBRANCH 102 106
ENDBRANCH  76  99
ENDBRANCH  50  51
ENDBRANCH  43  45
ENDBRANCH  42  43
ENDBRANCH  41  42
ENDBRANCH  40  41
ENDBRANCH  39  40
ENDBRANCH  38  39
ENDBRANCH  37  38
ENDBRANCH  36  37
ENDBRANCH   1  36
TORSDOF 28
ENDMDL
MODEL 2
REMARK VINA RESULT:      -6.6      5.610     12.310
REMARK SMILES O=C(CNC(=O)N1CC(OCCOCCOCCOCCOC(=O)c2ccc(-c3c4nc(c(-c5cc(S(=O)(=O)[O-])ccc5F)c5ccc([nH]5)c(-c5cc(S(=O)(=O)[O-])ccc5F)c5nc(c(-c6cc(S(=O)(=O)[O-])ccc6F)c6ccc3[nH]6)C=C5)C=C4)cc2)=Nc2ccccc21)N[C@H](C(=O)[O-])c1ccccc1
REMARK SMILES IDX 15 1 14 2 13 3 12 4 11 5 10 6 9 7 7 8 8 9 94 10 89 11 93 12
REMARK SMILES IDX 88 13 90 14 92 15 91 16 5 17 4 18 6 20 3 21 2 22 1 23 95 24
REMARK SMILES IDX 96 26 100 27 101 28 105 29 102 30 104 31 103 32 97 33 98 34
REMARK SMILES IDX 99 35 16 36 17 37 18 38 19 39 20 40 21 41 22 42 23 43 24 44
REMARK SMILES IDX 25 45 26 46 87 47 27 48 86 49 28 50 29 51 30 52 80 53 31 54
REMARK SMILES IDX 85 55 79 56 81 57 32 58 84 59 78 60 77 61 33 63 65 64 45 65
REMARK SMILES IDX 64 66 46 67 49 68 63 69 82 70 47 71 48 72 62 74 83 75 50 76
REMARK SMILES IDX 34 77 35 78 43 79 36 80 42 81 44 82 41 83 37 84 38 85 39 86
REMARK SMILES IDX 40 87 66 88 67 89 75 90 68 91 74 92 76 93 73 94 69 95 70 96
REMARK SMILES IDX 71 97 72 98 51 99 52 100 60 101 53 102 59 103 61 104 58 105
REMARK SMILES IDX 54 106 55 107 56 108 57 109
REMARK H PARENT 4 19 95 25 81 62 49 73
REMARK Flexibility Score: inf
ROOT
ATOM      1  C   UNL A   1      40.970  26.985  28.141  1.00  0.00     0.188 C 
ENDROOT
BRANCH   1   2
ATOM      2  C   UNL A   1      40.264  26.339  26.947  1.00  0.00     0.188 C 
BRANCH   2   3
ATOM      3  O   UNL A   1      39.064  25.603  27.051  1.00  0.00    -0.376 OA
BRANCH   3   4
ATOM      4  C   UNL A   1      38.850  24.354  26.438  1.00  0.00     0.201 C 
BRANCH   4   5
ATOM      5  C   UNL A   1      37.476  23.650  26.351  1.00  0.00     0.259 C 
BRANCH   5   6
ATOM      6  O   UNL A   1      36.555  23.947  25.283  1.00  0.00    -0.477 OA
BRANCH   6   7
ATOM      7  C   UNL A   1      35.842  22.938  24.734  1.00  0.00     0.209 C 
ATOM      8  N   UNL A   1      33.990  22.812  23.108  1.00  0.00    -0.283 N 
ATOM      9  C   UNL A   1      35.398  23.226  23.307  1.00  0.00     0.224 C 
ATOM     10  C   UNL A   1      33.671  21.566  23.735  1.00  0.00     0.072 A 
ATOM     11  C   UNL A   1      34.425  21.150  24.870  1.00  0.00     0.091 A 
ATOM     12  C   UNL A   1      32.615  20.770  23.299  1.00  0.00     0.029 A 
ATOM     13  N   UNL A   1      35.493  21.895  25.409  1.00  0.00    -0.214 NA
ATOM     14  C   UNL A   1      33.958  20.093  25.650  1.00  0.00     0.030 A 
ATOM     15  C   UNL A   1      32.168  19.708  24.085  1.00  0.00     0.002 A 
ATOM     16  C   UNL A   1      32.811  19.397  25.281  1.00  0.00     0.002 A 
BRANCH   8  17
ATOM     17  C   UNL A   1      33.200  23.619  22.318  1.00  0.00     0.322 C 
ATOM     18  N   UNL A   1      32.108  24.302  22.764  1.00  0.00    -0.329 N 
ATOM     19  H   UNL A   1      31.658  24.796  22.041  1.00  0.00     0.165 HD
ATOM     20  O   UNL A   1      33.520  23.861  21.149  1.00  0.00    -0.248 OA
BRANCH  18  21
ATOM     21  C   UNL A   1      31.436  24.483  24.060  1.00  0.00     0.218 C 
BRANCH  21  22
ATOM     22  C   UNL A   1      30.835  25.879  24.469  1.00  0.00     0.240 C 
ATOM     23  O   UNL A   1      30.249  26.014  25.543  1.00  0.00    -0.273 OA
ATOM     24  N   UNL A   1      31.149  26.962  23.688  1.00  0.00    -0.342 N 
ATOM     25  H   UNL A   1      31.609  26.783  22.836  1.00  0.00     0.164 HD
BRANCH  24  26
ATOM     26  C   UNL A   1      30.857  28.381  24.017  1.00  0.00     0.158 C 
BRANCH  26  27
ATOM     27  C   UNL A   1      31.880  29.136  24.844  1.00  0.00    -0.020 A 
ATOM     28  C   UNL A   1      33.171  28.580  24.979  1.00  0.00     0.006 A 
ATOM     29  C   UNL A   1      31.473  30.143  25.722  1.00  0.00     0.006 A 
ATOM     30  C   UNL A   1      34.011  28.982  26.011  1.00  0.00     0.000 A 
ATOM     31  C   UNL A   1      32.319  30.539  26.758  1.00  0.00     0.000 A 
ATOM     32  C   UNL A   1      33.578  29.951  26.910  1.00  0.00     0.000 A 
ENDBRANCH  26  27
BRANCH  26  33
ATOM     33  C   UNL A   1      30.175  29.407  23.032  1.00  0.00     0.068 C 
ATOM     34  O   UNL A   1      30.647  29.801  21.972  1.00  0.00    -0.548 OA
ATOM     35  O   UNL A   1      29.058  30.008  23.483  1.00  0.00    -0.548 OA
ENDBRANCH  26  33
ENDBRANCH  24  26
ENDBRANCH  21  22
ENDBRANCH  18  21
ENDBRANCH   8  17
ENDBRANCH   6   7
ENDBRANCH   5   6
ENDBRANCH   4   5
ENDBRANCH   3   4
ENDBRANCH   2   3
ENDBRANCH   1   2
BRANCH   1  36
ATOM     36  O   UNL A   1      40.853  28.383  28.328  1.00  0.00    -0.377 OA
BRANCH  36  37
ATOM     37  C   UNL A   1      39.766  29.020  27.684  1.00  0.00     0.188 C 
BRANCH  37  38
ATOM     38  C   UNL A   1      38.931  29.935  28.597  1.00  0.00     0.188 C 
BRANCH  38  39
ATOM     39  O   UNL A   1      39.344  29.979  29.950  1.00  0.00    -0.376 OA
BRANCH  39  40
ATOM     40  C   UNL A   1      38.328  29.929  30.944  1.00  0.00     0.202 C 
BRANCH  40  41
ATOM     41  C   UNL A   1      37.616  31.224  31.321  1.00  0.00     0.261 C 
BRANCH  41  42
ATOM     42  O   UNL A   1      38.443  32.303  31.703  1.00  0.00    -0.460 OA
BRANCH  42  43
ATOM     43  C   UNL A   1      38.300  33.427  30.976  1.00  0.00     0.338 C 
ATOM     44  O   UNL A   1      37.334  34.158  30.882  1.00  0.00    -0.246 OA
BRANCH  43  45
ATOM     45  C   UNL A   1      39.646  33.637  30.477  1.00  0.00     0.060 A 
ATOM     46  C   UNL A   1      39.783  34.405  29.320  1.00  0.00     0.016 A 
ATOM     47  C   UNL A   1      40.733  33.278  31.281  1.00  0.00     0.016 A 
ATOM     48  C   UNL A   1      41.040  34.831  28.954  1.00  0.00     0.010 A 
ATOM     49  C   UNL A   1      41.997  33.688  30.898  1.00  0.00     0.010 A 
ATOM     50  C   UNL A   1      42.143  34.446  29.726  1.00  0.00    -0.014 A 
BRANCH  50  51
ATOM     51  C   UNL A   1      43.477  34.662  29.162  1.00  0.00     0.031 A 
ATOM     52  C   UNL A   1      43.930  36.081  29.032  1.00  0.00     0.074 A 
ATOM     53  C   UNL A   1      44.250  33.608  28.864  1.00  0.00     0.049 A 
ATOM     54  N   UNL A   1      45.055  36.548  28.575  1.00  0.00    -0.248 NA
ATOM     55  C   UNL A   1      42.980  37.116  29.482  1.00  0.00     0.031 C 
ATOM     56  C   UNL A   1      43.865  32.206  29.033  1.00  0.00     0.029 A 
ATOM     57  N   UNL A   1      45.520  33.553  28.367  1.00  0.00    -0.354 N 
ATOM     58  C   UNL A   1      44.950  37.930  28.677  1.00  0.00     0.074 A 
ATOM     59  C   UNL A   1      43.638  38.228  29.202  1.00  0.00     0.031 C 
ATOM     60  C   UNL A   1      44.886  31.425  28.641  1.00  0.00     0.029 A 
ATOM     61  C   UNL A   1      45.969  32.273  28.154  1.00  0.00     0.049 A 
ATOM     62  H   UNL A   1      46.062  34.354  28.181  1.00  0.00     0.167 HD
ATOM     63  C   UNL A   1      45.882  38.856  28.361  1.00  0.00     0.034 A 
ATOM     64  C   UNL A   1      47.119  31.857  27.593  1.00  0.00     0.034 A 
ATOM     65  C   UNL A   1      47.167  38.501  27.820  1.00  0.00     0.049 A 
ATOM     66  C   UNL A   1      48.106  32.915  27.163  1.00  0.00     0.074 A 
ATOM     67  C   UNL A   1      48.205  39.329  27.445  1.00  0.00     0.029 A 
ATOM     68  N   UNL A   1      47.578  37.196  27.562  1.00  0.00    -0.354 N 
ATOM     69  N   UNL A   1      48.007  34.225  27.264  1.00  0.00    -0.248 NA
ATOM     70  C   UNL A   1      49.354  32.449  26.554  1.00  0.00     0.031 C 
ATOM     71  C   UNL A   1      49.208  38.533  26.884  1.00  0.00     0.029 A 
ATOM     72  C   UNL A   1      48.840  37.200  26.995  1.00  0.00     0.049 A 
ATOM     73  H   UNL A   1      47.048  36.389  27.754  1.00  0.00     0.167 HD
ATOM     74  C   UNL A   1      49.196  34.737  26.755  1.00  0.00     0.074 A 
ATOM     75  C   UNL A   1      49.999  33.592  26.367  1.00  0.00     0.031 C 
ATOM     76  C   UNL A   1      49.596  36.028  26.617  1.00  0.00     0.034 A 
BRANCH  63  77
ATOM     77  C   UNL A   1      45.503  40.306  28.522  1.00  0.00     0.023 A 
ATOM     78  C   UNL A   1      45.415  40.918  29.786  1.00  0.00     0.031 A 
ATOM     79  C   UNL A   1      45.170  41.076  27.395  1.00  0.00     0.131 A 
ATOM     80  C   UNL A   1      44.942  42.235  29.894  1.00  0.00     0.055 A 
ATOM     81  C   UNL A   1      44.779  42.410  27.502  1.00  0.00     0.041 A 
ATOM     82  F   UNL A   1      45.196  40.534  26.166  1.00  0.00    -0.206 F 
ATOM     83  C   UNL A   1      44.651  42.995  28.759  1.00  0.00     0.022 A 
BRANCH  80  84
ATOM     84  S   UNL A   1      44.575  42.894  31.545  1.00  0.00     0.124 S 
ATOM     85  O   UNL A   1      43.154  42.579  31.678  1.00  0.00    -0.237 OA
ATOM     86  O   UNL A   1      45.479  42.133  32.397  1.00  0.00    -0.237 OA
ATOM     87  O   UNL A   1      44.881  44.318  31.421  1.00  0.00    -0.744 OA
ENDBRANCH  80  84
ENDBRANCH  63  77
BRANCH  64  88
ATOM     88  C   UNL A   1      47.374  30.406  27.369  1.00  0.00     0.023 A 
ATOM     89  C   UNL A   1      47.043  29.787  26.154  1.00  0.00     0.031 A 
ATOM     90  C   UNL A   1      47.921  29.602  28.387  1.00  0.00     0.131 A 
ATOM     91  C   UNL A   1      47.212  28.401  26.005  1.00  0.00     0.055 A 
ATOM     92  C   UNL A   1      48.144  28.236  28.213  1.00  0.00     0.041 A 
ATOM     93  F   UNL A   1      48.257  30.139  29.571  1.00  0.00    -0.206 F 
ATOM     94  C   UNL A   1      47.775  27.624  27.020  1.00  0.00     0.022 A 
BRANCH  91  95
ATOM     95  S   UNL A   1      46.590  27.611  24.497  1.00  0.00     0.124 S 
ATOM     96  O   UNL A   1      45.297  27.103  24.940  1.00  0.00    -0.237 OA
ATOM     97  O   UNL A   1      46.555  28.730  23.563  1.00  0.00    -0.237 OA
ATOM     98  O   UNL A   1      47.596  26.591  24.208  1.00  0.00    -0.744 OA
ENDBRANCH  91  95
ENDBRANCH  64  88
BRANCH  76  99
ATOM     99  C   UNL A   1      50.979  36.251  26.062  1.00  0.00     0.023 A 
ATOM    100  C   UNL A   1      52.118  36.206  26.881  1.00  0.00     0.031 A 
ATOM    101  C   UNL A   1      51.154  36.500  24.689  1.00  0.00     0.131 A 
ATOM    102  C   UNL A   1      53.379  36.465  26.331  1.00  0.00     0.055 A 
ATOM    103  C   UNL A   1      52.420  36.683  24.134  1.00  0.00     0.041 A 
ATOM    104  F   UNL A   1      50.097  36.555  23.863  1.00  0.00    -0.206 F 
ATOM    105  C   UNL A   1      53.541  36.680  24.959  1.00  0.00     0.022 A 
BRANCH 102 106
ATOM    106  S   UNL A   1      54.796  36.621  27.450  1.00  0.00     0.124 S 
ATOM    107  O   UNL A   1      55.170  38.019  27.270  1.00  0.00    -0.237 OA
ATOM    108  O   UNL A   1      54.212  36.279  28.744  1.00  0.00    -0.237 OA
ATOM    109  O   UNL A   1      55.754  35.649  26.927  1.00  0.00    -0.744 OA
ENDBRANCH 102 106
ENDBRANCH  76  99
ENDBRANCH  50  51
ENDBRANCH  43  45
ENDBRANCH  42  43
ENDBRANCH  41  42
ENDBRANCH  40  41
ENDBRANCH  39  40
ENDBRANCH  38  39
ENDBRANCH  37  38
ENDBRANCH  36  37
ENDBRANCH   1  36
TORSDOF 28
ENDMDL
MODEL 3
REMARK VINA RESULT:      -6.4      5.499     13.795
REMARK SMILES O=C(CNC(=O)N1CC(OCCOCCOCCOCCOC(=O)c2ccc(-c3c4nc(c(-c5cc(S(=O)(=O)[O-])ccc5F)c5ccc([nH]5)c(-c5cc(S(=O)(=O)[O-])ccc5F)c5nc(c(-c6cc(S(=O)(=O)[O-])ccc6F)c6ccc3[nH]6)C=C5)C=C4)cc2)=Nc2ccccc21)N[C@H](C(=O)[O-])c1ccccc1
REMARK SMILES IDX 15 1 14 2 13 3 12 4 11 5 10 6 9 7 7 8 8 9 94 10 89 11 93 12
REMARK SMILES IDX 88 13 90 14 92 15 91 16 5 17 4 18 6 20 3 21 2 22 1 23 95 24
REMARK SMILES IDX 96 26 100 27 101 28 105 29 102 30 104 31 103 32 97 33 98 34
REMARK SMILES IDX 99 35 16 36 17 37 18 38 19 39 20 40 21 41 22 42 23 43 24 44
REMARK SMILES IDX 25 45 26 46 87 47 27 48 86 49 28 50 29 51 30 52 80 53 31 54
REMARK SMILES IDX 85 55 79 56 81 57 32 58 84 59 78 60 77 61 33 63 65 64 45 65
REMARK SMILES IDX 64 66 46 67 49 68 63 69 82 70 47 71 48 72 62 74 83 75 50 76
REMARK SMILES IDX 34 77 35 78 43 79 36 80 42 81 44 82 41 83 37 84 38 85 39 86
REMARK SMILES IDX 40 87 66 88 67 89 75 90 68 91 74 92 76 93 73 94 69 95 70 96
REMARK SMILES IDX 71 97 72 98 51 99 52 100 60 101 53 102 59 103 61 104 58 105
REMARK SMILES IDX 54 106 55 107 56 108 57 109
REMARK H PARENT 4 19 95 25 81 62 49 73
REMARK Flexibility Score: inf
ROOT
ATOM      1  C   UNL A   1      40.469  27.820  28.439  1.00  0.00     0.188 C 
ENDROOT
BRANCH   1   2
ATOM      2  C   UNL A   1      39.959  26.991  27.258  1.00  0.00     0.188 C 
BRANCH   2   3
ATOM      3  O   UNL A   1      39.189  25.815  27.401  1.00  0.00    -0.376 OA
BRANCH   3   4
ATOM      4  C   UNL A   1      39.244  24.724  26.514  1.00  0.00     0.201 C 
BRANCH   4   5
ATOM      5  C   UNL A   1      38.115  23.682  26.344  1.00  0.00     0.259 C 
BRANCH   5   6
ATOM      6  O   UNL A   1      36.851  24.045  25.755  1.00  0.00    -0.477 OA
BRANCH   6   7
ATOM      7  C   UNL A   1      36.088  23.080  25.195  1.00  0.00     0.209 C 
ATOM      8  N   UNL A   1      34.206  23.069  23.599  1.00  0.00    -0.283 N 
ATOM      9  C   UNL A   1      35.633  23.420  23.783  1.00  0.00     0.224 C 
ATOM     10  C   UNL A   1      33.846  21.823  24.202  1.00  0.00     0.072 A 
ATOM     11  C   UNL A   1      34.600  21.349  25.313  1.00  0.00     0.091 A 
ATOM     12  C   UNL A   1      32.751  21.083  23.766  1.00  0.00     0.029 A 
ATOM     13  N   UNL A   1      35.707  22.036  25.851  1.00  0.00    -0.214 NA
ATOM     14  C   UNL A   1      34.102  20.294  26.077  1.00  0.00     0.030 A 
ATOM     15  C   UNL A   1      32.272  20.021  24.535  1.00  0.00     0.002 A 
ATOM     16  C   UNL A   1      32.921  19.655  25.711  1.00  0.00     0.002 A 
BRANCH   8  17
ATOM     17  C   UNL A   1      33.438  23.927  22.841  1.00  0.00     0.322 C 
ATOM     18  N   UNL A   1      32.375  24.635  23.319  1.00  0.00    -0.329 N 
ATOM     19  H   UNL A   1      31.936  25.166  22.615  1.00  0.00     0.165 HD
ATOM     20  O   UNL A   1      33.756  24.193  21.676  1.00  0.00    -0.248 OA
BRANCH  18  21
ATOM     21  C   UNL A   1      31.722  24.800  24.627  1.00  0.00     0.218 C 
BRANCH  21  22
ATOM     22  C   UNL A   1      31.195  26.208  25.093  1.00  0.00     0.240 C 
ATOM     23  O   UNL A   1      30.890  26.400  26.270  1.00  0.00    -0.273 OA
ATOM     24  N   UNL A   1      31.267  27.244  24.197  1.00  0.00    -0.342 N 
ATOM     25  H   UNL A   1      31.506  27.020  23.268  1.00  0.00     0.164 HD
BRANCH  24  26
ATOM     26  C   UNL A   1      31.018  28.676  24.506  1.00  0.00     0.158 C 
BRANCH  26  27
ATOM     27  C   UNL A   1      32.092  29.427  25.268  1.00  0.00    -0.020 A 
ATOM     28  C   UNL A   1      33.391  28.876  25.310  1.00  0.00     0.006 A 
ATOM     29  C   UNL A   1      31.743  30.425  26.181  1.00  0.00     0.006 A 
ATOM     30  C   UNL A   1      34.299  29.272  26.286  1.00  0.00     0.000 A 
ATOM     31  C   UNL A   1      32.657  30.816  27.160  1.00  0.00     0.000 A 
ATOM     32  C   UNL A   1      33.925  30.232  27.221  1.00  0.00     0.000 A 
ENDBRANCH  26  27
BRANCH  26  33
ATOM     33  C   UNL A   1      30.311  29.694  23.531  1.00  0.00     0.068 C 
ATOM     34  O   UNL A   1      29.336  30.384  23.803  1.00  0.00    -0.548 OA
ATOM     35  O   UNL A   1      30.726  29.673  22.251  1.00  0.00    -0.548 OA
ENDBRANCH  26  33
ENDBRANCH  24  26
ENDBRANCH  21  22
ENDBRANCH  18  21
ENDBRANCH   8  17
ENDBRANCH   6   7
ENDBRANCH   5   6
ENDBRANCH   4   5
ENDBRANCH   3   4
ENDBRANCH   2   3
ENDBRANCH   1   2
BRANCH   1  36
ATOM     36  O   UNL A   1      39.973  29.134  28.612  1.00  0.00    -0.377 OA
BRANCH  36  37
ATOM     37  C   UNL A   1      38.613  29.347  28.288  1.00  0.00     0.188 C 
BRANCH  37  38
ATOM     38  C   UNL A   1      37.840  30.201  29.309  1.00  0.00     0.188 C 
BRANCH  38  39
ATOM     39  O   UNL A   1      38.496  30.406  30.546  1.00  0.00    -0.376 OA
BRANCH  39  40
ATOM     40  C   UNL A   1      37.701  30.846  31.640  1.00  0.00     0.202 C 
BRANCH  40  41
ATOM     41  C   UNL A   1      37.208  32.289  31.646  1.00  0.00     0.261 C 
BRANCH  41  42
ATOM     42  O   UNL A   1      38.183  33.285  31.416  1.00  0.00    -0.460 OA
BRANCH  42  43
ATOM     43  C   UNL A   1      38.135  33.872  30.205  1.00  0.00     0.338 C 
ATOM     44  O   UNL A   1      37.165  34.240  29.573  1.00  0.00    -0.246 OA
BRANCH  43  45
ATOM     45  C   UNL A   1      39.539  34.115  29.932  1.00  0.00     0.060 A 
ATOM     46  C   UNL A   1      39.847  34.824  28.769  1.00  0.00     0.016 A 
ATOM     47  C   UNL A   1      40.482  33.852  30.930  1.00  0.00     0.016 A 
ATOM     48  C   UNL A   1      41.133  35.286  28.598  1.00  0.00     0.010 A 
ATOM     49  C   UNL A   1      41.778  34.297  30.745  1.00  0.00     0.010 A 
ATOM     50  C   UNL A   1      42.098  34.995  29.570  1.00  0.00    -0.014 A 
BRANCH  50  51
ATOM     51  C   UNL A   1      43.501  35.241  29.230  1.00  0.00     0.031 A 
ATOM     52  C   UNL A   1      44.322  34.048  28.858  1.00  0.00     0.074 A 
ATOM     53  C   UNL A   1      43.963  36.499  29.190  1.00  0.00     0.049 A 
ATOM     54  N   UNL A   1      45.575  33.986  28.512  1.00  0.00    -0.248 NA
ATOM     55  C   UNL A   1      43.632  32.745  28.878  1.00  0.00     0.031 C 
ATOM     56  C   UNL A   1      43.175  37.696  29.488  1.00  0.00     0.029 A 
ATOM     57  N   UNL A   1      45.200  36.978  28.873  1.00  0.00    -0.354 N 
ATOM     58  C   UNL A   1      45.826  32.639  28.278  1.00  0.00     0.074 A 
ATOM     59  C   UNL A   1      44.609  31.914  28.558  1.00  0.00     0.031 C 
ATOM     60  C   UNL A   1      43.957  38.779  29.341  1.00  0.00     0.029 A 
ATOM     61  C   UNL A   1      45.303  38.343  28.985  1.00  0.00     0.049 A 
ATOM     62  H   UNL A   1      45.947  36.402  28.591  1.00  0.00     0.167 HD
ATOM     63  C   UNL A   1      46.980  32.074  27.858  1.00  0.00     0.034 A 
ATOM     64  C   UNL A   1      46.386  39.130  28.843  1.00  0.00     0.034 A 
ATOM     65  C   UNL A   1      48.170  32.845  27.615  1.00  0.00     0.049 A 
ATOM     66  C   UNL A   1      47.686  38.462  28.465  1.00  0.00     0.074 A 
ATOM     67  C   UNL A   1      49.411  32.409  27.197  1.00  0.00     0.029 A 
ATOM     68  N   UNL A   1      48.264  34.223  27.788  1.00  0.00    -0.354 N 
ATOM     69  N   UNL A   1      47.922  37.187  28.239  1.00  0.00    -0.248 NA
ATOM     70  C   UNL A   1      48.857  39.329  28.314  1.00  0.00     0.031 C 
ATOM     71  C   UNL A   1      50.275  33.508  27.198  1.00  0.00     0.029 A 
ATOM     72  C   UNL A   1      49.554  34.648  27.524  1.00  0.00     0.049 A 
ATOM     73  H   UNL A   1      47.521  34.810  28.059  1.00  0.00     0.167 HD
ATOM     74  C   UNL A   1      49.267  37.104  27.891  1.00  0.00     0.074 A 
ATOM     75  C   UNL A   1      49.779  38.462  27.921  1.00  0.00     0.031 C 
ATOM     76  C   UNL A   1      50.017  36.016  27.576  1.00  0.00     0.034 A 
BRANCH  63  77
ATOM     77  C   UNL A   1      47.009  30.573  27.722  1.00  0.00     0.023 A 
ATOM     78  C   UNL A   1      46.804  29.932  26.487  1.00  0.00     0.031 A 
ATOM     79  C   UNL A   1      47.190  29.767  28.859  1.00  0.00     0.131 A 
ATOM     80  C   UNL A   1      46.720  28.532  26.431  1.00  0.00     0.055 A 
ATOM     81  C   UNL A   1      47.188  28.374  28.783  1.00  0.00     0.041 A 
ATOM     82  F   UNL A   1      47.350  30.322  30.071  1.00  0.00    -0.206 F 
ATOM     83  C   UNL A   1      46.939  27.748  27.565  1.00  0.00     0.022 A 
BRANCH  80  84
ATOM     84  S   UNL A   1      46.177  27.756  24.883  1.00  0.00     0.124 S 
ATOM     85  O   UNL A   1      46.716  28.679  23.886  1.00  0.00    -0.237 OA
ATOM     86  O   UNL A   1      46.811  26.445  24.947  1.00  0.00    -0.237 OA
ATOM     87  O   UNL A   1      44.720  27.751  24.995  1.00  0.00    -0.744 OA
ENDBRANCH  80  84
ENDBRANCH  63  77
BRANCH  64  88
ATOM     88  C   UNL A   1      46.300  40.595  29.101  1.00  0.00     0.023 A 
ATOM     89  C   UNL A   1      46.277  41.105  30.408  1.00  0.00     0.031 A 
ATOM     90  C   UNL A   1      46.200  41.512  28.038  1.00  0.00     0.131 A 
ATOM     91  C   UNL A   1      46.105  42.482  30.620  1.00  0.00     0.055 A 
ATOM     92  C   UNL A   1      46.090  42.886  28.252  1.00  0.00     0.041 A 
ATOM     93  F   UNL A   1      46.216  41.082  26.765  1.00  0.00    -0.206 F 
ATOM     94  C   UNL A   1      46.028  43.379  29.551  1.00  0.00     0.022 A 
BRANCH  91  95
ATOM     95  S   UNL A   1      45.883  43.076  32.318  1.00  0.00     0.124 S 
ATOM     96  O   UNL A   1      45.312  41.903  32.969  1.00  0.00    -0.237 OA
ATOM     97  O   UNL A   1      47.248  43.421  32.697  1.00  0.00    -0.237 OA
ATOM     98  O   UNL A   1      44.974  44.210  32.165  1.00  0.00    -0.744 OA
ENDBRANCH  91  95
ENDBRANCH  64  88
BRANCH  76  99
ATOM     99  C   UNL A   1      51.453  36.271  27.199  1.00  0.00     0.023 A 
ATOM    100  C   UNL A   1      51.856  36.370  25.859  1.00  0.00     0.031 A 
ATOM    101  C   UNL A   1      52.426  36.429  28.203  1.00  0.00     0.131 A 
ATOM    102  C   UNL A   1      53.210  36.561  25.554  1.00  0.00     0.055 A 
ATOM    103  C   UNL A   1      53.759  36.694  27.894  1.00  0.00     0.041 A 
ATOM    104  F   UNL A   1      52.092  36.342  29.500  1.00  0.00    -0.206 F 
ATOM    105  C   UNL A   1      54.160  36.747  26.563  1.00  0.00     0.022 A 
BRANCH 102 106
ATOM    106  S   UNL A   1      53.729  36.459  23.821  1.00  0.00     0.124 S 
ATOM    107  O   UNL A   1      54.704  35.375  23.861  1.00  0.00    -0.237 OA
ATOM    108  O   UNL A   1      52.475  36.163  23.135  1.00  0.00    -0.237 OA
ATOM    109  O   UNL A   1      54.284  37.785  23.552  1.00  0.00    -0.744 OA
ENDBRANCH 102 106
ENDBRANCH  76  99
ENDBRANCH  50  51
ENDBRANCH  43  45
ENDBRANCH  42  43
ENDBRANCH  41  42
ENDBRANCH  40  41
ENDBRANCH  39  40
ENDBRANCH  38  39
ENDBRANCH  37  38
ENDBRANCH  36  37
ENDBRANCH   1  36
TORSDOF 28
ENDMDL
