MODEL 1
REMARK VINA RESULT:      -6.1      0.000      0.000
REMARK SMILES CCCCCCCNC(=O)Oc1cccc(-c2ccc([C@@H](C)C(=O)OCCOCCOCCOCCOC(=O)c3ccc(-c4c5nc(c(-c6cc(S(=O)(=O)[O-])ccc6F)c6ccc([nH]6)c(-c6cc(S(=O)(=O)[O-])ccc6F)c6nc(c(-c7cc(S(=O)(=O)[O-])ccc7F)c7ccc4[nH]7)C=C6)C=C5)cc3)cc2F)c1
REMARK SMILES IDX 27 1 26 2 25 3 23 4 24 5 21 6 22 7 20 8 17 9 18 10 104 11
REMARK SMILES IDX 19 12 103 13 105 14 16 15 12 16 13 17 106 18 14 19 15 20
REMARK SMILES IDX 11 21 9 22 8 23 10 25 7 26 6 27 5 28 4 29 3 30 2 31 1 32
REMARK SMILES IDX 28 33 29 34 30 35 31 36 32 37 33 38 34 39 35 40 36 41 37 42
REMARK SMILES IDX 38 43 39 44 40 45 41 46 102 47 42 48 101 49 43 50 44 51
REMARK SMILES IDX 45 52 95 53 46 54 100 55 94 56 96 57 47 58 99 59 93 60 92 61
REMARK SMILES IDX 48 63 80 64 60 65 79 66 61 67 64 68 78 69 97 70 62 71 63 72
REMARK SMILES IDX 77 74 98 75 65 76 49 77 50 78 58 79 51 80 57 81 59 82 56 83
REMARK SMILES IDX 52 84 53 85 54 86 55 87 81 88 82 89 90 90 83 91 89 92 91 93
REMARK SMILES IDX 88 94 84 95 85 96 86 97 87 98 66 99 67 100 75 101 68 102
REMARK SMILES IDX 74 103 76 104 73 105 69 106 70 107 71 108 72 109
REMARK H PARENT 8 24 96 62 64 73
REMARK Flexibility Score: inf
ROOT
ATOM      1  C   UNL A   1      37.877  33.657  37.757  1.00  0.00     0.202 C 
ENDROOT
BRANCH   1   2
ATOM      2  C   UNL A   1      39.404  33.525  37.918  1.00  0.00     0.261 C 
BRANCH   2   3
ATOM      3  O   UNL A   1      40.226  34.311  37.029  1.00  0.00    -0.463 OA
BRANCH   3   4
ATOM      4  C   UNL A   1      40.684  33.686  35.921  1.00  0.00     0.313 C 
ATOM      5  O   UNL A   1      41.180  32.560  35.935  1.00  0.00    -0.252 OA
BRANCH   4   6
ATOM      6  C   UNL A   1      40.588  34.475  34.617  1.00  0.00     0.126 C 
ATOM      7  C   UNL A   1      39.140  34.905  34.416  1.00  0.00     0.025 C 
BRANCH   6   8
ATOM      8  C   UNL A   1      41.195  33.949  33.315  1.00  0.00    -0.031 A 
ATOM      9  C   UNL A   1      42.457  32.935  30.936  1.00  0.00     0.018 A 
ATOM     10  C   UNL A   1      41.105  33.327  30.950  1.00  0.00     0.012 A 
ATOM     11  C   UNL A   1      43.155  33.055  32.141  1.00  0.00     0.131 A 
ATOM     12  C   UNL A   1      40.483  33.828  32.115  1.00  0.00     0.005 A 
ATOM     13  C   UNL A   1      42.551  33.562  33.300  1.00  0.00     0.044 A 
ATOM     14  F   UNL A   1      44.448  32.701  32.214  1.00  0.00    -0.206 F 
BRANCH   9  15
ATOM     15  C   UNL A   1      43.119  32.481  29.694  1.00  0.00    -0.012 A 
ATOM     16  C   UNL A   1      44.337  32.895  27.625  1.00  0.00     0.133 A 
ATOM     17  C   UNL A   1      44.287  31.544  27.289  1.00  0.00     0.047 A 
ATOM     18  C   UNL A   1      43.752  33.373  28.805  1.00  0.00     0.056 A 
ATOM     19  C   UNL A   1      43.666  30.651  28.156  1.00  0.00     0.004 A 
ATOM     20  C   UNL A   1      43.091  31.116  29.343  1.00  0.00     0.009 A 
BRANCH  16  21
ATOM     21  O   UNL A   1      44.890  33.756  26.659  1.00  0.00    -0.410 OA
BRANCH  21  22
ATOM     22  C   UNL A   1      44.157  33.986  25.505  1.00  0.00     0.412 C 
ATOM     23  N   UNL A   1      43.177  34.929  25.663  1.00  0.00    -0.321 N 
ATOM     24  H   UNL A   1      42.663  35.165  24.856  1.00  0.00     0.167 HD
ATOM     25  O   UNL A   1      44.318  33.428  24.427  1.00  0.00    -0.224 OA
BRANCH  23  26
ATOM     26  C   UNL A   1      42.809  35.621  26.883  1.00  0.00     0.119 C 
BRANCH  26  27
ATOM     27  C   UNL A   1      42.415  37.078  26.627  1.00  0.00     0.021 C 
BRANCH  27  28
ATOM     28  C   UNL A   1      43.556  38.093  26.783  1.00  0.00     0.002 C 
BRANCH  28  29
ATOM     29  C   UNL A   1      43.479  38.982  28.029  1.00  0.00     0.000 C 
BRANCH  29  30
ATOM     30  C   UNL A   1      43.273  38.239  29.354  1.00  0.00    -0.000 C 
BRANCH  30  31
ATOM     31  C   UNL A   1      44.328  38.512  30.431  1.00  0.00    -0.003 C 
ATOM     32  C   UNL A   1      43.968  37.935  31.791  1.00  0.00     0.004 C 
ENDBRANCH  30  31
ENDBRANCH  29  30
ENDBRANCH  28  29
ENDBRANCH  27  28
ENDBRANCH  26  27
ENDBRANCH  23  26
ENDBRANCH  21  22
ENDBRANCH  16  21
ENDBRANCH   9  15
ENDBRANCH   6   8
ENDBRANCH   4   6
ENDBRANCH   3   4
ENDBRANCH   2   3
ENDBRANCH   1   2
BRANCH   1  33
ATOM     33  O   UNL A   1      36.995  33.038  38.682  1.00  0.00    -0.376 OA
BRANCH  33  34
ATOM     34  C   UNL A   1      37.495  32.385  39.842  1.00  0.00     0.188 C 
BRANCH  34  35
ATOM     35  C   UNL A   1      37.514  33.079  41.211  1.00  0.00     0.188 C 
BRANCH  35  36
ATOM     36  O   UNL A   1      38.470  32.585  42.122  1.00  0.00    -0.377 OA
BRANCH  36  37
ATOM     37  C   UNL A   1      39.787  32.409  41.623  1.00  0.00     0.188 C 
BRANCH  37  38
ATOM     38  C   UNL A   1      40.643  33.680  41.456  1.00  0.00     0.188 C 
BRANCH  38  39
ATOM     39  O   UNL A   1      41.620  33.585  40.424  1.00  0.00    -0.376 OA
BRANCH  39  40
ATOM     40  C   UNL A   1      42.738  34.463  40.472  1.00  0.00     0.202 C 
BRANCH  40  41
ATOM     41  C   UNL A   1      44.143  33.848  40.568  1.00  0.00     0.261 C 
BRANCH  41  42
ATOM     42  O   UNL A   1      44.295  32.507  40.092  1.00  0.00    -0.460 OA
BRANCH  42  43
ATOM     43  C   UNL A   1      45.433  32.179  39.439  1.00  0.00     0.338 C 
ATOM     44  O   UNL A   1      46.558  32.184  39.885  1.00  0.00    -0.246 OA
BRANCH  43  45
ATOM     45  C   UNL A   1      45.028  31.583  38.142  1.00  0.00     0.060 A 
ATOM     46  C   UNL A   1      44.614  30.244  38.103  1.00  0.00     0.016 A 
ATOM     47  C   UNL A   1      45.044  32.350  36.976  1.00  0.00     0.016 A 
ATOM     48  C   UNL A   1      44.256  29.654  36.888  1.00  0.00     0.010 A 
ATOM     49  C   UNL A   1      44.713  31.752  35.757  1.00  0.00     0.010 A 
ATOM     50  C   UNL A   1      44.353  30.392  35.701  1.00  0.00    -0.014 A 
BRANCH  50  51
ATOM     51  C   UNL A   1      44.341  29.702  34.385  1.00  0.00     0.031 A 
ATOM     52  C   UNL A   1      43.043  29.685  33.624  1.00  0.00     0.074 A 
ATOM     53  C   UNL A   1      45.430  29.095  33.881  1.00  0.00     0.049 A 
ATOM     54  N   UNL A   1      42.715  29.024  32.545  1.00  0.00    -0.248 NA
ATOM     55  C   UNL A   1      41.965  30.526  34.170  1.00  0.00     0.031 C 
ATOM     56  C   UNL A   1      46.761  29.106  34.481  1.00  0.00     0.029 A 
ATOM     57  N   UNL A   1      45.577  28.330  32.748  1.00  0.00    -0.354 N 
ATOM     58  C   UNL A   1      41.387  29.354  32.293  1.00  0.00     0.074 A 
ATOM     59  C   UNL A   1      40.965  30.248  33.348  1.00  0.00     0.031 C 
ATOM     60  C   UNL A   1      47.586  28.362  33.722  1.00  0.00     0.029 A 
ATOM     61  C   UNL A   1      46.830  27.778  32.614  1.00  0.00     0.049 A 
ATOM     62  H   UNL A   1      44.854  28.191  32.094  1.00  0.00     0.167 HD
ATOM     63  C   UNL A   1      40.593  28.945  31.273  1.00  0.00     0.034 A 
ATOM     64  C   UNL A   1      47.296  26.873  31.726  1.00  0.00     0.034 A 
ATOM     65  C   UNL A   1      41.025  28.038  30.241  1.00  0.00     0.049 A 
ATOM     66  C   UNL A   1      46.360  26.338  30.662  1.00  0.00     0.074 A 
ATOM     67  C   UNL A   1      40.305  27.552  29.164  1.00  0.00     0.029 A 
ATOM     68  N   UNL A   1      42.288  27.466  30.164  1.00  0.00    -0.354 N 
ATOM     69  N   UNL A   1      45.099  26.634  30.443  1.00  0.00    -0.248 NA
ATOM     70  C   UNL A   1      46.910  25.347  29.726  1.00  0.00     0.031 C 
ATOM     71  C   UNL A   1      41.103  26.626  28.487  1.00  0.00     0.029 A 
ATOM     72  C   UNL A   1      42.356  26.608  29.078  1.00  0.00     0.049 A 
ATOM     73  H   UNL A   1      43.028  27.644  30.790  1.00  0.00     0.167 HD
ATOM     74  C   UNL A   1      44.724  25.903  29.316  1.00  0.00     0.074 A 
ATOM     75  C   UNL A   1      45.889  25.151  28.904  1.00  0.00     0.031 C 
ATOM     76  C   UNL A   1      43.529  25.870  28.672  1.00  0.00     0.034 A 
BRANCH  63  77
ATOM     77  C   UNL A   1      39.162  29.427  31.274  1.00  0.00     0.023 A 
ATOM     78  C   UNL A   1      38.777  30.615  30.629  1.00  0.00     0.031 A 
ATOM     79  C   UNL A   1      38.173  28.706  31.968  1.00  0.00     0.131 A 
ATOM     80  C   UNL A   1      37.461  31.085  30.753  1.00  0.00     0.055 A 
ATOM     81  C   UNL A   1      36.845  29.132  32.014  1.00  0.00     0.041 A 
ATOM     82  F   UNL A   1      38.486  27.580  32.629  1.00  0.00    -0.206 F 
ATOM     83  C   UNL A   1      36.486  30.338  31.418  1.00  0.00     0.022 A 
BRANCH  80  84
ATOM     84  S   UNL A   1      37.081  32.761  30.174  1.00  0.00     0.124 S 
ATOM     85  O   UNL A   1      38.100  32.957  29.147  1.00  0.00    -0.237 OA
ATOM     86  O   UNL A   1      35.710  32.625  29.696  1.00  0.00    -0.237 OA
ATOM     87  O   UNL A   1      37.246  33.583  31.371  1.00  0.00    -0.744 OA
ENDBRANCH  80  84
ENDBRANCH  63  77
BRANCH  64  88
ATOM     88  C   UNL A   1      48.697  26.364  31.822  1.00  0.00     0.023 A 
ATOM     89  C   UNL A   1      49.003  25.218  32.573  1.00  0.00     0.031 A 
ATOM     90  C   UNL A   1      49.763  27.058  31.222  1.00  0.00     0.131 A 
ATOM     91  C   UNL A   1      50.341  24.829  32.747  1.00  0.00     0.055 A 
ATOM     92  C   UNL A   1      51.087  26.633  31.346  1.00  0.00     0.041 A 
ATOM     93  F   UNL A   1      49.531  28.167  30.500  1.00  0.00    -0.206 F 
ATOM     94  C   UNL A   1      51.384  25.519  32.125  1.00  0.00     0.022 A 
BRANCH  91  95
ATOM     95  S   UNL A   1      50.710  23.469  33.888  1.00  0.00     0.124 S 
ATOM     96  O   UNL A   1      49.665  23.633  34.891  1.00  0.00    -0.237 OA
ATOM     97  O   UNL A   1      50.589  22.303  33.019  1.00  0.00    -0.237 OA
ATOM     98  O   UNL A   1      52.067  23.765  34.344  1.00  0.00    -0.744 OA
ENDBRANCH  91  95
ENDBRANCH  64  88
BRANCH  76  99
ATOM     99  C   UNL A   1      43.439  25.058  27.399  1.00  0.00     0.023 A 
ATOM    100  C   UNL A   1      42.859  23.779  27.360  1.00  0.00     0.031 A 
ATOM    101  C   UNL A   1      43.920  25.604  26.193  1.00  0.00     0.131 A 
ATOM    102  C   UNL A   1      42.811  23.072  26.147  1.00  0.00     0.055 A 
ATOM    103  C   UNL A   1      43.812  24.922  24.981  1.00  0.00     0.041 A 
ATOM    104  F   UNL A   1      44.486  26.821  26.172  1.00  0.00    -0.206 F 
ATOM    105  C   UNL A   1      43.263  23.645  24.955  1.00  0.00     0.022 A 
BRANCH 102 106
ATOM    106  S   UNL A   1      42.216  21.358  26.155  1.00  0.00     0.124 S 
ATOM    107  O   UNL A   1      43.069  20.736  25.149  1.00  0.00    -0.237 OA
ATOM    108  O   UNL A   1      42.456  20.950  27.536  1.00  0.00    -0.237 OA
ATOM    109  O   UNL A   1      40.807  21.482  25.783  1.00  0.00    -0.744 OA
ENDBRANCH 102 106
ENDBRANCH  76  99
ENDBRANCH  50  51
ENDBRANCH  43  45
ENDBRANCH  42  43
ENDBRANCH  41  42
ENDBRANCH  40  41
ENDBRANCH  39  40
ENDBRANCH  38  39
ENDBRANCH  37  38
ENDBRANCH  36  37
ENDBRANCH  35  36
ENDBRANCH  34  35
ENDBRANCH  33  34
ENDBRANCH   1  33
TORSDOF 33
ENDMDL
MODEL 2
REMARK VINA RESULT:      -5.9      4.406      9.483
REMARK SMILES CCCCCCCNC(=O)Oc1cccc(-c2ccc([C@@H](C)C(=O)OCCOCCOCCOCCOC(=O)c3ccc(-c4c5nc(c(-c6cc(S(=O)(=O)[O-])ccc6F)c6ccc([nH]6)c(-c6cc(S(=O)(=O)[O-])ccc6F)c6nc(c(-c7cc(S(=O)(=O)[O-])ccc7F)c7ccc4[nH]7)C=C6)C=C5)cc3)cc2F)c1
REMARK SMILES IDX 27 1 26 2 25 3 23 4 24 5 21 6 22 7 20 8 17 9 18 10 104 11
REMARK SMILES IDX 19 12 103 13 105 14 16 15 12 16 13 17 106 18 14 19 15 20
REMARK SMILES IDX 11 21 9 22 8 23 10 25 7 26 6 27 5 28 4 29 3 30 2 31 1 32
REMARK SMILES IDX 28 33 29 34 30 35 31 36 32 37 33 38 34 39 35 40 36 41 37 42
REMARK SMILES IDX 38 43 39 44 40 45 41 46 102 47 42 48 101 49 43 50 44 51
REMARK SMILES IDX 45 52 95 53 46 54 100 55 94 56 96 57 47 58 99 59 93 60 92 61
REMARK SMILES IDX 48 63 80 64 60 65 79 66 61 67 64 68 78 69 97 70 62 71 63 72
REMARK SMILES IDX 77 74 98 75 65 76 49 77 50 78 58 79 51 80 57 81 59 82 56 83
REMARK SMILES IDX 52 84 53 85 54 86 55 87 81 88 82 89 90 90 83 91 89 92 91 93
REMARK SMILES IDX 88 94 84 95 85 96 86 97 87 98 66 99 67 100 75 101 68 102
REMARK SMILES IDX 74 103 76 104 73 105 69 106 70 107 71 108 72 109
REMARK H PARENT 8 24 96 62 64 73
REMARK Flexibility Score: inf
ROOT
ATOM      1  C   UNL A   1      43.526  33.822  34.232  1.00  0.00     0.202 C 
ENDROOT
BRANCH   1   2
ATOM      2  C   UNL A   1      44.303  34.889  33.434  1.00  0.00     0.261 C 
BRANCH   2   3
ATOM      3  O   UNL A   1      43.843  35.167  32.095  1.00  0.00    -0.463 OA
BRANCH   3   4
ATOM      4  C   UNL A   1      44.418  36.216  31.467  1.00  0.00     0.313 C 
ATOM      5  O   UNL A   1      44.553  37.325  31.983  1.00  0.00    -0.252 OA
BRANCH   4   6
ATOM      6  C   UNL A   1      44.876  35.970  30.030  1.00  0.00     0.126 C 
ATOM      7  C   UNL A   1      46.223  35.258  30.067  1.00  0.00     0.025 C 
BRANCH   6   8
ATOM      8  C   UNL A   1      44.867  37.085  28.983  1.00  0.00    -0.031 A 
ATOM      9  C   UNL A   1      44.947  39.251  27.090  1.00  0.00     0.018 A 
ATOM     10  C   UNL A   1      44.171  38.098  26.867  1.00  0.00     0.012 A 
ATOM     11  C   UNL A   1      45.686  39.287  28.276  1.00  0.00     0.131 A 
ATOM     12  C   UNL A   1      44.128  37.034  27.795  1.00  0.00     0.005 A 
ATOM     13  C   UNL A   1      45.640  38.242  29.210  1.00  0.00     0.044 A 
ATOM     14  F   UNL A   1      46.454  40.350  28.564  1.00  0.00    -0.206 F 
BRANCH   9  15
ATOM     15  C   UNL A   1      44.930  40.391  26.148  1.00  0.00    -0.012 A 
ATOM     16  C   UNL A   1      45.893  41.710  24.340  1.00  0.00     0.133 A 
ATOM     17  C   UNL A   1      44.871  42.651  24.442  1.00  0.00     0.047 A 
ATOM     18  C   UNL A   1      45.940  40.594  25.187  1.00  0.00     0.056 A 
ATOM     19  C   UNL A   1      43.867  42.465  25.385  1.00  0.00     0.004 A 
ATOM     20  C   UNL A   1      43.897  41.348  26.226  1.00  0.00     0.009 A 
BRANCH  16  21
ATOM     21  O   UNL A   1      46.927  42.010  23.436  1.00  0.00    -0.410 OA
BRANCH  21  22
ATOM     22  C   UNL A   1      46.583  42.231  22.112  1.00  0.00     0.412 C 
ATOM     23  N   UNL A   1      46.748  43.532  21.716  1.00  0.00    -0.321 N 
ATOM     24  H   UNL A   1      46.565  43.727  20.768  1.00  0.00     0.167 HD
ATOM     25  O   UNL A   1      46.160  41.390  21.328  1.00  0.00    -0.224 OA
BRANCH  23  26
ATOM     26  C   UNL A   1      47.162  44.655  22.534  1.00  0.00     0.119 C 
BRANCH  26  27
ATOM     27  C   UNL A   1      46.554  45.975  22.057  1.00  0.00     0.021 C 
BRANCH  27  28
ATOM     28  C   UNL A   1      46.805  46.306  20.579  1.00  0.00     0.002 C 
BRANCH  28  29
ATOM     29  C   UNL A   1      45.575  46.766  19.789  1.00  0.00     0.000 C 
BRANCH  29  30
ATOM     30  C   UNL A   1      44.588  45.657  19.408  1.00  0.00    -0.000 C 
BRANCH  30  31
ATOM     31  C   UNL A   1      44.383  45.449  17.904  1.00  0.00    -0.003 C 
ATOM     32  C   UNL A   1      45.584  45.862  17.067  1.00  0.00     0.004 C 
ENDBRANCH  30  31
ENDBRANCH  29  30
ENDBRANCH  28  29
ENDBRANCH  27  28
ENDBRANCH  26  27
ENDBRANCH  23  26
ENDBRANCH  21  22
ENDBRANCH  16  21
ENDBRANCH   9  15
ENDBRANCH   6   8
ENDBRANCH   4   6
ENDBRANCH   3   4
ENDBRANCH   2   3
ENDBRANCH   1   2
BRANCH   1  33
ATOM     33  O   UNL A   1      43.531  33.835  35.653  1.00  0.00    -0.376 OA
BRANCH  33  34
ATOM     34  C   UNL A   1      42.406  33.374  36.389  1.00  0.00     0.188 C 
BRANCH  34  35
ATOM     35  C   UNL A   1      42.062  33.944  37.773  1.00  0.00     0.188 C 
BRANCH  35  36
ATOM     36  O   UNL A   1      43.146  34.511  38.474  1.00  0.00    -0.377 OA
BRANCH  36  37
ATOM     37  C   UNL A   1      43.124  35.921  38.638  1.00  0.00     0.188 C 
BRANCH  37  38
ATOM     38  C   UNL A   1      42.118  36.486  39.660  1.00  0.00     0.188 C 
BRANCH  38  39
ATOM     39  O   UNL A   1      41.063  37.242  39.072  1.00  0.00    -0.376 OA
BRANCH  39  40
ATOM     40  C   UNL A   1      39.783  36.633  38.952  1.00  0.00     0.202 C 
BRANCH  40  41
ATOM     41  C   UNL A   1      39.345  35.639  40.040  1.00  0.00     0.261 C 
BRANCH  41  42
ATOM     42  O   UNL A   1      39.281  34.259  39.665  1.00  0.00    -0.460 OA
BRANCH  42  43
ATOM     43  C   UNL A   1      38.066  33.696  39.477  1.00  0.00     0.338 C 
ATOM     44  O   UNL A   1      37.076  33.853  40.156  1.00  0.00    -0.246 OA
BRANCH  43  45
ATOM     45  C   UNL A   1      38.099  33.036  38.149  1.00  0.00     0.060 A 
ATOM     46  C   UNL A   1      37.715  31.692  38.042  1.00  0.00     0.016 A 
ATOM     47  C   UNL A   1      38.493  33.749  37.015  1.00  0.00     0.016 A 
ATOM     48  C   UNL A   1      37.766  31.042  36.806  1.00  0.00     0.010 A 
ATOM     49  C   UNL A   1      38.572  33.091  35.785  1.00  0.00     0.010 A 
ATOM     50  C   UNL A   1      38.245  31.725  35.680  1.00  0.00    -0.014 A 
BRANCH  50  51
ATOM     51  C   UNL A   1      38.656  30.975  34.466  1.00  0.00     0.031 A 
ATOM     52  C   UNL A   1      39.971  30.245  34.514  1.00  0.00     0.074 A 
ATOM     53  C   UNL A   1      37.907  30.948  33.349  1.00  0.00     0.049 A 
ATOM     54  N   UNL A   1      40.637  29.658  33.555  1.00  0.00    -0.248 NA
ATOM     55  C   UNL A   1      40.627  30.185  35.830  1.00  0.00     0.031 C 
ATOM     56  C   UNL A   1      36.583  31.547  33.202  1.00  0.00     0.029 A 
ATOM     57  N   UNL A   1      38.171  30.404  32.114  1.00  0.00    -0.354 N 
ATOM     58  C   UNL A   1      41.799  29.174  34.147  1.00  0.00     0.074 A 
ATOM     59  C   UNL A   1      41.758  29.564  35.540  1.00  0.00     0.031 C 
ATOM     60  C   UNL A   1      36.159  31.357  31.939  1.00  0.00     0.029 A 
ATOM     61  C   UNL A   1      37.203  30.673  31.174  1.00  0.00     0.049 A 
ATOM     62  H   UNL A   1      38.976  29.872  31.921  1.00  0.00     0.167 HD
ATOM     63  C   UNL A   1      42.809  28.469  33.580  1.00  0.00     0.034 A 
ATOM     64  C   UNL A   1      37.185  30.433  29.846  1.00  0.00     0.034 A 
ATOM     65  C   UNL A   1      42.841  28.106  32.186  1.00  0.00     0.049 A 
ATOM     66  C   UNL A   1      38.374  29.747  29.206  1.00  0.00     0.074 A 
ATOM     67  C   UNL A   1      43.814  27.399  31.502  1.00  0.00     0.029 A 
ATOM     68  N   UNL A   1      41.862  28.435  31.257  1.00  0.00    -0.354 N 
ATOM     69  N   UNL A   1      39.480  29.314  29.766  1.00  0.00    -0.248 NA
ATOM     70  C   UNL A   1      38.312  29.519  27.755  1.00  0.00     0.031 C 
ATOM     71  C   UNL A   1      43.466  27.373  30.149  1.00  0.00     0.029 A 
ATOM     72  C   UNL A   1      42.226  27.973  30.001  1.00  0.00     0.049 A 
ATOM     73  H   UNL A   1      41.032  28.924  31.460  1.00  0.00     0.167 HD
ATOM     74  C   UNL A   1      40.220  28.719  28.744  1.00  0.00     0.074 A 
ATOM     75  C   UNL A   1      39.436  28.852  27.535  1.00  0.00     0.031 C 
ATOM     76  C   UNL A   1      41.429  28.105  28.803  1.00  0.00     0.034 A 
BRANCH  63  77
ATOM     77  C   UNL A   1      43.983  28.112  34.459  1.00  0.00     0.023 A 
ATOM     78  C   UNL A   1      43.916  27.073  35.403  1.00  0.00     0.031 A 
ATOM     79  C   UNL A   1      45.177  28.850  34.377  1.00  0.00     0.131 A 
ATOM     80  C   UNL A   1      44.990  26.851  36.277  1.00  0.00     0.055 A 
ATOM     81  C   UNL A   1      46.276  28.567  35.190  1.00  0.00     0.041 A 
ATOM     82  F   UNL A   1      45.292  29.874  33.516  1.00  0.00    -0.206 F 
ATOM     83  C   UNL A   1      46.180  27.573  36.159  1.00  0.00     0.022 A 
BRANCH  80  84
ATOM     84  S   UNL A   1      44.751  25.719  37.674  1.00  0.00     0.124 S 
ATOM     85  O   UNL A   1      44.194  26.612  38.687  1.00  0.00    -0.237 OA
ATOM     86  O   UNL A   1      43.835  24.728  37.123  1.00  0.00    -0.237 OA
ATOM     87  O   UNL A   1      46.101  25.234  37.957  1.00  0.00    -0.744 OA
ENDBRANCH  80  84
ENDBRANCH  63  77
BRANCH  64  88
ATOM     88  C   UNL A   1      36.035  30.885  29.006  1.00  0.00     0.023 A 
ATOM     89  C   UNL A   1      35.567  32.207  29.067  1.00  0.00     0.031 A 
ATOM     90  C   UNL A   1      35.339  29.980  28.184  1.00  0.00     0.131 A 
ATOM     91  C   UNL A   1      34.410  32.576  28.360  1.00  0.00     0.055 A 
ATOM     92  C   UNL A   1      34.226  30.367  27.434  1.00  0.00     0.041 A 
ATOM     93  F   UNL A   1      35.734  28.700  28.094  1.00  0.00    -0.206 F 
ATOM     94  C   UNL A   1      33.746  31.669  27.531  1.00  0.00     0.022 A 
BRANCH  91  95
ATOM     95  S   UNL A   1      33.722  34.233  28.624  1.00  0.00     0.124 S 
ATOM     96  O   UNL A   1      32.443  34.135  27.931  1.00  0.00    -0.237 OA
ATOM     97  O   UNL A   1      33.660  34.307  30.079  1.00  0.00    -0.237 OA
ATOM     98  O   UNL A   1      34.706  35.114  27.998  1.00  0.00    -0.744 OA
ENDBRANCH  91  95
ENDBRANCH  64  88
BRANCH  76  99
ATOM     99  C   UNL A   1      41.948  27.450  27.543  1.00  0.00     0.023 A 
ATOM    100  C   UNL A   1      41.955  26.057  27.366  1.00  0.00     0.031 A 
ATOM    101  C   UNL A   1      42.413  28.254  26.484  1.00  0.00     0.131 A 
ATOM    102  C   UNL A   1      42.456  25.508  26.173  1.00  0.00     0.055 A 
ATOM    103  C   UNL A   1      42.850  27.705  25.279  1.00  0.00     0.041 A 
ATOM    104  F   UNL A   1      42.431  29.592  26.600  1.00  0.00    -0.206 F 
ATOM    105  C   UNL A   1      42.882  26.324  25.122  1.00  0.00     0.022 A 
BRANCH 102 106
ATOM    106  S   UNL A   1      42.615  23.706  26.037  1.00  0.00     0.124 S 
ATOM    107  O   UNL A   1      43.116  23.547  24.677  1.00  0.00    -0.237 OA
ATOM    108  O   UNL A   1      43.560  23.393  27.105  1.00  0.00    -0.237 OA
ATOM    109  O   UNL A   1      41.253  23.223  26.256  1.00  0.00    -0.744 OA
ENDBRANCH 102 106
ENDBRANCH  76  99
ENDBRANCH  50  51
ENDBRANCH  43  45
ENDBRANCH  42  43
ENDBRANCH  41  42
ENDBRANCH  40  41
ENDBRANCH  39  40
ENDBRANCH  38  39
ENDBRANCH  37  38
ENDBRANCH  36  37
ENDBRANCH  35  36
ENDBRANCH  34  35
ENDBRANCH  33  34
ENDBRANCH   1  33
TORSDOF 33
ENDMDL
MODEL 3
REMARK VINA RESULT:      -5.5      3.021      9.199
REMARK SMILES CCCCCCCNC(=O)Oc1cccc(-c2ccc([C@@H](C)C(=O)OCCOCCOCCOCCOC(=O)c3ccc(-c4c5nc(c(-c6cc(S(=O)(=O)[O-])ccc6F)c6ccc([nH]6)c(-c6cc(S(=O)(=O)[O-])ccc6F)c6nc(c(-c7cc(S(=O)(=O)[O-])ccc7F)c7ccc4[nH]7)C=C6)C=C5)cc3)cc2F)c1
REMARK SMILES IDX 27 1 26 2 25 3 23 4 24 5 21 6 22 7 20 8 17 9 18 10 104 11
REMARK SMILES IDX 19 12 103 13 105 14 16 15 12 16 13 17 106 18 14 19 15 20
REMARK SMILES IDX 11 21 9 22 8 23 10 25 7 26 6 27 5 28 4 29 3 30 2 31 1 32
REMARK SMILES IDX 28 33 29 34 30 35 31 36 32 37 33 38 34 39 35 40 36 41 37 42
REMARK SMILES IDX 38 43 39 44 40 45 41 46 102 47 42 48 101 49 43 50 44 51
REMARK SMILES IDX 45 52 95 53 46 54 100 55 94 56 96 57 47 58 99 59 93 60 92 61
REMARK SMILES IDX 48 63 80 64 60 65 79 66 61 67 64 68 78 69 97 70 62 71 63 72
REMARK SMILES IDX 77 74 98 75 65 76 49 77 50 78 58 79 51 80 57 81 59 82 56 83
REMARK SMILES IDX 52 84 53 85 54 86 55 87 81 88 82 89 90 90 83 91 89 92 91 93
REMARK SMILES IDX 88 94 84 95 85 96 86 97 87 98 66 99 67 100 75 101 68 102
REMARK SMILES IDX 74 103 76 104 73 105 69 106 70 107 71 108 72 109
REMARK H PARENT 8 24 96 62 64 73
REMARK Flexibility Score: inf
ROOT
ATOM      1  C   UNL A   1      40.287  34.923  33.385  1.00  0.00     0.202 C 
ENDROOT
BRANCH   1   2
ATOM      2  C   UNL A   1      40.825  34.122  32.182  1.00  0.00     0.261 C 
BRANCH   2   3
ATOM      3  O   UNL A   1      42.245  34.190  31.933  1.00  0.00    -0.463 OA
BRANCH   3   4
ATOM      4  C   UNL A   1      42.628  34.217  30.637  1.00  0.00     0.313 C 
ATOM      5  O   UNL A   1      42.369  35.146  29.873  1.00  0.00    -0.252 OA
BRANCH   4   6
ATOM      6  C   UNL A   1      43.391  32.992  30.137  1.00  0.00     0.126 C 
ATOM      7  C   UNL A   1      42.381  31.932  29.715  1.00  0.00     0.025 C 
BRANCH   6   8
ATOM      8  C   UNL A   1      44.537  32.377  30.942  1.00  0.00    -0.031 A 
ATOM      9  C   UNL A   1      46.783  31.298  32.382  1.00  0.00     0.018 A 
ATOM     10  C   UNL A   1      45.457  30.955  32.708  1.00  0.00     0.012 A 
ATOM     11  C   UNL A   1      46.954  32.198  31.326  1.00  0.00     0.131 A 
ATOM     12  C   UNL A   1      44.353  31.481  32.002  1.00  0.00     0.005 A 
ATOM     13  C   UNL A   1      45.865  32.716  30.610  1.00  0.00     0.044 A 
ATOM     14  F   UNL A   1      48.186  32.578  30.951  1.00  0.00    -0.206 F 
BRANCH   9  15
ATOM     15  C   UNL A   1      47.936  30.687  33.078  1.00  0.00    -0.012 A 
ATOM     16  C   UNL A   1      49.248  30.220  35.077  1.00  0.00     0.133 A 
ATOM     17  C   UNL A   1      50.219  29.565  34.324  1.00  0.00     0.047 A 
ATOM     18  C   UNL A   1      48.120  30.791  34.471  1.00  0.00     0.056 A 
ATOM     19  C   UNL A   1      50.051  29.454  32.948  1.00  0.00     0.004 A 
ATOM     20  C   UNL A   1      48.923  30.007  32.335  1.00  0.00     0.009 A 
BRANCH  16  21
ATOM     21  O   UNL A   1      49.528  30.384  36.446  1.00  0.00    -0.410 OA
BRANCH  21  22
ATOM     22  C   UNL A   1      48.848  31.380  37.129  1.00  0.00     0.412 C 
ATOM     23  N   UNL A   1      47.743  30.924  37.798  1.00  0.00    -0.321 N 
ATOM     24  H   UNL A   1      47.256  31.587  38.341  1.00  0.00     0.167 HD
ATOM     25  O   UNL A   1      49.151  32.566  37.162  1.00  0.00    -0.224 OA
BRANCH  23  26
ATOM     26  C   UNL A   1      47.208  29.576  37.798  1.00  0.00     0.119 C 
BRANCH  26  27
ATOM     27  C   UNL A   1      46.561  29.210  39.136  1.00  0.00     0.021 C 
BRANCH  27  28
ATOM     28  C   UNL A   1      46.419  27.703  39.394  1.00  0.00     0.002 C 
BRANCH  28  29
ATOM     29  C   UNL A   1      47.547  27.067  40.214  1.00  0.00     0.000 C 
BRANCH  29  30
ATOM     30  C   UNL A   1      48.405  26.041  39.465  1.00  0.00    -0.000 C 
BRANCH  30  31
ATOM     31  C   UNL A   1      49.799  25.798  40.050  1.00  0.00    -0.003 C 
ATOM     32  C   UNL A   1      50.883  26.648  39.405  1.00  0.00     0.004 C 
ENDBRANCH  30  31
ENDBRANCH  29  30
ENDBRANCH  28  29
ENDBRANCH  27  28
ENDBRANCH  26  27
ENDBRANCH  23  26
ENDBRANCH  21  22
ENDBRANCH  16  21
ENDBRANCH   9  15
ENDBRANCH   6   8
ENDBRANCH   4   6
ENDBRANCH   3   4
ENDBRANCH   2   3
ENDBRANCH   1   2
BRANCH   1  33
ATOM     33  O   UNL A   1      39.615  34.266  34.450  1.00  0.00    -0.376 OA
BRANCH  33  34
ATOM     34  C   UNL A   1      38.199  34.321  34.563  1.00  0.00     0.188 C 
BRANCH  34  35
ATOM     35  C   UNL A   1      37.313  33.138  34.147  1.00  0.00     0.188 C 
BRANCH  35  36
ATOM     36  O   UNL A   1      35.972  33.465  33.860  1.00  0.00    -0.377 OA
BRANCH  36  37
ATOM     37  C   UNL A   1      35.591  34.815  34.070  1.00  0.00     0.188 C 
BRANCH  37  38
ATOM     38  C   UNL A   1      35.182  35.625  32.824  1.00  0.00     0.188 C 
BRANCH  38  39
ATOM     39  O   UNL A   1      33.805  35.497  32.479  1.00  0.00    -0.376 OA
BRANCH  39  40
ATOM     40  C   UNL A   1      33.464  34.704  31.349  1.00  0.00     0.202 C 
BRANCH  40  41
ATOM     41  C   UNL A   1      34.595  33.989  30.592  1.00  0.00     0.261 C 
BRANCH  41  42
ATOM     42  O   UNL A   1      34.214  33.184  29.472  1.00  0.00    -0.460 OA
BRANCH  42  43
ATOM     43  C   UNL A   1      35.006  33.187  28.376  1.00  0.00     0.338 C 
ATOM     44  O   UNL A   1      34.968  33.965  27.450  1.00  0.00    -0.246 OA
BRANCH  43  45
ATOM     45  C   UNL A   1      36.090  32.205  28.627  1.00  0.00     0.060 A 
ATOM     46  C   UNL A   1      35.757  30.911  29.052  1.00  0.00     0.016 A 
ATOM     47  C   UNL A   1      37.425  32.561  28.429  1.00  0.00     0.016 A 
ATOM     48  C   UNL A   1      36.763  29.980  29.323  1.00  0.00     0.010 A 
ATOM     49  C   UNL A   1      38.431  31.639  28.727  1.00  0.00     0.010 A 
ATOM     50  C   UNL A   1      38.108  30.356  29.210  1.00  0.00    -0.014 A 
BRANCH  50  51
ATOM     51  C   UNL A   1      39.173  29.530  29.835  1.00  0.00     0.031 A 
ATOM     52  C   UNL A   1      39.625  29.913  31.218  1.00  0.00     0.074 A 
ATOM     53  C   UNL A   1      39.738  28.486  29.202  1.00  0.00     0.049 A 
ATOM     54  N   UNL A   1      40.636  29.471  31.920  1.00  0.00    -0.248 NA
ATOM     55  C   UNL A   1      38.827  30.949  31.894  1.00  0.00     0.031 C 
ATOM     56  C   UNL A   1      39.337  27.968  27.897  1.00  0.00     0.029 A 
ATOM     57  N   UNL A   1      40.792  27.685  29.574  1.00  0.00    -0.354 N 
ATOM     58  C   UNL A   1      40.607  30.188  33.112  1.00  0.00     0.074 A 
ATOM     59  C   UNL A   1      39.497  31.112  33.023  1.00  0.00     0.031 C 
ATOM     60  C   UNL A   1      40.151  26.949  27.566  1.00  0.00     0.029 A 
ATOM     61  C   UNL A   1      41.163  26.778  28.609  1.00  0.00     0.049 A 
ATOM     62  H   UNL A   1      41.238  27.754  30.449  1.00  0.00     0.167 HD
ATOM     63  C   UNL A   1      41.432  30.084  34.183  1.00  0.00     0.034 A 
ATOM     64  C   UNL A   1      42.222  25.942  28.557  1.00  0.00     0.034 A 
ATOM     65  C   UNL A   1      42.544  29.171  34.246  1.00  0.00     0.049 A 
ATOM     66  C   UNL A   1      43.201  25.923  29.712  1.00  0.00     0.074 A 
ATOM     67  C   UNL A   1      43.449  28.984  35.275  1.00  0.00     0.029 A 
ATOM     68  N   UNL A   1      42.914  28.299  33.229  1.00  0.00    -0.354 N 
ATOM     69  N   UNL A   1      43.183  26.620  30.825  1.00  0.00    -0.248 NA
ATOM     70  C   UNL A   1      44.344  25.004  29.604  1.00  0.00     0.031 C 
ATOM     71  C   UNL A   1      44.411  28.064  34.851  1.00  0.00     0.029 A 
ATOM     72  C   UNL A   1      44.052  27.598  33.596  1.00  0.00     0.049 A 
ATOM     73  H   UNL A   1      42.438  28.194  32.373  1.00  0.00     0.167 HD
ATOM     74  C   UNL A   1      44.281  26.186  31.568  1.00  0.00     0.074 A 
ATOM     75  C   UNL A   1      44.941  25.171  30.775  1.00  0.00     0.031 C 
ATOM     76  C   UNL A   1      44.696  26.580  32.799  1.00  0.00     0.034 A 
BRANCH  63  77
ATOM     77  C   UNL A   1      41.194  31.032  35.334  1.00  0.00     0.023 A 
ATOM     78  C   UNL A   1      39.979  31.055  36.039  1.00  0.00     0.031 A 
ATOM     79  C   UNL A   1      42.188  31.956  35.705  1.00  0.00     0.131 A 
ATOM     80  C   UNL A   1      39.760  32.029  37.025  1.00  0.00     0.055 A 
ATOM     81  C   UNL A   1      41.997  32.865  36.747  1.00  0.00     0.041 A 
ATOM     82  F   UNL A   1      43.359  32.003  35.049  1.00  0.00    -0.206 F 
ATOM     83  C   UNL A   1      40.771  32.916  37.403  1.00  0.00     0.022 A 
BRANCH  80  84
ATOM     84  S   UNL A   1      38.085  32.225  37.692  1.00  0.00     0.124 S 
ATOM     85  O   UNL A   1      38.110  31.307  38.827  1.00  0.00    -0.237 OA
ATOM     86  O   UNL A   1      38.041  33.646  38.019  1.00  0.00    -0.237 OA
ATOM     87  O   UNL A   1      37.225  31.812  36.585  1.00  0.00    -0.744 OA
ENDBRANCH  80  84
ENDBRANCH  63  77
BRANCH  64  88
ATOM     88  C   UNL A   1      42.459  25.086  27.355  1.00  0.00     0.023 A 
ATOM     89  C   UNL A   1      42.026  23.752  27.318  1.00  0.00     0.031 A 
ATOM     90  C   UNL A   1      43.187  25.570  26.253  1.00  0.00     0.131 A 
ATOM     91  C   UNL A   1      42.365  22.933  26.229  1.00  0.00     0.055 A 
ATOM     92  C   UNL A   1      43.469  24.770  25.144  1.00  0.00     0.041 A 
ATOM     93  F   UNL A   1      43.636  26.835  26.237  1.00  0.00    -0.206 F 
ATOM     94  C   UNL A   1      43.070  23.438  25.134  1.00  0.00     0.022 A 
BRANCH  91  95
ATOM     95  S   UNL A   1      41.965  21.166  26.310  1.00  0.00     0.124 S 
ATOM     96  O   UNL A   1      41.834  20.959  27.747  1.00  0.00    -0.237 OA
ATOM     97  O   UNL A   1      40.729  21.100  25.537  1.00  0.00    -0.237 OA
ATOM     98  O   UNL A   1      43.122  20.525  25.688  1.00  0.00    -0.744 OA
ENDBRANCH  91  95
ENDBRANCH  64  88
BRANCH  76  99
ATOM     99  C   UNL A   1      45.873  25.854  33.410  1.00  0.00     0.023 A 
ATOM    100  C   UNL A   1      45.737  24.626  34.078  1.00  0.00     0.031 A 
ATOM    101  C   UNL A   1      47.166  26.398  33.283  1.00  0.00     0.131 A 
ATOM    102  C   UNL A   1      46.869  24.003  34.630  1.00  0.00     0.055 A 
ATOM    103  C   UNL A   1      48.294  25.743  33.778  1.00  0.00     0.041 A 
ATOM    104  F   UNL A   1      47.355  27.571  32.657  1.00  0.00    -0.206 F 
ATOM    105  C   UNL A   1      48.148  24.543  34.464  1.00  0.00     0.022 A 
BRANCH 102 106
ATOM    106  S   UNL A   1      46.645  22.509  35.635  1.00  0.00     0.124 S 
ATOM    107  O   UNL A   1      45.201  22.500  35.846  1.00  0.00    -0.237 OA
ATOM    108  O   UNL A   1      47.168  21.463  34.762  1.00  0.00    -0.237 OA
ATOM    109  O   UNL A   1      47.445  22.775  36.829  1.00  0.00    -0.744 OA
ENDBRANCH 102 106
ENDBRANCH  76  99
ENDBRANCH  50  51
ENDBRANCH  43  45
ENDBRANCH  42  43
ENDBRANCH  41  42
ENDBRANCH  40  41
ENDBRANCH  39  40
ENDBRANCH  38  39
ENDBRANCH  37  38
ENDBRANCH  36  37
ENDBRANCH  35  36
ENDBRANCH  34  35
ENDBRANCH  33  34
ENDBRANCH   1  33
TORSDOF 33
ENDMDL
