MODEL 1
REMARK VINA RESULT:      -8.4      0.000      0.000
REMARK SMILES CCc1cccc(-c2ccc([C@@H](C)C(=O)OCCOCCOCCOCCOC(=O)c3ccc(-c4c5nc(c(-c6cc(S(=O)(=O)[O-])ccc6F)c6ccc([nH]6)c(-c6cc(S(=O)(=O)[O-])ccc6F)c6nc(c(-c7cc(S(=O)(=O)[O-])ccc7F)c7ccc4[nH]7)C=C6)C=C5)cc3)cc2)c1
REMARK SMILES IDX 22 1 21 2 20 3 19 4 18 5 17 6 16 7 14 8 15 9 12 10 13 11
REMARK SMILES IDX 11 12 8 13 9 14 95 15 10 16 94 17 7 18 3 19 4 20 96 21 5 22
REMARK SMILES IDX 6 23 2 24 1 25 23 26 24 27 25 28 26 29 27 30 28 31 29 32
REMARK SMILES IDX 30 33 31 34 32 35 93 36 33 37 92 38 34 39 35 40 36 41 86 42
REMARK SMILES IDX 37 43 91 44 85 45 87 46 38 47 90 48 84 49 83 50 39 52 71 53
REMARK SMILES IDX 51 54 70 55 52 56 55 57 69 58 88 59 53 60 54 61 68 63 89 64
REMARK SMILES IDX 56 65 40 66 41 67 49 68 42 69 48 70 50 71 47 72 43 73 44 74
REMARK SMILES IDX 45 75 46 76 72 77 73 78 81 79 74 80 80 81 82 82 79 83 75 84
REMARK SMILES IDX 76 85 77 86 78 87 57 88 58 89 66 90 59 91 65 92 67 93 64 94
REMARK SMILES IDX 60 95 61 96 62 97 63 98
REMARK H PARENT 87 51 55 62
REMARK Flexibility Score: inf
ROOT
ATOM      1  O   UNL A   1      36.484  23.280  24.233  1.00  0.00    -0.377 OA
ENDROOT
BRANCH   1   2
ATOM      2  C   UNL A   1      35.263  22.621  23.977  1.00  0.00     0.188 C 
BRANCH   2   3
ATOM      3  C   UNL A   1      34.481  23.139  22.761  1.00  0.00     0.188 C 
BRANCH   3   4
ATOM      4  O   UNL A   1      33.977  24.466  22.714  1.00  0.00    -0.376 OA
BRANCH   4   5
ATOM      5  C   UNL A   1      32.887  24.859  23.537  1.00  0.00     0.202 C 
BRANCH   5   6
ATOM      6  C   UNL A   1      31.491  25.112  22.938  1.00  0.00     0.261 C 
BRANCH   6   7
ATOM      7  O   UNL A   1      31.007  26.472  22.949  1.00  0.00    -0.463 OA
BRANCH   7   8
ATOM      8  C   UNL A   1      30.563  26.943  24.136  1.00  0.00     0.313 C 
ATOM      9  O   UNL A   1      29.923  26.263  24.937  1.00  0.00    -0.252 OA
BRANCH   8  10
ATOM     10  C   UNL A   1      30.872  28.409  24.439  1.00  0.00     0.126 C 
ATOM     11  C   UNL A   1      30.918  29.173  23.119  1.00  0.00     0.025 C 
BRANCH  10  12
ATOM     12  C   UNL A   1      32.026  28.817  25.357  1.00  0.00    -0.034 A 
ATOM     13  C   UNL A   1      34.130  29.708  27.098  1.00  0.00    -0.018 A 
ATOM     14  C   UNL A   1      34.083  28.392  26.605  1.00  0.00     0.009 A 
ATOM     15  C   UNL A   1      33.100  30.572  26.707  1.00  0.00     0.009 A 
ATOM     16  C   UNL A   1      33.054  27.951  25.747  1.00  0.00     0.005 A 
ATOM     17  C   UNL A   1      32.078  30.141  25.845  1.00  0.00     0.005 A 
BRANCH  13  18
ATOM     18  C   UNL A   1      35.254  30.189  27.933  1.00  0.00    -0.018 A 
ATOM     19  C   UNL A   1      36.920  29.872  29.723  1.00  0.00    -0.048 A 
ATOM     20  C   UNL A   1      37.327  31.204  29.559  1.00  0.00     0.004 A 
ATOM     21  C   UNL A   1      35.874  29.384  28.913  1.00  0.00     0.012 A 
ATOM     22  C   UNL A   1      36.730  32.016  28.599  1.00  0.00     0.001 A 
ATOM     23  C   UNL A   1      35.708  31.512  27.795  1.00  0.00     0.009 A 
BRANCH  19  24
ATOM     24  C   UNL A   1      37.570  29.054  30.817  1.00  0.00     0.032 C 
ATOM     25  C   UNL A   1      38.532  27.971  30.348  1.00  0.00     0.009 C 
ENDBRANCH  19  24
ENDBRANCH  13  18
ENDBRANCH  10  12
ENDBRANCH   8  10
ENDBRANCH   7   8
ENDBRANCH   6   7
ENDBRANCH   5   6
ENDBRANCH   4   5
ENDBRANCH   3   4
ENDBRANCH   2   3
ENDBRANCH   1   2
BRANCH   1  26
ATOM     26  C   UNL A   1      37.502  22.516  24.858  1.00  0.00     0.188 C 
BRANCH  26  27
ATOM     27  C   UNL A   1      38.129  23.104  26.135  1.00  0.00     0.188 C 
BRANCH  27  28
ATOM     28  O   UNL A   1      39.387  22.532  26.476  1.00  0.00    -0.376 OA
BRANCH  28  29
ATOM     29  C   UNL A   1      40.227  23.230  27.385  1.00  0.00     0.202 C 
BRANCH  29  30
ATOM     30  C   UNL A   1      41.466  23.958  26.832  1.00  0.00     0.261 C 
BRANCH  30  31
ATOM     31  O   UNL A   1      41.437  25.394  26.816  1.00  0.00    -0.460 OA
BRANCH  31  32
ATOM     32  C   UNL A   1      42.241  26.038  25.947  1.00  0.00     0.338 C 
ATOM     33  O   UNL A   1      42.406  25.763  24.769  1.00  0.00    -0.246 OA
BRANCH  32  34
ATOM     34  C   UNL A   1      42.731  27.272  26.602  1.00  0.00     0.060 A 
ATOM     35  C   UNL A   1      43.469  27.161  27.788  1.00  0.00     0.016 A 
ATOM     36  C   UNL A   1      42.473  28.530  26.052  1.00  0.00     0.016 A 
ATOM     37  C   UNL A   1      43.917  28.306  28.449  1.00  0.00     0.010 A 
ATOM     38  C   UNL A   1      42.898  29.680  26.732  1.00  0.00     0.010 A 
ATOM     39  C   UNL A   1      43.593  29.574  27.951  1.00  0.00    -0.014 A 
BRANCH  39  40
ATOM     40  C   UNL A   1      43.791  30.772  28.808  1.00  0.00     0.031 A 
ATOM     41  C   UNL A   1      42.686  31.158  29.756  1.00  0.00     0.074 A 
ATOM     42  C   UNL A   1      44.936  31.480  28.783  1.00  0.00     0.049 A 
ATOM     43  N   UNL A   1      42.595  32.189  30.555  1.00  0.00    -0.248 NA
ATOM     44  C   UNL A   1      41.526  30.254  29.803  1.00  0.00     0.031 C 
ATOM     45  C   UNL A   1      46.101  31.170  27.956  1.00  0.00     0.029 A 
ATOM     46  N   UNL A   1      45.302  32.612  29.469  1.00  0.00    -0.354 N 
ATOM     47  C   UNL A   1      41.368  32.059  31.200  1.00  0.00     0.074 A 
ATOM     48  C   UNL A   1      40.735  30.872  30.666  1.00  0.00     0.031 C 
ATOM     49  C   UNL A   1      47.046  32.103  28.171  1.00  0.00     0.029 A 
ATOM     50  C   UNL A   1      46.539  33.098  29.115  1.00  0.00     0.049 A 
ATOM     51  H   UNL A   1      44.732  33.036  30.151  1.00  0.00     0.167 HD
ATOM     52  C   UNL A   1      40.826  32.849  32.158  1.00  0.00     0.034 A 
ATOM     53  C   UNL A   1      47.172  34.232  29.483  1.00  0.00     0.034 A 
ATOM     54  C   UNL A   1      41.460  34.040  32.669  1.00  0.00     0.049 A 
ATOM     55  C   UNL A   1      46.499  35.160  30.472  1.00  0.00     0.074 A 
ATOM     56  C   UNL A   1      40.995  34.917  33.632  1.00  0.00     0.029 A 
ATOM     57  N   UNL A   1      42.691  34.529  32.249  1.00  0.00    -0.354 N 
ATOM     58  N   UNL A   1      45.336  35.031  31.071  1.00  0.00    -0.248 NA
ATOM     59  C   UNL A   1      47.226  36.383  30.840  1.00  0.00     0.031 C 
ATOM     60  C   UNL A   1      41.903  35.976  33.736  1.00  0.00     0.029 A 
ATOM     61  C   UNL A   1      42.983  35.712  32.910  1.00  0.00     0.049 A 
ATOM     62  H   UNL A   1      43.270  34.097  31.580  1.00  0.00     0.167 HD
ATOM     63  C   UNL A   1      45.214  36.137  31.911  1.00  0.00     0.074 A 
ATOM     64  C   UNL A   1      46.427  36.911  31.754  1.00  0.00     0.031 C 
ATOM     65  C   UNL A   1      44.196  36.480  32.742  1.00  0.00     0.034 A 
BRANCH  52  66
ATOM     66  C   UNL A   1      39.459  32.475  32.677  1.00  0.00     0.023 A 
ATOM     67  C   UNL A   1      38.305  33.186  32.302  1.00  0.00     0.031 A 
ATOM     68  C   UNL A   1      39.308  31.404  33.576  1.00  0.00     0.131 A 
ATOM     69  C   UNL A   1      37.066  32.859  32.871  1.00  0.00     0.055 A 
ATOM     70  C   UNL A   1      38.059  31.031  34.074  1.00  0.00     0.041 A 
ATOM     71  F   UNL A   1      40.377  30.707  33.993  1.00  0.00    -0.206 F 
ATOM     72  C   UNL A   1      36.929  31.767  33.732  1.00  0.00     0.022 A 
BRANCH  69  73
ATOM     73  S   UNL A   1      35.659  33.966  32.579  1.00  0.00     0.124 S 
ATOM     74  O   UNL A   1      34.540  33.151  33.046  1.00  0.00    -0.237 OA
ATOM     75  O   UNL A   1      35.992  35.124  33.401  1.00  0.00    -0.237 OA
ATOM     76  O   UNL A   1      35.695  34.194  31.136  1.00  0.00    -0.744 OA
ENDBRANCH  69  73
ENDBRANCH  52  66
BRANCH  53  77
ATOM     77  C   UNL A   1      48.488  34.602  28.879  1.00  0.00     0.023 A 
ATOM     78  C   UNL A   1      48.582  35.079  27.562  1.00  0.00     0.031 A 
ATOM     79  C   UNL A   1      49.687  34.402  29.591  1.00  0.00     0.131 A 
ATOM     80  C   UNL A   1      49.844  35.284  26.979  1.00  0.00     0.055 A 
ATOM     81  C   UNL A   1      50.936  34.673  29.029  1.00  0.00     0.041 A 
ATOM     82  F   UNL A   1      49.660  33.938  30.850  1.00  0.00    -0.206 F 
ATOM     83  C   UNL A   1      51.020  35.101  27.709  1.00  0.00     0.022 A 
BRANCH  80  84
ATOM     84  S   UNL A   1      49.929  35.683  25.210  1.00  0.00     0.124 S 
ATOM     85  O   UNL A   1      50.561  34.486  24.668  1.00  0.00    -0.237 OA
ATOM     86  O   UNL A   1      48.522  35.874  24.875  1.00  0.00    -0.237 OA
ATOM     87  O   UNL A   1      50.746  36.893  25.175  1.00  0.00    -0.744 OA
ENDBRANCH  80  84
ENDBRANCH  53  77
BRANCH  65  88
ATOM     88  C   UNL A   1      44.376  37.718  33.589  1.00  0.00     0.023 A 
ATOM     89  C   UNL A   1      43.749  38.936  33.273  1.00  0.00     0.031 A 
ATOM     90  C   UNL A   1      45.193  37.677  34.734  1.00  0.00     0.131 A 
ATOM     91  C   UNL A   1      43.998  40.075  34.055  1.00  0.00     0.055 A 
ATOM     92  C   UNL A   1      45.379  38.794  35.549  1.00  0.00     0.041 A 
ATOM     93  F   UNL A   1      45.820  36.542  35.086  1.00  0.00    -0.206 F 
ATOM     94  C   UNL A   1      44.791  40.007  35.203  1.00  0.00     0.022 A 
BRANCH  91  95
ATOM     95  S   UNL A   1      43.354  41.675  33.493  1.00  0.00     0.124 S 
ATOM     96  O   UNL A   1      43.460  41.552  32.043  1.00  0.00    -0.237 OA
ATOM     97  O   UNL A   1      41.999  41.675  34.036  1.00  0.00    -0.237 OA
ATOM     98  O   UNL A   1      44.265  42.644  34.102  1.00  0.00    -0.744 OA
ENDBRANCH  91  95
ENDBRANCH  65  88
ENDBRANCH  39  40
ENDBRANCH  32  34
ENDBRANCH  31  32
ENDBRANCH  30  31
ENDBRANCH  29  30
ENDBRANCH  28  29
ENDBRANCH  27  28
ENDBRANCH  26  27
ENDBRANCH   1  26
TORSDOF 26
ENDMDL
MODEL 2
REMARK VINA RESULT:      -8.2      4.885     10.781
REMARK SMILES CCc1cccc(-c2ccc([C@@H](C)C(=O)OCCOCCOCCOCCOC(=O)c3ccc(-c4c5nc(c(-c6cc(S(=O)(=O)[O-])ccc6F)c6ccc([nH]6)c(-c6cc(S(=O)(=O)[O-])ccc6F)c6nc(c(-c7cc(S(=O)(=O)[O-])ccc7F)c7ccc4[nH]7)C=C6)C=C5)cc3)cc2)c1
REMARK SMILES IDX 22 1 21 2 20 3 19 4 18 5 17 6 16 7 14 8 15 9 12 10 13 11
REMARK SMILES IDX 11 12 8 13 9 14 95 15 10 16 94 17 7 18 3 19 4 20 96 21 5 22
REMARK SMILES IDX 6 23 2 24 1 25 23 26 24 27 25 28 26 29 27 30 28 31 29 32
REMARK SMILES IDX 30 33 31 34 32 35 93 36 33 37 92 38 34 39 35 40 36 41 86 42
REMARK SMILES IDX 37 43 91 44 85 45 87 46 38 47 90 48 84 49 83 50 39 52 71 53
REMARK SMILES IDX 51 54 70 55 52 56 55 57 69 58 88 59 53 60 54 61 68 63 89 64
REMARK SMILES IDX 56 65 40 66 41 67 49 68 42 69 48 70 50 71 47 72 43 73 44 74
REMARK SMILES IDX 45 75 46 76 72 77 73 78 81 79 74 80 80 81 82 82 79 83 75 84
REMARK SMILES IDX 76 85 77 86 78 87 57 88 58 89 66 90 59 91 65 92 67 93 64 94
REMARK SMILES IDX 60 95 61 96 62 97 63 98
REMARK H PARENT 87 51 55 62
REMARK Flexibility Score: inf
ROOT
ATOM      1  O   UNL A   1      42.015  28.827  26.349  1.00  0.00    -0.377 OA
ENDROOT
BRANCH   1   2
ATOM      2  C   UNL A   1      42.149  27.427  26.458  1.00  0.00     0.188 C 
BRANCH   2   3
ATOM      3  C   UNL A   1      42.322  26.894  27.888  1.00  0.00     0.188 C 
BRANCH   3   4
ATOM      4  O   UNL A   1      43.606  26.771  28.483  1.00  0.00    -0.376 OA
BRANCH   4   5
ATOM      5  C   UNL A   1      43.833  27.200  29.818  1.00  0.00     0.202 C 
BRANCH   5   6
ATOM      6  C   UNL A   1      42.715  27.131  30.876  1.00  0.00     0.261 C 
BRANCH   6   7
ATOM      7  O   UNL A   1      43.036  27.597  32.204  1.00  0.00    -0.463 OA
BRANCH   7   8
ATOM      8  C   UNL A   1      42.079  28.313  32.837  1.00  0.00     0.313 C 
ATOM      9  O   UNL A   1      41.346  27.843  33.707  1.00  0.00    -0.252 OA
BRANCH   8  10
ATOM     10  C   UNL A   1      41.921  29.767  32.393  1.00  0.00     0.126 C 
ATOM     11  C   UNL A   1      42.301  30.670  33.562  1.00  0.00     0.025 C 
BRANCH  10  12
ATOM     12  C   UNL A   1      40.653  30.265  31.696  1.00  0.00    -0.034 A 
ATOM     13  C   UNL A   1      38.327  31.156  30.264  1.00  0.00    -0.018 A 
ATOM     14  C   UNL A   1      38.399  31.208  31.669  1.00  0.00     0.009 A 
ATOM     15  C   UNL A   1      39.441  30.645  29.588  1.00  0.00     0.009 A 
ATOM     16  C   UNL A   1      39.541  30.774  32.375  1.00  0.00     0.005 A 
ATOM     17  C   UNL A   1      40.585  30.221  30.287  1.00  0.00     0.005 A 
BRANCH  13  18
ATOM     18  C   UNL A   1      37.160  31.685  29.523  1.00  0.00    -0.018 A 
ATOM     19  C   UNL A   1      35.152  31.374  28.126  1.00  0.00    -0.048 A 
ATOM     20  C   UNL A   1      35.012  32.767  28.044  1.00  0.00     0.004 A 
ATOM     21  C   UNL A   1      36.238  30.848  28.857  1.00  0.00     0.012 A 
ATOM     22  C   UNL A   1      35.910  33.610  28.692  1.00  0.00     0.001 A 
ATOM     23  C   UNL A   1      36.968  33.073  29.426  1.00  0.00     0.009 A 
BRANCH  19  24
ATOM     24  C   UNL A   1      34.177  30.509  27.358  1.00  0.00     0.032 C 
ATOM     25  C   UNL A   1      34.694  29.139  26.944  1.00  0.00     0.009 C 
ENDBRANCH  19  24
ENDBRANCH  13  18
ENDBRANCH  10  12
ENDBRANCH   8  10
ENDBRANCH   7   8
ENDBRANCH   6   7
ENDBRANCH   5   6
ENDBRANCH   4   5
ENDBRANCH   3   4
ENDBRANCH   2   3
ENDBRANCH   1   2
BRANCH   1  26
ATOM     26  C   UNL A   1      43.215  29.577  26.263  1.00  0.00     0.188 C 
BRANCH  26  27
ATOM     27  C   UNL A   1      43.745  30.195  27.569  1.00  0.00     0.188 C 
BRANCH  27  28
ATOM     28  O   UNL A   1      44.575  31.335  27.373  1.00  0.00    -0.376 OA
BRANCH  28  29
ATOM     29  C   UNL A   1      44.765  31.817  26.050  1.00  0.00     0.202 C 
BRANCH  29  30
ATOM     30  C   UNL A   1      44.889  33.336  25.830  1.00  0.00     0.261 C 
BRANCH  30  31
ATOM     31  O   UNL A   1      45.087  34.158  26.990  1.00  0.00    -0.460 OA
BRANCH  31  32
ATOM     32  C   UNL A   1      44.156  35.090  27.278  1.00  0.00     0.338 C 
ATOM     33  O   UNL A   1      43.626  35.854  26.488  1.00  0.00    -0.246 OA
BRANCH  32  34
ATOM     34  C   UNL A   1      43.723  34.890  28.679  1.00  0.00     0.060 A 
ATOM     35  C   UNL A   1      43.332  33.608  29.090  1.00  0.00     0.016 A 
ATOM     36  C   UNL A   1      43.708  35.952  29.587  1.00  0.00     0.016 A 
ATOM     37  C   UNL A   1      42.887  33.392  30.395  1.00  0.00     0.010 A 
ATOM     38  C   UNL A   1      43.234  35.740  30.888  1.00  0.00     0.010 A 
ATOM     39  C   UNL A   1      42.789  34.466  31.288  1.00  0.00    -0.014 A 
BRANCH  39  40
ATOM     40  C   UNL A   1      42.028  34.300  32.554  1.00  0.00     0.031 A 
ATOM     41  C   UNL A   1      42.803  34.047  33.821  1.00  0.00     0.074 A 
ATOM     42  C   UNL A   1      40.687  34.412  32.594  1.00  0.00     0.049 A 
ATOM     43  N   UNL A   1      42.367  33.807  35.031  1.00  0.00    -0.248 NA
ATOM     44  C   UNL A   1      44.269  34.065  33.700  1.00  0.00     0.031 C 
ATOM     45  C   UNL A   1      39.832  34.717  31.449  1.00  0.00     0.029 A 
ATOM     46  N   UNL A   1      39.810  34.273  33.643  1.00  0.00    -0.354 N 
ATOM     47  C   UNL A   1      43.506  33.647  35.816  1.00  0.00     0.074 A 
ATOM     48  C   UNL A   1      44.646  33.773  34.934  1.00  0.00     0.031 C 
ATOM     49  C   UNL A   1      38.549  34.725  31.856  1.00  0.00     0.029 A 
ATOM     50  C   UNL A   1      38.488  34.382  33.276  1.00  0.00     0.049 A 
ATOM     51  H   UNL A   1      40.100  34.111  34.569  1.00  0.00     0.167 HD
ATOM     52  C   UNL A   1      43.591  33.425  37.150  1.00  0.00     0.034 A 
ATOM     53  C   UNL A   1      37.362  34.192  33.996  1.00  0.00     0.034 A 
ATOM     54  C   UNL A   1      42.445  33.282  38.014  1.00  0.00     0.049 A 
ATOM     55  C   UNL A   1      37.480  33.835  35.462  1.00  0.00     0.074 A 
ATOM     56  C   UNL A   1      42.418  33.048  39.377  1.00  0.00     0.029 A 
ATOM     57  N   UNL A   1      41.121  33.348  37.598  1.00  0.00    -0.354 N 
ATOM     58  N   UNL A   1      38.561  33.679  36.193  1.00  0.00    -0.248 NA
ATOM     59  C   UNL A   1      36.226  33.636  36.202  1.00  0.00     0.031 C 
ATOM     60  C   UNL A   1      41.085  32.891  39.769  1.00  0.00     0.029 A 
ATOM     61  C   UNL A   1      40.273  33.125  38.671  1.00  0.00     0.049 A 
ATOM     62  H   UNL A   1      40.829  33.527  36.675  1.00  0.00     0.167 HD
ATOM     63  C   UNL A   1      38.113  33.400  37.483  1.00  0.00     0.074 A 
ATOM     64  C   UNL A   1      36.666  33.427  37.434  1.00  0.00     0.031 C 
ATOM     65  C   UNL A   1      38.829  33.150  38.610  1.00  0.00     0.034 A 
BRANCH  52  66
ATOM     66  C   UNL A   1      44.971  33.275  37.744  1.00  0.00     0.023 A 
ATOM     67  C   UNL A   1      45.706  34.385  38.198  1.00  0.00     0.031 A 
ATOM     68  C   UNL A   1      45.570  32.006  37.839  1.00  0.00     0.131 A 
ATOM     69  C   UNL A   1      47.017  34.212  38.665  1.00  0.00     0.055 A 
ATOM     70  C   UNL A   1      46.843  31.831  38.383  1.00  0.00     0.041 A 
ATOM     71  F   UNL A   1      44.928  30.913  37.394  1.00  0.00    -0.206 F 
ATOM     72  C   UNL A   1      47.580  32.939  38.788  1.00  0.00     0.022 A 
BRANCH  69  73
ATOM     73  S   UNL A   1      48.027  35.685  38.979  1.00  0.00     0.124 S 
ATOM     74  O   UNL A   1      49.131  35.491  38.042  1.00  0.00    -0.237 OA
ATOM     75  O   UNL A   1      47.107  36.772  38.666  1.00  0.00    -0.237 OA
ATOM     76  O   UNL A   1      48.388  35.559  40.390  1.00  0.00    -0.744 OA
ENDBRANCH  69  73
ENDBRANCH  52  66
BRANCH  53  77
ATOM     77  C   UNL A   1      36.019  34.270  33.345  1.00  0.00     0.023 A 
ATOM     78  C   UNL A   1      35.389  35.503  33.108  1.00  0.00     0.031 A 
ATOM     79  C   UNL A   1      35.307  33.099  33.024  1.00  0.00     0.131 A 
ATOM     80  C   UNL A   1      34.071  35.535  32.623  1.00  0.00     0.055 A 
ATOM     81  C   UNL A   1      34.022  33.139  32.479  1.00  0.00     0.041 A 
ATOM     82  F   UNL A   1      35.853  31.892  33.238  1.00  0.00    -0.206 F 
ATOM     83  C   UNL A   1      33.390  34.363  32.291  1.00  0.00     0.022 A 
BRANCH  80  84
ATOM     84  S   UNL A   1      33.213  37.133  32.544  1.00  0.00     0.124 S 
ATOM     85  O   UNL A   1      33.150  37.364  31.106  1.00  0.00    -0.237 OA
ATOM     86  O   UNL A   1      31.947  36.829  33.202  1.00  0.00    -0.237 OA
ATOM     87  O   UNL A   1      34.097  38.030  33.284  1.00  0.00    -0.744 OA
ENDBRANCH  80  84
ENDBRANCH  53  77
BRANCH  65  88
ATOM     88  C   UNL A   1      38.059  32.943  39.894  1.00  0.00     0.023 A 
ATOM     89  C   UNL A   1      38.099  33.875  40.946  1.00  0.00     0.031 A 
ATOM     90  C   UNL A   1      37.273  31.789  40.066  1.00  0.00     0.131 A 
ATOM     91  C   UNL A   1      37.418  33.607  42.143  1.00  0.00     0.055 A 
ATOM     92  C   UNL A   1      36.539  31.564  41.232  1.00  0.00     0.041 A 
ATOM     93  F   UNL A   1      37.198  30.862  39.097  1.00  0.00    -0.206 F 
ATOM     94  C   UNL A   1      36.621  32.469  42.285  1.00  0.00     0.022 A 
BRANCH  91  95
ATOM     95  S   UNL A   1      37.670  34.718  43.556  1.00  0.00     0.124 S 
ATOM     96  O   UNL A   1      38.257  33.821  44.545  1.00  0.00    -0.237 OA
ATOM     97  O   UNL A   1      38.564  35.730  43.002  1.00  0.00    -0.237 OA
ATOM     98  O   UNL A   1      36.320  35.187  43.867  1.00  0.00    -0.744 OA
ENDBRANCH  91  95
ENDBRANCH  65  88
ENDBRANCH  39  40
ENDBRANCH  32  34
ENDBRANCH  31  32
ENDBRANCH  30  31
ENDBRANCH  29  30
ENDBRANCH  28  29
ENDBRANCH  27  28
ENDBRANCH  26  27
ENDBRANCH   1  26
TORSDOF 26
ENDMDL
MODEL 3
REMARK VINA RESULT:      -8.0      5.322     11.012
REMARK SMILES CCc1cccc(-c2ccc([C@@H](C)C(=O)OCCOCCOCCOCCOC(=O)c3ccc(-c4c5nc(c(-c6cc(S(=O)(=O)[O-])ccc6F)c6ccc([nH]6)c(-c6cc(S(=O)(=O)[O-])ccc6F)c6nc(c(-c7cc(S(=O)(=O)[O-])ccc7F)c7ccc4[nH]7)C=C6)C=C5)cc3)cc2)c1
REMARK SMILES IDX 22 1 21 2 20 3 19 4 18 5 17 6 16 7 14 8 15 9 12 10 13 11
REMARK SMILES IDX 11 12 8 13 9 14 95 15 10 16 94 17 7 18 3 19 4 20 96 21 5 22
REMARK SMILES IDX 6 23 2 24 1 25 23 26 24 27 25 28 26 29 27 30 28 31 29 32
REMARK SMILES IDX 30 33 31 34 32 35 93 36 33 37 92 38 34 39 35 40 36 41 86 42
REMARK SMILES IDX 37 43 91 44 85 45 87 46 38 47 90 48 84 49 83 50 39 52 71 53
REMARK SMILES IDX 51 54 70 55 52 56 55 57 69 58 88 59 53 60 54 61 68 63 89 64
REMARK SMILES IDX 56 65 40 66 41 67 49 68 42 69 48 70 50 71 47 72 43 73 44 74
REMARK SMILES IDX 45 75 46 76 72 77 73 78 81 79 74 80 80 81 82 82 79 83 75 84
REMARK SMILES IDX 76 85 77 86 78 87 57 88 58 89 66 90 59 91 65 92 67 93 64 94
REMARK SMILES IDX 60 95 61 96 62 97 63 98
REMARK H PARENT 87 51 55 62
REMARK Flexibility Score: inf
ROOT
ATOM      1  O   UNL A   1      45.887  30.119  28.771  1.00  0.00    -0.377 OA
ENDROOT
BRANCH   1   2
ATOM      2  C   UNL A   1      44.797  29.420  29.332  1.00  0.00     0.188 C 
BRANCH   2   3
ATOM      3  C   UNL A   1      43.562  29.296  28.428  1.00  0.00     0.188 C 
BRANCH   3   4
ATOM      4  O   UNL A   1      42.380  30.043  28.680  1.00  0.00    -0.376 OA
BRANCH   4   5
ATOM      5  C   UNL A   1      41.826  30.106  29.988  1.00  0.00     0.202 C 
BRANCH   5   6
ATOM      6  C   UNL A   1      40.441  30.737  30.232  1.00  0.00     0.261 C 
BRANCH   6   7
ATOM      7  O   UNL A   1      39.321  29.835  30.357  1.00  0.00    -0.463 OA
BRANCH   7   8
ATOM      8  C   UNL A   1      39.037  29.076  29.274  1.00  0.00     0.313 C 
ATOM      9  O   UNL A   1      38.877  29.540  28.145  1.00  0.00    -0.252 OA
BRANCH   8  10
ATOM     10  C   UNL A   1      38.888  27.575  29.523  1.00  0.00     0.126 C 
ATOM     11  C   UNL A   1      38.860  27.338  31.029  1.00  0.00     0.025 C 
BRANCH  10  12
ATOM     12  C   UNL A   1      39.774  26.548  28.815  1.00  0.00    -0.034 A 
ATOM     13  C   UNL A   1      41.321  24.555  27.441  1.00  0.00    -0.018 A 
ATOM     14  C   UNL A   1      41.925  25.661  28.068  1.00  0.00     0.009 A 
ATOM     15  C   UNL A   1      39.926  24.466  27.511  1.00  0.00     0.009 A 
ATOM     16  C   UNL A   1      41.169  26.640  28.746  1.00  0.00     0.005 A 
ATOM     17  C   UNL A   1      39.169  25.434  28.194  1.00  0.00     0.005 A 
BRANCH  13  18
ATOM     18  C   UNL A   1      42.123  23.488  26.800  1.00  0.00    -0.018 A 
ATOM     19  C   UNL A   1      43.796  22.718  25.161  1.00  0.00    -0.048 A 
ATOM     20  C   UNL A   1      43.545  21.394  25.550  1.00  0.00     0.004 A 
ATOM     21  C   UNL A   1      43.068  23.752  25.785  1.00  0.00     0.012 A 
ATOM     22  C   UNL A   1      42.617  21.111  26.548  1.00  0.00     0.001 A 
ATOM     23  C   UNL A   1      41.918  22.148  27.167  1.00  0.00     0.009 A 
BRANCH  19  24
ATOM     24  C   UNL A   1      44.778  22.960  24.035  1.00  0.00     0.032 C 
ATOM     25  C   UNL A   1      46.187  22.433  24.263  1.00  0.00     0.009 C 
ENDBRANCH  19  24
ENDBRANCH  13  18
ENDBRANCH  10  12
ENDBRANCH   8  10
ENDBRANCH   7   8
ENDBRANCH   6   7
ENDBRANCH   5   6
ENDBRANCH   4   5
ENDBRANCH   3   4
ENDBRANCH   2   3
ENDBRANCH   1   2
BRANCH   1  26
ATOM     26  C   UNL A   1      46.543  29.505  27.676  1.00  0.00     0.188 C 
BRANCH  26  27
ATOM     27  C   UNL A   1      46.155  29.994  26.268  1.00  0.00     0.188 C 
BRANCH  27  28
ATOM     28  O   UNL A   1      46.690  31.270  25.933  1.00  0.00    -0.376 OA
BRANCH  28  29
ATOM     29  C   UNL A   1      46.025  32.431  26.410  1.00  0.00     0.202 C 
BRANCH  29  30
ATOM     30  C   UNL A   1      44.817  32.965  25.618  1.00  0.00     0.261 C 
BRANCH  30  31
ATOM     31  O   UNL A   1      43.940  33.884  26.289  1.00  0.00    -0.460 OA
BRANCH  31  32
ATOM     32  C   UNL A   1      44.492  34.861  27.036  1.00  0.00     0.338 C 
ATOM     33  O   UNL A   1      45.132  35.816  26.625  1.00  0.00    -0.246 OA
BRANCH  32  34
ATOM     34  C   UNL A   1      44.010  34.703  28.427  1.00  0.00     0.060 A 
ATOM     35  C   UNL A   1      43.718  33.417  28.900  1.00  0.00     0.016 A 
ATOM     36  C   UNL A   1      43.853  35.811  29.265  1.00  0.00     0.016 A 
ATOM     37  C   UNL A   1      43.229  33.236  30.195  1.00  0.00     0.010 A 
ATOM     38  C   UNL A   1      43.336  35.631  30.555  1.00  0.00     0.010 A 
ATOM     39  C   UNL A   1      42.990  34.347  31.014  1.00  0.00    -0.014 A 
BRANCH  39  40
ATOM     40  C   UNL A   1      42.185  34.185  32.253  1.00  0.00     0.031 A 
ATOM     41  C   UNL A   1      42.912  33.898  33.541  1.00  0.00     0.074 A 
ATOM     42  C   UNL A   1      40.847  34.329  32.253  1.00  0.00     0.049 A 
ATOM     43  N   UNL A   1      42.433  33.654  34.733  1.00  0.00    -0.248 NA
ATOM     44  C   UNL A   1      44.382  33.881  33.466  1.00  0.00     0.031 C 
ATOM     45  C   UNL A   1      40.036  34.669  31.085  1.00  0.00     0.029 A 
ATOM     46  N   UNL A   1      39.933  34.200  33.271  1.00  0.00    -0.354 N 
ATOM     47  C   UNL A   1      43.542  33.456  35.551  1.00  0.00     0.074 A 
ATOM     48  C   UNL A   1      44.712  33.564  34.708  1.00  0.00     0.031 C 
ATOM     49  C   UNL A   1      38.741  34.703  31.451  1.00  0.00     0.029 A 
ATOM     50  C   UNL A   1      38.627  34.346  32.864  1.00  0.00     0.049 A 
ATOM     51  H   UNL A   1      40.190  34.019  34.204  1.00  0.00     0.167 HD
ATOM     52  C   UNL A   1      43.579  33.217  36.884  1.00  0.00     0.034 A 
ATOM     53  C   UNL A   1      37.474  34.175  33.546  1.00  0.00     0.034 A 
ATOM     54  C   UNL A   1      42.403  33.091  37.710  1.00  0.00     0.049 A 
ATOM     55  C   UNL A   1      37.536  33.797  35.010  1.00  0.00     0.074 A 
ATOM     56  C   UNL A   1      42.327  32.841  39.068  1.00  0.00     0.029 A 
ATOM     57  N   UNL A   1      41.095  33.195  37.253  1.00  0.00    -0.354 N 
ATOM     58  N   UNL A   1      38.590  33.606  35.773  1.00  0.00    -0.248 NA
ATOM     59  C   UNL A   1      36.255  33.621  35.708  1.00  0.00     0.031 C 
ATOM     60  C   UNL A   1      40.979  32.713  39.416  1.00  0.00     0.029 A 
ATOM     61  C   UNL A   1      40.208  32.980  38.296  1.00  0.00     0.049 A 
ATOM     62  H   UNL A   1      40.837  33.392  36.324  1.00  0.00     0.167 HD
ATOM     63  C   UNL A   1      38.094  33.323  37.045  1.00  0.00     0.074 A 
ATOM     64  C   UNL A   1      36.651  33.386  36.949  1.00  0.00     0.031 C 
ATOM     65  C   UNL A   1      38.768  33.041  38.190  1.00  0.00     0.034 A 
BRANCH  52  66
ATOM     66  C   UNL A   1      44.936  33.025  37.519  1.00  0.00     0.023 A 
ATOM     67  C   UNL A   1      45.584  31.777  37.516  1.00  0.00     0.031 A 
ATOM     68  C   UNL A   1      45.582  34.101  38.154  1.00  0.00     0.131 A 
ATOM     69  C   UNL A   1      46.805  31.622  38.189  1.00  0.00     0.055 A 
ATOM     70  C   UNL A   1      46.836  33.959  38.750  1.00  0.00     0.041 A 
ATOM     71  F   UNL A   1      44.998  35.308  38.214  1.00  0.00    -0.206 F 
ATOM     72  C   UNL A   1      47.450  32.711  38.781  1.00  0.00     0.022 A 
BRANCH  69  73
ATOM     73  S   UNL A   1      47.471  29.948  38.401  1.00  0.00     0.124 S 
ATOM     74  O   UNL A   1      48.395  29.853  37.273  1.00  0.00    -0.237 OA
ATOM     75  O   UNL A   1      48.082  30.016  39.723  1.00  0.00    -0.237 OA
ATOM     76  O   UNL A   1      46.289  29.094  38.302  1.00  0.00    -0.744 OA
ENDBRANCH  69  73
ENDBRANCH  52  66
BRANCH  53  77
ATOM     77  C   UNL A   1      36.155  34.294  32.854  1.00  0.00     0.023 A 
ATOM     78  C   UNL A   1      35.482  35.524  32.763  1.00  0.00     0.031 A 
ATOM     79  C   UNL A   1      35.507  33.154  32.342  1.00  0.00     0.131 A 
ATOM     80  C   UNL A   1      34.183  35.575  32.231  1.00  0.00     0.055 A 
ATOM     81  C   UNL A   1      34.243  33.223  31.751  1.00  0.00     0.041 A 
ATOM     82  F   UNL A   1      36.096  31.950  32.409  1.00  0.00    -0.206 F 
ATOM     83  C   UNL A   1      33.567  34.437  31.709  1.00  0.00     0.022 A 
BRANCH  80  84
ATOM     84  S   UNL A   1      33.261  37.135  32.338  1.00  0.00     0.124 S 
ATOM     85  O   UNL A   1      34.233  38.009  32.985  1.00  0.00    -0.237 OA
ATOM     86  O   UNL A   1      32.980  37.416  30.934  1.00  0.00    -0.237 OA
ATOM     87  O   UNL A   1      32.097  36.785  33.147  1.00  0.00    -0.744 OA
ENDBRANCH  80  84
ENDBRANCH  53  77
BRANCH  65  88
ATOM     88  C   UNL A   1      37.953  32.838  39.446  1.00  0.00     0.023 A 
ATOM     89  C   UNL A   1      37.962  33.769  40.500  1.00  0.00     0.031 A 
ATOM     90  C   UNL A   1      37.153  31.689  39.589  1.00  0.00     0.131 A 
ATOM     91  C   UNL A   1      37.238  33.504  41.673  1.00  0.00     0.055 A 
ATOM     92  C   UNL A   1      36.379  31.467  40.729  1.00  0.00     0.041 A 
ATOM     93  F   UNL A   1      37.106  30.764  38.618  1.00  0.00    -0.206 F 
ATOM     94  C   UNL A   1      36.430  32.371  41.786  1.00  0.00     0.022 A 
BRANCH  91  95
ATOM     95  S   UNL A   1      37.448  34.612  43.094  1.00  0.00     0.124 S 
ATOM     96  O   UNL A   1      38.039  35.792  42.474  1.00  0.00    -0.237 OA
ATOM     97  O   UNL A   1      36.079  34.763  43.578  1.00  0.00    -0.237 OA
ATOM     98  O   UNL A   1      38.340  33.865  43.981  1.00  0.00    -0.744 OA
ENDBRANCH  91  95
ENDBRANCH  65  88
ENDBRANCH  39  40
ENDBRANCH  32  34
ENDBRANCH  31  32
ENDBRANCH  30  31
ENDBRANCH  29  30
ENDBRANCH  28  29
ENDBRANCH  27  28
ENDBRANCH  26  27
ENDBRANCH   1  26
TORSDOF 26
ENDMDL
