MODEL 1
REMARK VINA RESULT:      -8.8      0.000      0.000
REMARK SMILES Cc1cc(Nc2ccc(C(=O)OCCOCCOCCOCCOC(=O)c3ccc(-c4c5nc(c(-c6cc(S(=O)(=O)[O-])ccc6F)c6ccc([nH]6)c(-c6cc(S(=O)(=O)[O-])ccc6F)c6nc(c(-c7cc(S(=O)(=O)[O-])ccc7F)c7ccc4[nH]7)C=C6)C=C5)cc3)cc2)nc(C(C)C)n1
REMARK SMILES IDX 18 1 17 2 16 3 15 4 14 5 13 6 12 7 10 8 11 9 9 10 6 11 7 12
REMARK SMILES IDX 91 13 8 14 90 15 5 16 4 18 1 19 2 20 3 21 97 22 93 23 92 24
REMARK SMILES IDX 94 25 95 26 96 27 19 28 20 29 21 30 22 31 23 32 24 33 25 34
REMARK SMILES IDX 26 35 27 36 28 37 89 38 29 39 88 40 30 41 31 42 32 43 82 44
REMARK SMILES IDX 33 45 87 46 81 47 83 48 34 49 86 50 80 51 79 52 35 54 67 55
REMARK SMILES IDX 47 56 66 57 48 58 51 59 65 60 84 61 49 62 50 63 64 65 85 66
REMARK SMILES IDX 52 67 36 68 37 69 45 70 38 71 44 72 46 73 43 74 39 75 40 76
REMARK SMILES IDX 41 77 42 78 68 79 69 80 77 81 70 82 76 83 78 84 75 85 71 86
REMARK SMILES IDX 72 87 73 88 74 89 53 90 54 91 62 92 55 93 61 94 63 95 60 96
REMARK SMILES IDX 56 97 57 98 58 99 59 100
REMARK H PARENT 5 17 83 53 51 64
REMARK Flexibility Score: inf
ROOT
ATOM      1  O   UNL A   1      34.840  33.890  27.660  1.00  0.00    -0.377 OA
ENDROOT
BRANCH   1   2
ATOM      2  C   UNL A   1      34.275  32.635  27.993  1.00  0.00     0.188 C 
BRANCH   2   3
ATOM      3  C   UNL A   1      35.270  31.590  28.538  1.00  0.00     0.188 C 
BRANCH   3   4
ATOM      4  O   UNL A   1      35.540  30.527  27.648  1.00  0.00    -0.376 OA
BRANCH   4   5
ATOM      5  C   UNL A   1      34.633  29.453  27.470  1.00  0.00     0.202 C 
BRANCH   5   6
ATOM      6  C   UNL A   1      33.957  29.087  26.137  1.00  0.00     0.261 C 
BRANCH   6   7
ATOM      7  O   UNL A   1      32.764  28.309  26.193  1.00  0.00    -0.460 OA
BRANCH   7   8
ATOM      8  C   UNL A   1      31.842  28.519  25.234  1.00  0.00     0.338 C 
ATOM      9  O   UNL A   1      31.365  29.587  24.892  1.00  0.00    -0.246 OA
BRANCH   8  10
ATOM     10  C   UNL A   1      31.664  27.243  24.502  1.00  0.00     0.060 A 
ATOM     11  C   UNL A   1      31.323  24.771  23.238  1.00  0.00     0.040 A 
ATOM     12  C   UNL A   1      30.471  25.147  24.281  1.00  0.00     0.027 A 
ATOM     13  C   UNL A   1      32.283  25.685  22.773  1.00  0.00     0.027 A 
ATOM     14  C   UNL A   1      30.650  26.374  24.923  1.00  0.00     0.018 A 
ATOM     15  C   UNL A   1      32.449  26.923  23.393  1.00  0.00     0.018 A 
BRANCH  11  16
ATOM     16  N   UNL A   1      31.390  23.412  22.856  1.00  0.00    -0.340 N 
ATOM     17  H   UNL A   1      30.818  23.094  22.120  1.00  0.00     0.168 HD
BRANCH  16  18
ATOM     18  C   UNL A   1      32.253  22.498  23.498  1.00  0.00     0.134 A 
ATOM     19  C   UNL A   1      32.831  18.824  23.916  1.00  0.00     0.067 C 
ATOM     20  C   UNL A   1      32.951  20.313  24.009  1.00  0.00     0.043 A 
ATOM     21  C   UNL A   1      32.078  21.143  23.330  1.00  0.00     0.070 A 
ATOM     22  N   UNL A   1      33.952  20.783  24.782  1.00  0.00    -0.238 NA
ATOM     23  C   UNL A   1      34.071  22.117  24.869  1.00  0.00     0.133 A 
ATOM     24  N   UNL A   1      33.252  22.979  24.258  1.00  0.00    -0.216 NA
BRANCH  23  25
ATOM     25  C   UNL A   1      35.185  22.718  25.694  1.00  0.00     0.051 C 
ATOM     26  C   UNL A   1      36.433  21.841  25.653  1.00  0.00     0.016 C 
ATOM     27  C   UNL A   1      35.484  24.147  25.247  1.00  0.00     0.016 C 
ENDBRANCH  23  25
ENDBRANCH  16  18
ENDBRANCH  11  16
ENDBRANCH   8  10
ENDBRANCH   7   8
ENDBRANCH   6   7
ENDBRANCH   5   6
ENDBRANCH   4   5
ENDBRANCH   3   4
ENDBRANCH   2   3
ENDBRANCH   1   2
BRANCH   1  28
ATOM     28  C   UNL A   1      34.502  35.037  28.440  1.00  0.00     0.188 C 
BRANCH  28  29
ATOM     29  C   UNL A   1      33.074  35.300  28.983  1.00  0.00     0.188 C 
BRANCH  29  30
ATOM     30  O   UNL A   1      32.932  36.484  29.755  1.00  0.00    -0.376 OA
BRANCH  30  31
ATOM     31  C   UNL A   1      32.418  36.372  31.070  1.00  0.00     0.202 C 
BRANCH  31  32
ATOM     32  C   UNL A   1      33.456  36.241  32.192  1.00  0.00     0.261 C 
BRANCH  32  33
ATOM     33  O   UNL A   1      34.534  35.327  31.941  1.00  0.00    -0.460 OA
BRANCH  33  34
ATOM     34  C   UNL A   1      34.391  34.083  32.447  1.00  0.00     0.338 C 
ATOM     35  O   UNL A   1      33.365  33.591  32.893  1.00  0.00    -0.246 OA
BRANCH  34  36
ATOM     36  C   UNL A   1      35.636  33.333  32.190  1.00  0.00     0.060 A 
ATOM     37  C   UNL A   1      35.718  32.003  32.619  1.00  0.00     0.016 A 
ATOM     38  C   UNL A   1      36.720  33.944  31.554  1.00  0.00     0.016 A 
ATOM     39  C   UNL A   1      36.912  31.301  32.479  1.00  0.00     0.010 A 
ATOM     40  C   UNL A   1      37.923  33.243  31.427  1.00  0.00     0.010 A 
ATOM     41  C   UNL A   1      38.039  31.938  31.941  1.00  0.00    -0.014 A 
BRANCH  41  42
ATOM     42  C   UNL A   1      39.376  31.332  32.164  1.00  0.00     0.031 A 
ATOM     43  C   UNL A   1      39.868  30.323  31.159  1.00  0.00     0.074 A 
ATOM     44  C   UNL A   1      40.165  31.722  33.180  1.00  0.00     0.049 A 
ATOM     45  N   UNL A   1      41.007  29.683  31.107  1.00  0.00    -0.248 NA
ATOM     46  C   UNL A   1      38.941  29.990  30.066  1.00  0.00     0.031 C 
ATOM     47  C   UNL A   1      39.820  32.730  34.179  1.00  0.00     0.029 A 
ATOM     48  N   UNL A   1      41.430  31.320  33.528  1.00  0.00    -0.354 N 
ATOM     49  C   UNL A   1      40.930  28.867  29.982  1.00  0.00     0.074 A 
ATOM     50  C   UNL A   1      39.615  29.058  29.413  1.00  0.00     0.031 C 
ATOM     51  C   UNL A   1      40.859  32.880  35.021  1.00  0.00     0.029 A 
ATOM     52  C   UNL A   1      41.924  31.953  34.643  1.00  0.00     0.049 A 
ATOM     53  H   UNL A   1      41.936  30.640  33.026  1.00  0.00     0.167 HD
ATOM     54  C   UNL A   1      41.875  28.043  29.464  1.00  0.00     0.034 A 
ATOM     55  C   UNL A   1      43.100  31.794  35.286  1.00  0.00     0.034 A 
ATOM     56  C   UNL A   1      43.179  27.856  30.052  1.00  0.00     0.049 A 
ATOM     57  C   UNL A   1      44.102  30.798  34.745  1.00  0.00     0.074 A 
ATOM     58  C   UNL A   1      44.220  27.062  29.606  1.00  0.00     0.029 A 
ATOM     59  N   UNL A   1      43.617  28.459  31.226  1.00  0.00    -0.354 N 
ATOM     60  N   UNL A   1      44.025  30.042  33.673  1.00  0.00    -0.248 NA
ATOM     61  C   UNL A   1      45.353  30.649  35.498  1.00  0.00     0.031 C 
ATOM     62  C   UNL A   1      45.246  27.111  30.555  1.00  0.00     0.029 A 
ATOM     63  C   UNL A   1      44.894  28.019  31.540  1.00  0.00     0.049 A 
ATOM     64  H   UNL A   1      43.096  29.104  31.756  1.00  0.00     0.167 HD
ATOM     65  C   UNL A   1      45.241  29.363  33.599  1.00  0.00     0.074 A 
ATOM     66  C   UNL A   1      46.031  29.810  34.729  1.00  0.00     0.031 C 
ATOM     67  C   UNL A   1      45.671  28.463  32.676  1.00  0.00     0.034 A 
BRANCH  54  68
ATOM     68  C   UNL A   1      41.493  27.234  28.244  1.00  0.00     0.023 A 
ATOM     69  C   UNL A   1      41.198  25.861  28.320  1.00  0.00     0.031 A 
ATOM     70  C   UNL A   1      41.482  27.836  26.973  1.00  0.00     0.131 A 
ATOM     71  C   UNL A   1      40.997  25.121  27.143  1.00  0.00     0.055 A 
ATOM     72  C   UNL A   1      41.185  27.115  25.815  1.00  0.00     0.041 A 
ATOM     73  F   UNL A   1      41.783  29.137  26.830  1.00  0.00    -0.206 F 
ATOM     74  C   UNL A   1      40.960  25.744  25.895  1.00  0.00     0.022 A 
BRANCH  71  75
ATOM     75  S   UNL A   1      40.970  23.309  27.251  1.00  0.00     0.124 S 
ATOM     76  O   UNL A   1      41.432  23.089  28.620  1.00  0.00    -0.237 OA
ATOM     77  O   UNL A   1      39.568  22.999  26.992  1.00  0.00    -0.237 OA
ATOM     78  O   UNL A   1      41.906  22.889  26.211  1.00  0.00    -0.744 OA
ENDBRANCH  71  75
ENDBRANCH  54  68
BRANCH  55  79
ATOM     79  C   UNL A   1      43.405  32.578  36.518  1.00  0.00     0.023 A 
ATOM     80  C   UNL A   1      43.084  32.081  37.792  1.00  0.00     0.031 A 
ATOM     81  C   UNL A   1      43.965  33.865  36.437  1.00  0.00     0.131 A 
ATOM     82  C   UNL A   1      43.278  32.885  38.926  1.00  0.00     0.055 A 
ATOM     83  C   UNL A   1      44.212  34.637  37.574  1.00  0.00     0.041 A 
ATOM     84  F   UNL A   1      44.286  34.393  35.245  1.00  0.00    -0.206 F 
ATOM     85  C   UNL A   1      43.855  34.153  38.828  1.00  0.00     0.022 A 
BRANCH  82  86
ATOM     86  S   UNL A   1      42.678  32.283  40.530  1.00  0.00     0.124 S 
ATOM     87  O   UNL A   1      41.354  31.784  40.182  1.00  0.00    -0.237 OA
ATOM     88  O   UNL A   1      43.677  31.275  40.868  1.00  0.00    -0.237 OA
ATOM     89  O   UNL A   1      42.695  33.480  41.370  1.00  0.00    -0.744 OA
ENDBRANCH  82  86
ENDBRANCH  55  79
BRANCH  67  90
ATOM     90  C   UNL A   1      47.089  27.952  32.818  1.00  0.00     0.023 A 
ATOM     91  C   UNL A   1      47.397  26.790  33.546  1.00  0.00     0.031 A 
ATOM     92  C   UNL A   1      48.155  28.662  32.232  1.00  0.00     0.131 A 
ATOM     93  C   UNL A   1      48.737  26.420  33.741  1.00  0.00     0.055 A 
ATOM     94  C   UNL A   1      49.479  28.242  32.360  1.00  0.00     0.041 A 
ATOM     95  F   UNL A   1      47.926  29.781  31.527  1.00  0.00    -0.206 F 
ATOM     96  C   UNL A   1      49.778  27.126  33.134  1.00  0.00     0.022 A 
BRANCH  93  97
ATOM     97  S   UNL A   1      49.111  25.083  34.909  1.00  0.00     0.124 S 
ATOM     98  O   UNL A   1      48.815  25.710  36.193  1.00  0.00    -0.237 OA
ATOM     99  O   UNL A   1      48.188  24.033  34.486  1.00  0.00    -0.237 OA
ATOM    100  O   UNL A   1      50.524  24.801  34.667  1.00  0.00    -0.744 OA
ENDBRANCH  93  97
ENDBRANCH  67  90
ENDBRANCH  41  42
ENDBRANCH  34  36
ENDBRANCH  33  34
ENDBRANCH  32  33
ENDBRANCH  31  32
ENDBRANCH  30  31
ENDBRANCH  29  30
ENDBRANCH  28  29
ENDBRANCH   1  28
TORSDOF 26
ENDMDL
MODEL 2
REMARK VINA RESULT:      -8.8      3.242      7.826
REMARK SMILES Cc1cc(Nc2ccc(C(=O)OCCOCCOCCOCCOC(=O)c3ccc(-c4c5nc(c(-c6cc(S(=O)(=O)[O-])ccc6F)c6ccc([nH]6)c(-c6cc(S(=O)(=O)[O-])ccc6F)c6nc(c(-c7cc(S(=O)(=O)[O-])ccc7F)c7ccc4[nH]7)C=C6)C=C5)cc3)cc2)nc(C(C)C)n1
REMARK SMILES IDX 18 1 17 2 16 3 15 4 14 5 13 6 12 7 10 8 11 9 9 10 6 11 7 12
REMARK SMILES IDX 91 13 8 14 90 15 5 16 4 18 1 19 2 20 3 21 97 22 93 23 92 24
REMARK SMILES IDX 94 25 95 26 96 27 19 28 20 29 21 30 22 31 23 32 24 33 25 34
REMARK SMILES IDX 26 35 27 36 28 37 89 38 29 39 88 40 30 41 31 42 32 43 82 44
REMARK SMILES IDX 33 45 87 46 81 47 83 48 34 49 86 50 80 51 79 52 35 54 67 55
REMARK SMILES IDX 47 56 66 57 48 58 51 59 65 60 84 61 49 62 50 63 64 65 85 66
REMARK SMILES IDX 52 67 36 68 37 69 45 70 38 71 44 72 46 73 43 74 39 75 40 76
REMARK SMILES IDX 41 77 42 78 68 79 69 80 77 81 70 82 76 83 78 84 75 85 71 86
REMARK SMILES IDX 72 87 73 88 74 89 53 90 54 91 62 92 55 93 61 94 63 95 60 96
REMARK SMILES IDX 56 97 57 98 58 99 59 100
REMARK H PARENT 5 17 83 53 51 64
REMARK Flexibility Score: inf
ROOT
ATOM      1  O   UNL A   1      33.945  33.846  27.543  1.00  0.00    -0.377 OA
ENDROOT
BRANCH   1   2
ATOM      2  C   UNL A   1      33.525  32.579  28.016  1.00  0.00     0.188 C 
BRANCH   2   3
ATOM      3  C   UNL A   1      34.617  31.490  28.036  1.00  0.00     0.188 C 
BRANCH   3   4
ATOM      4  O   UNL A   1      34.540  30.573  26.964  1.00  0.00    -0.376 OA
BRANCH   4   5
ATOM      5  C   UNL A   1      34.002  29.273  27.130  1.00  0.00     0.202 C 
BRANCH   5   6
ATOM      6  C   UNL A   1      33.304  28.464  26.023  1.00  0.00     0.261 C 
BRANCH   6   7
ATOM      7  O   UNL A   1      33.250  27.047  26.174  1.00  0.00    -0.460 OA
BRANCH   7   8
ATOM      8  C   UNL A   1      32.078  26.510  26.564  1.00  0.00     0.338 C 
ATOM      9  O   UNL A   1      31.219  27.037  27.249  1.00  0.00    -0.246 OA
BRANCH   8  10
ATOM     10  C   UNL A   1      31.906  25.236  25.828  1.00  0.00     0.060 A 
ATOM     11  C   UNL A   1      31.662  22.770  24.529  1.00  0.00     0.040 A 
ATOM     12  C   UNL A   1      31.489  22.852  25.915  1.00  0.00     0.027 A 
ATOM     13  C   UNL A   1      31.863  23.950  23.793  1.00  0.00     0.027 A 
ATOM     14  C   UNL A   1      31.626  24.079  26.566  1.00  0.00     0.018 A 
ATOM     15  C   UNL A   1      31.974  25.183  24.435  1.00  0.00     0.018 A 
BRANCH  11  16
ATOM     16  N   UNL A   1      31.901  21.511  23.934  1.00  0.00    -0.340 N 
ATOM     17  H   UNL A   1      31.254  21.161  23.280  1.00  0.00     0.168 HD
BRANCH  16  18
ATOM     18  C   UNL A   1      33.042  20.741  24.251  1.00  0.00     0.134 A 
ATOM     19  C   UNL A   1      36.652  21.105  25.167  1.00  0.00     0.067 C 
ATOM     20  C   UNL A   1      35.307  20.535  24.841  1.00  0.00     0.043 A 
ATOM     21  C   UNL A   1      34.232  21.360  24.563  1.00  0.00     0.070 A 
ATOM     22  N   UNL A   1      35.214  19.189  24.841  1.00  0.00    -0.238 NA
ATOM     23  C   UNL A   1      34.011  18.668  24.554  1.00  0.00     0.133 A 
ATOM     24  N   UNL A   1      32.934  19.402  24.257  1.00  0.00    -0.216 NA
BRANCH  23  25
ATOM     25  C   UNL A   1      33.822  17.169  24.562  1.00  0.00     0.051 C 
ATOM     26  C   UNL A   1      35.063  16.463  25.100  1.00  0.00     0.016 C 
ATOM     27  C   UNL A   1      32.569  16.782  25.342  1.00  0.00     0.016 C 
ENDBRANCH  23  25
ENDBRANCH  16  18
ENDBRANCH  11  16
ENDBRANCH   8  10
ENDBRANCH   7   8
ENDBRANCH   6   7
ENDBRANCH   5   6
ENDBRANCH   4   5
ENDBRANCH   3   4
ENDBRANCH   2   3
ENDBRANCH   1   2
BRANCH   1  28
ATOM     28  C   UNL A   1      34.051  34.935  28.460  1.00  0.00     0.188 C 
BRANCH  28  29
ATOM     29  C   UNL A   1      32.836  35.518  29.226  1.00  0.00     0.188 C 
BRANCH  29  30
ATOM     30  O   UNL A   1      33.153  36.505  30.197  1.00  0.00    -0.376 OA
BRANCH  30  31
ATOM     31  C   UNL A   1      32.571  36.395  31.482  1.00  0.00     0.202 C 
BRANCH  31  32
ATOM     32  C   UNL A   1      33.350  35.564  32.510  1.00  0.00     0.261 C 
BRANCH  32  33
ATOM     33  O   UNL A   1      34.422  34.768  31.984  1.00  0.00    -0.460 OA
BRANCH  33  34
ATOM     34  C   UNL A   1      34.526  33.512  32.468  1.00  0.00     0.338 C 
ATOM     35  O   UNL A   1      33.692  32.918  33.137  1.00  0.00    -0.246 OA
BRANCH  34  36
ATOM     36  C   UNL A   1      35.732  32.890  31.890  1.00  0.00     0.060 A 
ATOM     37  C   UNL A   1      36.410  31.918  32.636  1.00  0.00     0.016 A 
ATOM     38  C   UNL A   1      36.204  33.278  30.633  1.00  0.00     0.016 A 
ATOM     39  C   UNL A   1      37.604  31.385  32.159  1.00  0.00     0.010 A 
ATOM     40  C   UNL A   1      37.411  32.753  30.162  1.00  0.00     0.010 A 
ATOM     41  C   UNL A   1      38.143  31.847  30.951  1.00  0.00    -0.014 A 
BRANCH  41  42
ATOM     42  C   UNL A   1      39.574  31.580  30.659  1.00  0.00     0.031 A 
ATOM     43  C   UNL A   1      40.599  32.524  31.233  1.00  0.00     0.074 A 
ATOM     44  C   UNL A   1      39.962  30.490  29.975  1.00  0.00     0.049 A 
ATOM     45  N   UNL A   1      41.903  32.489  31.157  1.00  0.00    -0.248 NA
ATOM     46  C   UNL A   1      40.071  33.668  31.995  1.00  0.00     0.031 C 
ATOM     47  C   UNL A   1      39.067  29.477  29.422  1.00  0.00     0.029 A 
ATOM     48  N   UNL A   1      41.218  30.049  29.642  1.00  0.00    -0.354 N 
ATOM     49  C   UNL A   1      42.353  33.608  31.853  1.00  0.00     0.074 A 
ATOM     50  C   UNL A   1      41.179  34.325  32.299  1.00  0.00     0.031 C 
ATOM     51  C   UNL A   1      39.806  28.520  28.831  1.00  0.00     0.029 A 
ATOM     52  C   UNL A   1      41.221  28.873  28.931  1.00  0.00     0.049 A 
ATOM     53  H   UNL A   1      42.041  30.531  29.889  1.00  0.00     0.167 HD
ATOM     54  C   UNL A   1      43.628  33.995  32.107  1.00  0.00     0.034 A 
ATOM     55  C   UNL A   1      42.250  28.170  28.413  1.00  0.00     0.034 A 
ATOM     56  C   UNL A   1      44.787  33.273  31.644  1.00  0.00     0.049 A 
ATOM     57  C   UNL A   1      43.660  28.672  28.628  1.00  0.00     0.074 A 
ATOM     58  C   UNL A   1      46.123  33.561  31.855  1.00  0.00     0.029 A 
ATOM     59  N   UNL A   1      44.749  32.125  30.861  1.00  0.00    -0.354 N 
ATOM     60  N   UNL A   1      44.075  29.723  29.298  1.00  0.00    -0.248 NA
ATOM     61  C   UNL A   1      44.739  27.881  28.023  1.00  0.00     0.031 C 
ATOM     62  C   UNL A   1      46.890  32.647  31.125  1.00  0.00     0.029 A 
ATOM     63  C   UNL A   1      46.038  31.721  30.544  1.00  0.00     0.049 A 
ATOM     64  H   UNL A   1      43.928  31.665  30.572  1.00  0.00     0.167 HD
ATOM     65  C   UNL A   1      45.468  29.689  29.235  1.00  0.00     0.074 A 
ATOM     66  C   UNL A   1      45.816  28.509  28.470  1.00  0.00     0.031 C 
ATOM     67  C   UNL A   1      46.376  30.547  29.771  1.00  0.00     0.034 A 
BRANCH  54  68
ATOM     68  C   UNL A   1      43.819  35.294  32.857  1.00  0.00     0.023 A 
ATOM     69  C   UNL A   1      44.046  35.331  34.245  1.00  0.00     0.031 A 
ATOM     70  C   UNL A   1      43.713  36.522  32.179  1.00  0.00     0.131 A 
ATOM     71  C   UNL A   1      44.066  36.562  34.920  1.00  0.00     0.055 A 
ATOM     72  C   UNL A   1      43.832  37.746  32.842  1.00  0.00     0.041 A 
ATOM     73  F   UNL A   1      43.469  36.556  30.859  1.00  0.00    -0.206 F 
ATOM     74  C   UNL A   1      43.990  37.770  34.224  1.00  0.00     0.022 A 
BRANCH  71  75
ATOM     75  S   UNL A   1      44.007  36.558  36.734  1.00  0.00     0.124 S 
ATOM     76  O   UNL A   1      44.262  35.150  37.034  1.00  0.00    -0.237 OA
ATOM     77  O   UNL A   1      45.072  37.490  37.086  1.00  0.00    -0.237 OA
ATOM     78  O   UNL A   1      42.651  37.014  37.034  1.00  0.00    -0.744 OA
ENDBRANCH  71  75
ENDBRANCH  54  68
BRANCH  55  79
ATOM     79  C   UNL A   1      42.003  26.922  27.633  1.00  0.00     0.023 A 
ATOM     80  C   UNL A   1      42.134  25.657  28.229  1.00  0.00     0.031 A 
ATOM     81  C   UNL A   1      41.693  26.974  26.263  1.00  0.00     0.131 A 
ATOM     82  C   UNL A   1      42.007  24.498  27.448  1.00  0.00     0.055 A 
ATOM     83  C   UNL A   1      41.508  25.818  25.503  1.00  0.00     0.041 A 
ATOM     84  F   UNL A   1      41.562  28.156  25.640  1.00  0.00    -0.206 F 
ATOM     85  C   UNL A   1      41.679  24.569  26.092  1.00  0.00     0.022 A 
BRANCH  82  86
ATOM     86  S   UNL A   1      42.368  22.893  28.211  1.00  0.00     0.124 S 
ATOM     87  O   UNL A   1      41.054  22.262  28.208  1.00  0.00    -0.237 OA
ATOM     88  O   UNL A   1      43.351  22.333  27.289  1.00  0.00    -0.237 OA
ATOM     89  O   UNL A   1      42.887  23.252  29.529  1.00  0.00    -0.744 OA
ENDBRANCH  82  86
ENDBRANCH  55  79
BRANCH  67  90
ATOM     90  C   UNL A   1      47.839  30.199  29.600  1.00  0.00     0.023 A 
ATOM     91  C   UNL A   1      48.581  30.608  28.479  1.00  0.00     0.031 A 
ATOM     92  C   UNL A   1      48.494  29.415  30.570  1.00  0.00     0.131 A 
ATOM     93  C   UNL A   1      49.903  30.166  28.314  1.00  0.00     0.055 A 
ATOM     94  C   UNL A   1      49.834  29.048  30.440  1.00  0.00     0.041 A 
ATOM     95  F   UNL A   1      47.839  28.989  31.661  1.00  0.00    -0.206 F 
ATOM     96  C   UNL A   1      50.541  29.407  29.297  1.00  0.00     0.022 A 
BRANCH  93  97
ATOM     97  S   UNL A   1      50.736  30.483  26.733  1.00  0.00     0.124 S 
ATOM     98  O   UNL A   1      50.236  29.392  25.903  1.00  0.00    -0.237 OA
ATOM     99  O   UNL A   1      50.255  31.818  26.389  1.00  0.00    -0.237 OA
ATOM    100  O   UNL A   1      52.155  30.405  27.071  1.00  0.00    -0.744 OA
ENDBRANCH  93  97
ENDBRANCH  67  90
ENDBRANCH  41  42
ENDBRANCH  34  36
ENDBRANCH  33  34
ENDBRANCH  32  33
ENDBRANCH  31  32
ENDBRANCH  30  31
ENDBRANCH  29  30
ENDBRANCH  28  29
ENDBRANCH   1  28
TORSDOF 26
ENDMDL
MODEL 3
REMARK VINA RESULT:      -8.6      3.563      7.856
REMARK SMILES Cc1cc(Nc2ccc(C(=O)OCCOCCOCCOCCOC(=O)c3ccc(-c4c5nc(c(-c6cc(S(=O)(=O)[O-])ccc6F)c6ccc([nH]6)c(-c6cc(S(=O)(=O)[O-])ccc6F)c6nc(c(-c7cc(S(=O)(=O)[O-])ccc7F)c7ccc4[nH]7)C=C6)C=C5)cc3)cc2)nc(C(C)C)n1
REMARK SMILES IDX 18 1 17 2 16 3 15 4 14 5 13 6 12 7 10 8 11 9 9 10 6 11 7 12
REMARK SMILES IDX 91 13 8 14 90 15 5 16 4 18 1 19 2 20 3 21 97 22 93 23 92 24
REMARK SMILES IDX 94 25 95 26 96 27 19 28 20 29 21 30 22 31 23 32 24 33 25 34
REMARK SMILES IDX 26 35 27 36 28 37 89 38 29 39 88 40 30 41 31 42 32 43 82 44
REMARK SMILES IDX 33 45 87 46 81 47 83 48 34 49 86 50 80 51 79 52 35 54 67 55
REMARK SMILES IDX 47 56 66 57 48 58 51 59 65 60 84 61 49 62 50 63 64 65 85 66
REMARK SMILES IDX 52 67 36 68 37 69 45 70 38 71 44 72 46 73 43 74 39 75 40 76
REMARK SMILES IDX 41 77 42 78 68 79 69 80 77 81 70 82 76 83 78 84 75 85 71 86
REMARK SMILES IDX 72 87 73 88 74 89 53 90 54 91 62 92 55 93 61 94 63 95 60 96
REMARK SMILES IDX 56 97 57 98 58 99 59 100
REMARK H PARENT 5 17 83 53 51 64
REMARK Flexibility Score: inf
ROOT
ATOM      1  O   UNL A   1      34.521  33.575  27.569  1.00  0.00    -0.377 OA
ENDROOT
BRANCH   1   2
ATOM      2  C   UNL A   1      34.161  32.308  28.090  1.00  0.00     0.188 C 
BRANCH   2   3
ATOM      3  C   UNL A   1      35.250  31.221  27.984  1.00  0.00     0.188 C 
BRANCH   3   4
ATOM      4  O   UNL A   1      34.893  30.119  27.175  1.00  0.00    -0.376 OA
BRANCH   4   5
ATOM      5  C   UNL A   1      33.541  29.750  26.970  1.00  0.00     0.202 C 
BRANCH   5   6
ATOM      6  C   UNL A   1      32.990  29.116  25.681  1.00  0.00     0.261 C 
BRANCH   6   7
ATOM      7  O   UNL A   1      31.594  28.836  25.626  1.00  0.00    -0.460 OA
BRANCH   7   8
ATOM      8  C   UNL A   1      31.111  28.315  24.482  1.00  0.00     0.338 C 
ATOM      9  O   UNL A   1      31.003  28.875  23.405  1.00  0.00    -0.246 OA
BRANCH   8  10
ATOM     10  C   UNL A   1      30.936  26.859  24.695  1.00  0.00     0.060 A 
ATOM     11  C   UNL A   1      30.716  24.112  25.176  1.00  0.00     0.040 A 
ATOM     12  C   UNL A   1      30.917  24.996  26.242  1.00  0.00     0.027 A 
ATOM     13  C   UNL A   1      30.531  24.629  23.883  1.00  0.00     0.027 A 
ATOM     14  C   UNL A   1      31.042  26.365  26.001  1.00  0.00     0.018 A 
ATOM     15  C   UNL A   1      30.629  25.999  23.640  1.00  0.00     0.018 A 
BRANCH  11  16
ATOM     16  N   UNL A   1      30.969  22.735  25.362  1.00  0.00    -0.340 N 
ATOM     17  H   UNL A   1      30.252  22.162  25.722  1.00  0.00     0.168 HD
BRANCH  16  18
ATOM     18  C   UNL A   1      32.218  22.155  25.049  1.00  0.00     0.134 A 
ATOM     19  C   UNL A   1      33.835  18.829  24.476  1.00  0.00     0.067 C 
ATOM     20  C   UNL A   1      33.594  20.299  24.622  1.00  0.00     0.043 A 
ATOM     21  C   UNL A   1      32.334  20.790  24.909  1.00  0.00     0.070 A 
ATOM     22  N   UNL A   1      34.668  21.098  24.454  1.00  0.00    -0.238 NA
ATOM     23  C   UNL A   1      34.462  22.419  24.579  1.00  0.00     0.133 A 
ATOM     24  N   UNL A   1      33.278  22.963  24.875  1.00  0.00    -0.216 NA
BRANCH  23  25
ATOM     25  C   UNL A   1      35.611  23.379  24.378  1.00  0.00     0.051 C 
ATOM     26  C   UNL A   1      36.199  23.820  25.715  1.00  0.00     0.016 C 
ATOM     27  C   UNL A   1      36.675  22.772  23.467  1.00  0.00     0.016 C 
ENDBRANCH  23  25
ENDBRANCH  16  18
ENDBRANCH  11  16
ENDBRANCH   8  10
ENDBRANCH   7   8
ENDBRANCH   6   7
ENDBRANCH   5   6
ENDBRANCH   4   5
ENDBRANCH   3   4
ENDBRANCH   2   3
ENDBRANCH   1   2
BRANCH   1  28
ATOM     28  C   UNL A   1      34.499  34.715  28.428  1.00  0.00     0.188 C 
BRANCH  28  29
ATOM     29  C   UNL A   1      33.190  35.337  28.975  1.00  0.00     0.188 C 
BRANCH  29  30
ATOM     30  O   UNL A   1      33.363  36.284  30.020  1.00  0.00    -0.376 OA
BRANCH  30  31
ATOM     31  C   UNL A   1      32.633  36.102  31.219  1.00  0.00     0.202 C 
BRANCH  31  32
ATOM     32  C   UNL A   1      33.431  35.591  32.427  1.00  0.00     0.261 C 
BRANCH  32  33
ATOM     33  O   UNL A   1      34.636  34.876  32.119  1.00  0.00    -0.460 OA
BRANCH  33  34
ATOM     34  C   UNL A   1      34.651  33.565  32.445  1.00  0.00     0.338 C 
ATOM     35  O   UNL A   1      33.693  32.890  32.793  1.00  0.00    -0.246 OA
BRANCH  34  36
ATOM     36  C   UNL A   1      35.984  33.023  32.121  1.00  0.00     0.060 A 
ATOM     37  C   UNL A   1      36.612  32.184  33.050  1.00  0.00     0.016 A 
ATOM     38  C   UNL A   1      36.619  33.356  30.921  1.00  0.00     0.016 A 
ATOM     39  C   UNL A   1      37.909  31.736  32.816  1.00  0.00     0.010 A 
ATOM     40  C   UNL A   1      37.927  32.917  30.694  1.00  0.00     0.010 A 
ATOM     41  C   UNL A   1      38.596  32.153  31.667  1.00  0.00    -0.014 A 
BRANCH  41  42
ATOM     42  C   UNL A   1      40.073  32.007  31.627  1.00  0.00     0.031 A 
ATOM     43  C   UNL A   1      40.903  33.044  32.337  1.00  0.00     0.074 A 
ATOM     44  C   UNL A   1      40.660  30.945  31.048  1.00  0.00     0.049 A 
ATOM     45  N   UNL A   1      42.200  33.121  32.481  1.00  0.00    -0.248 NA
ATOM     46  C   UNL A   1      40.162  34.148  32.967  1.00  0.00     0.031 C 
ATOM     47  C   UNL A   1      39.958  29.850  30.382  1.00  0.00     0.029 A 
ATOM     48  N   UNL A   1      41.986  30.610  30.942  1.00  0.00    -0.354 N 
ATOM     49  C   UNL A   1      42.431  34.284  33.210  1.00  0.00     0.074 A 
ATOM     50  C   UNL A   1      41.144  34.903  33.434  1.00  0.00     0.031 C 
ATOM     51  C   UNL A   1      40.863  28.954  29.950  1.00  0.00     0.029 A 
ATOM     52  C   UNL A   1      42.206  29.429  30.275  1.00  0.00     0.049 A 
ATOM     53  H   UNL A   1      42.712  31.165  31.310  1.00  0.00     0.167 HD
ATOM     54  C   UNL A   1      43.608  34.784  33.663  1.00  0.00     0.034 A 
ATOM     55  C   UNL A   1      43.363  28.811  29.957  1.00  0.00     0.034 A 
ATOM     56  C   UNL A   1      44.885  34.158  33.421  1.00  0.00     0.049 A 
ATOM     57  C   UNL A   1      44.670  29.436  30.390  1.00  0.00     0.074 A 
ATOM     58  C   UNL A   1      46.138  34.564  33.844  1.00  0.00     0.029 A 
ATOM     59  N   UNL A   1      45.076  33.000  32.675  1.00  0.00    -0.354 N 
ATOM     60  N   UNL A   1      44.877  30.528  31.091  1.00  0.00    -0.248 NA
ATOM     61  C   UNL A   1      45.897  28.733  29.997  1.00  0.00     0.031 C 
ATOM     62  C   UNL A   1      47.090  33.709  33.278  1.00  0.00     0.029 A 
ATOM     63  C   UNL A   1      46.429  32.705  32.590  1.00  0.00     0.049 A 
ATOM     64  H   UNL A   1      44.356  32.467  32.267  1.00  0.00     0.167 HD
ATOM     65  C   UNL A   1      46.258  30.614  31.262  1.00  0.00     0.074 A 
ATOM     66  C   UNL A   1      46.828  29.458  30.599  1.00  0.00     0.031 C 
ATOM     67  C   UNL A   1      46.988  31.554  31.918  1.00  0.00     0.034 A 
BRANCH  54  68
ATOM     68  C   UNL A   1      43.562  36.105  34.398  1.00  0.00     0.023 A 
ATOM     69  C   UNL A   1      43.488  37.335  33.721  1.00  0.00     0.031 A 
ATOM     70  C   UNL A   1      43.652  36.135  35.801  1.00  0.00     0.131 A 
ATOM     71  C   UNL A   1      43.600  38.538  34.437  1.00  0.00     0.055 A 
ATOM     72  C   UNL A   1      43.665  37.334  36.516  1.00  0.00     0.041 A 
ATOM     73  F   UNL A   1      43.754  34.996  36.505  1.00  0.00    -0.206 F 
ATOM     74  C   UNL A   1      43.658  38.546  35.832  1.00  0.00     0.022 A 
BRANCH  71  75
ATOM     75  S   UNL A   1      43.853  40.078  33.512  1.00  0.00     0.124 S 
ATOM     76  O   UNL A   1      43.633  41.084  34.550  1.00  0.00    -0.237 OA
ATOM     77  O   UNL A   1      45.225  39.939  33.038  1.00  0.00    -0.237 OA
ATOM     78  O   UNL A   1      42.824  40.030  32.476  1.00  0.00    -0.744 OA
ENDBRANCH  71  75
ENDBRANCH  54  68
BRANCH  55  79
ATOM     79  C   UNL A   1      43.355  27.535  29.182  1.00  0.00     0.023 A 
ATOM     80  C   UNL A   1      43.224  27.538  27.784  1.00  0.00     0.031 A 
ATOM     81  C   UNL A   1      43.416  26.291  29.835  1.00  0.00     0.131 A 
ATOM     82  C   UNL A   1      43.107  26.323  27.089  1.00  0.00     0.055 A 
ATOM     83  C   UNL A   1      43.360  25.086  29.133  1.00  0.00     0.041 A 
ATOM     84  F   UNL A   1      43.535  26.229  31.170  1.00  0.00    -0.206 F 
ATOM     85  C   UNL A   1      43.190  25.097  27.752  1.00  0.00     0.022 A 
BRANCH  82  86
ATOM     86  S   UNL A   1      42.750  26.371  25.311  1.00  0.00     0.124 S 
ATOM     87  O   UNL A   1      41.299  26.230  25.296  1.00  0.00    -0.237 OA
ATOM     88  O   UNL A   1      43.273  27.679  24.932  1.00  0.00    -0.237 OA
ATOM     89  O   UNL A   1      43.495  25.228  24.785  1.00  0.00    -0.744 OA
ENDBRANCH  82  86
ENDBRANCH  55  79
BRANCH  67  90
ATOM     90  C   UNL A   1      48.484  31.331  32.004  1.00  0.00     0.023 A 
ATOM     91  C   UNL A   1      49.364  31.756  30.994  1.00  0.00     0.031 A 
ATOM     92  C   UNL A   1      49.032  30.654  33.110  1.00  0.00     0.131 A 
ATOM     93  C   UNL A   1      50.726  31.428  31.068  1.00  0.00     0.055 A 
ATOM     94  C   UNL A   1      50.400  30.403  33.217  1.00  0.00     0.041 A 
ATOM     95  F   UNL A   1      48.243  30.219  34.106  1.00  0.00    -0.206 F 
ATOM     96  C   UNL A   1      51.253  30.773  32.183  1.00  0.00     0.022 A 
BRANCH  93  97
ATOM     97  S   UNL A   1      51.779  31.747  29.625  1.00  0.00     0.124 S 
ATOM     98  O   UNL A   1      53.103  31.849  30.232  1.00  0.00    -0.237 OA
ATOM     99  O   UNL A   1      51.546  30.565  28.801  1.00  0.00    -0.237 OA
ATOM    100  O   UNL A   1      51.248  32.996  29.083  1.00  0.00    -0.744 OA
ENDBRANCH  93  97
ENDBRANCH  67  90
ENDBRANCH  41  42
ENDBRANCH  34  36
ENDBRANCH  33  34
ENDBRANCH  32  33
ENDBRANCH  31  32
ENDBRANCH  30  31
ENDBRANCH  29  30
ENDBRANCH  28  29
ENDBRANCH   1  28
TORSDOF 26
ENDMDL
