MODEL 1
REMARK VINA RESULT:      -9.6      0.000      0.000
REMARK SMILES COCc1cc(SCC(=O)OCCOCCOCCOCCOC(=O)c2ccc(-c3c4nc(c(-c5cc(S(=O)(=O)[O-])ccc5F)c5ccc([nH]5)c(-c5cc(S(=O)(=O)[O-])ccc5F)c5nc(c(-c6cc(S(=O)(=O)[O-])ccc6F)c6ccc3[nH]6)C=C5)C=C4)cc2)nc(-c2cccnc2)n1
REMARK SMILES IDX 16 1 15 2 14 3 13 4 12 5 11 6 9 7 10 8 8 9 7 10 6 11 4 12
REMARK SMILES IDX 5 13 97 14 90 15 89 16 3 17 2 18 1 19 91 20 92 21 96 22
REMARK SMILES IDX 93 23 95 24 94 25 17 26 18 27 19 28 20 29 21 30 22 31 23 32
REMARK SMILES IDX 24 33 25 34 26 35 27 36 88 37 28 38 87 39 29 40 30 41 31 42
REMARK SMILES IDX 81 43 32 44 86 45 80 46 82 47 33 48 85 49 79 50 78 51 34 53
REMARK SMILES IDX 66 54 46 55 65 56 47 57 50 58 64 59 83 60 48 61 49 62 63 64
REMARK SMILES IDX 84 65 51 66 35 67 36 68 44 69 37 70 43 71 45 72 42 73 38 74
REMARK SMILES IDX 39 75 40 76 41 77 67 78 68 79 76 80 69 81 75 82 77 83 74 84
REMARK SMILES IDX 70 85 71 86 72 87 73 88 52 89 53 90 61 91 54 92 60 93 62 94
REMARK SMILES IDX 59 95 55 96 56 97 57 98 58 99
REMARK H PARENT 82 52 50 63
REMARK Flexibility Score: inf
ROOT
ATOM      1  C   UNL A   1      34.452  25.067  24.967  1.00  0.00     0.188 C 
ENDROOT
BRANCH   1   2
ATOM      2  C   UNL A   1      34.317  23.909  25.974  1.00  0.00     0.188 C 
BRANCH   2   3
ATOM      3  O   UNL A   1      34.529  22.569  25.584  1.00  0.00    -0.376 OA
BRANCH   3   4
ATOM      4  C   UNL A   1      33.464  21.667  25.380  1.00  0.00     0.202 C 
BRANCH   4   5
ATOM      5  C   UNL A   1      31.996  22.112  25.214  1.00  0.00     0.261 C 
BRANCH   5   6
ATOM      6  O   UNL A   1      31.103  21.970  26.345  1.00  0.00    -0.463 OA
BRANCH   6   7
ATOM      7  C   UNL A   1      30.463  23.084  26.770  1.00  0.00     0.316 C 
ATOM      8  O   UNL A   1      29.539  23.051  27.583  1.00  0.00    -0.251 OA
BRANCH   7   9
ATOM      9  C   UNL A   1      30.897  24.422  26.176  1.00  0.00     0.199 C 
BRANCH   9  10
ATOM     10  S   UNL A   1      29.690  25.749  25.801  1.00  0.00    -0.094 SA
BRANCH  10  11
ATOM     11  C   UNL A   1      30.298  26.688  24.367  1.00  0.00     0.101 A 
ATOM     12  C   UNL A   1      31.284  26.792  22.225  1.00  0.00     0.071 A 
ATOM     13  C   UNL A   1      31.196  26.166  23.459  1.00  0.00     0.062 A 
ATOM     14  N   UNL A   1      30.624  27.938  21.953  1.00  0.00    -0.230 NA
ATOM     15  C   UNL A   1      29.830  28.435  22.919  1.00  0.00     0.162 A 
ATOM     16  N   UNL A   1      29.645  27.856  24.126  1.00  0.00    -0.222 NA
BRANCH  12  17
ATOM     17  C   UNL A   1      32.062  26.164  21.085  1.00  0.00     0.215 C 
BRANCH  17  18
ATOM     18  O   UNL A   1      33.211  25.454  21.554  1.00  0.00    -0.378 OA
ATOM     19  C   UNL A   1      33.025  24.050  21.650  1.00  0.00     0.195 C 
ENDBRANCH  17  18
ENDBRANCH  12  17
BRANCH  15  20
ATOM     20  C   UNL A   1      29.135  29.687  22.593  1.00  0.00     0.038 A 
ATOM     21  C   UNL A   1      28.487  30.469  23.556  1.00  0.00     0.015 A 
ATOM     22  C   UNL A   1      29.152  30.228  21.307  1.00  0.00     0.123 A 
ATOM     23  C   UNL A   1      27.918  31.702  23.210  1.00  0.00     0.021 A 
ATOM     24  N   UNL A   1      28.609  31.418  20.933  1.00  0.00    -0.264 NA
ATOM     25  C   UNL A   1      28.002  32.129  21.895  1.00  0.00     0.111 A 
ENDBRANCH  15  20
ENDBRANCH  10  11
ENDBRANCH   9  10
ENDBRANCH   7   9
ENDBRANCH   6   7
ENDBRANCH   5   6
ENDBRANCH   4   5
ENDBRANCH   3   4
ENDBRANCH   2   3
ENDBRANCH   1   2
BRANCH   1  26
ATOM     26  O   UNL A   1      34.597  26.411  25.334  1.00  0.00    -0.377 OA
BRANCH  26  27
ATOM     27  C   UNL A   1      33.591  26.937  26.156  1.00  0.00     0.188 C 
BRANCH  27  28
ATOM     28  C   UNL A   1      33.276  28.371  25.745  1.00  0.00     0.188 C 
BRANCH  28  29
ATOM     29  O   UNL A   1      34.214  29.323  26.209  1.00  0.00    -0.376 OA
BRANCH  29  30
ATOM     30  C   UNL A   1      33.922  30.150  27.331  1.00  0.00     0.202 C 
BRANCH  30  31
ATOM     31  C   UNL A   1      33.085  31.447  27.358  1.00  0.00     0.261 C 
BRANCH  31  32
ATOM     32  O   UNL A   1      33.700  32.717  27.155  1.00  0.00    -0.460 OA
BRANCH  32  33
ATOM     33  C   UNL A   1      33.623  33.628  28.136  1.00  0.00     0.338 C 
ATOM     34  O   UNL A   1      32.744  34.461  28.298  1.00  0.00    -0.246 OA
BRANCH  33  35
ATOM     35  C   UNL A   1      34.651  33.247  29.126  1.00  0.00     0.060 A 
ATOM     36  C   UNL A   1      35.986  33.493  28.787  1.00  0.00     0.016 A 
ATOM     37  C   UNL A   1      34.316  32.746  30.390  1.00  0.00     0.016 A 
ATOM     38  C   UNL A   1      36.994  33.240  29.706  1.00  0.00     0.010 A 
ATOM     39  C   UNL A   1      35.338  32.438  31.295  1.00  0.00     0.010 A 
ATOM     40  C   UNL A   1      36.679  32.661  30.941  1.00  0.00    -0.014 A 
BRANCH  40  41
ATOM     41  C   UNL A   1      37.792  32.054  31.703  1.00  0.00     0.031 A 
ATOM     42  C   UNL A   1      38.585  30.977  31.015  1.00  0.00     0.074 A 
ATOM     43  C   UNL A   1      38.157  32.534  32.905  1.00  0.00     0.049 A 
ATOM     44  N   UNL A   1      39.643  30.334  31.423  1.00  0.00    -0.248 NA
ATOM     45  C   UNL A   1      38.124  30.585  29.670  1.00  0.00     0.031 C 
ATOM     46  C   UNL A   1      37.498  33.634  33.609  1.00  0.00     0.029 A 
ATOM     47  N   UNL A   1      39.182  32.170  33.738  1.00  0.00    -0.354 N 
ATOM     48  C   UNL A   1      39.970  29.457  30.394  1.00  0.00     0.074 A 
ATOM     49  C   UNL A   1      38.989  29.636  29.350  1.00  0.00     0.031 C 
ATOM     50  C   UNL A   1      38.138  33.854  34.772  1.00  0.00     0.029 A 
ATOM     51  C   UNL A   1      39.224  32.886  34.912  1.00  0.00     0.049 A 
ATOM     52  H   UNL A   1      39.829  31.461  33.516  1.00  0.00     0.167 HD
ATOM     53  C   UNL A   1      40.999  28.580  30.334  1.00  0.00     0.034 A 
ATOM     54  C   UNL A   1      40.037  32.748  35.981  1.00  0.00     0.034 A 
ATOM     55  C   UNL A   1      41.956  28.417  31.398  1.00  0.00     0.049 A 
ATOM     56  C   UNL A   1      41.115  31.687  35.925  1.00  0.00     0.074 A 
ATOM     57  C   UNL A   1      43.047  27.570  31.450  1.00  0.00     0.029 A 
ATOM     58  N   UNL A   1      41.921  29.100  32.607  1.00  0.00    -0.354 N 
ATOM     59  N   UNL A   1      41.426  30.873  34.941  1.00  0.00    -0.248 NA
ATOM     60  C   UNL A   1      41.956  31.531  37.118  1.00  0.00     0.031 C 
ATOM     61  C   UNL A   1      43.614  27.672  32.723  1.00  0.00     0.029 A 
ATOM     62  C   UNL A   1      42.942  28.658  33.431  1.00  0.00     0.049 A 
ATOM     63  H   UNL A   1      41.266  29.796  32.844  1.00  0.00     0.167 HD
ATOM     64  C   UNL A   1      42.524  30.139  35.385  1.00  0.00     0.074 A 
ATOM     65  C   UNL A   1      42.830  30.622  36.716  1.00  0.00     0.031 C 
ATOM     66  C   UNL A   1      43.222  29.157  34.756  1.00  0.00     0.034 A 
BRANCH  53  67
ATOM     67  C   UNL A   1      41.086  27.681  29.127  1.00  0.00     0.023 A 
ATOM     68  C   UNL A   1      42.035  27.876  28.107  1.00  0.00     0.031 A 
ATOM     69  C   UNL A   1      40.186  26.608  28.994  1.00  0.00     0.131 A 
ATOM     70  C   UNL A   1      42.029  27.038  26.981  1.00  0.00     0.055 A 
ATOM     71  C   UNL A   1      40.234  25.735  27.908  1.00  0.00     0.041 A 
ATOM     72  F   UNL A   1      39.237  26.396  29.920  1.00  0.00    -0.206 F 
ATOM     73  C   UNL A   1      41.154  25.953  26.888  1.00  0.00     0.022 A 
BRANCH  70  74
ATOM     74  S   UNL A   1      43.103  27.453  25.577  1.00  0.00     0.124 S 
ATOM     75  O   UNL A   1      42.200  28.232  24.735  1.00  0.00    -0.237 OA
ATOM     76  O   UNL A   1      44.183  28.196  26.216  1.00  0.00    -0.237 OA
ATOM     77  O   UNL A   1      43.479  26.149  25.036  1.00  0.00    -0.744 OA
ENDBRANCH  70  74
ENDBRANCH  53  67
BRANCH  54  78
ATOM     78  C   UNL A   1      39.847  33.577  37.209  1.00  0.00     0.023 A 
ATOM     79  C   UNL A   1      39.130  33.092  38.316  1.00  0.00     0.031 A 
ATOM     80  C   UNL A   1      40.292  34.912  37.256  1.00  0.00     0.131 A 
ATOM     81  C   UNL A   1      38.818  33.950  39.382  1.00  0.00     0.055 A 
ATOM     82  C   UNL A   1      40.042  35.740  38.351  1.00  0.00     0.041 A 
ATOM     83  F   UNL A   1      40.973  35.438  36.225  1.00  0.00    -0.206 F 
ATOM     84  C   UNL A   1      39.282  35.266  39.416  1.00  0.00     0.022 A 
BRANCH  81  85
ATOM     85  S   UNL A   1      37.676  33.362  40.664  1.00  0.00     0.124 S 
ATOM     86  O   UNL A   1      38.447  32.287  41.277  1.00  0.00    -0.237 OA
ATOM     87  O   UNL A   1      37.488  34.562  41.475  1.00  0.00    -0.237 OA
ATOM     88  O   UNL A   1      36.503  32.937  39.904  1.00  0.00    -0.744 OA
ENDBRANCH  81  85
ENDBRANCH  54  78
BRANCH  66  89
ATOM     89  C   UNL A   1      44.416  28.589  35.483  1.00  0.00     0.023 A 
ATOM     90  C   UNL A   1      44.292  27.534  36.403  1.00  0.00     0.031 A 
ATOM     91  C   UNL A   1      45.700  29.116  35.251  1.00  0.00     0.131 A 
ATOM     92  C   UNL A   1      45.420  27.086  37.107  1.00  0.00     0.055 A 
ATOM     93  C   UNL A   1      46.829  28.614  35.895  1.00  0.00     0.041 A 
ATOM     94  F   UNL A   1      45.876  30.126  34.384  1.00  0.00    -0.206 F 
ATOM     95  C   UNL A   1      46.690  27.604  36.842  1.00  0.00     0.022 A 
BRANCH  92  96
ATOM     96  S   UNL A   1      45.187  25.896  38.455  1.00  0.00     0.124 S 
ATOM     97  O   UNL A   1      44.709  24.718  37.738  1.00  0.00    -0.237 OA
ATOM     98  O   UNL A   1      46.528  25.798  39.020  1.00  0.00    -0.237 OA
ATOM     99  O   UNL A   1      44.197  26.542  39.315  1.00  0.00    -0.744 OA
ENDBRANCH  92  96
ENDBRANCH  66  89
ENDBRANCH  40  41
ENDBRANCH  33  35
ENDBRANCH  32  33
ENDBRANCH  31  32
ENDBRANCH  30  31
ENDBRANCH  29  30
ENDBRANCH  28  29
ENDBRANCH  27  28
ENDBRANCH  26  27
ENDBRANCH   1  26
TORSDOF 28
ENDMDL
MODEL 2
REMARK VINA RESULT:      -9.4      2.032      7.312
REMARK SMILES COCc1cc(SCC(=O)OCCOCCOCCOCCOC(=O)c2ccc(-c3c4nc(c(-c5cc(S(=O)(=O)[O-])ccc5F)c5ccc([nH]5)c(-c5cc(S(=O)(=O)[O-])ccc5F)c5nc(c(-c6cc(S(=O)(=O)[O-])ccc6F)c6ccc3[nH]6)C=C5)C=C4)cc2)nc(-c2cccnc2)n1
REMARK SMILES IDX 16 1 15 2 14 3 13 4 12 5 11 6 9 7 10 8 8 9 7 10 6 11 4 12
REMARK SMILES IDX 5 13 97 14 90 15 89 16 3 17 2 18 1 19 91 20 92 21 96 22
REMARK SMILES IDX 93 23 95 24 94 25 17 26 18 27 19 28 20 29 21 30 22 31 23 32
REMARK SMILES IDX 24 33 25 34 26 35 27 36 88 37 28 38 87 39 29 40 30 41 31 42
REMARK SMILES IDX 81 43 32 44 86 45 80 46 82 47 33 48 85 49 79 50 78 51 34 53
REMARK SMILES IDX 66 54 46 55 65 56 47 57 50 58 64 59 83 60 48 61 49 62 63 64
REMARK SMILES IDX 84 65 51 66 35 67 36 68 44 69 37 70 43 71 45 72 42 73 38 74
REMARK SMILES IDX 39 75 40 76 41 77 67 78 68 79 76 80 69 81 75 82 77 83 74 84
REMARK SMILES IDX 70 85 71 86 72 87 73 88 52 89 53 90 61 91 54 92 60 93 62 94
REMARK SMILES IDX 59 95 55 96 56 97 57 98 58 99
REMARK H PARENT 82 52 50 63
REMARK Flexibility Score: inf
ROOT
ATOM      1  C   UNL A   1      34.420  24.691  25.174  1.00  0.00     0.188 C 
ENDROOT
BRANCH   1   2
ATOM      2  C   UNL A   1      34.260  23.671  26.317  1.00  0.00     0.188 C 
BRANCH   2   3
ATOM      3  O   UNL A   1      34.399  22.285  26.088  1.00  0.00    -0.376 OA
BRANCH   3   4
ATOM      4  C   UNL A   1      33.345  21.497  25.579  1.00  0.00     0.202 C 
BRANCH   4   5
ATOM      5  C   UNL A   1      31.988  22.081  25.135  1.00  0.00     0.261 C 
BRANCH   5   6
ATOM      6  O   UNL A   1      30.838  21.872  25.990  1.00  0.00    -0.463 OA
BRANCH   6   7
ATOM      7  C   UNL A   1      30.411  22.928  26.721  1.00  0.00     0.316 C 
ATOM      8  O   UNL A   1      29.689  22.805  27.709  1.00  0.00    -0.251 OA
BRANCH   7   9
ATOM      9  C   UNL A   1      30.828  24.324  26.261  1.00  0.00     0.199 C 
BRANCH   9  10
ATOM     10  S   UNL A   1      29.594  25.606  25.827  1.00  0.00    -0.094 SA
BRANCH  10  11
ATOM     11  C   UNL A   1      30.221  26.548  24.403  1.00  0.00     0.101 A 
ATOM     12  C   UNL A   1      31.215  26.654  22.265  1.00  0.00     0.071 A 
ATOM     13  C   UNL A   1      31.114  26.020  23.494  1.00  0.00     0.062 A 
ATOM     14  N   UNL A   1      30.574  27.812  22.000  1.00  0.00    -0.230 NA
ATOM     15  C   UNL A   1      29.785  28.313  22.968  1.00  0.00     0.162 A 
ATOM     16  N   UNL A   1      29.587  27.727  24.169  1.00  0.00    -0.222 NA
BRANCH  12  17
ATOM     17  C   UNL A   1      31.987  26.023  21.122  1.00  0.00     0.215 C 
BRANCH  17  18
ATOM     18  O   UNL A   1      33.395  26.008  21.377  1.00  0.00    -0.378 OA
ATOM     19  C   UNL A   1      33.892  27.207  21.948  1.00  0.00     0.195 C 
ENDBRANCH  17  18
ENDBRANCH  12  17
BRANCH  15  20
ATOM     20  C   UNL A   1      29.110  29.579  22.650  1.00  0.00     0.038 A 
ATOM     21  C   UNL A   1      28.050  30.086  23.409  1.00  0.00     0.015 A 
ATOM     22  C   UNL A   1      29.546  30.408  21.616  1.00  0.00     0.123 A 
ATOM     23  C   UNL A   1      27.501  31.342  23.120  1.00  0.00     0.021 A 
ATOM     24  N   UNL A   1      29.037  31.630  21.303  1.00  0.00    -0.264 NA
ATOM     25  C   UNL A   1      28.023  32.070  22.064  1.00  0.00     0.111 A 
ENDBRANCH  15  20
ENDBRANCH  10  11
ENDBRANCH   9  10
ENDBRANCH   7   9
ENDBRANCH   6   7
ENDBRANCH   5   6
ENDBRANCH   4   5
ENDBRANCH   3   4
ENDBRANCH   2   3
ENDBRANCH   1   2
BRANCH   1  26
ATOM     26  O   UNL A   1      34.635  26.062  25.371  1.00  0.00    -0.377 OA
BRANCH  26  27
ATOM     27  C   UNL A   1      33.638  26.744  26.083  1.00  0.00     0.188 C 
BRANCH  27  28
ATOM     28  C   UNL A   1      33.766  28.246  25.851  1.00  0.00     0.188 C 
BRANCH  28  29
ATOM     29  O   UNL A   1      33.797  29.012  27.040  1.00  0.00    -0.376 OA
BRANCH  29  30
ATOM     30  C   UNL A   1      32.979  30.170  27.185  1.00  0.00     0.202 C 
BRANCH  30  31
ATOM     31  C   UNL A   1      33.377  31.643  26.954  1.00  0.00     0.261 C 
BRANCH  31  32
ATOM     32  O   UNL A   1      32.821  32.684  27.753  1.00  0.00    -0.460 OA
BRANCH  32  33
ATOM     33  C   UNL A   1      33.600  33.727  28.076  1.00  0.00     0.338 C 
ATOM     34  O   UNL A   1      33.325  34.912  27.963  1.00  0.00    -0.246 OA
BRANCH  33  35
ATOM     35  C   UNL A   1      34.731  33.169  28.843  1.00  0.00     0.060 A 
ATOM     36  C   UNL A   1      36.020  33.523  28.430  1.00  0.00     0.016 A 
ATOM     37  C   UNL A   1      34.539  32.391  29.992  1.00  0.00     0.016 A 
ATOM     38  C   UNL A   1      37.124  33.105  29.159  1.00  0.00     0.010 A 
ATOM     39  C   UNL A   1      35.655  31.922  30.694  1.00  0.00     0.010 A 
ATOM     40  C   UNL A   1      36.949  32.258  30.260  1.00  0.00    -0.014 A 
BRANCH  40  41
ATOM     41  C   UNL A   1      38.142  31.532  30.747  1.00  0.00     0.031 A 
ATOM     42  C   UNL A   1      38.622  31.862  32.134  1.00  0.00     0.074 A 
ATOM     43  C   UNL A   1      38.690  30.534  30.033  1.00  0.00     0.049 A 
ATOM     44  N   UNL A   1      39.592  31.330  32.826  1.00  0.00    -0.248 NA
ATOM     45  C   UNL A   1      37.895  32.931  32.841  1.00  0.00     0.031 C 
ATOM     46  C   UNL A   1      38.234  30.089  28.716  1.00  0.00     0.029 A 
ATOM     47  N   UNL A   1      39.738  29.701  30.323  1.00  0.00    -0.354 N 
ATOM     48  C   UNL A   1      39.597  32.003  34.043  1.00  0.00     0.074 A 
ATOM     49  C   UNL A   1      38.547  32.994  33.990  1.00  0.00     0.031 C 
ATOM     50  C   UNL A   1      39.003  29.062  28.312  1.00  0.00     0.029 A 
ATOM     51  C   UNL A   1      40.028  28.804  29.320  1.00  0.00     0.049 A 
ATOM     52  H   UNL A   1      40.239  29.740  31.171  1.00  0.00     0.167 HD
ATOM     53  C   UNL A   1      40.410  31.807  35.106  1.00  0.00     0.034 A 
ATOM     54  C   UNL A   1      41.027  27.900  29.230  1.00  0.00     0.034 A 
ATOM     55  C   UNL A   1      41.456  30.818  35.124  1.00  0.00     0.049 A 
ATOM     56  C   UNL A   1      41.984  27.776  30.395  1.00  0.00     0.074 A 
ATOM     57  C   UNL A   1      42.339  30.518  36.146  1.00  0.00     0.029 A 
ATOM     58  N   UNL A   1      41.775  29.982  34.061  1.00  0.00    -0.354 N 
ATOM     59  N   UNL A   1      41.972  28.407  31.549  1.00  0.00    -0.248 NA
ATOM     60  C   UNL A   1      43.085  26.815  30.250  1.00  0.00     0.031 C 
ATOM     61  C   UNL A   1      43.248  29.570  35.668  1.00  0.00     0.029 A 
ATOM     62  C   UNL A   1      42.872  29.201  34.384  1.00  0.00     0.049 A 
ATOM     63  H   UNL A   1      41.293  29.950  33.204  1.00  0.00     0.167 HD
ATOM     64  C   UNL A   1      43.038  27.887  32.279  1.00  0.00     0.074 A 
ATOM     65  C   UNL A   1      43.657  26.880  31.442  1.00  0.00     0.031 C 
ATOM     66  C   UNL A   1      43.470  28.205  33.527  1.00  0.00     0.034 A 
BRANCH  53  67
ATOM     67  C   UNL A   1      40.259  32.732  36.287  1.00  0.00     0.023 A 
ATOM     68  C   UNL A   1      41.086  33.853  36.479  1.00  0.00     0.031 A 
ATOM     69  C   UNL A   1      39.266  32.473  37.249  1.00  0.00     0.131 A 
ATOM     70  C   UNL A   1      40.933  34.645  37.628  1.00  0.00     0.055 A 
ATOM     71  C   UNL A   1      39.071  33.306  38.351  1.00  0.00     0.041 A 
ATOM     72  F   UNL A   1      38.471  31.397  37.136  1.00  0.00    -0.206 F 
ATOM     73  C   UNL A   1      39.913  34.395  38.551  1.00  0.00     0.022 A 
BRANCH  70  74
ATOM     74  S   UNL A   1      42.158  35.940  37.968  1.00  0.00     0.124 S 
ATOM     75  O   UNL A   1      42.855  36.031  36.688  1.00  0.00    -0.237 OA
ATOM     76  O   UNL A   1      41.322  37.080  38.324  1.00  0.00    -0.237 OA
ATOM     77  O   UNL A   1      42.951  35.383  39.063  1.00  0.00    -0.744 OA
ENDBRANCH  70  74
ENDBRANCH  53  67
BRANCH  54  78
ATOM     78  C   UNL A   1      41.220  27.082  27.994  1.00  0.00     0.023 A 
ATOM     79  C   UNL A   1      40.891  25.716  27.963  1.00  0.00     0.031 A 
ATOM     80  C   UNL A   1      41.834  27.631  26.853  1.00  0.00     0.131 A 
ATOM     81  C   UNL A   1      41.242  24.934  26.851  1.00  0.00     0.055 A 
ATOM     82  C   UNL A   1      42.116  26.864  25.720  1.00  0.00     0.041 A 
ATOM     83  F   UNL A   1      42.183  28.927  26.824  1.00  0.00    -0.206 F 
ATOM     84  C   UNL A   1      41.838  25.501  25.723  1.00  0.00     0.022 A 
BRANCH  81  85
ATOM     85  S   UNL A   1      41.037  23.134  26.956  1.00  0.00     0.124 S 
ATOM     86  O   UNL A   1      41.733  22.687  25.756  1.00  0.00    -0.237 OA
ATOM     87  O   UNL A   1      41.686  22.830  28.228  1.00  0.00    -0.237 OA
ATOM     88  O   UNL A   1      39.586  22.957  26.941  1.00  0.00    -0.744 OA
ENDBRANCH  81  85
ENDBRANCH  54  78
BRANCH  66  89
ATOM     89  C   UNL A   1      44.631  27.412  34.077  1.00  0.00     0.023 A 
ATOM     90  C   UNL A   1      44.442  26.218  34.792  1.00  0.00     0.031 A 
ATOM     91  C   UNL A   1      45.949  27.864  33.882  1.00  0.00     0.131 A 
ATOM     92  C   UNL A   1      45.546  25.553  35.345  1.00  0.00     0.055 A 
ATOM     93  C   UNL A   1      47.049  27.158  34.366  1.00  0.00     0.041 A 
ATOM     94  F   UNL A   1      46.189  29.001  33.208  1.00  0.00    -0.206 F 
ATOM     95  C   UNL A   1      46.849  26.003  35.117  1.00  0.00     0.022 A 
BRANCH  92  96
ATOM     96  S   UNL A   1      45.251  24.155  36.461  1.00  0.00     0.124 S 
ATOM     97  O   UNL A   1      44.180  23.442  35.772  1.00  0.00    -0.237 OA
ATOM     98  O   UNL A   1      46.549  23.490  36.480  1.00  0.00    -0.237 OA
ATOM     99  O   UNL A   1      44.863  24.795  37.716  1.00  0.00    -0.744 OA
ENDBRANCH  92  96
ENDBRANCH  66  89
ENDBRANCH  40  41
ENDBRANCH  33  35
ENDBRANCH  32  33
ENDBRANCH  31  32
ENDBRANCH  30  31
ENDBRANCH  29  30
ENDBRANCH  28  29
ENDBRANCH  27  28
ENDBRANCH  26  27
ENDBRANCH   1  26
TORSDOF 28
ENDMDL
MODEL 3
REMARK VINA RESULT:      -9.3      2.640      8.051
REMARK SMILES COCc1cc(SCC(=O)OCCOCCOCCOCCOC(=O)c2ccc(-c3c4nc(c(-c5cc(S(=O)(=O)[O-])ccc5F)c5ccc([nH]5)c(-c5cc(S(=O)(=O)[O-])ccc5F)c5nc(c(-c6cc(S(=O)(=O)[O-])ccc6F)c6ccc3[nH]6)C=C5)C=C4)cc2)nc(-c2cccnc2)n1
REMARK SMILES IDX 16 1 15 2 14 3 13 4 12 5 11 6 9 7 10 8 8 9 7 10 6 11 4 12
REMARK SMILES IDX 5 13 97 14 90 15 89 16 3 17 2 18 1 19 91 20 92 21 96 22
REMARK SMILES IDX 93 23 95 24 94 25 17 26 18 27 19 28 20 29 21 30 22 31 23 32
REMARK SMILES IDX 24 33 25 34 26 35 27 36 88 37 28 38 87 39 29 40 30 41 31 42
REMARK SMILES IDX 81 43 32 44 86 45 80 46 82 47 33 48 85 49 79 50 78 51 34 53
REMARK SMILES IDX 66 54 46 55 65 56 47 57 50 58 64 59 83 60 48 61 49 62 63 64
REMARK SMILES IDX 84 65 51 66 35 67 36 68 44 69 37 70 43 71 45 72 42 73 38 74
REMARK SMILES IDX 39 75 40 76 41 77 67 78 68 79 76 80 69 81 75 82 77 83 74 84
REMARK SMILES IDX 70 85 71 86 72 87 73 88 52 89 53 90 61 91 54 92 60 93 62 94
REMARK SMILES IDX 59 95 55 96 56 97 57 98 58 99
REMARK H PARENT 82 52 50 63
REMARK Flexibility Score: inf
ROOT
ATOM      1  C   UNL A   1      31.749  26.755  25.061  1.00  0.00     0.188 C 
ENDROOT
BRANCH   1   2
ATOM      2  C   UNL A   1      32.648  26.336  26.240  1.00  0.00     0.188 C 
BRANCH   2   3
ATOM      3  O   UNL A   1      33.550  25.256  26.127  1.00  0.00    -0.376 OA
BRANCH   3   4
ATOM      4  C   UNL A   1      34.774  25.368  25.435  1.00  0.00     0.202 C 
BRANCH   4   5
ATOM      5  C   UNL A   1      35.426  24.198  24.670  1.00  0.00     0.261 C 
BRANCH   5   6
ATOM      6  O   UNL A   1      36.503  23.474  25.311  1.00  0.00    -0.463 OA
BRANCH   6   7
ATOM      7  C   UNL A   1      36.627  22.159  25.012  1.00  0.00     0.316 C 
ATOM      8  O   UNL A   1      37.390  21.745  24.139  1.00  0.00    -0.251 OA
BRANCH   7   9
ATOM      9  C   UNL A   1      35.750  21.171  25.779  1.00  0.00     0.199 C 
BRANCH   9  10
ATOM     10  S   UNL A   1      34.482  20.152  24.938  1.00  0.00    -0.094 SA
BRANCH  10  11
ATOM     11  C   UNL A   1      32.997  21.171  24.691  1.00  0.00     0.101 A 
ATOM     12  C   UNL A   1      31.102  22.307  25.523  1.00  0.00     0.071 A 
ATOM     13  C   UNL A   1      31.971  21.230  25.612  1.00  0.00     0.062 A 
ATOM     14  N   UNL A   1      31.164  23.196  24.509  1.00  0.00    -0.230 NA
ATOM     15  C   UNL A   1      32.140  23.026  23.599  1.00  0.00     0.162 A 
ATOM     16  N   UNL A   1      33.061  22.038  23.646  1.00  0.00    -0.222 NA
BRANCH  12  17
ATOM     17  C   UNL A   1      30.092  22.587  26.618  1.00  0.00     0.215 C 
BRANCH  17  18
ATOM     18  O   UNL A   1      30.276  23.884  27.193  1.00  0.00    -0.378 OA
ATOM     19  C   UNL A   1      29.251  24.810  26.871  1.00  0.00     0.195 C 
ENDBRANCH  17  18
ENDBRANCH  12  17
BRANCH  15  20
ATOM     20  C   UNL A   1      32.172  24.006  22.505  1.00  0.00     0.038 A 
ATOM     21  C   UNL A   1      31.364  25.148  22.484  1.00  0.00     0.015 A 
ATOM     22  C   UNL A   1      33.081  23.907  21.452  1.00  0.00     0.123 A 
ATOM     23  C   UNL A   1      31.497  26.099  21.464  1.00  0.00     0.021 A 
ATOM     24  N   UNL A   1      33.238  24.807  20.444  1.00  0.00    -0.264 NA
ATOM     25  C   UNL A   1      32.439  25.885  20.472  1.00  0.00     0.111 A 
ENDBRANCH  15  20
ENDBRANCH  10  11
ENDBRANCH   9  10
ENDBRANCH   7   9
ENDBRANCH   6   7
ENDBRANCH   5   6
ENDBRANCH   4   5
ENDBRANCH   3   4
ENDBRANCH   2   3
ENDBRANCH   1   2
BRANCH   1  26
ATOM     26  O   UNL A   1      31.035  27.960  25.009  1.00  0.00    -0.377 OA
BRANCH  26  27
ATOM     27  C   UNL A   1      31.655  29.012  24.321  1.00  0.00     0.188 C 
BRANCH  27  28
ATOM     28  C   UNL A   1      31.223  30.350  24.914  1.00  0.00     0.188 C 
BRANCH  28  29
ATOM     29  O   UNL A   1      31.278  30.398  26.327  1.00  0.00    -0.376 OA
BRANCH  29  30
ATOM     30  C   UNL A   1      32.088  31.360  26.996  1.00  0.00     0.202 C 
BRANCH  30  31
ATOM     31  C   UNL A   1      31.822  32.872  27.157  1.00  0.00     0.261 C 
BRANCH  31  32
ATOM     32  O   UNL A   1      32.901  33.795  27.278  1.00  0.00    -0.460 OA
BRANCH  32  33
ATOM     33  C   UNL A   1      33.253  34.210  28.503  1.00  0.00     0.338 C 
ATOM     34  O   UNL A   1      32.566  34.845  29.289  1.00  0.00    -0.246 OA
BRANCH  33  35
ATOM     35  C   UNL A   1      34.518  33.517  28.821  1.00  0.00     0.060 A 
ATOM     36  C   UNL A   1      34.426  32.197  29.277  1.00  0.00     0.016 A 
ATOM     37  C   UNL A   1      35.767  34.108  28.595  1.00  0.00     0.016 A 
ATOM     38  C   UNL A   1      35.578  31.460  29.511  1.00  0.00     0.010 A 
ATOM     39  C   UNL A   1      36.928  33.383  28.885  1.00  0.00     0.010 A 
ATOM     40  C   UNL A   1      36.831  32.067  29.369  1.00  0.00    -0.014 A 
BRANCH  40  41
ATOM     41  C   UNL A   1      37.984  31.387  29.999  1.00  0.00     0.031 A 
ATOM     42  C   UNL A   1      38.251  31.696  31.447  1.00  0.00     0.074 A 
ATOM     43  C   UNL A   1      38.679  30.442  29.343  1.00  0.00     0.049 A 
ATOM     44  N   UNL A   1      39.144  31.192  32.253  1.00  0.00    -0.248 NA
ATOM     45  C   UNL A   1      37.376  32.703  32.072  1.00  0.00     0.031 C 
ATOM     46  C   UNL A   1      38.432  30.017  27.964  1.00  0.00     0.029 A 
ATOM     47  N   UNL A   1      39.722  29.654  29.754  1.00  0.00    -0.354 N 
ATOM     48  C   UNL A   1      38.945  31.825  33.475  1.00  0.00     0.074 A 
ATOM     49  C   UNL A   1      37.860  32.762  33.302  1.00  0.00     0.031 C 
ATOM     50  C   UNL A   1      39.305  29.044  27.645  1.00  0.00     0.029 A 
ATOM     51  C   UNL A   1      40.194  28.806  28.780  1.00  0.00     0.049 A 
ATOM     52  H   UNL A   1      40.098  29.691  30.664  1.00  0.00     0.167 HD
ATOM     53  C   UNL A   1      39.615  31.637  34.636  1.00  0.00     0.034 A 
ATOM     54  C   UNL A   1      41.244  27.958  28.806  1.00  0.00     0.034 A 
ATOM     55  C   UNL A   1      40.701  30.702  34.774  1.00  0.00     0.049 A 
ATOM     56  C   UNL A   1      42.038  27.845  30.089  1.00  0.00     0.074 A 
ATOM     57  C   UNL A   1      41.450  30.414  35.900  1.00  0.00     0.029 A 
ATOM     58  N   UNL A   1      41.208  29.918  33.745  1.00  0.00    -0.354 N 
ATOM     59  N   UNL A   1      41.833  28.436  31.245  1.00  0.00    -0.248 NA
ATOM     60  C   UNL A   1      43.200  26.946  30.075  1.00  0.00     0.031 C 
ATOM     61  C   UNL A   1      42.467  29.530  35.530  1.00  0.00     0.029 A 
ATOM     62  C   UNL A   1      42.291  29.184  34.197  1.00  0.00     0.049 A 
ATOM     63  H   UNL A   1      40.850  29.889  32.828  1.00  0.00     0.167 HD
ATOM     64  C   UNL A   1      42.816  27.948  32.103  1.00  0.00     0.074 A 
ATOM     65  C   UNL A   1      43.599  27.001  31.336  1.00  0.00     0.031 C 
ATOM     66  C   UNL A   1      43.055  28.247  33.407  1.00  0.00     0.034 A 
BRANCH  53  67
ATOM     67  C   UNL A   1      39.252  32.514  35.807  1.00  0.00     0.023 A 
ATOM     68  C   UNL A   1      39.699  33.843  35.921  1.00  0.00     0.031 A 
ATOM     69  C   UNL A   1      38.448  31.998  36.839  1.00  0.00     0.131 A 
ATOM     70  C   UNL A   1      39.374  34.592  37.063  1.00  0.00     0.055 A 
ATOM     71  C   UNL A   1      38.068  32.771  37.936  1.00  0.00     0.041 A 
ATOM     72  F   UNL A   1      38.023  30.725  36.800  1.00  0.00    -0.206 F 
ATOM     73  C   UNL A   1      38.539  34.074  38.057  1.00  0.00     0.022 A 
BRANCH  70  74
ATOM     74  S   UNL A   1      40.153  36.215  37.295  1.00  0.00     0.124 S 
ATOM     75  O   UNL A   1      40.080  36.773  35.948  1.00  0.00    -0.237 OA
ATOM     76  O   UNL A   1      39.292  36.838  38.294  1.00  0.00    -0.237 OA
ATOM     77  O   UNL A   1      41.502  35.886  37.754  1.00  0.00    -0.744 OA
ENDBRANCH  70  74
ENDBRANCH  53  67
BRANCH  54  78
ATOM     78  C   UNL A   1      41.649  27.190  27.589  1.00  0.00     0.023 A 
ATOM     79  C   UNL A   1      41.604  25.786  27.561  1.00  0.00     0.031 A 
ATOM     80  C   UNL A   1      42.188  27.848  26.467  1.00  0.00     0.131 A 
ATOM     81  C   UNL A   1      42.152  25.088  26.474  1.00  0.00     0.055 A 
ATOM     82  C   UNL A   1      42.665  27.149  25.356  1.00  0.00     0.041 A 
ATOM     83  F   UNL A   1      42.269  29.188  26.436  1.00  0.00    -0.206 F 
ATOM     84  C   UNL A   1      42.668  25.758  25.364  1.00  0.00     0.022 A 
BRANCH  81  85
ATOM     85  S   UNL A   1      42.308  23.283  26.592  1.00  0.00     0.124 S 
ATOM     86  O   UNL A   1      42.617  23.106  28.006  1.00  0.00    -0.237 OA
ATOM     87  O   UNL A   1      40.987  22.837  26.162  1.00  0.00    -0.237 OA
ATOM     88  O   UNL A   1      43.399  22.976  25.670  1.00  0.00    -0.744 OA
ENDBRANCH  81  85
ENDBRANCH  54  78
BRANCH  66  89
ATOM     89  C   UNL A   1      44.171  27.497  34.092  1.00  0.00     0.023 A 
ATOM     90  C   UNL A   1      43.965  26.241  34.687  1.00  0.00     0.031 A 
ATOM     91  C   UNL A   1      45.462  28.054  34.152  1.00  0.00     0.131 A 
ATOM     92  C   UNL A   1      45.015  25.614  35.374  1.00  0.00     0.055 A 
ATOM     93  C   UNL A   1      46.522  27.390  34.768  1.00  0.00     0.041 A 
ATOM     94  F   UNL A   1      45.715  29.253  33.602  1.00  0.00    -0.206 F 
ATOM     95  C   UNL A   1      46.297  26.170  35.398  1.00  0.00     0.022 A 
BRANCH  92  96
ATOM     96  S   UNL A   1      44.656  24.118  36.332  1.00  0.00     0.124 S 
ATOM     97  O   UNL A   1      45.752  23.238  35.939  1.00  0.00    -0.237 OA
ATOM     98  O   UNL A   1      44.695  24.609  37.706  1.00  0.00    -0.237 OA
ATOM     99  O   UNL A   1      43.334  23.714  35.855  1.00  0.00    -0.744 OA
ENDBRANCH  92  96
ENDBRANCH  66  89
ENDBRANCH  40  41
ENDBRANCH  33  35
ENDBRANCH  32  33
ENDBRANCH  31  32
ENDBRANCH  30  31
ENDBRANCH  29  30
ENDBRANCH  28  29
ENDBRANCH  27  28
ENDBRANCH  26  27
ENDBRANCH   1  26
TORSDOF 28
ENDMDL
