MODEL 1
REMARK VINA RESULT:      -7.3      0.000      0.000
REMARK SMILES COc1ccccc1[C@@H]1CN(C(=O)c2cc(C(C)C)nc(N)n2)C[C@H]1C(=O)OCCOCCOCCOCCOC(=O)c1ccc(-c2c3nc(c(-c4cc(S(=O)(=O)[O-])ccc4F)c4ccc([nH]4)c(-c4cc(S(=O)(=O)[O-])ccc4F)c4nc(c(-c5cc(S(=O)(=O)[O-])ccc5F)c5ccc2[nH]5)C=C4)C=C3)cc1
REMARK SMILES IDX 34 1 33 2 32 3 31 4 30 5 29 6 28 7 26 8 27 9 25 10 9 11
REMARK SMILES IDX 10 12 11 13 24 14 8 15 3 16 4 17 5 18 7 19 6 20 2 21 1 22
REMARK SMILES IDX 12 23 13 24 14 25 15 26 23 27 16 28 21 29 20 30 17 31 18 32
REMARK SMILES IDX 19 33 22 34 35 37 36 38 37 39 38 40 39 41 40 42 41 43 42 44
REMARK SMILES IDX 43 45 44 46 105 47 45 48 104 49 46 50 47 51 48 52 98 53
REMARK SMILES IDX 49 54 103 55 97 56 99 57 50 58 102 59 96 60 95 61 51 63
REMARK SMILES IDX 83 64 63 65 82 66 64 67 67 68 81 69 100 70 65 71 66 72 80 74
REMARK SMILES IDX 101 75 68 76 52 77 53 78 61 79 54 80 60 81 62 82 59 83 55 84
REMARK SMILES IDX 56 85 57 86 58 87 84 88 85 89 93 90 86 91 92 92 94 93 91 94
REMARK SMILES IDX 87 95 88 96 89 97 90 98 69 99 70 100 78 101 71 102 77 103
REMARK SMILES IDX 79 104 76 105 72 106 73 107 74 108 75 109
REMARK H PARENT 22 35 22 36 99 62 67 73
REMARK Flexibility Score: inf
ROOT
ATOM      1  O   UNL A   1      46.256  30.531  26.802  1.00  0.00    -0.377 OA
ENDROOT
BRANCH   1   2
ATOM      2  C   UNL A   1      47.305  29.974  27.564  1.00  0.00     0.188 C 
BRANCH   2   3
ATOM      3  C   UNL A   1      47.653  28.505  27.306  1.00  0.00     0.188 C 
BRANCH   3   4
ATOM      4  O   UNL A   1      46.711  27.479  27.553  1.00  0.00    -0.376 OA
BRANCH   4   5
ATOM      5  C   UNL A   1      46.547  26.933  28.853  1.00  0.00     0.202 C 
BRANCH   5   6
ATOM      6  C   UNL A   1      45.606  27.557  29.907  1.00  0.00     0.261 C 
BRANCH   6   7
ATOM      7  O   UNL A   1      44.340  28.094  29.455  1.00  0.00    -0.463 OA
BRANCH   7   8
ATOM      8  C   UNL A   1      43.245  27.539  30.011  1.00  0.00     0.311 C 
ATOM      9  O   UNL A   1      42.938  26.356  29.866  1.00  0.00    -0.252 OA
BRANCH   8  10
ATOM     10  C   UNL A   1      42.325  28.456  30.796  1.00  0.00     0.128 C 
ATOM     11  C   UNL A   1      40.777  28.375  30.969  1.00  0.00     0.058 C 
ATOM     12  C   UNL A   1      40.571  28.943  32.376  1.00  0.00     0.129 C 
ATOM     13  N   UNL A   1      41.746  28.508  33.096  1.00  0.00    -0.336 N 
ATOM     14  C   UNL A   1      42.884  28.427  32.214  1.00  0.00     0.136 C 
BRANCH  11  15
ATOM     15  C   UNL A   1      39.834  29.136  30.027  1.00  0.00    -0.000 A 
ATOM     16  C   UNL A   1      39.379  28.652  28.787  1.00  0.00     0.122 A 
ATOM     17  C   UNL A   1      38.416  29.351  28.045  1.00  0.00     0.047 A 
ATOM     18  C   UNL A   1      37.967  30.599  28.478  1.00  0.00     0.004 A 
ATOM     19  C   UNL A   1      39.428  30.436  30.396  1.00  0.00     0.008 A 
ATOM     20  C   UNL A   1      38.520  31.165  29.621  1.00  0.00     0.001 A 
BRANCH  16  21
ATOM     21  O   UNL A   1      40.086  27.659  28.161  1.00  0.00    -0.496 OA
ATOM     22  C   UNL A   1      39.491  26.368  28.209  1.00  0.00     0.278 C 
ENDBRANCH  16  21
ENDBRANCH  11  15
BRANCH  13  23
ATOM     23  C   UNL A   1      41.922  28.342  34.457  1.00  0.00     0.272 C 
ATOM     24  O   UNL A   1      41.951  29.292  35.236  1.00  0.00    -0.267 OA
BRANCH  23  25
ATOM     25  C   UNL A   1      42.090  26.966  34.981  1.00  0.00     0.134 A 
ATOM     26  C   UNL A   1      43.125  26.179  34.528  1.00  0.00     0.058 A 
ATOM     27  N   UNL A   1      41.194  26.591  35.911  1.00  0.00    -0.208 NA
ATOM     28  C   UNL A   1      43.174  24.910  35.051  1.00  0.00     0.049 A 
ATOM     29  C   UNL A   1      41.352  25.366  36.390  1.00  0.00     0.220 A 
ATOM     30  N   UNL A   1      42.289  24.499  35.987  1.00  0.00    -0.218 NA
BRANCH  28  31
ATOM     31  C   UNL A   1      44.203  23.897  34.589  1.00  0.00     0.032 C 
ATOM     32  C   UNL A   1      45.008  23.349  35.771  1.00  0.00     0.014 C 
ATOM     33  C   UNL A   1      43.574  22.758  33.784  1.00  0.00     0.014 C 
ENDBRANCH  28  31
BRANCH  29  34
ATOM     34  N   UNL A   1      40.511  24.986  37.397  1.00  0.00    -0.368 N 
ATOM     35  H   UNL A   1      40.631  24.114  37.836  1.00  0.00     0.159 HD
ATOM     36  H   UNL A   1      39.785  25.586  37.684  1.00  0.00     0.159 HD
ENDBRANCH  29  34
ENDBRANCH  23  25
ENDBRANCH  13  23
ENDBRANCH   8  10
ENDBRANCH   7   8
ENDBRANCH   6   7
ENDBRANCH   5   6
ENDBRANCH   4   5
ENDBRANCH   3   4
ENDBRANCH   2   3
ENDBRANCH   1   2
BRANCH   1  37
ATOM     37  C   UNL A   1      45.448  31.533  27.395  1.00  0.00     0.188 C 
BRANCH  37  38
ATOM     38  C   UNL A   1      44.230  32.047  26.612  1.00  0.00     0.188 C 
BRANCH  38  39
ATOM     39  O   UNL A   1      44.535  32.497  25.298  1.00  0.00    -0.376 OA
BRANCH  39  40
ATOM     40  C   UNL A   1      44.449  33.887  25.019  1.00  0.00     0.202 C 
BRANCH  40  41
ATOM     41  C   UNL A   1      43.667  34.772  26.002  1.00  0.00     0.261 C 
BRANCH  41  42
ATOM     42  O   UNL A   1      44.347  35.901  26.566  1.00  0.00    -0.460 OA
BRANCH  42  43
ATOM     43  C   UNL A   1      45.428  35.667  27.345  1.00  0.00     0.338 C 
ATOM     44  O   UNL A   1      46.587  35.674  27.002  1.00  0.00    -0.246 OA
BRANCH  43  45
ATOM     45  C   UNL A   1      44.948  35.614  28.745  1.00  0.00     0.060 A 
ATOM     46  C   UNL A   1      45.096  34.420  29.462  1.00  0.00     0.016 A 
ATOM     47  C   UNL A   1      44.374  36.737  29.348  1.00  0.00     0.016 A 
ATOM     48  C   UNL A   1      44.629  34.331  30.772  1.00  0.00     0.010 A 
ATOM     49  C   UNL A   1      43.886  36.640  30.654  1.00  0.00     0.010 A 
ATOM     50  C   UNL A   1      43.977  35.424  31.356  1.00  0.00    -0.014 A 
BRANCH  50  51
ATOM     51  C   UNL A   1      43.193  35.223  32.599  1.00  0.00     0.031 A 
ATOM     52  C   UNL A   1      43.880  35.490  33.914  1.00  0.00     0.074 A 
ATOM     53  C   UNL A   1      41.900  34.851  32.564  1.00  0.00     0.049 A 
ATOM     54  N   UNL A   1      43.427  35.355  35.131  1.00  0.00    -0.248 NA
ATOM     55  C   UNL A   1      45.271  35.970  33.839  1.00  0.00     0.031 C 
ATOM     56  C   UNL A   1      41.118  34.624  31.348  1.00  0.00     0.029 A 
ATOM     57  N   UNL A   1      41.015  34.598  33.582  1.00  0.00    -0.354 N 
ATOM     58  C   UNL A   1      44.479  35.718  35.967  1.00  0.00     0.074 A 
ATOM     59  C   UNL A   1      45.599  36.055  35.119  1.00  0.00     0.031 C 
ATOM     60  C   UNL A   1      39.871  34.259  31.694  1.00  0.00     0.029 A 
ATOM     61  C   UNL A   1      39.775  34.182  33.151  1.00  0.00     0.049 A 
ATOM     62  H   UNL A   1      41.245  34.704  34.533  1.00  0.00     0.167 HD
ATOM     63  C   UNL A   1      44.503  35.764  37.320  1.00  0.00     0.034 A 
ATOM     64  C   UNL A   1      38.703  33.764  33.855  1.00  0.00     0.034 A 
ATOM     65  C   UNL A   1      43.373  35.429  38.149  1.00  0.00     0.049 A 
ATOM     66  C   UNL A   1      38.790  33.744  35.367  1.00  0.00     0.074 A 
ATOM     67  C   UNL A   1      43.275  35.478  39.528  1.00  0.00     0.029 A 
ATOM     68  N   UNL A   1      42.152  34.964  37.678  1.00  0.00    -0.354 N 
ATOM     69  N   UNL A   1      39.781  34.120  36.146  1.00  0.00    -0.248 NA
ATOM     70  C   UNL A   1      37.612  33.254  36.095  1.00  0.00     0.031 C 
ATOM     71  C   UNL A   1      42.033  34.955  39.895  1.00  0.00     0.029 A 
ATOM     72  C   UNL A   1      41.314  34.676  38.743  1.00  0.00     0.049 A 
ATOM     73  H   UNL A   1      41.916  34.855  36.729  1.00  0.00     0.167 HD
ATOM     74  C   UNL A   1      39.323  33.951  37.452  1.00  0.00     0.074 A 
ATOM     75  C   UNL A   1      37.966  33.458  37.355  1.00  0.00     0.031 C 
ATOM     76  C   UNL A   1      39.961  34.187  38.628  1.00  0.00     0.034 A 
BRANCH  63  77
ATOM     77  C   UNL A   1      45.804  36.126  37.992  1.00  0.00     0.023 A 
ATOM     78  C   UNL A   1      46.138  37.450  38.319  1.00  0.00     0.031 A 
ATOM     79  C   UNL A   1      46.723  35.113  38.320  1.00  0.00     0.131 A 
ATOM     80  C   UNL A   1      47.379  37.730  38.915  1.00  0.00     0.055 A 
ATOM     81  C   UNL A   1      47.920  35.388  38.981  1.00  0.00     0.041 A 
ATOM     82  F   UNL A   1      46.470  33.833  38.002  1.00  0.00    -0.206 F 
ATOM     83  C   UNL A   1      48.258  36.705  39.274  1.00  0.00     0.022 A 
BRANCH  80  84
ATOM     84  S   UNL A   1      47.880  39.461  39.112  1.00  0.00     0.124 S 
ATOM     85  O   UNL A   1      49.079  39.518  38.278  1.00  0.00    -0.237 OA
ATOM     86  O   UNL A   1      46.719  40.187  38.610  1.00  0.00    -0.237 OA
ATOM     87  O   UNL A   1      48.123  39.587  40.548  1.00  0.00    -0.744 OA
ENDBRANCH  80  84
ENDBRANCH  63  77
BRANCH  64  88
ATOM     88  C   UNL A   1      37.467  33.280  33.168  1.00  0.00     0.023 A 
ATOM     89  C   UNL A   1      36.460  34.175  32.773  1.00  0.00     0.031 A 
ATOM     90  C   UNL A   1      37.221  31.904  32.999  1.00  0.00     0.131 A 
ATOM     91  C   UNL A   1      35.230  33.688  32.304  1.00  0.00     0.055 A 
ATOM     92  C   UNL A   1      36.024  31.427  32.461  1.00  0.00     0.041 A 
ATOM     93  F   UNL A   1      38.140  30.999  33.366  1.00  0.00    -0.206 F 
ATOM     94  C   UNL A   1      35.011  32.320  32.130  1.00  0.00     0.022 A 
BRANCH  91  95
ATOM     95  S   UNL A   1      33.867  34.863  32.068  1.00  0.00     0.124 S 
ATOM     96  O   UNL A   1      33.537  34.653  30.663  1.00  0.00    -0.237 OA
ATOM     97  O   UNL A   1      32.887  34.386  33.037  1.00  0.00    -0.237 OA
ATOM     98  O   UNL A   1      34.475  36.155  32.381  1.00  0.00    -0.744 OA
ENDBRANCH  91  95
ENDBRANCH  64  88
BRANCH  76  99
ATOM     99  C   UNL A   1      39.173  33.978  39.899  1.00  0.00     0.023 A 
ATOM    100  C   UNL A   1      39.051  32.713  40.501  1.00  0.00     0.031 A 
ATOM    101  C   UNL A   1      38.534  35.067  40.519  1.00  0.00     0.131 A 
ATOM    102  C   UNL A   1      38.257  32.558  41.647  1.00  0.00     0.055 A 
ATOM    103  C   UNL A   1      37.806  34.919  41.700  1.00  0.00     0.041 A 
ATOM    104  F   UNL A   1      38.613  36.298  39.989  1.00  0.00    -0.206 F 
ATOM    105  C   UNL A   1      37.651  33.656  42.262  1.00  0.00     0.022 A 
BRANCH 102 106
ATOM    106  S   UNL A   1      37.938  30.882  42.264  1.00  0.00     0.124 S 
ATOM    107  O   UNL A   1      39.120  30.630  43.080  1.00  0.00    -0.237 OA
ATOM    108  O   UNL A   1      36.685  31.053  42.993  1.00  0.00    -0.237 OA
ATOM    109  O   UNL A   1      37.841  30.081  41.045  1.00  0.00    -0.744 OA
ENDBRANCH 102 106
ENDBRANCH  76  99
ENDBRANCH  50  51
ENDBRANCH  43  45
ENDBRANCH  42  43
ENDBRANCH  41  42
ENDBRANCH  40  41
ENDBRANCH  39  40
ENDBRANCH  38  39
ENDBRANCH  37  38
ENDBRANCH   1  37
TORSDOF 29
ENDMDL
MODEL 2
REMARK VINA RESULT:      -6.7      7.526     14.223
REMARK SMILES COc1ccccc1[C@@H]1CN(C(=O)c2cc(C(C)C)nc(N)n2)C[C@H]1C(=O)OCCOCCOCCOCCOC(=O)c1ccc(-c2c3nc(c(-c4cc(S(=O)(=O)[O-])ccc4F)c4ccc([nH]4)c(-c4cc(S(=O)(=O)[O-])ccc4F)c4nc(c(-c5cc(S(=O)(=O)[O-])ccc5F)c5ccc2[nH]5)C=C4)C=C3)cc1
REMARK SMILES IDX 34 1 33 2 32 3 31 4 30 5 29 6 28 7 26 8 27 9 25 10 9 11
REMARK SMILES IDX 10 12 11 13 24 14 8 15 3 16 4 17 5 18 7 19 6 20 2 21 1 22
REMARK SMILES IDX 12 23 13 24 14 25 15 26 23 27 16 28 21 29 20 30 17 31 18 32
REMARK SMILES IDX 19 33 22 34 35 37 36 38 37 39 38 40 39 41 40 42 41 43 42 44
REMARK SMILES IDX 43 45 44 46 105 47 45 48 104 49 46 50 47 51 48 52 98 53
REMARK SMILES IDX 49 54 103 55 97 56 99 57 50 58 102 59 96 60 95 61 51 63
REMARK SMILES IDX 83 64 63 65 82 66 64 67 67 68 81 69 100 70 65 71 66 72 80 74
REMARK SMILES IDX 101 75 68 76 52 77 53 78 61 79 54 80 60 81 62 82 59 83 55 84
REMARK SMILES IDX 56 85 57 86 58 87 84 88 85 89 93 90 86 91 92 92 94 93 91 94
REMARK SMILES IDX 87 95 88 96 89 97 90 98 69 99 70 100 78 101 71 102 77 103
REMARK SMILES IDX 79 104 76 105 72 106 73 107 74 108 75 109
REMARK H PARENT 22 35 22 36 99 62 67 73
REMARK Flexibility Score: inf
ROOT
ATOM      1  O   UNL A   1      46.394  42.257  29.482  1.00  0.00    -0.377 OA
ENDROOT
BRANCH   1   2
ATOM      2  C   UNL A   1      46.568  41.087  28.712  1.00  0.00     0.188 C 
BRANCH   2   3
ATOM      3  C   UNL A   1      47.029  41.267  27.262  1.00  0.00     0.188 C 
BRANCH   3   4
ATOM      4  O   UNL A   1      47.284  42.553  26.733  1.00  0.00    -0.376 OA
BRANCH   4   5
ATOM      5  C   UNL A   1      46.692  42.975  25.514  1.00  0.00     0.202 C 
BRANCH   5   6
ATOM      6  C   UNL A   1      45.589  42.163  24.797  1.00  0.00     0.261 C 
BRANCH   6   7
ATOM      7  O   UNL A   1      45.496  42.270  23.357  1.00  0.00    -0.463 OA
BRANCH   7   8
ATOM      8  C   UNL A   1      44.926  43.402  22.897  1.00  0.00     0.311 C 
ATOM      9  O   UNL A   1      43.865  43.850  23.329  1.00  0.00    -0.252 OA
BRANCH   8  10
ATOM     10  C   UNL A   1      45.616  44.105  21.741  1.00  0.00     0.128 C 
ATOM     11  C   UNL A   1      45.089  45.274  20.852  1.00  0.00     0.058 C 
ATOM     12  C   UNL A   1      46.374  46.034  20.510  1.00  0.00     0.129 C 
ATOM     13  N   UNL A   1      47.188  45.881  21.695  1.00  0.00    -0.336 N 
ATOM     14  C   UNL A   1      46.922  44.617  22.336  1.00  0.00     0.136 C 
BRANCH  11  15
ATOM     15  C   UNL A   1      44.356  44.997  19.533  1.00  0.00    -0.000 A 
ATOM     16  C   UNL A   1      43.049  44.486  19.434  1.00  0.00     0.122 A 
ATOM     17  C   UNL A   1      42.403  44.385  18.194  1.00  0.00     0.047 A 
ATOM     18  C   UNL A   1      43.087  44.694  17.019  1.00  0.00     0.004 A 
ATOM     19  C   UNL A   1      45.051  45.220  18.325  1.00  0.00     0.008 A 
ATOM     20  C   UNL A   1      44.428  45.053  17.083  1.00  0.00     0.001 A 
BRANCH  16  21
ATOM     21  O   UNL A   1      42.518  43.810  20.502  1.00  0.00    -0.496 OA
ATOM     22  C   UNL A   1      42.547  42.393  20.397  1.00  0.00     0.278 C 
ENDBRANCH  16  21
ENDBRANCH  11  15
BRANCH  13  23
ATOM     23  C   UNL A   1      48.229  46.671  22.143  1.00  0.00     0.272 C 
ATOM     24  O   UNL A   1      48.377  47.834  21.776  1.00  0.00    -0.267 OA
BRANCH  23  25
ATOM     25  C   UNL A   1      49.201  46.078  23.093  1.00  0.00     0.134 A 
ATOM     26  C   UNL A   1      48.967  46.147  24.447  1.00  0.00     0.058 A 
ATOM     27  N   UNL A   1      50.264  45.477  22.528  1.00  0.00    -0.208 NA
ATOM     28  C   UNL A   1      49.943  45.597  25.244  1.00  0.00     0.049 A 
ATOM     29  C   UNL A   1      51.126  44.936  23.376  1.00  0.00     0.220 A 
ATOM     30  N   UNL A   1      51.025  44.986  24.710  1.00  0.00    -0.218 NA
BRANCH  28  31
ATOM     31  C   UNL A   1      49.872  45.669  26.756  1.00  0.00     0.032 C 
ATOM     32  C   UNL A   1      48.469  46.066  27.224  1.00  0.00     0.014 C 
ATOM     33  C   UNL A   1      50.320  44.366  27.420  1.00  0.00     0.014 C 
ENDBRANCH  28  31
BRANCH  29  34
ATOM     34  N   UNL A   1      52.171  44.244  22.833  1.00  0.00    -0.368 N 
ATOM     35  H   UNL A   1      52.950  44.012  23.388  1.00  0.00     0.159 HD
ATOM     36  H   UNL A   1      52.145  43.977  21.886  1.00  0.00     0.159 HD
ENDBRANCH  29  34
ENDBRANCH  23  25
ENDBRANCH  13  23
ENDBRANCH   8  10
ENDBRANCH   7   8
ENDBRANCH   6   7
ENDBRANCH   5   6
ENDBRANCH   4   5
ENDBRANCH   3   4
ENDBRANCH   2   3
ENDBRANCH   1   2
BRANCH   1  37
ATOM     37  C   UNL A   1      45.605  42.182  30.657  1.00  0.00     0.188 C 
BRANCH  37  38
ATOM     38  C   UNL A   1      46.321  42.171  32.017  1.00  0.00     0.188 C 
BRANCH  38  39
ATOM     39  O   UNL A   1      46.864  43.430  32.395  1.00  0.00    -0.376 OA
BRANCH  39  40
ATOM     40  C   UNL A   1      46.570  43.935  33.690  1.00  0.00     0.202 C 
BRANCH  40  41
ATOM     41  C   UNL A   1      45.105  43.920  34.153  1.00  0.00     0.261 C 
BRANCH  41  42
ATOM     42  O   UNL A   1      44.794  43.204  35.356  1.00  0.00    -0.460 OA
BRANCH  42  43
ATOM     43  C   UNL A   1      43.639  42.501  35.397  1.00  0.00     0.338 C 
ATOM     44  O   UNL A   1      42.575  42.874  35.830  1.00  0.00    -0.246 OA
BRANCH  43  45
ATOM     45  C   UNL A   1      43.860  41.264  34.612  1.00  0.00     0.060 A 
ATOM     46  C   UNL A   1      43.102  41.060  33.452  1.00  0.00     0.016 A 
ATOM     47  C   UNL A   1      44.818  40.326  35.008  1.00  0.00     0.016 A 
ATOM     48  C   UNL A   1      43.268  39.893  32.708  1.00  0.00     0.010 A 
ATOM     49  C   UNL A   1      44.967  39.147  34.274  1.00  0.00     0.010 A 
ATOM     50  C   UNL A   1      44.164  38.909  33.144  1.00  0.00    -0.014 A 
BRANCH  50  51
ATOM     51  C   UNL A   1      44.092  37.549  32.555  1.00  0.00     0.031 A 
ATOM     52  C   UNL A   1      45.003  37.237  31.396  1.00  0.00     0.074 A 
ATOM     53  C   UNL A   1      43.271  36.607  33.056  1.00  0.00     0.049 A 
ATOM     54  N   UNL A   1      45.106  36.142  30.691  1.00  0.00    -0.248 NA
ATOM     55  C   UNL A   1      45.920  38.311  30.977  1.00  0.00     0.031 C 
ATOM     56  C   UNL A   1      42.391  36.781  34.211  1.00  0.00     0.029 A 
ATOM     57  N   UNL A   1      43.045  35.314  32.654  1.00  0.00    -0.354 N 
ATOM     58  C   UNL A   1      46.084  36.400  29.735  1.00  0.00     0.074 A 
ATOM     59  C   UNL A   1      46.527  37.761  29.936  1.00  0.00     0.031 C 
ATOM     60  C   UNL A   1      41.715  35.637  34.420  1.00  0.00     0.029 A 
ATOM     61  C   UNL A   1      42.079  34.665  33.390  1.00  0.00     0.049 A 
ATOM     62  H   UNL A   1      43.527  34.891  31.909  1.00  0.00     0.167 HD
ATOM     63  C   UNL A   1      46.567  35.573  28.778  1.00  0.00     0.034 A 
ATOM     64  C   UNL A   1      41.537  33.440  33.227  1.00  0.00     0.034 A 
ATOM     65  C   UNL A   1      46.116  34.217  28.596  1.00  0.00     0.049 A 
ATOM     66  C   UNL A   1      42.037  32.569  32.093  1.00  0.00     0.074 A 
ATOM     67  C   UNL A   1      46.564  33.279  27.683  1.00  0.00     0.029 A 
ATOM     68  N   UNL A   1      45.102  33.611  29.327  1.00  0.00    -0.354 N 
ATOM     69  N   UNL A   1      42.985  32.814  31.216  1.00  0.00    -0.248 NA
ATOM     70  C   UNL A   1      41.401  31.255  31.932  1.00  0.00     0.031 C 
ATOM     71  C   UNL A   1      45.759  32.142  27.798  1.00  0.00     0.029 A 
ATOM     72  C   UNL A   1      44.877  32.329  28.851  1.00  0.00     0.049 A 
ATOM     73  H   UNL A   1      44.615  34.030  30.072  1.00  0.00     0.167 HD
ATOM     74  C   UNL A   1      43.085  31.665  30.433  1.00  0.00     0.074 A 
ATOM     75  C   UNL A   1      42.115  30.725  30.951  1.00  0.00     0.031 C 
ATOM     76  C   UNL A   1      43.907  31.403  29.383  1.00  0.00     0.034 A 
BRANCH  63  77
ATOM     77  C   UNL A   1      47.586  36.126  27.813  1.00  0.00     0.023 A 
ATOM     78  C   UNL A   1      48.968  36.057  28.058  1.00  0.00     0.031 A 
ATOM     79  C   UNL A   1      47.157  36.727  26.616  1.00  0.00     0.131 A 
ATOM     80  C   UNL A   1      49.868  36.619  27.138  1.00  0.00     0.055 A 
ATOM     81  C   UNL A   1      48.059  37.215  25.671  1.00  0.00     0.041 A 
ATOM     82  F   UNL A   1      45.847  36.849  26.346  1.00  0.00    -0.206 F 
ATOM     83  C   UNL A   1      49.424  37.170  25.933  1.00  0.00     0.022 A 
BRANCH  80  84
ATOM     84  S   UNL A   1      51.621  36.723  27.587  1.00  0.00     0.124 S 
ATOM     85  O   UNL A   1      52.248  36.939  26.285  1.00  0.00    -0.237 OA
ATOM     86  O   UNL A   1      51.647  37.857  28.504  1.00  0.00    -0.237 OA
ATOM     87  O   UNL A   1      51.898  35.422  28.195  1.00  0.00    -0.744 OA
ENDBRANCH  80  84
ENDBRANCH  63  77
BRANCH  64  88
ATOM     88  C   UNL A   1      40.431  32.959  34.111  1.00  0.00     0.023 A 
ATOM     89  C   UNL A   1      39.091  33.273  33.831  1.00  0.00     0.031 A 
ATOM     90  C   UNL A   1      40.704  32.274  35.310  1.00  0.00     0.131 A 
ATOM     91  C   UNL A   1      38.089  32.977  34.768  1.00  0.00     0.055 A 
ATOM     92  C   UNL A   1      39.694  31.914  36.204  1.00  0.00     0.041 A 
ATOM     93  F   UNL A   1      41.966  31.954  35.638  1.00  0.00    -0.206 F 
ATOM     94  C   UNL A   1      38.379  32.285  35.945  1.00  0.00     0.022 A 
BRANCH  91  95
ATOM     95  S   UNL A   1      36.424  33.644  34.493  1.00  0.00     0.124 S 
ATOM     96  O   UNL A   1      35.850  32.644  33.600  1.00  0.00    -0.237 OA
ATOM     97  O   UNL A   1      35.886  33.679  35.849  1.00  0.00    -0.237 OA
ATOM     98  O   UNL A   1      36.677  34.950  33.888  1.00  0.00    -0.744 OA
ENDBRANCH  91  95
ENDBRANCH  64  88
BRANCH  76  99
ATOM     99  C   UNL A   1      43.836  30.024  28.772  1.00  0.00     0.023 A 
ATOM    100  C   UNL A   1      43.006  29.737  27.674  1.00  0.00     0.031 A 
ATOM    101  C   UNL A   1      44.615  28.979  29.300  1.00  0.00     0.131 A 
ATOM    102  C   UNL A   1      42.927  28.426  27.181  1.00  0.00     0.055 A 
ATOM    103  C   UNL A   1      44.588  27.693  28.759  1.00  0.00     0.041 A 
ATOM    104  F   UNL A   1      45.424  29.193  30.350  1.00  0.00    -0.206 F 
ATOM    105  C   UNL A   1      43.729  27.407  27.703  1.00  0.00     0.022 A 
BRANCH 102 106
ATOM    106  S   UNL A   1      41.684  28.044  25.917  1.00  0.00     0.124 S 
ATOM    107  O   UNL A   1      41.444  26.624  26.148  1.00  0.00    -0.237 OA
ATOM    108  O   UNL A   1      40.590  28.942  26.276  1.00  0.00    -0.237 OA
ATOM    109  O   UNL A   1      42.362  28.364  24.662  1.00  0.00    -0.744 OA
ENDBRANCH 102 106
ENDBRANCH  76  99
ENDBRANCH  50  51
ENDBRANCH  43  45
ENDBRANCH  42  43
ENDBRANCH  41  42
ENDBRANCH  40  41
ENDBRANCH  39  40
ENDBRANCH  38  39
ENDBRANCH  37  38
ENDBRANCH   1  37
TORSDOF 29
ENDMDL
MODEL 3
REMARK VINA RESULT:      -6.6      3.914      8.882
REMARK SMILES COc1ccccc1[C@@H]1CN(C(=O)c2cc(C(C)C)nc(N)n2)C[C@H]1C(=O)OCCOCCOCCOCCOC(=O)c1ccc(-c2c3nc(c(-c4cc(S(=O)(=O)[O-])ccc4F)c4ccc([nH]4)c(-c4cc(S(=O)(=O)[O-])ccc4F)c4nc(c(-c5cc(S(=O)(=O)[O-])ccc5F)c5ccc2[nH]5)C=C4)C=C3)cc1
REMARK SMILES IDX 34 1 33 2 32 3 31 4 30 5 29 6 28 7 26 8 27 9 25 10 9 11
REMARK SMILES IDX 10 12 11 13 24 14 8 15 3 16 4 17 5 18 7 19 6 20 2 21 1 22
REMARK SMILES IDX 12 23 13 24 14 25 15 26 23 27 16 28 21 29 20 30 17 31 18 32
REMARK SMILES IDX 19 33 22 34 35 37 36 38 37 39 38 40 39 41 40 42 41 43 42 44
REMARK SMILES IDX 43 45 44 46 105 47 45 48 104 49 46 50 47 51 48 52 98 53
REMARK SMILES IDX 49 54 103 55 97 56 99 57 50 58 102 59 96 60 95 61 51 63
REMARK SMILES IDX 83 64 63 65 82 66 64 67 67 68 81 69 100 70 65 71 66 72 80 74
REMARK SMILES IDX 101 75 68 76 52 77 53 78 61 79 54 80 60 81 62 82 59 83 55 84
REMARK SMILES IDX 56 85 57 86 58 87 84 88 85 89 93 90 86 91 92 92 94 93 91 94
REMARK SMILES IDX 87 95 88 96 89 97 90 98 69 99 70 100 78 101 71 102 77 103
REMARK SMILES IDX 79 104 76 105 72 106 73 107 74 108 75 109
REMARK H PARENT 22 35 22 36 99 62 67 73
REMARK Flexibility Score: inf
ROOT
ATOM      1  O   UNL A   1      44.891  25.190  26.430  1.00  0.00    -0.377 OA
ENDROOT
BRANCH   1   2
ATOM      2  C   UNL A   1      43.825  25.982  25.955  1.00  0.00     0.188 C 
BRANCH   2   3
ATOM      3  C   UNL A   1      43.017  26.764  26.996  1.00  0.00     0.188 C 
BRANCH   3   4
ATOM      4  O   UNL A   1      42.441  26.111  28.111  1.00  0.00    -0.376 OA
BRANCH   4   5
ATOM      5  C   UNL A   1      41.760  26.844  29.117  1.00  0.00     0.202 C 
BRANCH   5   6
ATOM      6  C   UNL A   1      40.926  28.108  28.810  1.00  0.00     0.261 C 
BRANCH   6   7
ATOM      7  O   UNL A   1      39.706  28.316  29.560  1.00  0.00    -0.463 OA
BRANCH   7   8
ATOM      8  C   UNL A   1      39.854  28.950  30.740  1.00  0.00     0.311 C 
ATOM      9  O   UNL A   1      40.342  28.420  31.737  1.00  0.00    -0.252 OA
BRANCH   8  10
ATOM     10  C   UNL A   1      39.322  30.369  30.836  1.00  0.00     0.128 C 
ATOM     11  C   UNL A   1      39.685  31.611  29.964  1.00  0.00     0.058 C 
ATOM     12  C   UNL A   1      38.373  32.400  29.949  1.00  0.00     0.129 C 
ATOM     13  N   UNL A   1      37.356  31.373  29.967  1.00  0.00    -0.336 N 
ATOM     14  C   UNL A   1      37.812  30.217  30.698  1.00  0.00     0.136 C 
BRANCH  11  15
ATOM     15  C   UNL A   1      40.796  32.580  30.390  1.00  0.00    -0.000 A 
ATOM     16  C   UNL A   1      42.098  32.592  29.855  1.00  0.00     0.122 A 
ATOM     17  C   UNL A   1      43.015  33.593  30.204  1.00  0.00     0.047 A 
ATOM     18  C   UNL A   1      42.686  34.540  31.173  1.00  0.00     0.004 A 
ATOM     19  C   UNL A   1      40.521  33.496  31.427  1.00  0.00     0.008 A 
ATOM     20  C   UNL A   1      41.461  34.452  31.826  1.00  0.00     0.001 A 
BRANCH  16  21
ATOM     21  O   UNL A   1      42.569  31.467  29.229  1.00  0.00    -0.496 OA
ATOM     22  C   UNL A   1      43.885  31.573  28.703  1.00  0.00     0.278 C 
ENDBRANCH  16  21
ENDBRANCH  11  15
BRANCH  13  23
ATOM     23  C   UNL A   1      36.042  31.442  29.545  1.00  0.00     0.272 C 
ATOM     24  O   UNL A   1      35.437  30.462  29.117  1.00  0.00    -0.267 OA
BRANCH  23  25
ATOM     25  C   UNL A   1      35.352  32.752  29.608  1.00  0.00     0.134 A 
ATOM     26  C   UNL A   1      34.879  33.223  30.811  1.00  0.00     0.058 A 
ATOM     27  N   UNL A   1      35.261  33.411  28.438  1.00  0.00    -0.208 NA
ATOM     28  C   UNL A   1      34.226  34.432  30.757  1.00  0.00     0.049 A 
ATOM     29  C   UNL A   1      34.657  34.588  28.496  1.00  0.00     0.220 A 
ATOM     30  N   UNL A   1      34.116  35.120  29.599  1.00  0.00    -0.218 NA
BRANCH  28  31
ATOM     31  C   UNL A   1      33.575  35.041  31.983  1.00  0.00     0.032 C 
ATOM     32  C   UNL A   1      34.617  35.705  32.888  1.00  0.00     0.014 C 
ATOM     33  C   UNL A   1      32.463  36.026  31.619  1.00  0.00     0.014 C 
ENDBRANCH  28  31
BRANCH  29  34
ATOM     34  N   UNL A   1      34.625  35.320  27.343  1.00  0.00    -0.368 N 
ATOM     35  H   UNL A   1      35.397  35.313  26.733  1.00  0.00     0.159 HD
ATOM     36  H   UNL A   1      33.828  35.854  27.122  1.00  0.00     0.159 HD
ENDBRANCH  29  34
ENDBRANCH  23  25
ENDBRANCH  13  23
ENDBRANCH   8  10
ENDBRANCH   7   8
ENDBRANCH   6   7
ENDBRANCH   5   6
ENDBRANCH   4   5
ENDBRANCH   3   4
ENDBRANCH   2   3
ENDBRANCH   1   2
BRANCH   1  37
ATOM     37  C   UNL A   1      45.183  23.976  25.757  1.00  0.00     0.188 C 
BRANCH  37  38
ATOM     38  C   UNL A   1      46.438  23.916  24.873  1.00  0.00     0.188 C 
BRANCH  38  39
ATOM     39  O   UNL A   1      46.770  25.153  24.254  1.00  0.00    -0.376 OA
BRANCH  39  40
ATOM     40  C   UNL A   1      48.109  25.619  24.341  1.00  0.00     0.202 C 
BRANCH  40  41
ATOM     41  C   UNL A   1      48.408  27.047  23.859  1.00  0.00     0.261 C 
BRANCH  41  42
ATOM     42  O   UNL A   1      48.867  27.995  24.833  1.00  0.00    -0.460 OA
BRANCH  42  43
ATOM     43  C   UNL A   1      49.632  27.540  25.851  1.00  0.00     0.338 C 
ATOM     44  O   UNL A   1      50.748  27.083  25.774  1.00  0.00    -0.246 OA
BRANCH  43  45
ATOM     45  C   UNL A   1      48.939  27.904  27.108  1.00  0.00     0.060 A 
ATOM     46  C   UNL A   1      47.539  27.888  27.133  1.00  0.00     0.016 A 
ATOM     47  C   UNL A   1      49.665  28.242  28.254  1.00  0.00     0.016 A 
ATOM     48  C   UNL A   1      46.858  28.253  28.293  1.00  0.00     0.010 A 
ATOM     49  C   UNL A   1      48.981  28.629  29.410  1.00  0.00     0.010 A 
ATOM     50  C   UNL A   1      47.575  28.673  29.420  1.00  0.00    -0.014 A 
BRANCH  50  51
ATOM     51  C   UNL A   1      46.861  29.374  30.516  1.00  0.00     0.031 A 
ATOM     52  C   UNL A   1      46.929  30.879  30.548  1.00  0.00     0.074 A 
ATOM     53  C   UNL A   1      46.143  28.699  31.432  1.00  0.00     0.049 A 
ATOM     54  N   UNL A   1      46.423  31.715  31.414  1.00  0.00    -0.248 NA
ATOM     55  C   UNL A   1      47.673  31.524  29.453  1.00  0.00     0.031 C 
ATOM     56  C   UNL A   1      45.959  27.248  31.461  1.00  0.00     0.029 A 
ATOM     57  N   UNL A   1      45.433  29.148  32.518  1.00  0.00    -0.354 N 
ATOM     58  C   UNL A   1      46.801  32.982  30.980  1.00  0.00     0.074 A 
ATOM     59  C   UNL A   1      47.597  32.803  29.787  1.00  0.00     0.031 C 
ATOM     60  C   UNL A   1      45.191  26.927  32.518  1.00  0.00     0.029 A 
ATOM     61  C   UNL A   1      44.866  28.141  33.266  1.00  0.00     0.049 A 
ATOM     62  H   UNL A   1      45.340  30.101  32.742  1.00  0.00     0.167 HD
ATOM     63  C   UNL A   1      46.508  34.184  31.530  1.00  0.00     0.034 A 
ATOM     64  C   UNL A   1      44.187  28.197  34.431  1.00  0.00     0.034 A 
ATOM     65  C   UNL A   1      45.708  34.343  32.717  1.00  0.00     0.049 A 
ATOM     66  C   UNL A   1      43.949  29.551  35.068  1.00  0.00     0.074 A 
ATOM     67  C   UNL A   1      45.317  35.516  33.339  1.00  0.00     0.029 A 
ATOM     68  N   UNL A   1      45.193  33.299  33.475  1.00  0.00    -0.354 N 
ATOM     69  N   UNL A   1      44.285  30.744  34.629  1.00  0.00    -0.248 NA
ATOM     70  C   UNL A   1      43.233  29.567  36.350  1.00  0.00     0.031 C 
ATOM     71  C   UNL A   1      44.648  35.181  34.519  1.00  0.00     0.029 A 
ATOM     72  C   UNL A   1      44.531  33.801  34.584  1.00  0.00     0.049 A 
ATOM     73  H   UNL A   1      45.285  32.344  33.257  1.00  0.00     0.167 HD
ATOM     74  C   UNL A   1      43.779  31.648  35.562  1.00  0.00     0.074 A 
ATOM     75  C   UNL A   1      43.104  30.866  36.574  1.00  0.00     0.031 C 
ATOM     76  C   UNL A   1      43.859  33.004  35.582  1.00  0.00     0.034 A 
BRANCH  63  77
ATOM     77  C   UNL A   1      47.105  35.416  30.897  1.00  0.00     0.023 A 
ATOM     78  C   UNL A   1      46.474  36.104  29.848  1.00  0.00     0.031 A 
ATOM     79  C   UNL A   1      48.334  35.915  31.368  1.00  0.00     0.131 A 
ATOM     80  C   UNL A   1      47.094  37.227  29.276  1.00  0.00     0.055 A 
ATOM     81  C   UNL A   1      48.908  37.074  30.847  1.00  0.00     0.041 A 
ATOM     82  F   UNL A   1      48.998  35.278  32.347  1.00  0.00    -0.206 F 
ATOM     83  C   UNL A   1      48.292  37.733  29.788  1.00  0.00     0.022 A 
BRANCH  80  84
ATOM     84  S   UNL A   1      46.374  37.952  27.778  1.00  0.00     0.124 S 
ATOM     85  O   UNL A   1      46.044  39.301  28.233  1.00  0.00    -0.237 OA
ATOM     86  O   UNL A   1      47.469  37.851  26.820  1.00  0.00    -0.237 OA
ATOM     87  O   UNL A   1      45.221  37.097  27.502  1.00  0.00    -0.744 OA
ENDBRANCH  80  84
ENDBRANCH  63  77
BRANCH  64  88
ATOM     88  C   UNL A   1      43.718  26.954  35.115  1.00  0.00     0.023 A 
ATOM     89  C   UNL A   1      44.587  26.198  35.920  1.00  0.00     0.031 A 
ATOM     90  C   UNL A   1      42.429  26.439  34.884  1.00  0.00     0.131 A 
ATOM     91  C   UNL A   1      44.187  24.940  36.397  1.00  0.00     0.055 A 
ATOM     92  C   UNL A   1      42.009  25.222  35.424  1.00  0.00     0.041 A 
ATOM     93  F   UNL A   1      41.557  27.110  34.115  1.00  0.00    -0.206 F 
ATOM     94  C   UNL A   1      42.898  24.454  36.169  1.00  0.00     0.022 A 
BRANCH  91  95
ATOM     95  S   UNL A   1      45.428  23.883  37.194  1.00  0.00     0.124 S 
ATOM     96  O   UNL A   1      46.670  24.517  36.770  1.00  0.00    -0.237 OA
ATOM     97  O   UNL A   1      45.083  24.025  38.605  1.00  0.00    -0.237 OA
ATOM     98  O   UNL A   1      45.171  22.565  36.620  1.00  0.00    -0.744 OA
ENDBRANCH  91  95
ENDBRANCH  64  88
BRANCH  76  99
ATOM     99  C   UNL A   1      43.141  33.726  36.697  1.00  0.00     0.023 A 
ATOM    100  C   UNL A   1      41.809  34.159  36.570  1.00  0.00     0.031 A 
ATOM    101  C   UNL A   1      43.805  33.984  37.911  1.00  0.00     0.131 A 
ATOM    102  C   UNL A   1      41.207  34.880  37.612  1.00  0.00     0.055 A 
ATOM    103  C   UNL A   1      43.176  34.637  38.971  1.00  0.00     0.041 A 
ATOM    104  F   UNL A   1      45.078  33.596  38.089  1.00  0.00    -0.206 F 
ATOM    105  C   UNL A   1      41.874  35.103  38.819  1.00  0.00     0.022 A 
BRANCH 102 106
ATOM    106  S   UNL A   1      39.574  35.618  37.328  1.00  0.00     0.124 S 
ATOM    107  O   UNL A   1      39.243  36.137  38.650  1.00  0.00    -0.237 OA
ATOM    108  O   UNL A   1      39.858  36.617  36.303  1.00  0.00    -0.237 OA
ATOM    109  O   UNL A   1      38.761  34.488  36.883  1.00  0.00    -0.744 OA
ENDBRANCH 102 106
ENDBRANCH  76  99
ENDBRANCH  50  51
ENDBRANCH  43  45
ENDBRANCH  42  43
ENDBRANCH  41  42
ENDBRANCH  40  41
ENDBRANCH  39  40
ENDBRANCH  38  39
ENDBRANCH  37  38
ENDBRANCH   1  37
TORSDOF 29
ENDMDL
