MODEL 1
REMARK VINA RESULT:      -9.8      0.000      0.000
REMARK SMILES O=C(OCCOCCOCCOCCOC(=O)c1ccsc1NC(=O)c1cc2c(F)cccc2s1)c1ccc(-c2c3nc(c(-c4cc(S(=O)(=O)[O-])ccc4F)c4ccc([nH]4)c(-c4cc(S(=O)(=O)[O-])ccc4F)c4nc(c(-c5cc(S(=O)(=O)[O-])ccc5F)c5ccc2[nH]5)C=C4)C=C3)cc1
REMARK SMILES IDX 8 1 7 2 6 3 5 4 4 5 3 6 2 7 1 8 36 9 37 10 98 11 38 12 97 13
REMARK SMILES IDX 39 14 40 15 41 16 91 17 42 18 96 19 90 20 92 21 43 22 95 23
REMARK SMILES IDX 89 24 88 25 44 27 76 28 56 29 75 30 57 31 60 32 74 33 93 34
REMARK SMILES IDX 58 35 59 36 73 38 94 39 61 40 45 41 46 42 54 43 47 44 53 45
REMARK SMILES IDX 55 46 52 47 48 48 49 49 50 50 51 51 77 52 78 53 86 54 79 55
REMARK SMILES IDX 85 56 87 57 84 58 80 59 81 60 82 61 83 62 62 63 63 64 71 65
REMARK SMILES IDX 64 66 70 67 72 68 69 69 65 70 66 71 67 72 68 73 9 74 10 75
REMARK SMILES IDX 11 76 12 77 13 78 14 79 15 80 16 81 17 82 18 83 19 84 22 85
REMARK SMILES IDX 20 86 21 87 23 88 24 89 25 91 26 92 27 93 35 94 28 95 34 96
REMARK SMILES IDX 29 97 33 98 30 99 31 100 32 101
REMARK H PARENT 92 26 60 37 23 90
REMARK Flexibility Score: inf
ROOT
ATOM      1  C   UNL A   1      35.337  33.189  28.288  1.00  0.00     0.188 C 
ENDROOT
BRANCH   1   2
ATOM      2  C   UNL A   1      34.239  33.876  29.119  1.00  0.00     0.188 C 
BRANCH   2   3
ATOM      3  O   UNL A   1      33.919  33.615  30.485  1.00  0.00    -0.376 OA
BRANCH   3   4
ATOM      4  C   UNL A   1      34.140  34.406  31.633  1.00  0.00     0.202 C 
BRANCH   4   5
ATOM      5  C   UNL A   1      35.172  33.978  32.679  1.00  0.00     0.261 C 
BRANCH   5   6
ATOM      6  O   UNL A   1      36.182  33.080  32.224  1.00  0.00    -0.460 OA
BRANCH   6   7
ATOM      7  C   UNL A   1      37.240  33.332  31.424  1.00  0.00     0.338 C 
ATOM      8  O   UNL A   1      37.507  34.511  31.184  1.00  0.00    -0.246 OA
BRANCH   7   9
ATOM      9  C   UNL A   1      38.092  32.291  30.796  1.00  0.00     0.060 A 
ATOM     10  C   UNL A   1      37.734  30.960  30.590  1.00  0.00     0.016 A 
ATOM     11  C   UNL A   1      39.406  32.701  30.490  1.00  0.00     0.016 A 
ATOM     12  C   UNL A   1      38.707  30.022  30.345  1.00  0.00     0.010 A 
ATOM     13  C   UNL A   1      40.387  31.771  30.223  1.00  0.00     0.010 A 
ATOM     14  C   UNL A   1      40.033  30.434  30.261  1.00  0.00    -0.014 A 
BRANCH  14  15
ATOM     15  C   UNL A   1      41.011  29.379  30.222  1.00  0.00     0.031 A 
ATOM     16  C   UNL A   1      41.483  28.966  31.557  1.00  0.00     0.074 A 
ATOM     17  C   UNL A   1      41.485  28.932  29.048  1.00  0.00     0.049 A 
ATOM     18  N   UNL A   1      42.604  29.271  32.121  1.00  0.00    -0.248 NA
ATOM     19  C   UNL A   1      40.506  28.327  32.448  1.00  0.00     0.031 C 
ATOM     20  C   UNL A   1      40.922  29.108  27.707  1.00  0.00     0.029 A 
ATOM     21  N   UNL A   1      42.559  28.138  28.827  1.00  0.00    -0.354 N 
ATOM     22  C   UNL A   1      42.563  28.666  33.372  1.00  0.00     0.074 A 
ATOM     23  C   UNL A   1      41.191  28.282  33.589  1.00  0.00     0.031 C 
ATOM     24  C   UNL A   1      41.518  28.234  26.861  1.00  0.00     0.029 A 
ATOM     25  C   UNL A   1      42.595  27.561  27.568  1.00  0.00     0.049 A 
ATOM     26  H   UNL A   1      43.258  27.984  29.503  1.00  0.00     0.167 HD
ATOM     27  C   UNL A   1      43.706  28.307  34.021  1.00  0.00     0.034 A 
ATOM     28  C   UNL A   1      43.391  26.528  27.198  1.00  0.00     0.034 A 
ATOM     29  C   UNL A   1      44.853  28.967  33.464  1.00  0.00     0.049 A 
ATOM     30  C   UNL A   1      44.510  26.452  28.174  1.00  0.00     0.074 A 
ATOM     31  C   UNL A   1      45.256  30.283  33.364  1.00  0.00     0.029 A 
ATOM     32  N   UNL A   1      45.599  28.263  32.548  1.00  0.00    -0.354 N 
ATOM     33  N   UNL A   1      45.459  27.342  28.261  1.00  0.00    -0.248 NA
ATOM     34  C   UNL A   1      44.313  25.631  29.362  1.00  0.00     0.031 C 
ATOM     35  C   UNL A   1      45.891  30.380  32.096  1.00  0.00     0.029 A 
ATOM     36  C   UNL A   1      45.904  29.110  31.515  1.00  0.00     0.049 A 
ATOM     37  H   UNL A   1      45.866  27.319  32.621  1.00  0.00     0.167 HD
ATOM     38  C   UNL A   1      45.663  27.500  29.625  1.00  0.00     0.074 A 
ATOM     39  C   UNL A   1      45.001  26.356  30.249  1.00  0.00     0.031 C 
ATOM     40  C   UNL A   1      46.091  28.688  30.142  1.00  0.00     0.034 A 
BRANCH  27  41
ATOM     41  C   UNL A   1      43.808  27.078  34.887  1.00  0.00     0.023 A 
ATOM     42  C   UNL A   1      44.299  25.852  34.401  1.00  0.00     0.031 A 
ATOM     43  C   UNL A   1      43.652  27.169  36.283  1.00  0.00     0.131 A 
ATOM     44  C   UNL A   1      44.596  24.784  35.253  1.00  0.00     0.055 A 
ATOM     45  C   UNL A   1      44.013  26.124  37.145  1.00  0.00     0.041 A 
ATOM     46  F   UNL A   1      43.209  28.297  36.857  1.00  0.00    -0.206 F 
ATOM     47  C   UNL A   1      44.489  24.923  36.631  1.00  0.00     0.022 A 
BRANCH  44  48
ATOM     48  S   UNL A   1      45.173  23.209  34.562  1.00  0.00     0.124 S 
ATOM     49  O   UNL A   1      44.226  22.261  35.140  1.00  0.00    -0.237 OA
ATOM     50  O   UNL A   1      45.037  23.452  33.129  1.00  0.00    -0.237 OA
ATOM     51  O   UNL A   1      46.548  23.106  35.044  1.00  0.00    -0.744 OA
ENDBRANCH  44  48
ENDBRANCH  27  41
BRANCH  28  52
ATOM     52  C   UNL A   1      42.967  25.346  26.410  1.00  0.00     0.023 A 
ATOM     53  C   UNL A   1      41.955  24.497  26.897  1.00  0.00     0.031 A 
ATOM     54  C   UNL A   1      43.759  24.867  25.354  1.00  0.00     0.131 A 
ATOM     55  C   UNL A   1      41.802  23.202  26.384  1.00  0.00     0.055 A 
ATOM     56  C   UNL A   1      43.597  23.577  24.833  1.00  0.00     0.041 A 
ATOM     57  F   UNL A   1      44.757  25.614  24.859  1.00  0.00    -0.206 F 
ATOM     58  C   UNL A   1      42.625  22.732  25.361  1.00  0.00     0.022 A 
BRANCH  55  59
ATOM     59  S   UNL A   1      40.567  22.083  27.099  1.00  0.00     0.124 S 
ATOM     60  O   UNL A   1      41.294  21.486  28.218  1.00  0.00    -0.237 OA
ATOM     61  O   UNL A   1      39.502  23.009  27.465  1.00  0.00    -0.237 OA
ATOM     62  O   UNL A   1      40.266  21.165  26.003  1.00  0.00    -0.744 OA
ENDBRANCH  55  59
ENDBRANCH  28  52
BRANCH  40  63
ATOM     63  C   UNL A   1      46.595  29.751  29.198  1.00  0.00     0.023 A 
ATOM     64  C   UNL A   1      45.618  30.558  28.591  1.00  0.00     0.031 A 
ATOM     65  C   UNL A   1      47.908  29.823  28.701  1.00  0.00     0.131 A 
ATOM     66  C   UNL A   1      45.945  31.353  27.491  1.00  0.00     0.055 A 
ATOM     67  C   UNL A   1      48.247  30.674  27.643  1.00  0.00     0.041 A 
ATOM     68  F   UNL A   1      48.874  29.011  29.155  1.00  0.00    -0.206 F 
ATOM     69  C   UNL A   1      47.259  31.429  27.019  1.00  0.00     0.022 A 
BRANCH  66  70
ATOM     70  S   UNL A   1      44.636  32.180  26.554  1.00  0.00     0.124 S 
ATOM     71  O   UNL A   1      45.320  32.535  25.314  1.00  0.00    -0.237 OA
ATOM     72  O   UNL A   1      43.630  31.127  26.437  1.00  0.00    -0.237 OA
ATOM     73  O   UNL A   1      44.254  33.309  27.398  1.00  0.00    -0.744 OA
ENDBRANCH  66  70
ENDBRANCH  40  63
ENDBRANCH  14  15
ENDBRANCH   7   9
ENDBRANCH   6   7
ENDBRANCH   5   6
ENDBRANCH   4   5
ENDBRANCH   3   4
ENDBRANCH   2   3
ENDBRANCH   1   2
BRANCH   1  74
ATOM     74  O   UNL A   1      34.913  32.137  27.443  1.00  0.00    -0.377 OA
BRANCH  74  75
ATOM     75  C   UNL A   1      34.580  30.965  28.139  1.00  0.00     0.188 C 
BRANCH  75  76
ATOM     76  C   UNL A   1      33.799  29.949  27.276  1.00  0.00     0.188 C 
BRANCH  76  77
ATOM     77  O   UNL A   1      34.418  28.770  26.786  1.00  0.00    -0.376 OA
BRANCH  77  78
ATOM     78  C   UNL A   1      33.843  28.076  25.696  1.00  0.00     0.202 C 
BRANCH  78  79
ATOM     79  C   UNL A   1      32.942  28.859  24.729  1.00  0.00     0.261 C 
BRANCH  79  80
ATOM     80  O   UNL A   1      32.451  28.155  23.574  1.00  0.00    -0.460 OA
BRANCH  80  81
ATOM     81  C   UNL A   1      31.522  27.167  23.745  1.00  0.00     0.341 C 
ATOM     82  O   UNL A   1      30.346  27.338  24.038  1.00  0.00    -0.246 OA
BRANCH  81  83
ATOM     83  C   UNL A   1      32.094  25.852  23.454  1.00  0.00     0.094 A 
ATOM     84  C   UNL A   1      32.556  25.505  22.131  1.00  0.00     0.029 A 
ATOM     85  C   UNL A   1      32.160  24.760  24.327  1.00  0.00     0.110 A 
ATOM     86  C   UNL A   1      32.922  24.189  22.026  1.00  0.00     0.068 A 
ATOM     87  S   UNL A   1      32.653  23.371  23.478  1.00  0.00    -0.126 S 
BRANCH  85  88
ATOM     88  N   UNL A   1      31.738  24.665  25.659  1.00  0.00    -0.312 N 
ATOM     89  C   UNL A   1      31.961  23.697  26.640  1.00  0.00     0.266 C 
ATOM     90  H   UNL A   1      31.184  25.421  25.960  1.00  0.00     0.171 HD
ATOM     91  O   UNL A   1      31.043  23.450  27.423  1.00  0.00    -0.268 OA
BRANCH  89  92
ATOM     92  C   UNL A   1      33.284  23.155  26.796  1.00  0.00     0.094 A 
ATOM     93  C   UNL A   1      34.494  23.817  26.741  1.00  0.00     0.037 A 
ATOM     94  S   UNL A   1      33.554  21.486  27.060  1.00  0.00    -0.130 S 
ATOM     95  C   UNL A   1      35.485  22.938  26.190  1.00  0.00     0.029 A 
ATOM     96  C   UNL A   1      34.988  21.633  26.095  1.00  0.00     0.038 A 
ATOM     97  C   UNL A   1      36.689  23.241  25.534  1.00  0.00     0.131 A 
ATOM     98  C   UNL A   1      35.550  20.687  25.225  1.00  0.00     0.020 A 
ATOM     99  F   UNL A   1      37.257  24.448  25.670  1.00  0.00    -0.206 F 
ATOM    100  C   UNL A   1      37.163  22.372  24.555  1.00  0.00     0.040 A 
ATOM    101  C   UNL A   1      36.560  21.131  24.366  1.00  0.00     0.005 A 
ENDBRANCH  89  92
ENDBRANCH  85  88
ENDBRANCH  81  83
ENDBRANCH  80  81
ENDBRANCH  79  80
ENDBRANCH  78  79
ENDBRANCH  77  78
ENDBRANCH  76  77
ENDBRANCH  75  76
ENDBRANCH  74  75
ENDBRANCH   1  74
TORSDOF 25
ENDMDL
MODEL 2
REMARK VINA RESULT:      -9.2      2.810      6.725
REMARK SMILES O=C(OCCOCCOCCOCCOC(=O)c1ccsc1NC(=O)c1cc2c(F)cccc2s1)c1ccc(-c2c3nc(c(-c4cc(S(=O)(=O)[O-])ccc4F)c4ccc([nH]4)c(-c4cc(S(=O)(=O)[O-])ccc4F)c4nc(c(-c5cc(S(=O)(=O)[O-])ccc5F)c5ccc2[nH]5)C=C4)C=C3)cc1
REMARK SMILES IDX 8 1 7 2 6 3 5 4 4 5 3 6 2 7 1 8 36 9 37 10 98 11 38 12 97 13
REMARK SMILES IDX 39 14 40 15 41 16 91 17 42 18 96 19 90 20 92 21 43 22 95 23
REMARK SMILES IDX 89 24 88 25 44 27 76 28 56 29 75 30 57 31 60 32 74 33 93 34
REMARK SMILES IDX 58 35 59 36 73 38 94 39 61 40 45 41 46 42 54 43 47 44 53 45
REMARK SMILES IDX 55 46 52 47 48 48 49 49 50 50 51 51 77 52 78 53 86 54 79 55
REMARK SMILES IDX 85 56 87 57 84 58 80 59 81 60 82 61 83 62 62 63 63 64 71 65
REMARK SMILES IDX 64 66 70 67 72 68 69 69 65 70 66 71 67 72 68 73 9 74 10 75
REMARK SMILES IDX 11 76 12 77 13 78 14 79 15 80 16 81 17 82 18 83 19 84 22 85
REMARK SMILES IDX 20 86 21 87 23 88 24 89 25 91 26 92 27 93 35 94 28 95 34 96
REMARK SMILES IDX 29 97 33 98 30 99 31 100 32 101
REMARK H PARENT 92 26 60 37 23 90
REMARK Flexibility Score: inf
ROOT
ATOM      1  C   UNL A   1      35.422  32.143  28.398  1.00  0.00     0.188 C 
ENDROOT
BRANCH   1   2
ATOM      2  C   UNL A   1      34.675  32.912  29.501  1.00  0.00     0.188 C 
BRANCH   2   3
ATOM      3  O   UNL A   1      34.432  32.464  30.834  1.00  0.00    -0.376 OA
BRANCH   3   4
ATOM      4  C   UNL A   1      35.330  32.298  31.911  1.00  0.00     0.202 C 
BRANCH   4   5
ATOM      5  C   UNL A   1      36.541  31.374  31.770  1.00  0.00     0.261 C 
BRANCH   5   6
ATOM      6  O   UNL A   1      36.261  30.044  31.338  1.00  0.00    -0.460 OA
BRANCH   6   7
ATOM      7  C   UNL A   1      36.523  29.470  30.144  1.00  0.00     0.338 C 
ATOM      8  O   UNL A   1      35.596  29.382  29.337  1.00  0.00    -0.246 OA
BRANCH   7   9
ATOM      9  C   UNL A   1      37.841  28.917  29.742  1.00  0.00     0.060 A 
ATOM     10  C   UNL A   1      38.620  28.040  30.494  1.00  0.00     0.016 A 
ATOM     11  C   UNL A   1      38.359  29.431  28.535  1.00  0.00     0.016 A 
ATOM     12  C   UNL A   1      39.953  27.889  30.198  1.00  0.00     0.010 A 
ATOM     13  C   UNL A   1      39.690  29.268  28.218  1.00  0.00     0.010 A 
ATOM     14  C   UNL A   1      40.486  28.584  29.118  1.00  0.00    -0.014 A 
BRANCH  14  15
ATOM     15  C   UNL A   1      41.921  28.549  29.003  1.00  0.00     0.031 A 
ATOM     16  C   UNL A   1      42.417  27.414  28.201  1.00  0.00     0.074 A 
ATOM     17  C   UNL A   1      42.682  29.430  29.672  1.00  0.00     0.049 A 
ATOM     18  N   UNL A   1      42.949  26.321  28.636  1.00  0.00    -0.248 NA
ATOM     19  C   UNL A   1      42.081  27.402  26.772  1.00  0.00     0.031 C 
ATOM     20  C   UNL A   1      42.286  30.701  30.284  1.00  0.00     0.029 A 
ATOM     21  N   UNL A   1      44.019  29.397  29.875  1.00  0.00    -0.354 N 
ATOM     22  C   UNL A   1      43.222  25.567  27.501  1.00  0.00     0.074 A 
ATOM     23  C   UNL A   1      42.491  26.183  26.423  1.00  0.00     0.031 C 
ATOM     24  C   UNL A   1      43.399  31.422  30.559  1.00  0.00     0.029 A 
ATOM     25  C   UNL A   1      44.566  30.600  30.287  1.00  0.00     0.049 A 
ATOM     26  H   UNL A   1      44.560  28.584  29.742  1.00  0.00     0.167 HD
ATOM     27  C   UNL A   1      44.224  24.643  27.489  1.00  0.00     0.034 A 
ATOM     28  C   UNL A   1      45.887  30.906  30.287  1.00  0.00     0.034 A 
ATOM     29  C   UNL A   1      44.635  24.301  28.822  1.00  0.00     0.049 A 
ATOM     30  C   UNL A   1      46.644  29.628  30.242  1.00  0.00     0.074 A 
ATOM     31  C   UNL A   1      44.016  23.699  29.898  1.00  0.00     0.029 A 
ATOM     32  N   UNL A   1      45.743  24.944  29.322  1.00  0.00    -0.354 N 
ATOM     33  N   UNL A   1      46.692  28.778  31.230  1.00  0.00    -0.248 NA
ATOM     34  C   UNL A   1      46.961  29.078  28.929  1.00  0.00     0.031 C 
ATOM     35  C   UNL A   1      44.522  24.376  31.041  1.00  0.00     0.029 A 
ATOM     36  C   UNL A   1      45.470  25.309  30.614  1.00  0.00     0.049 A 
ATOM     37  H   UNL A   1      46.583  25.112  28.837  1.00  0.00     0.167 HD
ATOM     38  C   UNL A   1      46.598  27.533  30.623  1.00  0.00     0.074 A 
ATOM     39  C   UNL A   1      46.862  27.774  29.206  1.00  0.00     0.031 C 
ATOM     40  C   UNL A   1      46.027  26.475  31.267  1.00  0.00     0.034 A 
BRANCH  27  41
ATOM     41  C   UNL A   1      45.069  24.362  26.273  1.00  0.00     0.023 A 
ATOM     42  C   UNL A   1      46.048  25.261  25.812  1.00  0.00     0.031 A 
ATOM     43  C   UNL A   1      45.089  23.080  25.694  1.00  0.00     0.131 A 
ATOM     44  C   UNL A   1      46.972  24.906  24.825  1.00  0.00     0.055 A 
ATOM     45  C   UNL A   1      46.056  22.699  24.754  1.00  0.00     0.041 A 
ATOM     46  F   UNL A   1      44.212  22.137  26.072  1.00  0.00    -0.206 F 
ATOM     47  C   UNL A   1      47.005  23.614  24.314  1.00  0.00     0.022 A 
BRANCH  44  48
ATOM     48  S   UNL A   1      48.176  26.126  24.231  1.00  0.00     0.124 S 
ATOM     49  O   UNL A   1      49.361  25.784  25.009  1.00  0.00    -0.237 OA
ATOM     50  O   UNL A   1      48.236  25.808  22.807  1.00  0.00    -0.237 OA
ATOM     51  O   UNL A   1      47.553  27.407  24.552  1.00  0.00    -0.744 OA
ENDBRANCH  44  48
ENDBRANCH  27  41
BRANCH  28  52
ATOM     52  C   UNL A   1      46.481  32.177  29.808  1.00  0.00     0.023 A 
ATOM     53  C   UNL A   1      46.156  32.675  28.532  1.00  0.00     0.031 A 
ATOM     54  C   UNL A   1      47.601  32.732  30.452  1.00  0.00     0.131 A 
ATOM     55  C   UNL A   1      46.967  33.636  27.913  1.00  0.00     0.055 A 
ATOM     56  C   UNL A   1      48.402  33.702  29.838  1.00  0.00     0.041 A 
ATOM     57  F   UNL A   1      47.981  32.287  31.659  1.00  0.00    -0.206 F 
ATOM     58  C   UNL A   1      48.096  34.146  28.555  1.00  0.00     0.022 A 
BRANCH  55  59
ATOM     59  S   UNL A   1      46.597  34.184  26.225  1.00  0.00     0.124 S 
ATOM     60  O   UNL A   1      45.676  33.151  25.754  1.00  0.00    -0.237 OA
ATOM     61  O   UNL A   1      46.003  35.495  26.460  1.00  0.00    -0.237 OA
ATOM     62  O   UNL A   1      47.904  34.184  25.574  1.00  0.00    -0.744 OA
ENDBRANCH  55  59
ENDBRANCH  28  52
BRANCH  40  63
ATOM     63  C   UNL A   1      45.736  26.594  32.743  1.00  0.00     0.023 A 
ATOM     64  C   UNL A   1      44.583  27.315  33.093  1.00  0.00     0.031 A 
ATOM     65  C   UNL A   1      46.644  26.266  33.766  1.00  0.00     0.131 A 
ATOM     66  C   UNL A   1      44.391  27.739  34.410  1.00  0.00     0.055 A 
ATOM     67  C   UNL A   1      46.412  26.632  35.097  1.00  0.00     0.041 A 
ATOM     68  F   UNL A   1      47.815  25.672  33.499  1.00  0.00    -0.206 F 
ATOM     69  C   UNL A   1      45.291  27.390  35.421  1.00  0.00     0.022 A 
BRANCH  66  70
ATOM     70  S   UNL A   1      43.047  28.887  34.801  1.00  0.00     0.124 S 
ATOM     71  O   UNL A   1      42.500  29.185  33.480  1.00  0.00    -0.237 OA
ATOM     72  O   UNL A   1      42.193  28.077  35.666  1.00  0.00    -0.237 OA
ATOM     73  O   UNL A   1      43.715  30.004  35.464  1.00  0.00    -0.744 OA
ENDBRANCH  66  70
ENDBRANCH  40  63
ENDBRANCH  14  15
ENDBRANCH   7   9
ENDBRANCH   6   7
ENDBRANCH   5   6
ENDBRANCH   4   5
ENDBRANCH   3   4
ENDBRANCH   2   3
ENDBRANCH   1   2
BRANCH   1  74
ATOM     74  O   UNL A   1      34.659  31.785  27.261  1.00  0.00    -0.377 OA
BRANCH  74  75
ATOM     75  C   UNL A   1      33.277  31.939  27.449  1.00  0.00     0.188 C 
BRANCH  75  76
ATOM     76  C   UNL A   1      32.471  30.672  27.085  1.00  0.00     0.188 C 
BRANCH  76  77
ATOM     77  O   UNL A   1      33.102  29.407  26.967  1.00  0.00    -0.376 OA
BRANCH  77  78
ATOM     78  C   UNL A   1      32.357  28.289  26.528  1.00  0.00     0.202 C 
BRANCH  78  79
ATOM     79  C   UNL A   1      31.947  28.223  25.048  1.00  0.00     0.261 C 
BRANCH  79  80
ATOM     80  O   UNL A   1      32.729  27.375  24.188  1.00  0.00    -0.460 OA
BRANCH  80  81
ATOM     81  C   UNL A   1      32.123  26.772  23.121  1.00  0.00     0.341 C 
ATOM     82  O   UNL A   1      31.407  27.329  22.300  1.00  0.00    -0.246 OA
BRANCH  81  83
ATOM     83  C   UNL A   1      32.503  25.362  23.031  1.00  0.00     0.094 A 
ATOM     84  C   UNL A   1      32.851  24.751  21.770  1.00  0.00     0.029 A 
ATOM     85  C   UNL A   1      32.467  24.421  24.067  1.00  0.00     0.110 A 
ATOM     86  C   UNL A   1      33.035  23.398  21.869  1.00  0.00     0.068 A 
ATOM     87  S   UNL A   1      32.732  22.862  23.442  1.00  0.00    -0.126 S 
BRANCH  85  88
ATOM     88  N   UNL A   1      32.101  24.595  25.408  1.00  0.00    -0.312 N 
ATOM     89  C   UNL A   1      32.304  23.803  26.539  1.00  0.00     0.266 C 
ATOM     90  H   UNL A   1      31.613  25.432  25.586  1.00  0.00     0.171 HD
ATOM     91  O   UNL A   1      31.409  23.767  27.384  1.00  0.00    -0.268 OA
BRANCH  89  92
ATOM     92  C   UNL A   1      33.594  23.201  26.746  1.00  0.00     0.094 A 
ATOM     93  C   UNL A   1      34.835  23.805  26.726  1.00  0.00     0.037 A 
ATOM     94  S   UNL A   1      33.776  21.525  27.035  1.00  0.00    -0.130 S 
ATOM     95  C   UNL A   1      35.802  22.874  26.219  1.00  0.00     0.029 A 
ATOM     96  C   UNL A   1      35.247  21.593  26.119  1.00  0.00     0.038 A 
ATOM     97  C   UNL A   1      37.041  23.113  25.601  1.00  0.00     0.131 A 
ATOM     98  C   UNL A   1      35.794  20.612  25.279  1.00  0.00     0.020 A 
ATOM     99  F   UNL A   1      37.659  24.294  25.746  1.00  0.00    -0.206 F 
ATOM    100  C   UNL A   1      37.505  22.212  24.648  1.00  0.00     0.040 A 
ATOM    101  C   UNL A   1      36.852  20.998  24.451  1.00  0.00     0.005 A 
ENDBRANCH  89  92
ENDBRANCH  85  88
ENDBRANCH  81  83
ENDBRANCH  80  81
ENDBRANCH  79  80
ENDBRANCH  78  79
ENDBRANCH  77  78
ENDBRANCH  76  77
ENDBRANCH  75  76
ENDBRANCH  74  75
ENDBRANCH   1  74
TORSDOF 25
ENDMDL
MODEL 3
REMARK VINA RESULT:      -8.8      4.485      7.386
REMARK SMILES O=C(OCCOCCOCCOCCOC(=O)c1ccsc1NC(=O)c1cc2c(F)cccc2s1)c1ccc(-c2c3nc(c(-c4cc(S(=O)(=O)[O-])ccc4F)c4ccc([nH]4)c(-c4cc(S(=O)(=O)[O-])ccc4F)c4nc(c(-c5cc(S(=O)(=O)[O-])ccc5F)c5ccc2[nH]5)C=C4)C=C3)cc1
REMARK SMILES IDX 8 1 7 2 6 3 5 4 4 5 3 6 2 7 1 8 36 9 37 10 98 11 38 12 97 13
REMARK SMILES IDX 39 14 40 15 41 16 91 17 42 18 96 19 90 20 92 21 43 22 95 23
REMARK SMILES IDX 89 24 88 25 44 27 76 28 56 29 75 30 57 31 60 32 74 33 93 34
REMARK SMILES IDX 58 35 59 36 73 38 94 39 61 40 45 41 46 42 54 43 47 44 53 45
REMARK SMILES IDX 55 46 52 47 48 48 49 49 50 50 51 51 77 52 78 53 86 54 79 55
REMARK SMILES IDX 85 56 87 57 84 58 80 59 81 60 82 61 83 62 62 63 63 64 71 65
REMARK SMILES IDX 64 66 70 67 72 68 69 69 65 70 66 71 67 72 68 73 9 74 10 75
REMARK SMILES IDX 11 76 12 77 13 78 14 79 15 80 16 81 17 82 18 83 19 84 22 85
REMARK SMILES IDX 20 86 21 87 23 88 24 89 25 91 26 92 27 93 35 94 28 95 34 96
REMARK SMILES IDX 29 97 33 98 30 99 31 100 32 101
REMARK H PARENT 92 26 60 37 23 90
REMARK Flexibility Score: inf
ROOT
ATOM      1  C   UNL A   1      39.410  27.370  28.220  1.00  0.00     0.188 C 
ENDROOT
BRANCH   1   2
ATOM      2  C   UNL A   1      39.662  28.771  28.805  1.00  0.00     0.188 C 
BRANCH   2   3
ATOM      3  O   UNL A   1      38.837  29.923  28.638  1.00  0.00    -0.376 OA
BRANCH   3   4
ATOM      4  C   UNL A   1      37.696  30.109  27.825  1.00  0.00     0.202 C 
BRANCH   4   5
ATOM      5  C   UNL A   1      36.333  29.580  28.277  1.00  0.00     0.261 C 
BRANCH   5   6
ATOM      6  O   UNL A   1      35.369  30.569  28.633  1.00  0.00    -0.460 OA
BRANCH   6   7
ATOM      7  C   UNL A   1      35.570  31.788  29.179  1.00  0.00     0.338 C 
ATOM      8  O   UNL A   1      35.136  32.766  28.567  1.00  0.00    -0.246 OA
BRANCH   7   9
ATOM      9  C   UNL A   1      36.293  32.037  30.451  1.00  0.00     0.060 A 
ATOM     10  C   UNL A   1      37.322  32.958  30.636  1.00  0.00     0.016 A 
ATOM     11  C   UNL A   1      35.948  31.173  31.511  1.00  0.00     0.016 A 
ATOM     12  C   UNL A   1      38.148  32.847  31.728  1.00  0.00     0.010 A 
ATOM     13  C   UNL A   1      36.758  31.068  32.621  1.00  0.00     0.010 A 
ATOM     14  C   UNL A   1      37.906  31.838  32.655  1.00  0.00    -0.014 A 
BRANCH  14  15
ATOM     15  C   UNL A   1      38.931  31.647  33.647  1.00  0.00     0.031 A 
ATOM     16  C   UNL A   1      38.784  32.529  34.821  1.00  0.00     0.074 A 
ATOM     17  C   UNL A   1      39.953  30.807  33.419  1.00  0.00     0.049 A 
ATOM     18  N   UNL A   1      39.459  33.597  35.087  1.00  0.00    -0.248 NA
ATOM     19  C   UNL A   1      37.608  32.322  35.675  1.00  0.00     0.031 C 
ATOM     20  C   UNL A   1      40.057  29.742  32.418  1.00  0.00     0.029 A 
ATOM     21  N   UNL A   1      41.109  30.686  34.114  1.00  0.00    -0.354 N 
ATOM     22  C   UNL A   1      38.931  34.079  36.279  1.00  0.00     0.074 A 
ATOM     23  C   UNL A   1      37.685  33.382  36.478  1.00  0.00     0.031 C 
ATOM     24  C   UNL A   1      41.095  28.934  32.741  1.00  0.00     0.029 A 
ATOM     25  C   UNL A   1      41.806  29.516  33.868  1.00  0.00     0.049 A 
ATOM     26  H   UNL A   1      41.429  31.375  34.742  1.00  0.00     0.167 HD
ATOM     27  C   UNL A   1      39.681  34.832  37.132  1.00  0.00     0.034 A 
ATOM     28  C   UNL A   1      42.821  29.030  34.623  1.00  0.00     0.034 A 
ATOM     29  C   UNL A   1      40.848  35.355  36.479  1.00  0.00     0.049 A 
ATOM     30  C   UNL A   1      43.359  30.156  35.430  1.00  0.00     0.074 A 
ATOM     31  C   UNL A   1      41.058  36.229  35.432  1.00  0.00     0.029 A 
ATOM     32  N   UNL A   1      42.025  34.665  36.650  1.00  0.00    -0.354 N 
ATOM     33  N   UNL A   1      44.020  31.160  34.925  1.00  0.00    -0.248 NA
ATOM     34  C   UNL A   1      42.753  30.400  36.734  1.00  0.00     0.031 C 
ATOM     35  C   UNL A   1      42.188  35.713  34.741  1.00  0.00     0.029 A 
ATOM     36  C   UNL A   1      42.650  34.591  35.433  1.00  0.00     0.049 A 
ATOM     37  H   UNL A   1      42.360  34.292  37.497  1.00  0.00     0.167 HD
ATOM     38  C   UNL A   1      43.545  32.270  35.610  1.00  0.00     0.074 A 
ATOM     39  C   UNL A   1      42.841  31.733  36.772  1.00  0.00     0.031 C 
ATOM     40  C   UNL A   1      43.510  33.500  35.022  1.00  0.00     0.034 A 
BRANCH  27  41
ATOM     41  C   UNL A   1      39.545  34.757  38.631  1.00  0.00     0.023 A 
ATOM     42  C   UNL A   1      39.966  33.637  39.371  1.00  0.00     0.031 A 
ATOM     43  C   UNL A   1      39.221  35.904  39.380  1.00  0.00     0.131 A 
ATOM     44  C   UNL A   1      40.040  33.658  40.767  1.00  0.00     0.055 A 
ATOM     45  C   UNL A   1      39.359  35.950  40.774  1.00  0.00     0.041 A 
ATOM     46  F   UNL A   1      38.826  37.035  38.776  1.00  0.00    -0.206 F 
ATOM     47  C   UNL A   1      39.772  34.823  41.475  1.00  0.00     0.022 A 
BRANCH  44  48
ATOM     48  S   UNL A   1      40.537  32.165  41.669  1.00  0.00     0.124 S 
ATOM     49  O   UNL A   1      40.866  32.703  42.985  1.00  0.00    -0.237 OA
ATOM     50  O   UNL A   1      39.320  31.361  41.596  1.00  0.00    -0.237 OA
ATOM     51  O   UNL A   1      41.664  31.654  40.893  1.00  0.00    -0.744 OA
ENDBRANCH  44  48
ENDBRANCH  27  41
BRANCH  28  52
ATOM     52  C   UNL A   1      42.984  27.620  35.053  1.00  0.00     0.023 A 
ATOM     53  C   UNL A   1      43.897  26.779  34.389  1.00  0.00     0.031 A 
ATOM     54  C   UNL A   1      42.030  27.010  35.885  1.00  0.00     0.131 A 
ATOM     55  C   UNL A   1      43.801  25.386  34.511  1.00  0.00     0.055 A 
ATOM     56  C   UNL A   1      41.944  25.619  36.016  1.00  0.00     0.041 A 
ATOM     57  F   UNL A   1      41.115  27.751  36.527  1.00  0.00    -0.206 F 
ATOM     58  C   UNL A   1      42.823  24.799  35.313  1.00  0.00     0.022 A 
BRANCH  55  59
ATOM     59  S   UNL A   1      44.914  24.314  33.562  1.00  0.00     0.124 S 
ATOM     60  O   UNL A   1      44.666  23.000  34.154  1.00  0.00    -0.237 OA
ATOM     61  O   UNL A   1      44.415  24.495  32.203  1.00  0.00    -0.237 OA
ATOM     62  O   UNL A   1      46.236  24.870  33.835  1.00  0.00    -0.744 OA
ENDBRANCH  55  59
ENDBRANCH  28  52
BRANCH  40  63
ATOM     63  C   UNL A   1      44.235  33.702  33.715  1.00  0.00     0.023 A 
ATOM     64  C   UNL A   1      43.518  33.386  32.550  1.00  0.00     0.031 A 
ATOM     65  C   UNL A   1      45.618  33.930  33.595  1.00  0.00     0.131 A 
ATOM     66  C   UNL A   1      44.182  33.246  31.330  1.00  0.00     0.055 A 
ATOM     67  C   UNL A   1      46.268  33.859  32.358  1.00  0.00     0.041 A 
ATOM     68  F   UNL A   1      46.390  34.134  34.671  1.00  0.00    -0.206 F 
ATOM     69  C   UNL A   1      45.553  33.494  31.220  1.00  0.00     0.022 A 
BRANCH  66  70
ATOM     70  S   UNL A   1      43.302  32.582  29.894  1.00  0.00     0.124 S 
ATOM     71  O   UNL A   1      42.865  33.797  29.211  1.00  0.00    -0.237 OA
ATOM     72  O   UNL A   1      44.351  31.824  29.215  1.00  0.00    -0.237 OA
ATOM     73  O   UNL A   1      42.233  31.775  30.474  1.00  0.00    -0.744 OA
ENDBRANCH  66  70
ENDBRANCH  40  63
ENDBRANCH  14  15
ENDBRANCH   7   9
ENDBRANCH   6   7
ENDBRANCH   5   6
ENDBRANCH   4   5
ENDBRANCH   3   4
ENDBRANCH   2   3
ENDBRANCH   1   2
BRANCH   1  74
ATOM     74  O   UNL A   1      40.446  26.425  28.399  1.00  0.00    -0.377 OA
BRANCH  74  75
ATOM     75  C   UNL A   1      41.032  26.007  27.193  1.00  0.00     0.188 C 
BRANCH  75  76
ATOM     76  C   UNL A   1      40.507  24.638  26.707  1.00  0.00     0.188 C 
BRANCH  76  77
ATOM     77  O   UNL A   1      39.511  23.933  27.429  1.00  0.00    -0.376 OA
BRANCH  77  78
ATOM     78  C   UNL A   1      38.517  23.208  26.732  1.00  0.00     0.202 C 
BRANCH  78  79
ATOM     79  C   UNL A   1      37.509  23.993  25.878  1.00  0.00     0.261 C 
BRANCH  79  80
ATOM     80  O   UNL A   1      36.113  23.715  26.091  1.00  0.00    -0.460 OA
BRANCH  80  81
ATOM     81  C   UNL A   1      35.599  22.525  25.656  1.00  0.00     0.341 C 
ATOM     82  O   UNL A   1      35.822  21.429  26.153  1.00  0.00    -0.246 OA
BRANCH  81  83
ATOM     83  C   UNL A   1      34.668  22.730  24.546  1.00  0.00     0.094 A 
ATOM     84  C   UNL A   1      35.134  23.036  23.214  1.00  0.00     0.029 A 
ATOM     85  C   UNL A   1      33.272  22.783  24.629  1.00  0.00     0.110 A 
ATOM     86  C   UNL A   1      34.114  23.335  22.351  1.00  0.00     0.068 A 
ATOM     87  S   UNL A   1      32.625  23.310  23.147  1.00  0.00    -0.126 S 
BRANCH  85  88
ATOM     88  N   UNL A   1      32.445  22.627  25.749  1.00  0.00    -0.312 N 
ATOM     89  C   UNL A   1      32.039  23.523  26.738  1.00  0.00     0.266 C 
ATOM     90  H   UNL A   1      32.082  21.718  25.857  1.00  0.00     0.171 HD
ATOM     91  O   UNL A   1      31.916  23.095  27.887  1.00  0.00    -0.268 OA
BRANCH  89  92
ATOM     92  C   UNL A   1      31.629  24.847  26.354  1.00  0.00     0.094 A 
ATOM     93  C   UNL A   1      30.366  25.290  26.018  1.00  0.00     0.037 A 
ATOM     94  S   UNL A   1      32.744  26.139  26.222  1.00  0.00    -0.130 S 
ATOM     95  C   UNL A   1      30.478  26.323  25.029  1.00  0.00     0.029 A 
ATOM     96  C   UNL A   1      31.812  26.719  24.879  1.00  0.00     0.038 A 
ATOM     97  C   UNL A   1      29.544  26.759  24.075  1.00  0.00     0.131 A 
ATOM     98  C   UNL A   1      32.267  27.371  23.723  1.00  0.00     0.020 A 
ATOM     99  F   UNL A   1      28.239  26.487  24.223  1.00  0.00    -0.206 F 
ATOM    100  C   UNL A   1      30.002  27.261  22.861  1.00  0.00     0.040 A 
ATOM    101  C   UNL A   1      31.359  27.509  22.670  1.00  0.00     0.005 A 
ENDBRANCH  89  92
ENDBRANCH  85  88
ENDBRANCH  81  83
ENDBRANCH  80  81
ENDBRANCH  79  80
ENDBRANCH  78  79
ENDBRANCH  77  78
ENDBRANCH  76  77
ENDBRANCH  75  76
ENDBRANCH  74  75
ENDBRANCH   1  74
TORSDOF 25
ENDMDL
