MODEL 1
REMARK VINA RESULT:      -9.2      0.000      0.000
REMARK SMILES COc1cccc(C(=O)N[C@H]2C=C[C@@H](C(=O)OCCOCCOCCOCCOC(=O)c3ccc(-c4c5nc(c(-c6cc(S(=O)(=O)[O-])ccc6F)c6ccc([nH]6)c(-c6cc(S(=O)(=O)[O-])ccc6F)c6nc(c(-c7cc(S(=O)(=O)[O-])ccc7F)c7ccc4[nH]7)C=C6)C=C5)cc3)C2)c1
REMARK SMILES IDX 23 1 22 2 21 3 20 4 19 5 18 6 17 7 15 8 16 9 14 10 11 11
REMARK SMILES IDX 12 12 95 13 13 14 10 15 8 16 9 17 7 19 3 20 4 21 96 22 5 23
REMARK SMILES IDX 6 24 2 25 1 26 24 27 25 28 26 29 27 30 28 31 29 32 30 33
REMARK SMILES IDX 31 34 32 35 33 36 94 37 34 38 93 39 35 40 36 41 37 42 87 43
REMARK SMILES IDX 38 44 92 45 86 46 88 47 39 48 91 49 85 50 84 51 40 53 72 54
REMARK SMILES IDX 52 55 71 56 53 57 56 58 70 59 89 60 54 61 55 62 69 64 90 65
REMARK SMILES IDX 57 66 41 67 42 68 50 69 43 70 49 71 51 72 48 73 44 74 45 75
REMARK SMILES IDX 46 76 47 77 73 78 74 79 82 80 75 81 81 82 83 83 80 84 76 85
REMARK SMILES IDX 77 86 78 87 79 88 58 89 59 90 67 91 60 92 66 93 68 94 65 95
REMARK SMILES IDX 61 96 62 97 63 98 64 99
REMARK H PARENT 10 18 88 52 56 63
REMARK Flexibility Score: inf
ROOT
ATOM      1  O   UNL A   1      39.840  22.501  26.949  1.00  0.00    -0.377 OA
ENDROOT
BRANCH   1   2
ATOM      2  C   UNL A   1      39.204  21.663  26.011  1.00  0.00     0.188 C 
BRANCH   2   3
ATOM      3  C   UNL A   1      37.803  22.112  25.569  1.00  0.00     0.188 C 
BRANCH   3   4
ATOM      4  O   UNL A   1      36.659  21.283  25.685  1.00  0.00    -0.376 OA
BRANCH   4   5
ATOM      5  C   UNL A   1      35.322  21.761  25.663  1.00  0.00     0.202 C 
BRANCH   5   6
ATOM      6  C   UNL A   1      34.243  21.360  26.676  1.00  0.00     0.261 C 
BRANCH   6   7
ATOM      7  O   UNL A   1      32.897  21.497  26.230  1.00  0.00    -0.463 OA
BRANCH   7   8
ATOM      8  C   UNL A   1      32.332  22.676  26.539  1.00  0.00     0.312 C 
ATOM      9  O   UNL A   1      32.076  23.058  27.680  1.00  0.00    -0.252 OA
BRANCH   8  10
ATOM     10  C   UNL A   1      32.044  23.546  25.343  1.00  0.00     0.124 C 
ATOM     11  C   UNL A   1      32.599  24.811  23.438  1.00  0.00     0.106 C 
ATOM     12  C   UNL A   1      32.618  23.358  23.099  1.00  0.00    -0.006 C 
ATOM     13  C   UNL A   1      32.922  24.751  24.928  1.00  0.00     0.048 C 
ATOM     14  C   UNL A   1      32.200  22.650  24.147  1.00  0.00    -0.014 C 
BRANCH  11  15
ATOM     15  N   UNL A   1      33.375  25.602  22.531  1.00  0.00    -0.346 N 
ATOM     16  C   UNL A   1      33.255  26.978  22.363  1.00  0.00     0.251 C 
ATOM     17  O   UNL A   1      34.022  27.601  21.637  1.00  0.00    -0.269 OA
ATOM     18  H   UNL A   1      34.048  25.136  21.983  1.00  0.00     0.164 HD
BRANCH  16  19
ATOM     19  C   UNL A   1      32.088  27.679  22.979  1.00  0.00     0.043 A 
ATOM     20  C   UNL A   1      30.028  28.902  22.650  1.00  0.00     0.119 A 
ATOM     21  C   UNL A   1      30.278  29.614  23.826  1.00  0.00     0.046 A 
ATOM     22  C   UNL A   1      30.883  27.863  22.283  1.00  0.00     0.060 A 
ATOM     23  C   UNL A   1      31.399  29.323  24.608  1.00  0.00     0.005 A 
ATOM     24  C   UNL A   1      32.319  28.367  24.175  1.00  0.00     0.014 A 
BRANCH  20  25
ATOM     25  O   UNL A   1      28.953  29.332  21.918  1.00  0.00    -0.497 OA
ATOM     26  C   UNL A   1      28.225  30.434  22.458  1.00  0.00     0.278 C 
ENDBRANCH  20  25
ENDBRANCH  16  19
ENDBRANCH  11  15
ENDBRANCH   8  10
ENDBRANCH   7   8
ENDBRANCH   6   7
ENDBRANCH   5   6
ENDBRANCH   4   5
ENDBRANCH   3   4
ENDBRANCH   2   3
ENDBRANCH   1   2
BRANCH   1  27
ATOM     27  C   UNL A   1      41.255  22.410  27.075  1.00  0.00     0.188 C 
BRANCH  27  28
ATOM     28  C   UNL A   1      42.034  21.422  26.178  1.00  0.00     0.188 C 
BRANCH  28  29
ATOM     29  O   UNL A   1      43.447  21.499  26.311  1.00  0.00    -0.376 OA
BRANCH  29  30
ATOM     30  C   UNL A   1      44.230  21.569  25.128  1.00  0.00     0.202 C 
BRANCH  30  31
ATOM     31  C   UNL A   1      45.046  22.852  24.896  1.00  0.00     0.261 C 
BRANCH  31  32
ATOM     32  O   UNL A   1      44.900  23.892  25.876  1.00  0.00    -0.460 OA
BRANCH  32  33
ATOM     33  C   UNL A   1      43.994  24.860  25.630  1.00  0.00     0.338 C 
ATOM     34  O   UNL A   1      43.310  24.976  24.624  1.00  0.00    -0.246 OA
BRANCH  33  35
ATOM     35  C   UNL A   1      43.800  25.641  26.871  1.00  0.00     0.060 A 
ATOM     36  C   UNL A   1      43.201  25.014  27.971  1.00  0.00     0.016 A 
ATOM     37  C   UNL A   1      44.193  26.979  26.949  1.00  0.00     0.016 A 
ATOM     38  C   UNL A   1      42.949  25.737  29.136  1.00  0.00     0.010 A 
ATOM     39  C   UNL A   1      43.919  27.709  28.112  1.00  0.00     0.010 A 
ATOM     40  C   UNL A   1      43.262  27.102  29.197  1.00  0.00    -0.014 A 
BRANCH  40  41
ATOM     41  C   UNL A   1      42.720  27.916  30.316  1.00  0.00     0.031 A 
ATOM     42  C   UNL A   1      41.373  28.568  30.142  1.00  0.00     0.074 A 
ATOM     43  C   UNL A   1      43.374  28.018  31.487  1.00  0.00     0.049 A 
ATOM     44  N   UNL A   1      40.694  29.311  30.976  1.00  0.00    -0.248 NA
ATOM     45  C   UNL A   1      40.705  28.349  28.850  1.00  0.00     0.031 C 
ATOM     46  C   UNL A   1      44.658  27.389  31.793  1.00  0.00     0.029 A 
ATOM     47  N   UNL A   1      43.044  28.685  32.640  1.00  0.00    -0.354 N 
ATOM     48  C   UNL A   1      39.518  29.649  30.311  1.00  0.00     0.074 A 
ATOM     49  C   UNL A   1      39.601  29.065  28.990  1.00  0.00     0.031 C 
ATOM     50  C   UNL A   1      45.006  27.701  33.054  1.00  0.00     0.029 A 
ATOM     51  C   UNL A   1      43.993  28.583  33.631  1.00  0.00     0.049 A 
ATOM     52  H   UNL A   1      42.206  29.191  32.748  1.00  0.00     0.167 HD
ATOM     53  C   UNL A   1      38.464  30.371  30.766  1.00  0.00     0.034 A 
ATOM     54  C   UNL A   1      44.047  29.154  34.851  1.00  0.00     0.034 A 
ATOM     55  C   UNL A   1      38.402  30.960  32.082  1.00  0.00     0.049 A 
ATOM     56  C   UNL A   1      42.902  30.036  35.299  1.00  0.00     0.074 A 
ATOM     57  C   UNL A   1      37.378  31.700  32.646  1.00  0.00     0.029 A 
ATOM     58  N   UNL A   1      39.411  30.890  33.034  1.00  0.00    -0.354 N 
ATOM     59  N   UNL A   1      41.791  30.337  34.666  1.00  0.00    -0.248 NA
ATOM     60  C   UNL A   1      43.017  30.642  36.632  1.00  0.00     0.031 C 
ATOM     61  C   UNL A   1      37.802  32.151  33.900  1.00  0.00     0.029 A 
ATOM     62  C   UNL A   1      39.051  31.610  34.164  1.00  0.00     0.049 A 
ATOM     63  H   UNL A   1      40.259  30.402  32.923  1.00  0.00     0.167 HD
ATOM     64  C   UNL A   1      41.062  31.143  35.540  1.00  0.00     0.074 A 
ATOM     65  C   UNL A   1      41.850  31.256  36.749  1.00  0.00     0.031 C 
ATOM     66  C   UNL A   1      39.852  31.733  35.361  1.00  0.00     0.034 A 
BRANCH  53  67
ATOM     67  C   UNL A   1      37.319  30.608  29.808  1.00  0.00     0.023 A 
ATOM     68  C   UNL A   1      36.868  31.901  29.490  1.00  0.00     0.031 A 
ATOM     69  C   UNL A   1      36.651  29.517  29.222  1.00  0.00     0.131 A 
ATOM     70  C   UNL A   1      35.743  32.069  28.668  1.00  0.00     0.055 A 
ATOM     71  C   UNL A   1      35.586  29.694  28.337  1.00  0.00     0.041 A 
ATOM     72  F   UNL A   1      37.017  28.257  29.508  1.00  0.00    -0.206 F 
ATOM     73  C   UNL A   1      35.116  30.976  28.066  1.00  0.00     0.022 A 
BRANCH  70  74
ATOM     74  S   UNL A   1      35.019  33.725  28.516  1.00  0.00     0.124 S 
ATOM     75  O   UNL A   1      35.513  34.375  29.727  1.00  0.00    -0.237 OA
ATOM     76  O   UNL A   1      35.584  34.203  27.259  1.00  0.00    -0.237 OA
ATOM     77  O   UNL A   1      33.580  33.471  28.498  1.00  0.00    -0.744 OA
ENDBRANCH  70  74
ENDBRANCH  53  67
BRANCH  54  78
ATOM     78  C   UNL A   1      45.237  28.957  35.732  1.00  0.00     0.023 A 
ATOM     79  C   UNL A   1      45.283  27.921  36.679  1.00  0.00     0.031 A 
ATOM     80  C   UNL A   1      46.322  29.853  35.686  1.00  0.00     0.131 A 
ATOM     81  C   UNL A   1      46.362  27.838  37.574  1.00  0.00     0.055 A 
ATOM     82  C   UNL A   1      47.421  29.729  36.537  1.00  0.00     0.041 A 
ATOM     83  F   UNL A   1      46.328  30.868  34.807  1.00  0.00    -0.206 F 
ATOM     84  C   UNL A   1      47.438  28.725  37.500  1.00  0.00     0.022 A 
BRANCH  81  85
ATOM     85  S   UNL A   1      46.289  26.614  38.912  1.00  0.00     0.124 S 
ATOM     86  O   UNL A   1      46.795  27.381  40.044  1.00  0.00    -0.237 OA
ATOM     87  O   UNL A   1      44.868  26.285  38.943  1.00  0.00    -0.237 OA
ATOM     88  O   UNL A   1      47.163  25.543  38.440  1.00  0.00    -0.744 OA
ENDBRANCH  81  85
ENDBRANCH  54  78
BRANCH  66  89
ATOM     89  C   UNL A   1      39.289  32.519  36.525  1.00  0.00     0.023 A 
ATOM     90  C   UNL A   1      38.577  31.896  37.565  1.00  0.00     0.031 A 
ATOM     91  C   UNL A   1      39.440  33.917  36.578  1.00  0.00     0.131 A 
ATOM     92  C   UNL A   1      37.976  32.674  38.568  1.00  0.00     0.055 A 
ATOM     93  C   UNL A   1      38.907  34.678  37.621  1.00  0.00     0.041 A 
ATOM     94  F   UNL A   1      40.105  34.571  35.613  1.00  0.00    -0.206 F 
ATOM     95  C   UNL A   1      38.154  34.058  38.613  1.00  0.00     0.022 A 
BRANCH  92  96
ATOM     96  S   UNL A   1      36.845  31.866  39.733  1.00  0.00     0.124 S 
ATOM     97  O   UNL A   1      37.773  31.218  40.655  1.00  0.00    -0.237 OA
ATOM     98  O   UNL A   1      36.095  32.995  40.273  1.00  0.00    -0.237 OA
ATOM     99  O   UNL A   1      36.074  30.956  38.888  1.00  0.00    -0.744 OA
ENDBRANCH  92  96
ENDBRANCH  66  89
ENDBRANCH  40  41
ENDBRANCH  33  35
ENDBRANCH  32  33
ENDBRANCH  31  32
ENDBRANCH  30  31
ENDBRANCH  29  30
ENDBRANCH  28  29
ENDBRANCH  27  28
ENDBRANCH   1  27
TORSDOF 26
ENDMDL
MODEL 2
REMARK VINA RESULT:      -8.8      3.514      8.017
REMARK SMILES COc1cccc(C(=O)N[C@H]2C=C[C@@H](C(=O)OCCOCCOCCOCCOC(=O)c3ccc(-c4c5nc(c(-c6cc(S(=O)(=O)[O-])ccc6F)c6ccc([nH]6)c(-c6cc(S(=O)(=O)[O-])ccc6F)c6nc(c(-c7cc(S(=O)(=O)[O-])ccc7F)c7ccc4[nH]7)C=C6)C=C5)cc3)C2)c1
REMARK SMILES IDX 23 1 22 2 21 3 20 4 19 5 18 6 17 7 15 8 16 9 14 10 11 11
REMARK SMILES IDX 12 12 95 13 13 14 10 15 8 16 9 17 7 19 3 20 4 21 96 22 5 23
REMARK SMILES IDX 6 24 2 25 1 26 24 27 25 28 26 29 27 30 28 31 29 32 30 33
REMARK SMILES IDX 31 34 32 35 33 36 94 37 34 38 93 39 35 40 36 41 37 42 87 43
REMARK SMILES IDX 38 44 92 45 86 46 88 47 39 48 91 49 85 50 84 51 40 53 72 54
REMARK SMILES IDX 52 55 71 56 53 57 56 58 70 59 89 60 54 61 55 62 69 64 90 65
REMARK SMILES IDX 57 66 41 67 42 68 50 69 43 70 49 71 51 72 48 73 44 74 45 75
REMARK SMILES IDX 46 76 47 77 73 78 74 79 82 80 75 81 81 82 83 83 80 84 76 85
REMARK SMILES IDX 77 86 78 87 79 88 58 89 59 90 67 91 60 92 66 93 68 94 65 95
REMARK SMILES IDX 61 96 62 97 63 98 64 99
REMARK H PARENT 10 18 88 52 56 63
REMARK Flexibility Score: inf
ROOT
ATOM      1  O   UNL A   1      38.858  23.744  26.493  1.00  0.00    -0.377 OA
ENDROOT
BRANCH   1   2
ATOM      2  C   UNL A   1      38.163  22.614  26.017  1.00  0.00     0.188 C 
BRANCH   2   3
ATOM      3  C   UNL A   1      37.058  22.903  24.990  1.00  0.00     0.188 C 
BRANCH   3   4
ATOM      4  O   UNL A   1      36.365  21.877  24.300  1.00  0.00    -0.376 OA
BRANCH   4   5
ATOM      5  C   UNL A   1      35.291  21.129  24.853  1.00  0.00     0.202 C 
BRANCH   5   6
ATOM      6  C   UNL A   1      34.650  21.413  26.216  1.00  0.00     0.261 C 
BRANCH   6   7
ATOM      7  O   UNL A   1      33.225  21.415  26.239  1.00  0.00    -0.463 OA
BRANCH   7   8
ATOM      8  C   UNL A   1      32.683  22.562  26.680  1.00  0.00     0.312 C 
ATOM      9  O   UNL A   1      32.597  22.894  27.861  1.00  0.00    -0.252 OA
BRANCH   8  10
ATOM     10  C   UNL A   1      32.190  23.465  25.579  1.00  0.00     0.124 C 
ATOM     11  C   UNL A   1      32.058  24.268  23.370  1.00  0.00     0.106 C 
ATOM     12  C   UNL A   1      31.241  23.026  23.504  1.00  0.00    -0.006 C 
ATOM     13  C   UNL A   1      33.099  24.031  24.462  1.00  0.00     0.048 C 
ATOM     14  C   UNL A   1      31.229  22.634  24.777  1.00  0.00    -0.014 C 
BRANCH  11  15
ATOM     15  N   UNL A   1      32.437  24.540  22.016  1.00  0.00    -0.346 N 
ATOM     16  C   UNL A   1      32.739  25.798  21.507  1.00  0.00     0.251 C 
ATOM     17  O   UNL A   1      33.149  25.940  20.360  1.00  0.00    -0.269 OA
ATOM     18  H   UNL A   1      32.487  23.775  21.397  1.00  0.00     0.164 HD
BRANCH  16  19
ATOM     19  C   UNL A   1      32.432  27.003  22.336  1.00  0.00     0.043 A 
ATOM     20  C   UNL A   1      32.977  28.352  24.267  1.00  0.00     0.119 A 
ATOM     21  C   UNL A   1      31.629  28.694  24.393  1.00  0.00     0.046 A 
ATOM     22  C   UNL A   1      33.392  27.588  23.177  1.00  0.00     0.060 A 
ATOM     23  C   UNL A   1      30.690  28.240  23.462  1.00  0.00     0.005 A 
ATOM     24  C   UNL A   1      31.087  27.376  22.441  1.00  0.00     0.014 A 
BRANCH  20  25
ATOM     25  O   UNL A   1      33.790  28.777  25.284  1.00  0.00    -0.497 OA
ATOM     26  C   UNL A   1      33.633  28.109  26.536  1.00  0.00     0.278 C 
ENDBRANCH  20  25
ENDBRANCH  16  19
ENDBRANCH  11  15
ENDBRANCH   8  10
ENDBRANCH   7   8
ENDBRANCH   6   7
ENDBRANCH   5   6
ENDBRANCH   4   5
ENDBRANCH   3   4
ENDBRANCH   2   3
ENDBRANCH   1   2
BRANCH   1  27
ATOM     27  C   UNL A   1      40.272  23.649  26.636  1.00  0.00     0.188 C 
BRANCH  27  28
ATOM     28  C   UNL A   1      40.979  22.315  26.307  1.00  0.00     0.188 C 
BRANCH  28  29
ATOM     29  O   UNL A   1      42.397  22.396  26.276  1.00  0.00    -0.376 OA
BRANCH  29  30
ATOM     30  C   UNL A   1      43.022  22.762  25.055  1.00  0.00     0.202 C 
BRANCH  30  31
ATOM     31  C   UNL A   1      43.535  24.207  24.927  1.00  0.00     0.261 C 
BRANCH  31  32
ATOM     32  O   UNL A   1      43.641  24.960  26.146  1.00  0.00    -0.460 OA
BRANCH  32  33
ATOM     33  C   UNL A   1      42.947  26.114  26.230  1.00  0.00     0.338 C 
ATOM     34  O   UNL A   1      42.171  26.557  25.397  1.00  0.00    -0.246 OA
BRANCH  33  35
ATOM     35  C   UNL A   1      43.110  26.655  27.596  1.00  0.00     0.060 A 
ATOM     36  C   UNL A   1      44.337  27.235  27.946  1.00  0.00     0.016 A 
ATOM     37  C   UNL A   1      42.072  26.585  28.528  1.00  0.00     0.016 A 
ATOM     38  C   UNL A   1      44.545  27.702  29.243  1.00  0.00     0.010 A 
ATOM     39  C   UNL A   1      42.290  27.035  29.837  1.00  0.00     0.010 A 
ATOM     40  C   UNL A   1      43.540  27.560  30.210  1.00  0.00    -0.014 A 
BRANCH  40  41
ATOM     41  C   UNL A   1      43.880  27.783  31.639  1.00  0.00     0.031 A 
ATOM     42  C   UNL A   1      44.509  26.652  32.411  1.00  0.00     0.074 A 
ATOM     43  C   UNL A   1      43.700  28.981  32.222  1.00  0.00     0.049 A 
ATOM     44  N   UNL A   1      44.901  26.612  33.658  1.00  0.00    -0.248 NA
ATOM     45  C   UNL A   1      44.724  25.399  31.672  1.00  0.00     0.031 C 
ATOM     46  C   UNL A   1      43.150  30.165  31.564  1.00  0.00     0.029 A 
ATOM     47  N   UNL A   1      43.967  29.403  33.501  1.00  0.00    -0.354 N 
ATOM     48  C   UNL A   1      45.409  25.331  33.855  1.00  0.00     0.074 A 
ATOM     49  C   UNL A   1      45.233  24.615  32.610  1.00  0.00     0.031 C 
ATOM     50  C   UNL A   1      43.121  31.180  32.445  1.00  0.00     0.029 A 
ATOM     51  C   UNL A   1      43.611  30.710  33.740  1.00  0.00     0.049 A 
ATOM     52  H   UNL A   1      44.375  28.823  34.185  1.00  0.00     0.167 HD
ATOM     53  C   UNL A   1      45.979  24.805  34.968  1.00  0.00     0.034 A 
ATOM     54  C   UNL A   1      43.656  31.434  34.877  1.00  0.00     0.034 A 
ATOM     55  C   UNL A   1      46.134  25.528  36.207  1.00  0.00     0.049 A 
ATOM     56  C   UNL A   1      44.206  30.795  36.132  1.00  0.00     0.074 A 
ATOM     57  C   UNL A   1      46.705  25.094  37.390  1.00  0.00     0.029 A 
ATOM     58  N   UNL A   1      45.702  26.829  36.431  1.00  0.00    -0.354 N 
ATOM     59  N   UNL A   1      44.694  29.587  36.301  1.00  0.00    -0.248 NA
ATOM     60  C   UNL A   1      44.221  31.623  37.344  1.00  0.00     0.031 C 
ATOM     61  C   UNL A   1      46.540  26.096  38.351  1.00  0.00     0.029 A 
ATOM     62  C   UNL A   1      45.956  27.197  37.744  1.00  0.00     0.049 A 
ATOM     63  H   UNL A   1      45.276  27.406  35.756  1.00  0.00     0.167 HD
ATOM     64  C   UNL A   1      45.103  29.524  37.633  1.00  0.00     0.074 A 
ATOM     65  C   UNL A   1      44.827  30.824  38.209  1.00  0.00     0.031 C 
ATOM     66  C   UNL A   1      45.659  28.491  38.317  1.00  0.00     0.034 A 
BRANCH  53  67
ATOM     67  C   UNL A   1      46.422  23.362  34.906  1.00  0.00     0.023 A 
ATOM     68  C   UNL A   1      47.764  23.003  34.684  1.00  0.00     0.031 A 
ATOM     69  C   UNL A   1      45.481  22.327  35.048  1.00  0.00     0.131 A 
ATOM     70  C   UNL A   1      48.113  21.652  34.543  1.00  0.00     0.055 A 
ATOM     71  C   UNL A   1      45.849  20.982  34.992  1.00  0.00     0.041 A 
ATOM     72  F   UNL A   1      44.180  22.606  35.233  1.00  0.00    -0.206 F 
ATOM     73  C   UNL A   1      47.171  20.637  34.723  1.00  0.00     0.022 A 
BRANCH  70  74
ATOM     74  S   UNL A   1      49.786  21.243  33.973  1.00  0.00     0.124 S 
ATOM     75  O   UNL A   1      49.540  20.047  33.170  1.00  0.00    -0.237 OA
ATOM     76  O   UNL A   1      50.170  22.440  33.234  1.00  0.00    -0.237 OA
ATOM     77  O   UNL A   1      50.524  21.009  35.212  1.00  0.00    -0.744 OA
ENDBRANCH  70  74
ENDBRANCH  53  67
BRANCH  54  78
ATOM     78  C   UNL A   1      43.129  32.832  34.910  1.00  0.00     0.023 A 
ATOM     79  C   UNL A   1      41.812  33.107  35.312  1.00  0.00     0.031 A 
ATOM     80  C   UNL A   1      43.920  33.909  34.468  1.00  0.00     0.131 A 
ATOM     81  C   UNL A   1      41.309  34.415  35.214  1.00  0.00     0.055 A 
ATOM     82  C   UNL A   1      43.434  35.217  34.433  1.00  0.00     0.041 A 
ATOM     83  F   UNL A   1      45.183  33.703  34.064  1.00  0.00    -0.206 F 
ATOM     84  C   UNL A   1      42.116  35.474  34.793  1.00  0.00     0.022 A 
BRANCH  81  85
ATOM     85  S   UNL A   1      39.547  34.696  35.548  1.00  0.00     0.124 S 
ATOM     86  O   UNL A   1      38.919  33.721  34.663  1.00  0.00    -0.237 OA
ATOM     87  O   UNL A   1      39.463  34.416  36.977  1.00  0.00    -0.237 OA
ATOM     88  O   UNL A   1      39.351  36.095  35.177  1.00  0.00    -0.744 OA
ENDBRANCH  81  85
ENDBRANCH  54  78
BRANCH  66  89
ATOM     89  C   UNL A   1      46.044  28.745  39.757  1.00  0.00     0.023 A 
ATOM     90  C   UNL A   1      45.102  28.681  40.800  1.00  0.00     0.031 A 
ATOM     91  C   UNL A   1      47.368  29.089  40.089  1.00  0.00     0.131 A 
ATOM     92  C   UNL A   1      45.477  29.033  42.106  1.00  0.00     0.055 A 
ATOM     93  C   UNL A   1      47.752  29.361  41.403  1.00  0.00     0.041 A 
ATOM     94  F   UNL A   1      48.312  29.172  39.138  1.00  0.00    -0.206 F 
ATOM     95  C   UNL A   1      46.800  29.353  42.418  1.00  0.00     0.022 A 
BRANCH  92  96
ATOM     96  S   UNL A   1      44.182  29.201  43.366  1.00  0.00     0.124 S 
ATOM     97  O   UNL A   1      44.830  30.060  44.352  1.00  0.00    -0.237 OA
ATOM     98  O   UNL A   1      43.090  29.808  42.611  1.00  0.00    -0.237 OA
ATOM     99  O   UNL A   1      43.946  27.825  43.800  1.00  0.00    -0.744 OA
ENDBRANCH  92  96
ENDBRANCH  66  89
ENDBRANCH  40  41
ENDBRANCH  33  35
ENDBRANCH  32  33
ENDBRANCH  31  32
ENDBRANCH  30  31
ENDBRANCH  29  30
ENDBRANCH  28  29
ENDBRANCH  27  28
ENDBRANCH   1  27
TORSDOF 26
ENDMDL
MODEL 3
REMARK VINA RESULT:      -8.8      6.203     10.846
REMARK SMILES COc1cccc(C(=O)N[C@H]2C=C[C@@H](C(=O)OCCOCCOCCOCCOC(=O)c3ccc(-c4c5nc(c(-c6cc(S(=O)(=O)[O-])ccc6F)c6ccc([nH]6)c(-c6cc(S(=O)(=O)[O-])ccc6F)c6nc(c(-c7cc(S(=O)(=O)[O-])ccc7F)c7ccc4[nH]7)C=C6)C=C5)cc3)C2)c1
REMARK SMILES IDX 23 1 22 2 21 3 20 4 19 5 18 6 17 7 15 8 16 9 14 10 11 11
REMARK SMILES IDX 12 12 95 13 13 14 10 15 8 16 9 17 7 19 3 20 4 21 96 22 5 23
REMARK SMILES IDX 6 24 2 25 1 26 24 27 25 28 26 29 27 30 28 31 29 32 30 33
REMARK SMILES IDX 31 34 32 35 33 36 94 37 34 38 93 39 35 40 36 41 37 42 87 43
REMARK SMILES IDX 38 44 92 45 86 46 88 47 39 48 91 49 85 50 84 51 40 53 72 54
REMARK SMILES IDX 52 55 71 56 53 57 56 58 70 59 89 60 54 61 55 62 69 64 90 65
REMARK SMILES IDX 57 66 41 67 42 68 50 69 43 70 49 71 51 72 48 73 44 74 45 75
REMARK SMILES IDX 46 76 47 77 73 78 74 79 82 80 75 81 81 82 83 83 80 84 76 85
REMARK SMILES IDX 77 86 78 87 79 88 58 89 59 90 67 91 60 92 66 93 68 94 65 95
REMARK SMILES IDX 61 96 62 97 63 98 64 99
REMARK H PARENT 10 18 88 52 56 63
REMARK Flexibility Score: inf
ROOT
ATOM      1  O   UNL A   1      35.038  33.114  27.655  1.00  0.00    -0.377 OA
ENDROOT
BRANCH   1   2
ATOM      2  C   UNL A   1      34.002  32.179  27.852  1.00  0.00     0.188 C 
BRANCH   2   3
ATOM      3  C   UNL A   1      34.395  30.708  27.649  1.00  0.00     0.188 C 
BRANCH   3   4
ATOM      4  O   UNL A   1      33.477  29.723  27.205  1.00  0.00    -0.376 OA
BRANCH   4   5
ATOM      5  C   UNL A   1      33.459  29.184  25.891  1.00  0.00     0.202 C 
BRANCH   5   6
ATOM      6  C   UNL A   1      32.426  29.554  24.819  1.00  0.00     0.261 C 
BRANCH   6   7
ATOM      7  O   UNL A   1      31.256  28.741  24.784  1.00  0.00    -0.463 OA
BRANCH   7   8
ATOM      8  C   UNL A   1      31.091  28.064  23.636  1.00  0.00     0.312 C 
ATOM      9  O   UNL A   1      30.362  28.414  22.709  1.00  0.00    -0.252 OA
BRANCH   8  10
ATOM     10  C   UNL A   1      31.914  26.806  23.547  1.00  0.00     0.124 C 
ATOM     11  C   UNL A   1      32.466  24.665  22.738  1.00  0.00     0.106 C 
ATOM     12  C   UNL A   1      32.892  25.701  21.751  1.00  0.00    -0.006 C 
ATOM     13  C   UNL A   1      31.304  25.389  23.413  1.00  0.00     0.048 C 
ATOM     14  C   UNL A   1      32.677  26.915  22.257  1.00  0.00    -0.014 C 
BRANCH  11  15
ATOM     15  N   UNL A   1      32.305  23.370  22.148  1.00  0.00    -0.346 N 
ATOM     16  C   UNL A   1      32.236  22.172  22.852  1.00  0.00     0.251 C 
ATOM     17  O   UNL A   1      32.000  21.112  22.283  1.00  0.00    -0.269 OA
ATOM     18  H   UNL A   1      32.237  23.324  21.166  1.00  0.00     0.164 HD
BRANCH  16  19
ATOM     19  C   UNL A   1      32.587  22.171  24.305  1.00  0.00     0.043 A 
ATOM     20  C   UNL A   1      31.932  22.712  26.569  1.00  0.00     0.119 A 
ATOM     21  C   UNL A   1      33.272  22.945  26.887  1.00  0.00     0.046 A 
ATOM     22  C   UNL A   1      31.602  22.225  25.304  1.00  0.00     0.060 A 
ATOM     23  C   UNL A   1      34.275  22.739  25.935  1.00  0.00     0.005 A 
ATOM     24  C   UNL A   1      33.932  22.370  24.634  1.00  0.00     0.014 A 
BRANCH  20  25
ATOM     25  O   UNL A   1      31.029  23.033  27.547  1.00  0.00    -0.497 OA
ATOM     26  C   UNL A   1      29.655  23.035  27.161  1.00  0.00     0.278 C 
ENDBRANCH  20  25
ENDBRANCH  16  19
ENDBRANCH  11  15
ENDBRANCH   8  10
ENDBRANCH   7   8
ENDBRANCH   6   7
ENDBRANCH   5   6
ENDBRANCH   4   5
ENDBRANCH   3   4
ENDBRANCH   2   3
ENDBRANCH   1   2
BRANCH   1  27
ATOM     27  C   UNL A   1      35.504  33.843  28.786  1.00  0.00     0.188 C 
BRANCH  27  28
ATOM     28  C   UNL A   1      36.809  33.402  29.487  1.00  0.00     0.188 C 
BRANCH  28  29
ATOM     29  O   UNL A   1      36.698  32.191  30.222  1.00  0.00    -0.376 OA
BRANCH  29  30
ATOM     30  C   UNL A   1      37.372  31.042  29.730  1.00  0.00     0.202 C 
BRANCH  30  31
ATOM     31  C   UNL A   1      37.258  29.748  30.553  1.00  0.00     0.261 C 
BRANCH  31  32
ATOM     32  O   UNL A   1      36.720  29.876  31.879  1.00  0.00    -0.460 OA
BRANCH  32  33
ATOM     33  C   UNL A   1      37.428  29.342  32.895  1.00  0.00     0.338 C 
ATOM     34  O   UNL A   1      37.516  28.156  33.176  1.00  0.00    -0.246 OA
BRANCH  33  35
ATOM     35  C   UNL A   1      38.265  30.408  33.488  1.00  0.00     0.060 A 
ATOM     36  C   UNL A   1      37.752  31.710  33.542  1.00  0.00     0.016 A 
ATOM     37  C   UNL A   1      39.544  30.133  33.976  1.00  0.00     0.016 A 
ATOM     38  C   UNL A   1      38.535  32.750  34.041  1.00  0.00     0.010 A 
ATOM     39  C   UNL A   1      40.338  31.182  34.456  1.00  0.00     0.010 A 
ATOM     40  C   UNL A   1      39.851  32.502  34.455  1.00  0.00    -0.014 A 
BRANCH  40  41
ATOM     41  C   UNL A   1      40.760  33.653  34.695  1.00  0.00     0.031 A 
ATOM     42  C   UNL A   1      40.841  34.225  36.086  1.00  0.00     0.074 A 
ATOM     43  C   UNL A   1      41.547  34.136  33.718  1.00  0.00     0.049 A 
ATOM     44  N   UNL A   1      41.566  35.214  36.538  1.00  0.00    -0.248 NA
ATOM     45  C   UNL A   1      39.988  33.590  37.103  1.00  0.00     0.031 C 
ATOM     46  C   UNL A   1      41.596  33.631  32.347  1.00  0.00     0.029 A 
ATOM     47  N   UNL A   1      42.464  35.158  33.732  1.00  0.00    -0.354 N 
ATOM     48  C   UNL A   1      41.257  35.323  37.892  1.00  0.00     0.074 A 
ATOM     49  C   UNL A   1      40.247  34.326  38.172  1.00  0.00     0.031 C 
ATOM     50  C   UNL A   1      42.498  34.347  31.652  1.00  0.00     0.029 A 
ATOM     51  C   UNL A   1      43.061  35.384  32.513  1.00  0.00     0.049 A 
ATOM     52  H   UNL A   1      42.675  35.681  34.540  1.00  0.00     0.167 HD
ATOM     53  C   UNL A   1      41.777  36.169  38.816  1.00  0.00     0.034 A 
ATOM     54  C   UNL A   1      43.941  36.334  32.135  1.00  0.00     0.034 A 
ATOM     55  C   UNL A   1      42.775  37.169  38.517  1.00  0.00     0.049 A 
ATOM     56  C   UNL A   1      44.433  37.329  33.161  1.00  0.00     0.074 A 
ATOM     57  C   UNL A   1      43.375  38.069  39.379  1.00  0.00     0.029 A 
ATOM     58  N   UNL A   1      43.307  37.412  37.257  1.00  0.00    -0.354 N 
ATOM     59  N   UNL A   1      44.143  37.413  34.440  1.00  0.00    -0.248 NA
ATOM     60  C   UNL A   1      45.381  38.348  32.694  1.00  0.00     0.031 C 
ATOM     61  C   UNL A   1      44.201  38.912  38.628  1.00  0.00     0.029 A 
ATOM     62  C   UNL A   1      44.195  38.476  37.313  1.00  0.00     0.049 A 
ATOM     63  H   UNL A   1      43.085  36.905  36.443  1.00  0.00     0.167 HD
ATOM     64  C   UNL A   1      44.899  38.476  34.933  1.00  0.00     0.074 A 
ATOM     65  C   UNL A   1      45.674  38.980  33.819  1.00  0.00     0.031 C 
ATOM     66  C   UNL A   1      44.951  38.986  36.191  1.00  0.00     0.034 A 
BRANCH  53  67
ATOM     67  C   UNL A   1      41.231  36.083  40.222  1.00  0.00     0.023 A 
ATOM     68  C   UNL A   1      41.804  35.244  41.195  1.00  0.00     0.031 A 
ATOM     69  C   UNL A   1      40.101  36.836  40.588  1.00  0.00     0.131 A 
ATOM     70  C   UNL A   1      41.207  35.128  42.459  1.00  0.00     0.055 A 
ATOM     71  C   UNL A   1      39.563  36.781  41.875  1.00  0.00     0.041 A 
ATOM     72  F   UNL A   1      39.492  37.633  39.695  1.00  0.00    -0.206 F 
ATOM     73  C   UNL A   1      40.107  35.912  42.816  1.00  0.00     0.022 A 
BRANCH  70  74
ATOM     74  S   UNL A   1      41.796  33.830  43.581  1.00  0.00     0.124 S 
ATOM     75  O   UNL A   1      40.601  33.565  44.378  1.00  0.00    -0.237 OA
ATOM     76  O   UNL A   1      42.197  32.774  42.660  1.00  0.00    -0.237 OA
ATOM     77  O   UNL A   1      42.888  34.475  44.307  1.00  0.00    -0.744 OA
ENDBRANCH  70  74
ENDBRANCH  53  67
BRANCH  54  78
ATOM     78  C   UNL A   1      44.390  36.431  30.713  1.00  0.00     0.023 A 
ATOM     79  C   UNL A   1      43.644  37.140  29.757  1.00  0.00     0.031 A 
ATOM     80  C   UNL A   1      45.542  35.750  30.274  1.00  0.00     0.131 A 
ATOM     81  C   UNL A   1      44.027  37.109  28.407  1.00  0.00     0.055 A 
ATOM     82  C   UNL A   1      45.952  35.775  28.941  1.00  0.00     0.041 A 
ATOM     83  F   UNL A   1      46.288  35.049  31.142  1.00  0.00    -0.206 F 
ATOM     84  C   UNL A   1      45.184  36.445  27.994  1.00  0.00     0.022 A 
BRANCH  81  85
ATOM     85  S   UNL A   1      42.929  37.864  27.175  1.00  0.00     0.124 S 
ATOM     86  O   UNL A   1      42.583  36.717  26.343  1.00  0.00    -0.237 OA
ATOM     87  O   UNL A   1      41.860  38.399  28.011  1.00  0.00    -0.237 OA
ATOM     88  O   UNL A   1      43.777  38.868  26.535  1.00  0.00    -0.744 OA
ENDBRANCH  81  85
ENDBRANCH  54  78
BRANCH  66  89
ATOM     89  C   UNL A   1      45.916  40.126  36.433  1.00  0.00     0.023 A 
ATOM     90  C   UNL A   1      45.610  41.448  36.063  1.00  0.00     0.031 A 
ATOM     91  C   UNL A   1      47.175  39.881  37.012  1.00  0.00     0.131 A 
ATOM     92  C   UNL A   1      46.577  42.457  36.202  1.00  0.00     0.055 A 
ATOM     93  C   UNL A   1      48.102  40.903  37.221  1.00  0.00     0.041 A 
ATOM     94  F   UNL A   1      47.528  38.639  37.382  1.00  0.00    -0.206 F 
ATOM     95  C   UNL A   1      47.813  42.196  36.798  1.00  0.00     0.022 A 
BRANCH  92  96
ATOM     96  S   UNL A   1      46.247  44.083  35.469  1.00  0.00     0.124 S 
ATOM     97  O   UNL A   1      46.343  44.962  36.630  1.00  0.00    -0.237 OA
ATOM     98  O   UNL A   1      47.320  44.205  34.487  1.00  0.00    -0.237 OA
ATOM     99  O   UNL A   1      44.905  43.940  34.907  1.00  0.00    -0.744 OA
ENDBRANCH  92  96
ENDBRANCH  66  89
ENDBRANCH  40  41
ENDBRANCH  33  35
ENDBRANCH  32  33
ENDBRANCH  31  32
ENDBRANCH  30  31
ENDBRANCH  29  30
ENDBRANCH  28  29
ENDBRANCH  27  28
ENDBRANCH   1  27
TORSDOF 26
ENDMDL
