MODEL 1
REMARK VINA RESULT:     -10.2      0.000      0.000
REMARK SMILES Cc1ccc2c(c1)C=C(C(=O)OCCOCCOCCOCCOC(=O)c1ccc(-c3c4nc(c(-c5cc(S(=O)(=O)[O-])ccc5F)c5ccc([nH]5)c(-c5cc(S(=O)(=O)[O-])ccc5F)c5nc(c(-c6cc(S(=O)(=O)[O-])ccc6F)c6ccc3[nH]6)C=C5)C=C4)cc1)[C@@H](C(F)(F)F)O2
REMARK SMILES IDX 19 1 18 2 17 3 16 4 15 5 14 6 13 7 12 8 10 9 11 10 9 11 1 12
REMARK SMILES IDX 2 13 3 14 7 15 4 16 6 17 5 18 8 19 95 20 90 21 91 22 92 23
REMARK SMILES IDX 93 24 94 25 20 26 21 27 22 28 23 29 24 30 25 31 26 32 27 33
REMARK SMILES IDX 28 34 89 35 29 36 88 37 30 38 31 39 32 40 82 41 33 42 87 43
REMARK SMILES IDX 81 44 83 45 34 46 86 47 80 48 79 49 35 51 67 52 47 53 66 54
REMARK SMILES IDX 48 55 51 56 65 57 84 58 49 59 50 60 64 62 85 63 52 64 36 65
REMARK SMILES IDX 37 66 45 67 38 68 44 69 46 70 43 71 39 72 40 73 41 74 42 75
REMARK SMILES IDX 68 76 69 77 77 78 70 79 76 80 78 81 75 82 71 83 72 84 73 85
REMARK SMILES IDX 74 86 53 87 54 88 62 89 55 90 61 91 63 92 60 93 56 94 57 95
REMARK SMILES IDX 58 96 59 97
REMARK H PARENT 83 50 51 61
REMARK Flexibility Score: inf
ROOT
ATOM      1  C   UNL A   1      35.510  24.090  24.741  1.00  0.00     0.188 C 
ENDROOT
BRANCH   1   2
ATOM      2  O   UNL A   1      34.104  24.317  24.810  1.00  0.00    -0.377 OA
BRANCH   2   3
ATOM      3  C   UNL A   1      33.425  23.673  25.877  1.00  0.00     0.188 C 
BRANCH   3   4
ATOM      4  C   UNL A   1      32.106  23.027  25.424  1.00  0.00     0.188 C 
BRANCH   4   5
ATOM      5  O   UNL A   1      31.832  23.067  24.037  1.00  0.00    -0.376 OA
BRANCH   5   6
ATOM      6  C   UNL A   1      30.732  23.779  23.489  1.00  0.00     0.202 C 
BRANCH   6   7
ATOM      7  C   UNL A   1      30.360  25.258  23.732  1.00  0.00     0.261 C 
BRANCH   7   8
ATOM      8  O   UNL A   1      31.395  26.162  24.108  1.00  0.00    -0.460 OA
BRANCH   8   9
ATOM      9  C   UNL A   1      31.853  27.008  23.170  1.00  0.00     0.338 C 
ATOM     10  O   UNL A   1      32.585  26.745  22.234  1.00  0.00    -0.246 OA
BRANCH   9  11
ATOM     11  C   UNL A   1      31.161  28.300  23.370  1.00  0.00     0.087 C 
ATOM     12  C   UNL A   1      27.663  32.414  20.405  1.00  0.00     0.044 C 
ATOM     13  C   UNL A   1      28.411  31.814  21.557  1.00  0.00    -0.050 A 
ATOM     14  C   UNL A   1      28.520  32.506  22.768  1.00  0.00     0.007 A 
ATOM     15  C   UNL A   1      29.007  30.552  21.440  1.00  0.00     0.015 A 
ATOM     16  C   UNL A   1      29.213  31.946  23.844  1.00  0.00     0.047 A 
ATOM     17  C   UNL A   1      29.738  30.009  22.504  1.00  0.00     0.017 A 
ATOM     18  C   UNL A   1      29.823  30.699  23.712  1.00  0.00     0.128 A 
ATOM     19  C   UNL A   1      30.446  28.755  22.335  1.00  0.00     0.027 C 
ATOM     20  O   UNL A   1      30.488  30.235  24.809  1.00  0.00    -0.475 OA
ATOM     21  C   UNL A   1      31.218  28.979  24.718  1.00  0.00     0.316 C 
BRANCH  21  22
ATOM     22  C   UNL A   1      32.662  29.226  25.176  1.00  0.00     0.430 C 
ATOM     23  F   UNL A   1      33.486  29.433  24.120  1.00  0.00    -0.167 F 
ATOM     24  F   UNL A   1      32.761  30.316  25.971  1.00  0.00    -0.167 F 
ATOM     25  F   UNL A   1      33.151  28.173  25.871  1.00  0.00    -0.167 F 
ENDBRANCH  21  22
ENDBRANCH   9  11
ENDBRANCH   8   9
ENDBRANCH   7   8
ENDBRANCH   6   7
ENDBRANCH   5   6
ENDBRANCH   4   5
ENDBRANCH   3   4
ENDBRANCH   2   3
ENDBRANCH   1   2
BRANCH   1  26
ATOM     26  C   UNL A   1      36.019  22.941  23.846  1.00  0.00     0.188 C 
BRANCH  26  27
ATOM     27  O   UNL A   1      35.769  21.645  24.395  1.00  0.00    -0.376 OA
BRANCH  27  28
ATOM     28  C   UNL A   1      36.591  21.234  25.479  1.00  0.00     0.202 C 
BRANCH  28  29
ATOM     29  C   UNL A   1      37.781  20.352  25.075  1.00  0.00     0.261 C 
BRANCH  29  30
ATOM     30  O   UNL A   1      39.073  20.963  25.208  1.00  0.00    -0.460 OA
BRANCH  30  31
ATOM     31  C   UNL A   1      39.686  20.890  26.412  1.00  0.00     0.338 C 
ATOM     32  O   UNL A   1      40.010  19.877  27.006  1.00  0.00    -0.246 OA
BRANCH  31  33
ATOM     33  C   UNL A   1      40.082  22.263  26.788  1.00  0.00     0.060 A 
ATOM     34  C   UNL A   1      41.121  22.473  27.699  1.00  0.00     0.016 A 
ATOM     35  C   UNL A   1      39.385  23.350  26.248  1.00  0.00     0.016 A 
ATOM     36  C   UNL A   1      41.481  23.775  28.046  1.00  0.00     0.010 A 
ATOM     37  C   UNL A   1      39.747  24.655  26.596  1.00  0.00     0.010 A 
ATOM     38  C   UNL A   1      40.815  24.877  27.479  1.00  0.00    -0.014 A 
BRANCH  38  39
ATOM     39  C   UNL A   1      41.387  26.234  27.660  1.00  0.00     0.031 A 
ATOM     40  C   UNL A   1      40.682  27.310  28.424  1.00  0.00     0.074 A 
ATOM     41  C   UNL A   1      42.596  26.472  27.115  1.00  0.00     0.049 A 
ATOM     42  N   UNL A   1      41.139  28.479  28.793  1.00  0.00    -0.248 NA
ATOM     43  C   UNL A   1      39.290  27.054  28.818  1.00  0.00     0.031 C 
ATOM     44  C   UNL A   1      43.340  25.508  26.303  1.00  0.00     0.029 A 
ATOM     45  N   UNL A   1      43.415  27.569  27.169  1.00  0.00    -0.354 N 
ATOM     46  C   UNL A   1      40.104  29.094  29.486  1.00  0.00     0.074 A 
ATOM     47  C   UNL A   1      38.975  28.187  29.437  1.00  0.00     0.031 C 
ATOM     48  C   UNL A   1      44.522  26.042  25.967  1.00  0.00     0.029 A 
ATOM     49  C   UNL A   1      44.613  27.391  26.517  1.00  0.00     0.049 A 
ATOM     50  H   UNL A   1      43.170  28.403  27.630  1.00  0.00     0.167 HD
ATOM     51  C   UNL A   1      40.113  30.294  30.119  1.00  0.00     0.034 A 
ATOM     52  C   UNL A   1      45.678  28.210  26.391  1.00  0.00     0.034 A 
ATOM     53  C   UNL A   1      41.248  31.188  30.133  1.00  0.00     0.049 A 
ATOM     54  C   UNL A   1      45.665  29.532  27.110  1.00  0.00     0.074 A 
ATOM     55  C   UNL A   1      41.369  32.405  30.784  1.00  0.00     0.029 A 
ATOM     56  N   UNL A   1      42.448  30.977  29.468  1.00  0.00    -0.354 N 
ATOM     57  N   UNL A   1      44.727  30.048  27.870  1.00  0.00    -0.248 NA
ATOM     58  C   UNL A   1      46.863  30.373  26.987  1.00  0.00     0.031 C 
ATOM     59  C   UNL A   1      42.605  32.960  30.453  1.00  0.00     0.029 A 
ATOM     60  C   UNL A   1      43.301  32.052  29.670  1.00  0.00     0.049 A 
ATOM     61  H   UNL A   1      42.663  30.180  28.931  1.00  0.00     0.167 HD
ATOM     62  C   UNL A   1      45.236  31.255  28.343  1.00  0.00     0.074 A 
ATOM     63  C   UNL A   1      46.573  31.380  27.802  1.00  0.00     0.031 C 
ATOM     64  C   UNL A   1      44.643  32.171  29.151  1.00  0.00     0.034 A 
BRANCH  51  65
ATOM     65  C   UNL A   1      38.883  30.723  30.887  1.00  0.00     0.023 A 
ATOM     66  C   UNL A   1      37.818  31.361  30.223  1.00  0.00     0.031 A 
ATOM     67  C   UNL A   1      38.843  30.654  32.291  1.00  0.00     0.131 A 
ATOM     68  C   UNL A   1      36.780  31.942  30.965  1.00  0.00     0.055 A 
ATOM     69  C   UNL A   1      37.786  31.195  33.023  1.00  0.00     0.041 A 
ATOM     70  F   UNL A   1      39.838  30.065  32.974  1.00  0.00    -0.206 F 
ATOM     71  C   UNL A   1      36.756  31.857  32.361  1.00  0.00     0.022 A 
BRANCH  68  72
ATOM     72  S   UNL A   1      35.469  32.901  30.158  1.00  0.00     0.124 S 
ATOM     73  O   UNL A   1      36.031  34.250  30.175  1.00  0.00    -0.237 OA
ATOM     74  O   UNL A   1      35.395  32.272  28.842  1.00  0.00    -0.237 OA
ATOM     75  O   UNL A   1      34.308  32.702  31.019  1.00  0.00    -0.744 OA
ENDBRANCH  68  72
ENDBRANCH  51  65
BRANCH  52  76
ATOM     76  C   UNL A   1      46.867  27.730  25.631  1.00  0.00     0.023 A 
ATOM     77  C   UNL A   1      47.077  28.124  24.296  1.00  0.00     0.031 A 
ATOM     78  C   UNL A   1      47.737  26.773  26.182  1.00  0.00     0.131 A 
ATOM     79  C   UNL A   1      48.085  27.512  23.540  1.00  0.00     0.055 A 
ATOM     80  C   UNL A   1      48.788  26.223  25.447  1.00  0.00     0.041 A 
ATOM     81  F   UNL A   1      47.564  26.349  27.443  1.00  0.00    -0.206 F 
ATOM     82  C   UNL A   1      48.953  26.578  24.112  1.00  0.00     0.022 A 
BRANCH  79  83
ATOM     83  S   UNL A   1      48.204  27.797  21.751  1.00  0.00     0.124 S 
ATOM     84  O   UNL A   1      49.315  28.739  21.668  1.00  0.00    -0.237 OA
ATOM     85  O   UNL A   1      48.480  26.451  21.254  1.00  0.00    -0.237 OA
ATOM     86  O   UNL A   1      46.894  28.332  21.399  1.00  0.00    -0.744 OA
ENDBRANCH  79  83
ENDBRANCH  52  76
BRANCH  64  87
ATOM     87  C   UNL A   1      45.425  33.407  29.542  1.00  0.00     0.023 A 
ATOM     88  C   UNL A   1      45.510  34.493  28.648  1.00  0.00     0.031 A 
ATOM     89  C   UNL A   1      46.195  33.456  30.717  1.00  0.00     0.131 A 
ATOM     90  C   UNL A   1      46.371  35.562  28.925  1.00  0.00     0.055 A 
ATOM     91  C   UNL A   1      47.011  34.550  31.014  1.00  0.00     0.041 A 
ATOM     92  F   UNL A   1      46.166  32.441  31.595  1.00  0.00    -0.206 F 
ATOM     93  C   UNL A   1      47.114  35.602  30.109  1.00  0.00     0.022 A 
BRANCH  90  94
ATOM     94  S   UNL A   1      46.635  36.891  27.718  1.00  0.00     0.124 S 
ATOM     95  O   UNL A   1      46.177  36.267  26.479  1.00  0.00    -0.237 OA
ATOM     96  O   UNL A   1      45.775  37.953  28.235  1.00  0.00    -0.237 OA
ATOM     97  O   UNL A   1      48.067  37.155  27.789  1.00  0.00    -0.744 OA
ENDBRANCH  90  94
ENDBRANCH  64  87
ENDBRANCH  38  39
ENDBRANCH  31  33
ENDBRANCH  30  31
ENDBRANCH  29  30
ENDBRANCH  28  29
ENDBRANCH  27  28
ENDBRANCH  26  27
ENDBRANCH   1  26
TORSDOF 24
ENDMDL
MODEL 2
REMARK VINA RESULT:     -10.1      5.355      9.191
REMARK SMILES Cc1ccc2c(c1)C=C(C(=O)OCCOCCOCCOCCOC(=O)c1ccc(-c3c4nc(c(-c5cc(S(=O)(=O)[O-])ccc5F)c5ccc([nH]5)c(-c5cc(S(=O)(=O)[O-])ccc5F)c5nc(c(-c6cc(S(=O)(=O)[O-])ccc6F)c6ccc3[nH]6)C=C5)C=C4)cc1)[C@@H](C(F)(F)F)O2
REMARK SMILES IDX 19 1 18 2 17 3 16 4 15 5 14 6 13 7 12 8 10 9 11 10 9 11 1 12
REMARK SMILES IDX 2 13 3 14 7 15 4 16 6 17 5 18 8 19 95 20 90 21 91 22 92 23
REMARK SMILES IDX 93 24 94 25 20 26 21 27 22 28 23 29 24 30 25 31 26 32 27 33
REMARK SMILES IDX 28 34 89 35 29 36 88 37 30 38 31 39 32 40 82 41 33 42 87 43
REMARK SMILES IDX 81 44 83 45 34 46 86 47 80 48 79 49 35 51 67 52 47 53 66 54
REMARK SMILES IDX 48 55 51 56 65 57 84 58 49 59 50 60 64 62 85 63 52 64 36 65
REMARK SMILES IDX 37 66 45 67 38 68 44 69 46 70 43 71 39 72 40 73 41 74 42 75
REMARK SMILES IDX 68 76 69 77 77 78 70 79 76 80 78 81 75 82 71 83 72 84 73 85
REMARK SMILES IDX 74 86 53 87 54 88 62 89 55 90 61 91 63 92 60 93 56 94 57 95
REMARK SMILES IDX 58 96 59 97
REMARK H PARENT 83 50 51 61
REMARK Flexibility Score: inf
ROOT
ATOM      1  C   UNL A   1      33.403  28.620  25.652  1.00  0.00     0.188 C 
ENDROOT
BRANCH   1   2
ATOM      2  O   UNL A   1      33.331  28.779  24.237  1.00  0.00    -0.377 OA
BRANCH   2   3
ATOM      3  C   UNL A   1      32.027  28.750  23.678  1.00  0.00     0.188 C 
BRANCH   3   4
ATOM      4  C   UNL A   1      30.987  28.177  24.654  1.00  0.00     0.188 C 
BRANCH   4   5
ATOM      5  O   UNL A   1      30.440  26.916  24.320  1.00  0.00    -0.376 OA
BRANCH   5   6
ATOM      6  C   UNL A   1      30.763  26.228  23.120  1.00  0.00     0.202 C 
BRANCH   6   7
ATOM      7  C   UNL A   1      31.630  24.960  22.974  1.00  0.00     0.261 C 
BRANCH   7   8
ATOM      8  O   UNL A   1      32.350  24.498  24.114  1.00  0.00    -0.460 OA
BRANCH   8   9
ATOM      9  C   UNL A   1      31.831  23.468  24.802  1.00  0.00     0.338 C 
ATOM     10  O   UNL A   1      30.697  23.365  25.233  1.00  0.00    -0.246 OA
BRANCH   9  11
ATOM     11  C   UNL A   1      32.837  22.384  24.794  1.00  0.00     0.087 C 
ATOM     12  C   UNL A   1      33.404  16.327  23.819  1.00  0.00     0.044 C 
ATOM     13  C   UNL A   1      33.853  17.723  24.133  1.00  0.00    -0.050 A 
ATOM     14  C   UNL A   1      35.182  17.974  24.492  1.00  0.00     0.007 A 
ATOM     15  C   UNL A   1      32.953  18.793  24.066  1.00  0.00     0.015 A 
ATOM     16  C   UNL A   1      35.602  19.275  24.780  1.00  0.00     0.047 A 
ATOM     17  C   UNL A   1      33.364  20.090  24.397  1.00  0.00     0.017 A 
ATOM     18  C   UNL A   1      34.695  20.333  24.734  1.00  0.00     0.128 A 
ATOM     19  C   UNL A   1      32.399  21.172  24.435  1.00  0.00     0.027 C 
ATOM     20  O   UNL A   1      35.190  21.566  25.042  1.00  0.00    -0.475 OA
ATOM     21  C   UNL A   1      34.282  22.702  25.094  1.00  0.00     0.316 C 
BRANCH  21  22
ATOM     22  C   UNL A   1      34.448  23.388  26.458  1.00  0.00     0.430 C 
ATOM     23  F   UNL A   1      33.802  22.708  27.435  1.00  0.00    -0.167 F 
ATOM     24  F   UNL A   1      35.746  23.470  26.829  1.00  0.00    -0.167 F 
ATOM     25  F   UNL A   1      33.952  24.647  26.445  1.00  0.00    -0.167 F 
ENDBRANCH  21  22
ENDBRANCH   9  11
ENDBRANCH   8   9
ENDBRANCH   7   8
ENDBRANCH   6   7
ENDBRANCH   5   6
ENDBRANCH   4   5
ENDBRANCH   3   4
ENDBRANCH   2   3
ENDBRANCH   1   2
BRANCH   1  26
ATOM     26  C   UNL A   1      33.667  29.872  26.513  1.00  0.00     0.188 C 
BRANCH  26  27
ATOM     27  O   UNL A   1      32.513  30.317  27.230  1.00  0.00    -0.376 OA
BRANCH  27  28
ATOM     28  C   UNL A   1      31.678  31.269  26.583  1.00  0.00     0.202 C 
BRANCH  28  29
ATOM     29  C   UNL A   1      31.752  32.683  27.173  1.00  0.00     0.261 C 
BRANCH  29  30
ATOM     30  O   UNL A   1      33.076  33.208  27.351  1.00  0.00    -0.460 OA
BRANCH  30  31
ATOM     31  C   UNL A   1      33.288  34.052  28.386  1.00  0.00     0.338 C 
ATOM     32  O   UNL A   1      32.534  34.923  28.785  1.00  0.00    -0.246 OA
BRANCH  31  33
ATOM     33  C   UNL A   1      34.509  33.598  29.082  1.00  0.00     0.060 A 
ATOM     34  C   UNL A   1      34.453  32.531  29.983  1.00  0.00     0.016 A 
ATOM     35  C   UNL A   1      35.718  34.268  28.856  1.00  0.00     0.016 A 
ATOM     36  C   UNL A   1      35.614  32.116  30.634  1.00  0.00     0.010 A 
ATOM     37  C   UNL A   1      36.881  33.851  29.508  1.00  0.00     0.010 A 
ATOM     38  C   UNL A   1      36.842  32.755  30.384  1.00  0.00    -0.014 A 
BRANCH  38  39
ATOM     39  C   UNL A   1      38.092  32.130  30.881  1.00  0.00     0.031 A 
ATOM     40  C   UNL A   1      38.710  32.498  32.194  1.00  0.00     0.074 A 
ATOM     41  C   UNL A   1      38.663  31.188  30.105  1.00  0.00     0.049 A 
ATOM     42  N   UNL A   1      39.703  31.918  32.817  1.00  0.00    -0.248 NA
ATOM     43  C   UNL A   1      38.157  33.665  32.894  1.00  0.00     0.031 C 
ATOM     44  C   UNL A   1      38.171  30.798  28.783  1.00  0.00     0.029 A 
ATOM     45  N   UNL A   1      39.753  30.382  30.310  1.00  0.00    -0.354 N 
ATOM     46  C   UNL A   1      39.883  32.628  33.997  1.00  0.00     0.074 A 
ATOM     47  C   UNL A   1      38.929  33.719  33.974  1.00  0.00     0.031 C 
ATOM     48  C   UNL A   1      38.933  29.801  28.311  1.00  0.00     0.029 A 
ATOM     49  C   UNL A   1      39.980  29.496  29.283  1.00  0.00     0.049 A 
ATOM     50  H   UNL A   1      40.318  30.432  31.114  1.00  0.00     0.167 HD
ATOM     51  C   UNL A   1      40.751  32.373  35.008  1.00  0.00     0.034 A 
ATOM     52  C   UNL A   1      40.910  28.530  29.142  1.00  0.00     0.034 A 
ATOM     53  C   UNL A   1      41.708  31.290  34.994  1.00  0.00     0.049 A 
ATOM     54  C   UNL A   1      41.856  28.261  30.282  1.00  0.00     0.074 A 
ATOM     55  C   UNL A   1      42.598  30.923  35.989  1.00  0.00     0.029 A 
ATOM     56  N   UNL A   1      41.909  30.407  33.941  1.00  0.00    -0.354 N 
ATOM     57  N   UNL A   1      41.932  28.860  31.448  1.00  0.00    -0.248 NA
ATOM     58  C   UNL A   1      42.822  27.169  30.108  1.00  0.00     0.031 C 
ATOM     59  C   UNL A   1      43.384  29.874  35.512  1.00  0.00     0.029 A 
ATOM     60  C   UNL A   1      42.927  29.518  34.253  1.00  0.00     0.049 A 
ATOM     61  H   UNL A   1      41.403  30.411  33.096  1.00  0.00     0.167 HD
ATOM     62  C   UNL A   1      42.926  28.194  32.158  1.00  0.00     0.074 A 
ATOM     63  C   UNL A   1      43.407  27.133  31.298  1.00  0.00     0.031 C 
ATOM     64  C   UNL A   1      43.395  28.444  33.407  1.00  0.00     0.034 A 
BRANCH  51  65
ATOM     65  C   UNL A   1      40.708  33.243  36.244  1.00  0.00     0.023 A 
ATOM     66  C   UNL A   1      39.927  32.865  37.353  1.00  0.00     0.031 A 
ATOM     67  C   UNL A   1      41.303  34.518  36.255  1.00  0.00     0.131 A 
ATOM     68  C   UNL A   1      39.725  33.769  38.405  1.00  0.00     0.055 A 
ATOM     69  C   UNL A   1      41.135  35.397  37.325  1.00  0.00     0.041 A 
ATOM     70  F   UNL A   1      42.050  34.931  35.218  1.00  0.00    -0.206 F 
ATOM     71  C   UNL A   1      40.330  35.030  38.399  1.00  0.00     0.022 A 
BRANCH  68  72
ATOM     72  S   UNL A   1      38.606  33.380  39.778  1.00  0.00     0.124 S 
ATOM     73  O   UNL A   1      39.232  32.187  40.345  1.00  0.00    -0.237 OA
ATOM     74  O   UNL A   1      38.699  34.584  40.600  1.00  0.00    -0.237 OA
ATOM     75  O   UNL A   1      37.319  33.156  39.129  1.00  0.00    -0.744 OA
ENDBRANCH  68  72
ENDBRANCH  51  65
BRANCH  52  76
ATOM     76  C   UNL A   1      40.898  27.696  27.905  1.00  0.00     0.023 A 
ATOM     77  C   UNL A   1      40.108  26.534  27.827  1.00  0.00     0.031 A 
ATOM     78  C   UNL A   1      41.769  27.976  26.839  1.00  0.00     0.131 A 
ATOM     79  C   UNL A   1      40.258  25.662  26.741  1.00  0.00     0.055 A 
ATOM     80  C   UNL A   1      41.859  27.143  25.722  1.00  0.00     0.041 A 
ATOM     81  F   UNL A   1      42.560  29.060  26.878  1.00  0.00    -0.206 F 
ATOM     82  C   UNL A   1      41.114  25.968  25.680  1.00  0.00     0.022 A 
BRANCH  79  83
ATOM     83  S   UNL A   1      39.460  24.032  26.744  1.00  0.00     0.124 S 
ATOM     84  O   UNL A   1      38.592  24.117  25.574  1.00  0.00    -0.237 OA
ATOM     85  O   UNL A   1      40.609  23.139  26.614  1.00  0.00    -0.237 OA
ATOM     86  O   UNL A   1      38.779  23.983  28.034  1.00  0.00    -0.744 OA
ENDBRANCH  79  83
ENDBRANCH  52  76
BRANCH  64  87
ATOM     87  C   UNL A   1      44.481  27.551  33.967  1.00  0.00     0.023 A 
ATOM     88  C   UNL A   1      44.132  26.434  34.753  1.00  0.00     0.031 A 
ATOM     89  C   UNL A   1      45.843  27.877  33.850  1.00  0.00     0.131 A 
ATOM     90  C   UNL A   1      45.128  25.708  35.419  1.00  0.00     0.055 A 
ATOM     91  C   UNL A   1      46.835  27.116  34.472  1.00  0.00     0.041 A 
ATOM     92  F   UNL A   1      46.231  28.940  33.128  1.00  0.00    -0.206 F 
ATOM     93  C   UNL A   1      46.479  26.036  35.273  1.00  0.00     0.022 A 
BRANCH  90  94
ATOM     94  S   UNL A   1      44.702  24.374  36.573  1.00  0.00     0.124 S 
ATOM     95  O   UNL A   1      43.568  24.950  37.293  1.00  0.00    -0.237 OA
ATOM     96  O   UNL A   1      44.372  23.276  35.668  1.00  0.00    -0.237 OA
ATOM     97  O   UNL A   1      45.913  24.192  37.365  1.00  0.00    -0.744 OA
ENDBRANCH  90  94
ENDBRANCH  64  87
ENDBRANCH  38  39
ENDBRANCH  31  33
ENDBRANCH  30  31
ENDBRANCH  29  30
ENDBRANCH  28  29
ENDBRANCH  27  28
ENDBRANCH  26  27
ENDBRANCH   1  26
TORSDOF 24
ENDMDL
MODEL 3
REMARK VINA RESULT:      -9.8      4.576     10.382
REMARK SMILES Cc1ccc2c(c1)C=C(C(=O)OCCOCCOCCOCCOC(=O)c1ccc(-c3c4nc(c(-c5cc(S(=O)(=O)[O-])ccc5F)c5ccc([nH]5)c(-c5cc(S(=O)(=O)[O-])ccc5F)c5nc(c(-c6cc(S(=O)(=O)[O-])ccc6F)c6ccc3[nH]6)C=C5)C=C4)cc1)[C@@H](C(F)(F)F)O2
REMARK SMILES IDX 19 1 18 2 17 3 16 4 15 5 14 6 13 7 12 8 10 9 11 10 9 11 1 12
REMARK SMILES IDX 2 13 3 14 7 15 4 16 6 17 5 18 8 19 95 20 90 21 91 22 92 23
REMARK SMILES IDX 93 24 94 25 20 26 21 27 22 28 23 29 24 30 25 31 26 32 27 33
REMARK SMILES IDX 28 34 89 35 29 36 88 37 30 38 31 39 32 40 82 41 33 42 87 43
REMARK SMILES IDX 81 44 83 45 34 46 86 47 80 48 79 49 35 51 67 52 47 53 66 54
REMARK SMILES IDX 48 55 51 56 65 57 84 58 49 59 50 60 64 62 85 63 52 64 36 65
REMARK SMILES IDX 37 66 45 67 38 68 44 69 46 70 43 71 39 72 40 73 41 74 42 75
REMARK SMILES IDX 68 76 69 77 77 78 70 79 76 80 78 81 75 82 71 83 72 84 73 85
REMARK SMILES IDX 74 86 53 87 54 88 62 89 55 90 61 91 63 92 60 93 56 94 57 95
REMARK SMILES IDX 58 96 59 97
REMARK H PARENT 83 50 51 61
REMARK Flexibility Score: inf
ROOT
ATOM      1  C   UNL A   1      33.296  28.197  25.087  1.00  0.00     0.188 C 
ENDROOT
BRANCH   1   2
ATOM      2  O   UNL A   1      33.597  27.722  23.776  1.00  0.00    -0.377 OA
BRANCH   2   3
ATOM      3  C   UNL A   1      32.506  27.170  23.054  1.00  0.00     0.188 C 
BRANCH   3   4
ATOM      4  C   UNL A   1      31.148  27.649  23.593  1.00  0.00     0.188 C 
BRANCH   4   5
ATOM      5  O   UNL A   1      30.413  26.717  24.362  1.00  0.00    -0.376 OA
BRANCH   5   6
ATOM      6  C   UNL A   1      29.790  25.572  23.798  1.00  0.00     0.202 C 
BRANCH   6   7
ATOM      7  C   UNL A   1      30.472  24.261  23.350  1.00  0.00     0.261 C 
BRANCH   7   8
ATOM      8  O   UNL A   1      31.691  23.882  23.985  1.00  0.00    -0.460 OA
BRANCH   8   9
ATOM      9  C   UNL A   1      31.605  23.133  25.097  1.00  0.00     0.338 C 
ATOM     10  O   UNL A   1      30.765  23.209  25.975  1.00  0.00    -0.246 OA
BRANCH   9  11
ATOM     11  C   UNL A   1      32.619  22.063  24.983  1.00  0.00     0.087 C 
ATOM     12  C   UNL A   1      33.152  15.940  24.557  1.00  0.00     0.044 C 
ATOM     13  C   UNL A   1      33.615  17.365  24.615  1.00  0.00    -0.050 A 
ATOM     14  C   UNL A   1      34.981  17.665  24.644  1.00  0.00     0.007 A 
ATOM     15  C   UNL A   1      32.688  18.414  24.634  1.00  0.00     0.015 A 
ATOM     16  C   UNL A   1      35.412  18.993  24.693  1.00  0.00     0.047 A 
ATOM     17  C   UNL A   1      33.119  19.743  24.727  1.00  0.00     0.017 A 
ATOM     18  C   UNL A   1      34.483  20.032  24.735  1.00  0.00     0.128 A 
ATOM     19  C   UNL A   1      32.152  20.815  24.861  1.00  0.00     0.027 C 
ATOM     20  O   UNL A   1      34.994  21.295  24.794  1.00  0.00    -0.475 OA
ATOM     21  C   UNL A   1      34.084  22.423  24.923  1.00  0.00     0.316 C 
BRANCH  21  22
ATOM     22  C   UNL A   1      34.521  23.257  26.136  1.00  0.00     0.430 C 
ATOM     23  F   UNL A   1      35.711  22.833  26.624  1.00  0.00    -0.167 F 
ATOM     24  F   UNL A   1      34.667  24.566  25.825  1.00  0.00    -0.167 F 
ATOM     25  F   UNL A   1      33.619  23.180  27.143  1.00  0.00    -0.167 F 
ENDBRANCH  21  22
ENDBRANCH   9  11
ENDBRANCH   8   9
ENDBRANCH   7   8
ENDBRANCH   6   7
ENDBRANCH   5   6
ENDBRANCH   4   5
ENDBRANCH   3   4
ENDBRANCH   2   3
ENDBRANCH   1   2
BRANCH   1  26
ATOM     26  C   UNL A   1      33.033  29.705  25.273  1.00  0.00     0.188 C 
BRANCH  26  27
ATOM     27  O   UNL A   1      31.984  29.984  26.202  1.00  0.00    -0.376 OA
BRANCH  27  28
ATOM     28  C   UNL A   1      31.137  31.087  25.906  1.00  0.00     0.202 C 
BRANCH  28  29
ATOM     29  C   UNL A   1      31.352  32.312  26.806  1.00  0.00     0.261 C 
BRANCH  29  30
ATOM     30  O   UNL A   1      32.633  32.947  26.684  1.00  0.00    -0.460 OA
BRANCH  30  31
ATOM     31  C   UNL A   1      33.108  33.624  27.755  1.00  0.00     0.338 C 
ATOM     32  O   UNL A   1      32.567  34.551  28.332  1.00  0.00    -0.246 OA
BRANCH  31  33
ATOM     33  C   UNL A   1      34.307  32.905  28.234  1.00  0.00     0.060 A 
ATOM     34  C   UNL A   1      35.497  33.597  28.471  1.00  0.00     0.016 A 
ATOM     35  C   UNL A   1      34.248  31.518  28.417  1.00  0.00     0.016 A 
ATOM     36  C   UNL A   1      36.620  32.904  28.921  1.00  0.00     0.010 A 
ATOM     37  C   UNL A   1      35.374  30.823  28.869  1.00  0.00     0.010 A 
ATOM     38  C   UNL A   1      36.562  31.516  29.147  1.00  0.00    -0.014 A 
BRANCH  38  39
ATOM     39  C   UNL A   1      37.678  30.858  29.869  1.00  0.00     0.031 A 
ATOM     40  C   UNL A   1      38.561  29.834  29.226  1.00  0.00     0.074 A 
ATOM     41  C   UNL A   1      37.890  31.227  31.148  1.00  0.00     0.049 A 
ATOM     42  N   UNL A   1      39.664  29.305  29.690  1.00  0.00    -0.248 NA
ATOM     43  C   UNL A   1      38.158  29.332  27.907  1.00  0.00     0.031 C 
ATOM     44  C   UNL A   1      37.050  32.174  31.884  1.00  0.00     0.029 A 
ATOM     45  N   UNL A   1      38.866  30.876  32.044  1.00  0.00    -0.354 N 
ATOM     46  C   UNL A   1      40.107  28.424  28.711  1.00  0.00     0.074 A 
ATOM     47  C   UNL A   1      39.119  28.450  27.652  1.00  0.00     0.031 C 
ATOM     48  C   UNL A   1      37.569  32.358  33.105  1.00  0.00     0.029 A 
ATOM     49  C   UNL A   1      38.762  31.527  33.251  1.00  0.00     0.049 A 
ATOM     50  H   UNL A   1      39.572  30.221  31.843  1.00  0.00     0.167 HD
ATOM     51  C   UNL A   1      41.243  27.684  28.699  1.00  0.00     0.034 A 
ATOM     52  C   UNL A   1      39.547  31.483  34.347  1.00  0.00     0.034 A 
ATOM     53  C   UNL A   1      42.201  27.660  29.781  1.00  0.00     0.049 A 
ATOM     54  C   UNL A   1      40.806  30.660  34.303  1.00  0.00     0.074 A 
ATOM     55  C   UNL A   1      43.403  26.977  29.844  1.00  0.00     0.029 A 
ATOM     56  N   UNL A   1      42.069  28.335  30.987  1.00  0.00    -0.354 N 
ATOM     57  N   UNL A   1      41.280  29.929  33.321  1.00  0.00    -0.248 NA
ATOM     58  C   UNL A   1      41.658  30.677  35.500  1.00  0.00     0.031 C 
ATOM     59  C   UNL A   1      43.959  27.177  31.107  1.00  0.00     0.029 A 
ATOM     60  C   UNL A   1      43.154  28.061  31.807  1.00  0.00     0.049 A 
ATOM     61  H   UNL A   1      41.316  28.923  31.226  1.00  0.00     0.167 HD
ATOM     62  C   UNL A   1      42.501  29.430  33.767  1.00  0.00     0.074 A 
ATOM     63  C   UNL A   1      42.702  29.961  35.100  1.00  0.00     0.031 C 
ATOM     64  C   UNL A   1      43.369  28.606  33.128  1.00  0.00     0.034 A 
BRANCH  51  65
ATOM     65  C   UNL A   1      41.560  26.852  27.477  1.00  0.00     0.023 A 
ATOM     66  C   UNL A   1      41.291  25.470  27.468  1.00  0.00     0.031 A 
ATOM     67  C   UNL A   1      42.277  27.394  26.395  1.00  0.00     0.131 A 
ATOM     68  C   UNL A   1      41.775  24.671  26.423  1.00  0.00     0.055 A 
ATOM     69  C   UNL A   1      42.719  26.602  25.335  1.00  0.00     0.041 A 
ATOM     70  F   UNL A   1      42.568  28.705  26.359  1.00  0.00    -0.206 F 
ATOM     71  C   UNL A   1      42.482  25.231  25.354  1.00  0.00     0.022 A 
BRANCH  68  72
ATOM     72  S   UNL A   1      41.581  22.867  26.450  1.00  0.00     0.124 S 
ATOM     73  O   UNL A   1      40.142  22.718  26.243  1.00  0.00    -0.237 OA
ATOM     74  O   UNL A   1      42.419  22.452  25.328  1.00  0.00    -0.237 OA
ATOM     75  O   UNL A   1      42.061  22.482  27.773  1.00  0.00    -0.744 OA
ENDBRANCH  68  72
ENDBRANCH  51  65
BRANCH  52  76
ATOM     76  C   UNL A   1      39.191  32.332  35.520  1.00  0.00     0.023 A 
ATOM     77  C   UNL A   1      39.652  33.659  35.615  1.00  0.00     0.031 A 
ATOM     78  C   UNL A   1      38.498  31.792  36.617  1.00  0.00     0.131 A 
ATOM     79  C   UNL A   1      39.474  34.373  36.807  1.00  0.00     0.055 A 
ATOM     80  C   UNL A   1      38.256  32.534  37.774  1.00  0.00     0.041 A 
ATOM     81  F   UNL A   1      38.060  30.524  36.582  1.00  0.00    -0.206 F 
ATOM     82  C   UNL A   1      38.763  33.826  37.879  1.00  0.00     0.022 A 
BRANCH  79  83
ATOM     83  S   UNL A   1      40.288  35.975  37.058  1.00  0.00     0.124 S 
ATOM     84  O   UNL A   1      39.721  36.776  35.978  1.00  0.00    -0.237 OA
ATOM     85  O   UNL A   1      39.844  36.326  38.405  1.00  0.00    -0.237 OA
ATOM     86  O   UNL A   1      41.708  35.664  36.935  1.00  0.00    -0.744 OA
ENDBRANCH  79  83
ENDBRANCH  52  76
BRANCH  64  87
ATOM     87  C   UNL A   1      44.654  28.220  33.830  1.00  0.00     0.023 A 
ATOM     88  C   UNL A   1      45.822  28.981  33.621  1.00  0.00     0.031 A 
ATOM     89  C   UNL A   1      44.762  27.037  34.580  1.00  0.00     0.131 A 
ATOM     90  C   UNL A   1      47.049  28.532  34.123  1.00  0.00     0.055 A 
ATOM     91  C   UNL A   1      45.979  26.622  35.125  1.00  0.00     0.041 A 
ATOM     92  F   UNL A   1      43.686  26.264  34.797  1.00  0.00    -0.206 F 
ATOM     93  C   UNL A   1      47.133  27.362  34.884  1.00  0.00     0.022 A 
BRANCH  90  94
ATOM     94  S   UNL A   1      48.596  29.393  33.726  1.00  0.00     0.124 S 
ATOM     95  O   UNL A   1      48.574  29.394  32.265  1.00  0.00    -0.237 OA
ATOM     96  O   UNL A   1      48.393  30.697  34.352  1.00  0.00    -0.237 OA
ATOM     97  O   UNL A   1      49.630  28.562  34.332  1.00  0.00    -0.744 OA
ENDBRANCH  90  94
ENDBRANCH  64  87
ENDBRANCH  38  39
ENDBRANCH  31  33
ENDBRANCH  30  31
ENDBRANCH  29  30
ENDBRANCH  28  29
ENDBRANCH  27  28
ENDBRANCH  26  27
ENDBRANCH   1  26
TORSDOF 24
ENDMDL
