MODEL 1
REMARK VINA RESULT:     -10.4      0.000      0.000
REMARK SMILES O=C(C[C@H](c1ccc(C2CC2)cc1)[NH+]1CCOCC1)OCCOCCOCCOCCOC(=O)c1ccc(-c2c3nc(c(-c4cc(S(=O)(=O)[O-])ccc4F)c4ccc([nH]4)c(-c4cc(S(=O)(=O)[O-])ccc4F)c4nc(c(-c5cc(S(=O)(=O)[O-])ccc5F)c5ccc2[nH]5)C=C4)C=C3)cc1
REMARK SMILES IDX 26 1 25 2 24 3 23 4 22 5 21 6 20 7 2 8 1 9 3 10 4 11 14 12
REMARK SMILES IDX 15 13 19 14 16 16 18 17 17 18 5 19 6 20 13 21 7 22 12 23
REMARK SMILES IDX 8 24 9 25 10 26 11 27 27 28 28 29 29 30 30 31 31 32 32 33
REMARK SMILES IDX 33 34 34 35 35 36 36 37 97 38 37 39 96 40 38 41 39 42 40 43
REMARK SMILES IDX 90 44 41 45 95 46 89 47 91 48 42 49 94 50 88 51 87 52 43 54
REMARK SMILES IDX 75 55 55 56 74 57 56 58 59 59 73 60 92 61 57 62 58 63 72 65
REMARK SMILES IDX 93 66 60 67 44 68 45 69 53 70 46 71 52 72 54 73 51 74 47 75
REMARK SMILES IDX 48 76 49 77 50 78 76 79 77 80 85 81 78 82 84 83 86 84 83 85
REMARK SMILES IDX 79 86 80 87 81 88 82 89 61 90 62 91 70 92 63 93 69 94 71 95
REMARK SMILES IDX 68 96 64 97 65 98 66 99 67 100
REMARK H PARENT 14 15 91 53 59 64
REMARK Flexibility Score: inf
ROOT
ATOM      1  O   UNL A   1      31.813  22.931  27.629  1.00  0.00    -0.377 OA
ENDROOT
BRANCH   1   2
ATOM      2  C   UNL A   1      31.031  22.402  26.574  1.00  0.00     0.188 C 
BRANCH   2   3
ATOM      3  C   UNL A   1      31.079  22.952  25.143  1.00  0.00     0.188 C 
BRANCH   3   4
ATOM      4  O   UNL A   1      31.934  22.348  24.191  1.00  0.00    -0.376 OA
BRANCH   4   5
ATOM      5  C   UNL A   1      32.027  22.783  22.846  1.00  0.00     0.202 C 
BRANCH   5   6
ATOM      6  C   UNL A   1      33.370  23.116  22.226  1.00  0.00     0.261 C 
BRANCH   6   7
ATOM      7  O   UNL A   1      33.816  24.492  22.178  1.00  0.00    -0.463 OA
BRANCH   7   8
ATOM      8  C   UNL A   1      33.326  25.531  21.468  1.00  0.00     0.312 C 
ATOM      9  O   UNL A   1      32.854  25.328  20.350  1.00  0.00    -0.252 OA
BRANCH   8  10
ATOM     10  C   UNL A   1      33.336  26.918  22.068  1.00  0.00     0.192 C 
BRANCH  10  11
ATOM     11  C   UNL A   1      32.510  26.964  23.361  1.00  0.00     0.226 C 
BRANCH  11  12
ATOM     12  N   UNL A   1      33.314  27.446  24.517  1.00  0.00    -0.324 N 
ATOM     13  C   UNL A   1      34.346  26.452  24.940  1.00  0.00     0.291 C 
ATOM     14  C   UNL A   1      32.491  27.707  25.726  1.00  0.00     0.291 C 
ATOM     15  H   UNL A   1      33.740  28.309  24.179  1.00  0.00     0.348 HD
ATOM     16  C   UNL A   1      33.779  25.198  25.649  1.00  0.00     0.221 C 
ATOM     17  C   UNL A   1      31.894  26.435  26.342  1.00  0.00     0.221 C 
ATOM     18  O   UNL A   1      32.938  25.545  26.755  1.00  0.00    -0.370 OA
ENDBRANCH  11  12
BRANCH  11  19
ATOM     19  C   UNL A   1      31.291  27.817  23.027  1.00  0.00     0.010 A 
ATOM     20  C   UNL A   1      29.996  27.387  23.336  1.00  0.00     0.010 A 
ATOM     21  C   UNL A   1      31.485  29.125  22.572  1.00  0.00     0.010 A 
ATOM     22  C   UNL A   1      28.920  28.259  23.196  1.00  0.00     0.004 A 
ATOM     23  C   UNL A   1      30.403  29.990  22.445  1.00  0.00     0.004 A 
ATOM     24  C   UNL A   1      29.096  29.576  22.741  1.00  0.00    -0.045 A 
BRANCH  24  25
ATOM     25  C   UNL A   1      27.890  30.463  22.551  1.00  0.00     0.019 C 
ATOM     26  C   UNL A   1      27.137  31.123  23.678  1.00  0.00     0.009 C 
ATOM     27  C   UNL A   1      28.087  31.932  22.847  1.00  0.00     0.009 C 
ENDBRANCH  24  25
ENDBRANCH  11  19
ENDBRANCH  10  11
ENDBRANCH   8  10
ENDBRANCH   7   8
ENDBRANCH   6   7
ENDBRANCH   5   6
ENDBRANCH   4   5
ENDBRANCH   3   4
ENDBRANCH   2   3
ENDBRANCH   1   2
BRANCH   1  28
ATOM     28  C   UNL A   1      33.002  22.256  27.995  1.00  0.00     0.188 C 
BRANCH  28  29
ATOM     29  C   UNL A   1      33.551  21.177  27.030  1.00  0.00     0.188 C 
BRANCH  29  30
ATOM     30  O   UNL A   1      34.691  21.581  26.297  1.00  0.00    -0.376 OA
BRANCH  30  31
ATOM     31  C   UNL A   1      35.182  20.776  25.241  1.00  0.00     0.202 C 
BRANCH  31  32
ATOM     32  C   UNL A   1      36.670  20.412  25.040  1.00  0.00     0.261 C 
BRANCH  32  33
ATOM     33  O   UNL A   1      37.655  21.428  25.238  1.00  0.00    -0.460 OA
BRANCH  33  34
ATOM     34  C   UNL A   1      38.801  21.075  25.858  1.00  0.00     0.338 C 
ATOM     35  O   UNL A   1      39.338  19.979  25.812  1.00  0.00    -0.246 OA
BRANCH  34  36
ATOM     36  C   UNL A   1      39.445  22.316  26.357  1.00  0.00     0.060 A 
ATOM     37  C   UNL A   1      38.838  23.540  26.040  1.00  0.00     0.016 A 
ATOM     38  C   UNL A   1      40.561  22.287  27.203  1.00  0.00     0.016 A 
ATOM     39  C   UNL A   1      39.366  24.733  26.526  1.00  0.00     0.010 A 
ATOM     40  C   UNL A   1      41.113  23.490  27.664  1.00  0.00     0.010 A 
ATOM     41  C   UNL A   1      40.540  24.719  27.289  1.00  0.00    -0.014 A 
BRANCH  41  42
ATOM     42  C   UNL A   1      41.289  25.994  27.428  1.00  0.00     0.031 A 
ATOM     43  C   UNL A   1      40.651  27.083  28.250  1.00  0.00     0.074 A 
ATOM     44  C   UNL A   1      42.538  26.142  26.952  1.00  0.00     0.049 A 
ATOM     45  N   UNL A   1      41.120  28.253  28.594  1.00  0.00    -0.248 NA
ATOM     46  C   UNL A   1      39.297  26.804  28.759  1.00  0.00     0.031 C 
ATOM     47  C   UNL A   1      43.277  25.139  26.188  1.00  0.00     0.029 A 
ATOM     48  N   UNL A   1      43.413  27.195  27.058  1.00  0.00    -0.354 N 
ATOM     49  C   UNL A   1      40.130  28.840  29.377  1.00  0.00     0.074 A 
ATOM     50  C   UNL A   1      39.013  27.923  29.406  1.00  0.00     0.031 C 
ATOM     51  C   UNL A   1      44.494  25.629  25.889  1.00  0.00     0.029 A 
ATOM     52  C   UNL A   1      44.613  26.987  26.418  1.00  0.00     0.049 A 
ATOM     53  H   UNL A   1      43.201  28.023  27.546  1.00  0.00     0.167 HD
ATOM     54  C   UNL A   1      40.156  30.026  30.031  1.00  0.00     0.034 A 
ATOM     55  C   UNL A   1      45.674  27.808  26.266  1.00  0.00     0.034 A 
ATOM     56  C   UNL A   1      41.264  30.945  29.971  1.00  0.00     0.049 A 
ATOM     57  C   UNL A   1      45.641  29.170  26.922  1.00  0.00     0.074 A 
ATOM     58  C   UNL A   1      41.389  32.186  30.568  1.00  0.00     0.029 A 
ATOM     59  N   UNL A   1      42.438  30.728  29.259  1.00  0.00    -0.354 N 
ATOM     60  N   UNL A   1      44.699  29.712  27.662  1.00  0.00    -0.248 NA
ATOM     61  C   UNL A   1      46.822  30.023  26.739  1.00  0.00     0.031 C 
ATOM     62  C   UNL A   1      42.602  32.749  30.160  1.00  0.00     0.029 A 
ATOM     63  C   UNL A   1      43.278  31.824  29.380  1.00  0.00     0.049 A 
ATOM     64  H   UNL A   1      42.642  29.914  28.744  1.00  0.00     0.167 HD
ATOM     65  C   UNL A   1      45.189  30.958  28.053  1.00  0.00     0.074 A 
ATOM     66  C   UNL A   1      46.522  31.068  27.494  1.00  0.00     0.031 C 
ATOM     67  C   UNL A   1      44.598  31.925  28.801  1.00  0.00     0.034 A 
BRANCH  54  68
ATOM     68  C   UNL A   1      38.928  30.403  30.825  1.00  0.00     0.023 A 
ATOM     69  C   UNL A   1      37.902  31.190  30.268  1.00  0.00     0.031 A 
ATOM     70  C   UNL A   1      38.796  30.002  32.165  1.00  0.00     0.131 A 
ATOM     71  C   UNL A   1      36.826  31.604  31.067  1.00  0.00     0.055 A 
ATOM     72  C   UNL A   1      37.681  30.348  32.930  1.00  0.00     0.041 A 
ATOM     73  F   UNL A   1      39.756  29.277  32.759  1.00  0.00    -0.206 F 
ATOM     74  C   UNL A   1      36.694  31.165  32.386  1.00  0.00     0.022 A 
BRANCH  71  75
ATOM     75  S   UNL A   1      35.674  32.836  30.401  1.00  0.00     0.124 S 
ATOM     76  O   UNL A   1      36.300  34.086  30.827  1.00  0.00    -0.237 OA
ATOM     77  O   UNL A   1      35.708  32.561  28.970  1.00  0.00    -0.237 OA
ATOM     78  O   UNL A   1      34.412  32.521  31.067  1.00  0.00    -0.744 OA
ENDBRANCH  71  75
ENDBRANCH  54  68
BRANCH  55  79
ATOM     79  C   UNL A   1      46.839  27.400  25.422  1.00  0.00     0.023 A 
ATOM     80  C   UNL A   1      47.028  27.906  24.127  1.00  0.00     0.031 A 
ATOM     81  C   UNL A   1      47.743  26.422  25.881  1.00  0.00     0.131 A 
ATOM     82  C   UNL A   1      48.056  27.395  23.317  1.00  0.00     0.055 A 
ATOM     83  C   UNL A   1      48.800  25.962  25.094  1.00  0.00     0.041 A 
ATOM     84  F   UNL A   1      47.608  25.895  27.109  1.00  0.00    -0.206 F 
ATOM     85  C   UNL A   1      48.951  26.438  23.798  1.00  0.00     0.022 A 
BRANCH  82  86
ATOM     86  S   UNL A   1      48.142  27.921  21.580  1.00  0.00     0.124 S 
ATOM     87  O   UNL A   1      48.500  26.676  20.911  1.00  0.00    -0.237 OA
ATOM     88  O   UNL A   1      46.787  28.410  21.347  1.00  0.00    -0.237 OA
ATOM     89  O   UNL A   1      49.181  28.949  21.589  1.00  0.00    -0.744 OA
ENDBRANCH  82  86
ENDBRANCH  55  79
BRANCH  67  90
ATOM     90  C   UNL A   1      45.411  33.169  29.083  1.00  0.00     0.023 A 
ATOM     91  C   UNL A   1      45.367  34.289  28.235  1.00  0.00     0.031 A 
ATOM     92  C   UNL A   1      46.275  33.218  30.193  1.00  0.00     0.131 A 
ATOM     93  C   UNL A   1      46.233  35.370  28.456  1.00  0.00     0.055 A 
ATOM     94  C   UNL A   1      47.074  34.333  30.455  1.00  0.00     0.041 A 
ATOM     95  F   UNL A   1      46.362  32.180  31.039  1.00  0.00    -0.206 F 
ATOM     96  C   UNL A   1      47.072  35.407  29.572  1.00  0.00     0.022 A 
BRANCH  93  97
ATOM     97  S   UNL A   1      46.353  36.659  27.186  1.00  0.00     0.124 S 
ATOM     98  O   UNL A   1      47.502  37.430  27.647  1.00  0.00    -0.237 OA
ATOM     99  O   UNL A   1      46.555  35.879  25.970  1.00  0.00    -0.237 OA
ATOM    100  O   UNL A   1      45.067  37.348  27.274  1.00  0.00    -0.744 OA
ENDBRANCH  93  97
ENDBRANCH  67  90
ENDBRANCH  41  42
ENDBRANCH  34  36
ENDBRANCH  33  34
ENDBRANCH  32  33
ENDBRANCH  31  32
ENDBRANCH  30  31
ENDBRANCH  29  30
ENDBRANCH  28  29
ENDBRANCH   1  28
TORSDOF 27
ENDMDL
MODEL 2
REMARK VINA RESULT:      -9.9      1.987      7.662
REMARK SMILES O=C(C[C@H](c1ccc(C2CC2)cc1)[NH+]1CCOCC1)OCCOCCOCCOCCOC(=O)c1ccc(-c2c3nc(c(-c4cc(S(=O)(=O)[O-])ccc4F)c4ccc([nH]4)c(-c4cc(S(=O)(=O)[O-])ccc4F)c4nc(c(-c5cc(S(=O)(=O)[O-])ccc5F)c5ccc2[nH]5)C=C4)C=C3)cc1
REMARK SMILES IDX 26 1 25 2 24 3 23 4 22 5 21 6 20 7 2 8 1 9 3 10 4 11 14 12
REMARK SMILES IDX 15 13 19 14 16 16 18 17 17 18 5 19 6 20 13 21 7 22 12 23
REMARK SMILES IDX 8 24 9 25 10 26 11 27 27 28 28 29 29 30 30 31 31 32 32 33
REMARK SMILES IDX 33 34 34 35 35 36 36 37 97 38 37 39 96 40 38 41 39 42 40 43
REMARK SMILES IDX 90 44 41 45 95 46 89 47 91 48 42 49 94 50 88 51 87 52 43 54
REMARK SMILES IDX 75 55 55 56 74 57 56 58 59 59 73 60 92 61 57 62 58 63 72 65
REMARK SMILES IDX 93 66 60 67 44 68 45 69 53 70 46 71 52 72 54 73 51 74 47 75
REMARK SMILES IDX 48 76 49 77 50 78 76 79 77 80 85 81 78 82 84 83 86 84 83 85
REMARK SMILES IDX 79 86 80 87 81 88 82 89 61 90 62 91 70 92 63 93 69 94 71 95
REMARK SMILES IDX 68 96 64 97 65 98 66 99 67 100
REMARK H PARENT 14 15 91 53 59 64
REMARK Flexibility Score: inf
ROOT
ATOM      1  O   UNL A   1      32.264  22.649  26.893  1.00  0.00    -0.377 OA
ENDROOT
BRANCH   1   2
ATOM      2  C   UNL A   1      31.696  21.674  26.036  1.00  0.00     0.188 C 
BRANCH   2   3
ATOM      3  C   UNL A   1      31.774  21.759  24.507  1.00  0.00     0.188 C 
BRANCH   3   4
ATOM      4  O   UNL A   1      32.998  22.112  23.889  1.00  0.00    -0.376 OA
BRANCH   4   5
ATOM      5  C   UNL A   1      33.072  22.838  22.676  1.00  0.00     0.202 C 
BRANCH   5   6
ATOM      6  C   UNL A   1      34.178  23.848  22.438  1.00  0.00     0.261 C 
BRANCH   6   7
ATOM      7  O   UNL A   1      33.902  25.261  22.586  1.00  0.00    -0.463 OA
BRANCH   7   8
ATOM      8  C   UNL A   1      33.306  26.116  21.726  1.00  0.00     0.312 C 
ATOM      9  O   UNL A   1      33.112  25.763  20.563  1.00  0.00    -0.252 OA
BRANCH   8  10
ATOM     10  C   UNL A   1      32.858  27.474  22.212  1.00  0.00     0.192 C 
BRANCH  10  11
ATOM     11  C   UNL A   1      32.008  27.352  23.484  1.00  0.00     0.226 C 
BRANCH  11  12
ATOM     12  N   UNL A   1      31.673  25.935  23.795  1.00  0.00    -0.324 N 
ATOM     13  C   UNL A   1      30.319  25.553  23.291  1.00  0.00     0.291 C 
ATOM     14  C   UNL A   1      31.651  25.650  25.252  1.00  0.00     0.291 C 
ATOM     15  H   UNL A   1      32.409  25.400  23.334  1.00  0.00     0.348 HD
ATOM     16  C   UNL A   1      29.140  26.174  24.079  1.00  0.00     0.221 C 
ATOM     17  C   UNL A   1      30.506  26.353  25.993  1.00  0.00     0.221 C 
ATOM     18  O   UNL A   1      29.241  25.915  25.484  1.00  0.00    -0.370 OA
ENDBRANCH  11  12
BRANCH  11  19
ATOM     19  C   UNL A   1      32.801  28.075  24.567  1.00  0.00     0.010 A 
ATOM     20  C   UNL A   1      32.380  29.307  25.077  1.00  0.00     0.010 A 
ATOM     21  C   UNL A   1      33.864  27.408  25.186  1.00  0.00     0.010 A 
ATOM     22  C   UNL A   1      33.011  29.854  26.190  1.00  0.00     0.004 A 
ATOM     23  C   UNL A   1      34.480  27.960  26.304  1.00  0.00     0.004 A 
ATOM     24  C   UNL A   1      34.079  29.199  26.825  1.00  0.00    -0.045 A 
BRANCH  24  25
ATOM     25  C   UNL A   1      34.767  29.861  27.993  1.00  0.00     0.019 C 
ATOM     26  C   UNL A   1      36.253  29.819  28.238  1.00  0.00     0.009 C 
ATOM     27  C   UNL A   1      35.631  31.059  27.669  1.00  0.00     0.009 C 
ENDBRANCH  24  25
ENDBRANCH  11  19
ENDBRANCH  10  11
ENDBRANCH   8  10
ENDBRANCH   7   8
ENDBRANCH   6   7
ENDBRANCH   5   6
ENDBRANCH   4   5
ENDBRANCH   3   4
ENDBRANCH   2   3
ENDBRANCH   1   2
BRANCH   1  28
ATOM     28  C   UNL A   1      33.474  22.342  27.560  1.00  0.00     0.188 C 
BRANCH  28  29
ATOM     29  C   UNL A   1      34.335  21.181  27.005  1.00  0.00     0.188 C 
BRANCH  29  30
ATOM     30  O   UNL A   1      35.381  21.595  26.148  1.00  0.00    -0.376 OA
BRANCH  30  31
ATOM     31  C   UNL A   1      35.883  20.715  25.159  1.00  0.00     0.202 C 
BRANCH  31  32
ATOM     32  C   UNL A   1      37.373  20.597  24.771  1.00  0.00     0.261 C 
BRANCH  32  33
ATOM     33  O   UNL A   1      38.276  21.614  25.209  1.00  0.00    -0.460 OA
BRANCH  33  34
ATOM     34  C   UNL A   1      39.272  21.247  26.044  1.00  0.00     0.338 C 
ATOM     35  O   UNL A   1      39.843  20.168  26.055  1.00  0.00    -0.246 OA
BRANCH  34  36
ATOM     36  C   UNL A   1      39.748  22.469  26.741  1.00  0.00     0.060 A 
ATOM     37  C   UNL A   1      39.105  23.680  26.449  1.00  0.00     0.016 A 
ATOM     38  C   UNL A   1      40.735  22.422  27.734  1.00  0.00     0.016 A 
ATOM     39  C   UNL A   1      39.472  24.848  27.112  1.00  0.00     0.010 A 
ATOM     40  C   UNL A   1      41.129  23.603  28.376  1.00  0.00     0.010 A 
ATOM     41  C   UNL A   1      40.526  24.828  28.034  1.00  0.00    -0.014 A 
BRANCH  41  42
ATOM     42  C   UNL A   1      41.154  26.125  28.394  1.00  0.00     0.031 A 
ATOM     43  C   UNL A   1      42.552  26.377  27.893  1.00  0.00     0.074 A 
ATOM     44  C   UNL A   1      40.473  27.095  29.029  1.00  0.00     0.049 A 
ATOM     45  N   UNL A   1      43.295  27.446  27.993  1.00  0.00    -0.248 NA
ATOM     46  C   UNL A   1      43.194  25.264  27.172  1.00  0.00     0.031 C 
ATOM     47  C   UNL A   1      39.098  26.985  29.514  1.00  0.00     0.029 A 
ATOM     48  N   UNL A   1      40.845  28.374  29.363  1.00  0.00    -0.354 N 
ATOM     49  C   UNL A   1      44.481  27.145  27.331  1.00  0.00     0.074 A 
ATOM     50  C   UNL A   1      44.381  25.772  26.887  1.00  0.00     0.031 C 
ATOM     51  C   UNL A   1      38.744  28.150  30.089  1.00  0.00     0.029 A 
ATOM     52  C   UNL A   1      39.873  29.078  30.035  1.00  0.00     0.049 A 
ATOM     53  H   UNL A   1      41.727  28.751  29.142  1.00  0.00     0.167 HD
ATOM     54  C   UNL A   1      45.549  27.944  27.094  1.00  0.00     0.034 A 
ATOM     55  C   UNL A   1      39.903  30.322  30.559  1.00  0.00     0.034 A 
ATOM     56  C   UNL A   1      45.650  29.300  27.568  1.00  0.00     0.049 A 
ATOM     57  C   UNL A   1      41.146  31.162  30.370  1.00  0.00     0.074 A 
ATOM     58  C   UNL A   1      46.695  30.193  27.414  1.00  0.00     0.029 A 
ATOM     59  N   UNL A   1      44.671  29.960  28.302  1.00  0.00    -0.354 N 
ATOM     60  N   UNL A   1      42.261  30.866  29.739  1.00  0.00    -0.248 NA
ATOM     61  C   UNL A   1      41.127  32.513  30.947  1.00  0.00     0.031 C 
ATOM     62  C   UNL A   1      46.381  31.362  28.115  1.00  0.00     0.029 A 
ATOM     63  C   UNL A   1      45.101  31.236  28.631  1.00  0.00     0.049 A 
ATOM     64  H   UNL A   1      43.800  29.575  28.552  1.00  0.00     0.167 HD
ATOM     65  C   UNL A   1      43.062  32.004  29.822  1.00  0.00     0.074 A 
ATOM     66  C   UNL A   1      42.286  33.000  30.534  1.00  0.00     0.031 C 
ATOM     67  C   UNL A   1      44.322  32.212  29.358  1.00  0.00     0.034 A 
BRANCH  54  68
ATOM     68  C   UNL A   1      46.704  27.343  26.329  1.00  0.00     0.023 A 
ATOM     69  C   UNL A   1      47.735  26.639  26.978  1.00  0.00     0.031 A 
ATOM     70  C   UNL A   1      46.795  27.506  24.936  1.00  0.00     0.131 A 
ATOM     71  C   UNL A   1      48.841  26.183  26.246  1.00  0.00     0.055 A 
ATOM     72  C   UNL A   1      47.858  26.978  24.201  1.00  0.00     0.041 A 
ATOM     73  F   UNL A   1      45.858  28.194  24.266  1.00  0.00    -0.206 F 
ATOM     74  C   UNL A   1      48.896  26.323  24.858  1.00  0.00     0.022 A 
BRANCH  71  75
ATOM     75  S   UNL A   1      50.271  25.530  27.150  1.00  0.00     0.124 S 
ATOM     76  O   UNL A   1      51.253  25.377  26.078  1.00  0.00    -0.237 OA
ATOM     77  O   UNL A   1      50.543  26.586  28.118  1.00  0.00    -0.237 OA
ATOM     78  O   UNL A   1      49.776  24.276  27.716  1.00  0.00    -0.744 OA
ENDBRANCH  71  75
ENDBRANCH  54  68
BRANCH  55  79
ATOM     79  C   UNL A   1      38.749  30.842  31.355  1.00  0.00     0.023 A 
ATOM     80  C   UNL A   1      37.774  31.678  30.787  1.00  0.00     0.031 A 
ATOM     81  C   UNL A   1      38.656  30.571  32.734  1.00  0.00     0.131 A 
ATOM     82  C   UNL A   1      36.786  32.256  31.601  1.00  0.00     0.055 A 
ATOM     83  C   UNL A   1      37.635  31.100  33.526  1.00  0.00     0.041 A 
ATOM     84  F   UNL A   1      39.565  29.786  33.335  1.00  0.00    -0.206 F 
ATOM     85  C   UNL A   1      36.701  31.961  32.963  1.00  0.00     0.022 A 
BRANCH  82  86
ATOM     86  S   UNL A   1      35.670  33.492  30.874  1.00  0.00     0.124 S 
ATOM     87  O   UNL A   1      36.430  33.927  29.707  1.00  0.00    -0.237 OA
ATOM     88  O   UNL A   1      34.476  32.698  30.605  1.00  0.00    -0.237 OA
ATOM     89  O   UNL A   1      35.528  34.487  31.935  1.00  0.00    -0.744 OA
ENDBRANCH  82  86
ENDBRANCH  55  79
BRANCH  67  90
ATOM     90  C   UNL A   1      44.917  33.584  29.579  1.00  0.00     0.023 A 
ATOM     91  C   UNL A   1      44.690  34.642  28.680  1.00  0.00     0.031 A 
ATOM     92  C   UNL A   1      45.757  33.827  30.681  1.00  0.00     0.131 A 
ATOM     93  C   UNL A   1      45.364  35.861  28.848  1.00  0.00     0.055 A 
ATOM     94  C   UNL A   1      46.359  35.069  30.889  1.00  0.00     0.041 A 
ATOM     95  F   UNL A   1      46.012  32.858  31.574  1.00  0.00    -0.206 F 
ATOM     96  C   UNL A   1      46.182  36.087  29.957  1.00  0.00     0.022 A 
BRANCH  93  97
ATOM     97  S   UNL A   1      45.273  37.092  27.519  1.00  0.00     0.124 S 
ATOM     98  O   UNL A   1      46.017  38.208  28.092  1.00  0.00    -0.237 OA
ATOM     99  O   UNL A   1      45.918  36.399  26.409  1.00  0.00    -0.237 OA
ATOM    100  O   UNL A   1      43.838  37.318  27.360  1.00  0.00    -0.744 OA
ENDBRANCH  93  97
ENDBRANCH  67  90
ENDBRANCH  41  42
ENDBRANCH  34  36
ENDBRANCH  33  34
ENDBRANCH  32  33
ENDBRANCH  31  32
ENDBRANCH  30  31
ENDBRANCH  29  30
ENDBRANCH  28  29
ENDBRANCH   1  28
TORSDOF 27
ENDMDL
MODEL 3
REMARK VINA RESULT:      -9.9      2.414      8.090
REMARK SMILES O=C(C[C@H](c1ccc(C2CC2)cc1)[NH+]1CCOCC1)OCCOCCOCCOCCOC(=O)c1ccc(-c2c3nc(c(-c4cc(S(=O)(=O)[O-])ccc4F)c4ccc([nH]4)c(-c4cc(S(=O)(=O)[O-])ccc4F)c4nc(c(-c5cc(S(=O)(=O)[O-])ccc5F)c5ccc2[nH]5)C=C4)C=C3)cc1
REMARK SMILES IDX 26 1 25 2 24 3 23 4 22 5 21 6 20 7 2 8 1 9 3 10 4 11 14 12
REMARK SMILES IDX 15 13 19 14 16 16 18 17 17 18 5 19 6 20 13 21 7 22 12 23
REMARK SMILES IDX 8 24 9 25 10 26 11 27 27 28 28 29 29 30 30 31 31 32 32 33
REMARK SMILES IDX 33 34 34 35 35 36 36 37 97 38 37 39 96 40 38 41 39 42 40 43
REMARK SMILES IDX 90 44 41 45 95 46 89 47 91 48 42 49 94 50 88 51 87 52 43 54
REMARK SMILES IDX 75 55 55 56 74 57 56 58 59 59 73 60 92 61 57 62 58 63 72 65
REMARK SMILES IDX 93 66 60 67 44 68 45 69 53 70 46 71 52 72 54 73 51 74 47 75
REMARK SMILES IDX 48 76 49 77 50 78 76 79 77 80 85 81 78 82 84 83 86 84 83 85
REMARK SMILES IDX 79 86 80 87 81 88 82 89 61 90 62 91 70 92 63 93 69 94 71 95
REMARK SMILES IDX 68 96 64 97 65 98 66 99 67 100
REMARK H PARENT 14 15 91 53 59 64
REMARK Flexibility Score: inf
ROOT
ATOM      1  O   UNL A   1      33.488  22.571  27.501  1.00  0.00    -0.377 OA
ENDROOT
BRANCH   1   2
ATOM      2  C   UNL A   1      32.207  23.039  27.118  1.00  0.00     0.188 C 
BRANCH   2   3
ATOM      3  C   UNL A   1      31.976  24.423  26.498  1.00  0.00     0.188 C 
BRANCH   3   4
ATOM      4  O   UNL A   1      33.060  25.323  26.377  1.00  0.00    -0.376 OA
BRANCH   4   5
ATOM      5  C   UNL A   1      32.894  26.704  26.104  1.00  0.00     0.202 C 
BRANCH   5   6
ATOM      6  C   UNL A   1      31.786  27.502  26.763  1.00  0.00     0.261 C 
BRANCH   6   7
ATOM      7  O   UNL A   1      31.102  28.533  26.012  1.00  0.00    -0.463 OA
BRANCH   7   8
ATOM      8  C   UNL A   1      31.614  29.547  25.281  1.00  0.00     0.312 C 
ATOM      9  O   UNL A   1      32.326  30.387  25.830  1.00  0.00    -0.252 OA
BRANCH   8  10
ATOM     10  C   UNL A   1      31.332  29.616  23.798  1.00  0.00     0.192 C 
BRANCH  10  11
ATOM     11  C   UNL A   1      30.066  28.825  23.441  1.00  0.00     0.226 C 
BRANCH  11  12
ATOM     12  N   UNL A   1      29.298  29.472  22.342  1.00  0.00    -0.324 N 
ATOM     13  C   UNL A   1      29.336  30.964  22.430  1.00  0.00     0.291 C 
ATOM     14  C   UNL A   1      27.857  29.109  22.351  1.00  0.00     0.291 C 
ATOM     15  H   UNL A   1      29.749  29.135  21.493  1.00  0.00     0.348 HD
ATOM     16  C   UNL A   1      28.499  31.562  23.587  1.00  0.00     0.221 C 
ATOM     17  C   UNL A   1      27.095  29.667  23.560  1.00  0.00     0.221 C 
ATOM     18  O   UNL A   1      27.144  31.098  23.561  1.00  0.00    -0.370 OA
ENDBRANCH  11  12
BRANCH  11  19
ATOM     19  C   UNL A   1      30.549  27.411  23.138  1.00  0.00     0.010 A 
ATOM     20  C   UNL A   1      31.804  27.177  22.565  1.00  0.00     0.010 A 
ATOM     21  C   UNL A   1      29.802  26.326  23.609  1.00  0.00     0.010 A 
ATOM     22  C   UNL A   1      32.298  25.880  22.473  1.00  0.00     0.004 A 
ATOM     23  C   UNL A   1      30.311  25.035  23.521  1.00  0.00     0.004 A 
ATOM     24  C   UNL A   1      31.562  24.779  22.941  1.00  0.00    -0.045 A 
BRANCH  24  25
ATOM     25  C   UNL A   1      32.117  23.387  22.767  1.00  0.00     0.019 C 
ATOM     26  C   UNL A   1      33.185  23.019  21.768  1.00  0.00     0.009 C 
ATOM     27  C   UNL A   1      33.546  23.175  23.215  1.00  0.00     0.009 C 
ENDBRANCH  24  25
ENDBRANCH  11  19
ENDBRANCH  10  11
ENDBRANCH   8  10
ENDBRANCH   7   8
ENDBRANCH   6   7
ENDBRANCH   5   6
ENDBRANCH   4   5
ENDBRANCH   3   4
ENDBRANCH   2   3
ENDBRANCH   1   2
BRANCH   1  28
ATOM     28  C   UNL A   1      33.814  21.216  27.256  1.00  0.00     0.188 C 
BRANCH  28  29
ATOM     29  C   UNL A   1      34.317  20.835  25.842  1.00  0.00     0.188 C 
BRANCH  29  30
ATOM     30  O   UNL A   1      35.484  21.523  25.437  1.00  0.00    -0.376 OA
BRANCH  30  31
ATOM     31  C   UNL A   1      36.619  20.802  24.993  1.00  0.00     0.202 C 
BRANCH  31  32
ATOM     32  C   UNL A   1      38.078  21.178  25.332  1.00  0.00     0.261 C 
BRANCH  32  33
ATOM     33  O   UNL A   1      38.317  22.338  26.132  1.00  0.00    -0.460 OA
BRANCH  33  34
ATOM     34  C   UNL A   1      39.582  22.558  26.551  1.00  0.00     0.338 C 
ATOM     35  O   UNL A   1      40.547  21.841  26.339  1.00  0.00    -0.246 OA
BRANCH  34  36
ATOM     36  C   UNL A   1      39.654  23.953  27.055  1.00  0.00     0.060 A 
ATOM     37  C   UNL A   1      40.008  24.959  26.145  1.00  0.00     0.016 A 
ATOM     38  C   UNL A   1      39.287  24.291  28.364  1.00  0.00     0.016 A 
ATOM     39  C   UNL A   1      40.039  26.292  26.547  1.00  0.00     0.010 A 
ATOM     40  C   UNL A   1      39.352  25.628  28.779  1.00  0.00     0.010 A 
ATOM     41  C   UNL A   1      39.770  26.627  27.880  1.00  0.00    -0.014 A 
BRANCH  41  42
ATOM     42  C   UNL A   1      40.215  27.960  28.360  1.00  0.00     0.031 A 
ATOM     43  C   UNL A   1      41.681  28.283  28.241  1.00  0.00     0.074 A 
ATOM     44  C   UNL A   1      39.341  28.898  28.768  1.00  0.00     0.049 A 
ATOM     45  N   UNL A   1      42.316  29.393  28.507  1.00  0.00    -0.248 NA
ATOM     46  C   UNL A   1      42.546  27.199  27.744  1.00  0.00     0.031 C 
ATOM     47  C   UNL A   1      37.895  28.718  28.874  1.00  0.00     0.029 A 
ATOM     48  N   UNL A   1      39.547  30.199  29.155  1.00  0.00    -0.354 N 
ATOM     49  C   UNL A   1      43.649  29.149  28.190  1.00  0.00     0.074 A 
ATOM     50  C   UNL A   1      43.740  27.769  27.770  1.00  0.00     0.031 C 
ATOM     51  C   UNL A   1      37.343  29.868  29.305  1.00  0.00     0.029 A 
ATOM     52  C   UNL A   1      38.397  30.857  29.528  1.00  0.00     0.049 A 
ATOM     53  H   UNL A   1      40.436  30.622  29.166  1.00  0.00     0.167 HD
ATOM     54  C   UNL A   1      44.700  30.003  28.224  1.00  0.00     0.034 A 
ATOM     55  C   UNL A   1      38.224  32.106  30.009  1.00  0.00     0.034 A 
ATOM     56  C   UNL A   1      44.604  31.369  28.673  1.00  0.00     0.049 A 
ATOM     57  C   UNL A   1      39.429  33.011  30.135  1.00  0.00     0.074 A 
ATOM     58  C   UNL A   1      45.606  32.316  28.778  1.00  0.00     0.029 A 
ATOM     59  N   UNL A   1      43.433  31.981  29.104  1.00  0.00    -0.354 N 
ATOM     60  N   UNL A   1      40.685  32.769  29.829  1.00  0.00    -0.248 NA
ATOM     61  C   UNL A   1      39.190  34.365  30.651  1.00  0.00     0.031 C 
ATOM     62  C   UNL A   1      45.058  33.473  29.340  1.00  0.00     0.029 A 
ATOM     63  C   UNL A   1      43.695  33.283  29.503  1.00  0.00     0.049 A 
ATOM     64  H   UNL A   1      42.547  31.553  29.125  1.00  0.00     0.167 HD
ATOM     65  C   UNL A   1      41.377  33.951  30.092  1.00  0.00     0.074 A 
ATOM     66  C   UNL A   1      40.392  34.911  30.547  1.00  0.00     0.031 C 
ATOM     67  C   UNL A   1      42.703  34.223  29.972  1.00  0.00     0.034 A 
BRANCH  54  68
ATOM     68  C   UNL A   1      46.046  29.459  27.807  1.00  0.00     0.023 A 
ATOM     69  C   UNL A   1      46.312  29.088  26.476  1.00  0.00     0.031 A 
ATOM     70  C   UNL A   1      47.063  29.274  28.758  1.00  0.00     0.131 A 
ATOM     71  C   UNL A   1      47.539  28.493  26.146  1.00  0.00     0.055 A 
ATOM     72  C   UNL A   1      48.312  28.757  28.408  1.00  0.00     0.041 A 
ATOM     73  F   UNL A   1      46.857  29.579  30.048  1.00  0.00    -0.206 F 
ATOM     74  C   UNL A   1      48.551  28.351  27.098  1.00  0.00     0.022 A 
BRANCH  71  75
ATOM     75  S   UNL A   1      47.742  27.780  24.492  1.00  0.00     0.124 S 
ATOM     76  O   UNL A   1      47.401  26.379  24.730  1.00  0.00    -0.237 OA
ATOM     77  O   UNL A   1      46.786  28.543  23.698  1.00  0.00    -0.237 OA
ATOM     78  O   UNL A   1      49.149  28.026  24.182  1.00  0.00    -0.744 OA
ENDBRANCH  71  75
ENDBRANCH  54  68
BRANCH  55  79
ATOM     79  C   UNL A   1      36.876  32.571  30.458  1.00  0.00     0.023 A 
ATOM     80  C   UNL A   1      36.001  33.248  29.595  1.00  0.00     0.031 A 
ATOM     81  C   UNL A   1      36.479  32.412  31.800  1.00  0.00     0.131 A 
ATOM     82  C   UNL A   1      34.804  33.790  30.092  1.00  0.00     0.055 A 
ATOM     83  C   UNL A   1      35.260  32.898  32.275  1.00  0.00     0.041 A 
ATOM     84  F   UNL A   1      37.278  31.780  32.675  1.00  0.00    -0.206 F 
ATOM     85  C   UNL A   1      34.421  33.606  31.422  1.00  0.00     0.022 A 
BRANCH  82  86
ATOM     86  S   UNL A   1      33.799  34.835  28.999  1.00  0.00     0.124 S 
ATOM     87  O   UNL A   1      32.700  33.938  28.658  1.00  0.00    -0.237 OA
ATOM     88  O   UNL A   1      33.467  35.954  29.874  1.00  0.00    -0.237 OA
ATOM     89  O   UNL A   1      34.711  35.154  27.901  1.00  0.00    -0.744 OA
ENDBRANCH  82  86
ENDBRANCH  55  79
BRANCH  67  90
ATOM     90  C   UNL A   1      43.149  35.628  30.308  1.00  0.00     0.023 A 
ATOM     91  C   UNL A   1      43.143  36.655  29.347  1.00  0.00     0.031 A 
ATOM     92  C   UNL A   1      43.626  35.936  31.595  1.00  0.00     0.131 A 
ATOM     93  C   UNL A   1      43.686  37.910  29.659  1.00  0.00     0.055 A 
ATOM     94  C   UNL A   1      44.088  37.212  31.924  1.00  0.00     0.041 A 
ATOM     95  F   UNL A   1      43.656  34.999  32.556  1.00  0.00    -0.206 F 
ATOM     96  C   UNL A   1      44.140  38.201  30.948  1.00  0.00     0.022 A 
BRANCH  93  97
ATOM     97  S   UNL A   1      43.925  39.109  28.319  1.00  0.00     0.124 S 
ATOM     98  O   UNL A   1      43.108  40.230  28.769  1.00  0.00    -0.237 OA
ATOM     99  O   UNL A   1      45.368  39.321  28.346  1.00  0.00    -0.237 OA
ATOM    100  O   UNL A   1      43.423  38.408  27.139  1.00  0.00    -0.744 OA
ENDBRANCH  93  97
ENDBRANCH  67  90
ENDBRANCH  41  42
ENDBRANCH  34  36
ENDBRANCH  33  34
ENDBRANCH  32  33
ENDBRANCH  31  32
ENDBRANCH  30  31
ENDBRANCH  29  30
ENDBRANCH  28  29
ENDBRANCH   1  28
TORSDOF 27
ENDMDL
