MODEL 1
REMARK VINA RESULT:      -7.4      0.000      0.000
REMARK SMILES COc1cc([C@@H]2CC(=O)Nc3c(C(=O)OCCOCCOCCOCCOC(=O)c4ccc(-c5c6nc(c(-c7cc(S(=O)(=O)[O-])ccc7F)c7ccc([nH]7)c(-c7cc(S(=O)(=O)[O-])ccc7F)c7nc(c(-c8cc(S(=O)(=O)[O-])ccc8F)c8ccc5[nH]8)C=C7)C=C6)cc4)cn(-c4ccc(F)cc4)c32)c(OC)c2c1OCO2
REMARK SMILES IDX 22 1 21 2 20 3 19 4 18 5 17 6 16 7 15 8 13 9 14 10 12 11
REMARK SMILES IDX 6 12 7 13 102 14 8 15 11 16 94 17 9 18 10 19 93 20 5 22 3 23
REMARK SMILES IDX 4 24 107 25 106 26 108 27 103 28 110 29 109 30 2 31 1 32
REMARK SMILES IDX 104 33 105 34 95 35 96 36 101 37 97 38 100 39 98 40 99 41
REMARK SMILES IDX 23 42 24 43 25 44 26 45 27 46 28 47 29 48 30 49 31 50 92 51
REMARK SMILES IDX 32 52 91 53 33 54 34 55 35 56 85 57 36 58 90 59 84 60 86 61
REMARK SMILES IDX 37 62 89 63 83 64 82 65 38 67 70 68 50 69 69 70 51 71 54 72
REMARK SMILES IDX 68 73 87 74 52 75 53 76 67 78 88 79 55 80 39 81 40 82 48 83
REMARK SMILES IDX 41 84 47 85 49 86 46 87 42 88 43 89 44 90 45 91 71 92 72 93
REMARK SMILES IDX 80 94 73 95 79 96 81 97 78 98 74 99 75 100 76 101 77 102
REMARK SMILES IDX 56 103 57 104 65 105 58 106 64 107 66 108 63 109 59 110
REMARK SMILES IDX 60 111 61 112 62 113
REMARK H PARENT 10 21 86 66 54 77
REMARK Flexibility Score: inf
ROOT
ATOM      1  C   UNL A   1      47.213  31.111  28.577  1.00  0.00     0.188 C 
ENDROOT
BRANCH   1   2
ATOM      2  O   UNL A   1      45.895  30.585  28.747  1.00  0.00    -0.377 OA
BRANCH   2   3
ATOM      3  C   UNL A   1      45.256  30.164  27.555  1.00  0.00     0.188 C 
BRANCH   3   4
ATOM      4  C   UNL A   1      45.724  30.902  26.277  1.00  0.00     0.188 C 
BRANCH   4   5
ATOM      5  O   UNL A   1      45.062  32.052  25.756  1.00  0.00    -0.376 OA
BRANCH   5   6
ATOM      6  C   UNL A   1      45.513  33.374  25.992  1.00  0.00     0.202 C 
BRANCH   6   7
ATOM      7  C   UNL A   1      45.199  34.097  27.311  1.00  0.00     0.261 C 
BRANCH   7   8
ATOM      8  O   UNL A   1      43.838  34.474  27.508  1.00  0.00    -0.460 OA
BRANCH   8   9
ATOM      9  C   UNL A   1      43.443  35.568  26.805  1.00  0.00     0.341 C 
ATOM     10  O   UNL A   1      42.711  35.546  25.821  1.00  0.00    -0.246 OA
BRANCH   9  11
ATOM     11  C   UNL A   1      43.909  36.800  27.416  1.00  0.00     0.102 A 
ATOM     12  C   UNL A   1      45.740  39.987  27.486  1.00  0.00     0.082 C 
ATOM     13  C   UNL A   1      47.085  39.553  26.877  1.00  0.00     0.115 C 
ATOM     14  C   UNL A   1      44.920  38.774  27.792  1.00  0.00     0.055 A 
ATOM     15  C   UNL A   1      47.028  38.329  25.968  1.00  0.00     0.225 C 
ATOM     16  C   UNL A   1      45.046  37.582  27.120  1.00  0.00     0.078 A 
ATOM     17  N   UNL A   1      43.921  38.628  28.727  1.00  0.00    -0.317 N 
ATOM     18  O   UNL A   1      47.863  38.153  25.079  1.00  0.00    -0.275 OA
ATOM     19  N   UNL A   1      46.073  37.377  26.228  1.00  0.00    -0.324 N 
ATOM     20  C   UNL A   1      43.295  37.428  28.495  1.00  0.00     0.109 A 
ATOM     21  H   UNL A   1      46.124  36.514  25.757  1.00  0.00     0.170 HD
BRANCH  12  22
ATOM     22  C   UNL A   1      44.979  40.993  26.603  1.00  0.00     0.012 A 
ATOM     23  C   UNL A   1      42.916  41.445  25.351  1.00  0.00     0.165 A 
ATOM     24  C   UNL A   1      43.629  40.692  26.285  1.00  0.00     0.059 A 
ATOM     25  C   UNL A   1      43.525  42.566  24.822  1.00  0.00     0.211 A 
ATOM     26  C   UNL A   1      44.819  42.910  25.158  1.00  0.00     0.211 A 
ATOM     27  O   UNL A   1      42.969  43.450  23.945  1.00  0.00    -0.449 OA
ATOM     28  C   UNL A   1      45.577  42.146  26.031  1.00  0.00     0.168 A 
ATOM     29  O   UNL A   1      45.217  44.043  24.510  1.00  0.00    -0.449 OA
ATOM     30  C   UNL A   1      44.011  44.431  23.841  1.00  0.00     0.468 C 
BRANCH  23  31
ATOM     31  O   UNL A   1      41.658  41.014  25.045  1.00  0.00    -0.493 OA
ATOM     32  C   UNL A   1      41.118  40.133  26.029  1.00  0.00     0.278 C 
ENDBRANCH  23  31
BRANCH  28  33
ATOM     33  O   UNL A   1      46.865  42.398  26.379  1.00  0.00    -0.492 OA
ATOM     34  C   UNL A   1      47.176  43.392  27.339  1.00  0.00     0.278 C 
ENDBRANCH  28  33
ENDBRANCH  12  22
BRANCH  17  35
ATOM     35  C   UNL A   1      43.534  39.553  29.715  1.00  0.00     0.046 A 
ATOM     36  C   UNL A   1      44.288  39.644  30.886  1.00  0.00     0.029 A 
ATOM     37  C   UNL A   1      42.389  40.334  29.528  1.00  0.00     0.029 A 
ATOM     38  C   UNL A   1      43.850  40.461  31.922  1.00  0.00     0.041 A 
ATOM     39  C   UNL A   1      41.959  41.158  30.572  1.00  0.00     0.041 A 
ATOM     40  C   UNL A   1      42.685  41.201  31.762  1.00  0.00     0.123 A 
ATOM     41  F   UNL A   1      42.254  41.968  32.771  1.00  0.00    -0.207 F 
ENDBRANCH  17  35
ENDBRANCH   9  11
ENDBRANCH   8   9
ENDBRANCH   7   8
ENDBRANCH   6   7
ENDBRANCH   5   6
ENDBRANCH   4   5
ENDBRANCH   3   4
ENDBRANCH   2   3
ENDBRANCH   1   2
BRANCH   1  42
ATOM     42  C   UNL A   1      48.391  30.298  29.175  1.00  0.00     0.188 C 
BRANCH  42  43
ATOM     43  O   UNL A   1      49.198  31.020  30.099  1.00  0.00    -0.376 OA
BRANCH  43  44
ATOM     44  C   UNL A   1      48.789  32.262  30.645  1.00  0.00     0.202 C 
BRANCH  44  45
ATOM     45  C   UNL A   1      49.891  33.246  31.015  1.00  0.00     0.261 C 
BRANCH  45  46
ATOM     46  O   UNL A   1      49.419  34.360  31.743  1.00  0.00    -0.460 OA
BRANCH  46  47
ATOM     47  C   UNL A   1      48.839  35.318  31.002  1.00  0.00     0.338 C 
ATOM     48  O   UNL A   1      49.378  36.043  30.171  1.00  0.00    -0.246 OA
BRANCH  47  49
ATOM     49  C   UNL A   1      47.455  35.439  31.432  1.00  0.00     0.060 A 
ATOM     50  C   UNL A   1      47.227  35.373  32.806  1.00  0.00     0.016 A 
ATOM     51  C   UNL A   1      46.460  35.189  30.476  1.00  0.00     0.016 A 
ATOM     52  C   UNL A   1      46.076  34.757  33.222  1.00  0.00     0.010 A 
ATOM     53  C   UNL A   1      45.343  34.528  30.890  1.00  0.00     0.010 A 
ATOM     54  C   UNL A   1      45.220  34.242  32.247  1.00  0.00    -0.014 A 
BRANCH  54  55
ATOM     55  C   UNL A   1      44.088  33.457  32.669  1.00  0.00     0.031 A 
ATOM     56  C   UNL A   1      44.383  32.013  32.575  1.00  0.00     0.074 A 
ATOM     57  C   UNL A   1      43.008  34.044  33.218  1.00  0.00     0.049 A 
ATOM     58  N   UNL A   1      43.866  31.151  31.766  1.00  0.00    -0.248 NA
ATOM     59  C   UNL A   1      45.581  31.519  33.284  1.00  0.00     0.031 C 
ATOM     60  C   UNL A   1      42.835  35.459  33.564  1.00  0.00     0.029 A 
ATOM     61  N   UNL A   1      41.875  33.477  33.705  1.00  0.00    -0.354 N 
ATOM     62  C   UNL A   1      44.483  29.949  32.094  1.00  0.00     0.074 A 
ATOM     63  C   UNL A   1      45.696  30.298  32.769  1.00  0.00     0.031 C 
ATOM     64  C   UNL A   1      41.792  35.584  34.418  1.00  0.00     0.029 A 
ATOM     65  C   UNL A   1      41.163  34.283  34.589  1.00  0.00     0.049 A 
ATOM     66  H   UNL A   1      41.582  32.572  33.454  1.00  0.00     0.167 HD
ATOM     67  C   UNL A   1      43.762  28.798  32.127  1.00  0.00     0.034 A 
ATOM     68  C   UNL A   1      40.203  33.876  35.465  1.00  0.00     0.034 A 
ATOM     69  C   UNL A   1      42.567  28.928  31.315  1.00  0.00     0.049 A 
ATOM     70  C   UNL A   1      39.739  32.541  34.997  1.00  0.00     0.074 A 
ATOM     71  C   UNL A   1      42.341  29.266  29.993  1.00  0.00     0.029 A 
ATOM     72  N   UNL A   1      41.358  29.109  31.954  1.00  0.00    -0.354 N 
ATOM     73  N   UNL A   1      39.114  32.354  33.865  1.00  0.00    -0.248 NA
ATOM     74  C   UNL A   1      40.420  31.363  35.521  1.00  0.00     0.031 C 
ATOM     75  C   UNL A   1      41.171  30.079  30.011  1.00  0.00     0.029 A 
ATOM     76  C   UNL A   1      40.684  30.123  31.319  1.00  0.00     0.049 A 
ATOM     77  H   UNL A   1      41.034  28.598  32.732  1.00  0.00     0.167 HD
ATOM     78  C   UNL A   1      39.670  31.202  33.327  1.00  0.00     0.074 A 
ATOM     79  C   UNL A   1      40.401  30.584  34.434  1.00  0.00     0.031 C 
ATOM     80  C   UNL A   1      39.740  31.014  31.975  1.00  0.00     0.034 A 
BRANCH  67  81
ATOM     81  C   UNL A   1      43.904  27.764  33.230  1.00  0.00     0.023 A 
ATOM     82  C   UNL A   1      44.325  26.487  32.828  1.00  0.00     0.031 A 
ATOM     83  C   UNL A   1      43.394  27.845  34.551  1.00  0.00     0.131 A 
ATOM     84  C   UNL A   1      44.094  25.361  33.635  1.00  0.00     0.055 A 
ATOM     85  C   UNL A   1      43.223  26.730  35.375  1.00  0.00     0.041 A 
ATOM     86  F   UNL A   1      42.961  28.977  35.113  1.00  0.00    -0.206 F 
ATOM     87  C   UNL A   1      43.534  25.470  34.904  1.00  0.00     0.022 A 
BRANCH  84  88
ATOM     88  S   UNL A   1      44.362  23.732  32.904  1.00  0.00     0.124 S 
ATOM     89  O   UNL A   1      44.330  24.048  31.480  1.00  0.00    -0.237 OA
ATOM     90  O   UNL A   1      45.663  23.372  33.457  1.00  0.00    -0.237 OA
ATOM     91  O   UNL A   1      43.232  22.951  33.400  1.00  0.00    -0.744 OA
ENDBRANCH  84  88
ENDBRANCH  67  81
BRANCH  68  92
ATOM     92  C   UNL A   1      39.965  34.393  36.848  1.00  0.00     0.023 A 
ATOM     93  C   UNL A   1      40.216  33.633  38.011  1.00  0.00     0.031 A 
ATOM     94  C   UNL A   1      39.689  35.767  37.044  1.00  0.00     0.131 A 
ATOM     95  C   UNL A   1      40.178  34.246  39.290  1.00  0.00     0.055 A 
ATOM     96  C   UNL A   1      39.646  36.364  38.307  1.00  0.00     0.041 A 
ATOM     97  F   UNL A   1      39.533  36.603  36.006  1.00  0.00    -0.206 F 
ATOM     98  C   UNL A   1      39.899  35.606  39.436  1.00  0.00     0.022 A 
BRANCH  95  99
ATOM     99  S   UNL A   1      40.573  33.295  40.797  1.00  0.00     0.124 S 
ATOM    100  O   UNL A   1      39.770  32.090  40.622  1.00  0.00    -0.237 OA
ATOM    101  O   UNL A   1      42.018  33.133  40.698  1.00  0.00    -0.237 OA
ATOM    102  O   UNL A   1      40.129  34.172  41.882  1.00  0.00    -0.744 OA
ENDBRANCH  95  99
ENDBRANCH  68  92
BRANCH  80 103
ATOM    103  C   UNL A   1      38.920  31.923  31.076  1.00  0.00     0.023 A 
ATOM    104  C   UNL A   1      37.537  31.782  30.808  1.00  0.00     0.031 A 
ATOM    105  C   UNL A   1      39.568  33.062  30.564  1.00  0.00     0.131 A 
ATOM    106  C   UNL A   1      36.864  32.760  30.045  1.00  0.00     0.055 A 
ATOM    107  C   UNL A   1      38.895  34.036  29.830  1.00  0.00     0.041 A 
ATOM    108  F   UNL A   1      40.874  33.268  30.805  1.00  0.00    -0.206 F 
ATOM    109  C   UNL A   1      37.540  33.885  29.563  1.00  0.00     0.022 A 
BRANCH 106 110
ATOM    110  S   UNL A   1      35.094  32.582  29.645  1.00  0.00     0.124 S 
ATOM    111  O   UNL A   1      34.454  32.499  30.951  1.00  0.00    -0.237 OA
ATOM    112  O   UNL A   1      34.822  33.792  28.873  1.00  0.00    -0.237 OA
ATOM    113  O   UNL A   1      35.045  31.343  28.864  1.00  0.00    -0.744 OA
ENDBRANCH 106 110
ENDBRANCH  80 103
ENDBRANCH  54  55
ENDBRANCH  47  49
ENDBRANCH  46  47
ENDBRANCH  45  46
ENDBRANCH  44  45
ENDBRANCH  43  44
ENDBRANCH  42  43
ENDBRANCH   1  42
TORSDOF 27
ENDMDL
MODEL 2
REMARK VINA RESULT:      -7.1      5.239     13.267
REMARK SMILES COc1cc([C@@H]2CC(=O)Nc3c(C(=O)OCCOCCOCCOCCOC(=O)c4ccc(-c5c6nc(c(-c7cc(S(=O)(=O)[O-])ccc7F)c7ccc([nH]7)c(-c7cc(S(=O)(=O)[O-])ccc7F)c7nc(c(-c8cc(S(=O)(=O)[O-])ccc8F)c8ccc5[nH]8)C=C7)C=C6)cc4)cn(-c4ccc(F)cc4)c32)c(OC)c2c1OCO2
REMARK SMILES IDX 22 1 21 2 20 3 19 4 18 5 17 6 16 7 15 8 13 9 14 10 12 11
REMARK SMILES IDX 6 12 7 13 102 14 8 15 11 16 94 17 9 18 10 19 93 20 5 22 3 23
REMARK SMILES IDX 4 24 107 25 106 26 108 27 103 28 110 29 109 30 2 31 1 32
REMARK SMILES IDX 104 33 105 34 95 35 96 36 101 37 97 38 100 39 98 40 99 41
REMARK SMILES IDX 23 42 24 43 25 44 26 45 27 46 28 47 29 48 30 49 31 50 92 51
REMARK SMILES IDX 32 52 91 53 33 54 34 55 35 56 85 57 36 58 90 59 84 60 86 61
REMARK SMILES IDX 37 62 89 63 83 64 82 65 38 67 70 68 50 69 69 70 51 71 54 72
REMARK SMILES IDX 68 73 87 74 52 75 53 76 67 78 88 79 55 80 39 81 40 82 48 83
REMARK SMILES IDX 41 84 47 85 49 86 46 87 42 88 43 89 44 90 45 91 71 92 72 93
REMARK SMILES IDX 80 94 73 95 79 96 81 97 78 98 74 99 75 100 76 101 77 102
REMARK SMILES IDX 56 103 57 104 65 105 58 106 64 107 66 108 63 109 59 110
REMARK SMILES IDX 60 111 61 112 62 113
REMARK H PARENT 10 21 86 66 54 77
REMARK Flexibility Score: inf
ROOT
ATOM      1  C   UNL A   1      46.405  25.858  30.776  1.00  0.00     0.188 C 
ENDROOT
BRANCH   1   2
ATOM      2  O   UNL A   1      45.379  25.830  31.772  1.00  0.00    -0.377 OA
BRANCH   2   3
ATOM      3  C   UNL A   1      44.720  24.585  31.922  1.00  0.00     0.188 C 
BRANCH   3   4
ATOM      4  C   UNL A   1      43.948  24.420  33.253  1.00  0.00     0.188 C 
BRANCH   4   5
ATOM      5  O   UNL A   1      43.559  23.151  33.775  1.00  0.00    -0.376 OA
BRANCH   5   6
ATOM      6  C   UNL A   1      44.488  22.204  34.270  1.00  0.00     0.202 C 
BRANCH   6   7
ATOM      7  C   UNL A   1      44.914  22.204  35.746  1.00  0.00     0.261 C 
BRANCH   7   8
ATOM      8  O   UNL A   1      46.148  22.857  36.040  1.00  0.00    -0.460 OA
BRANCH   8   9
ATOM      9  C   UNL A   1      46.823  22.346  37.104  1.00  0.00     0.341 C 
ATOM     10  O   UNL A   1      46.300  21.881  38.110  1.00  0.00    -0.246 OA
BRANCH   9  11
ATOM     11  C   UNL A   1      48.256  22.318  36.871  1.00  0.00     0.102 A 
ATOM     12  C   UNL A   1      51.278  21.980  34.806  1.00  0.00     0.082 C 
ATOM     13  C   UNL A   1      50.925  20.720  33.994  1.00  0.00     0.115 C 
ATOM     14  C   UNL A   1      50.282  22.154  35.908  1.00  0.00     0.055 A 
ATOM     15  C   UNL A   1      49.434  20.445  33.826  1.00  0.00     0.225 C 
ATOM     16  C   UNL A   1      48.993  21.682  35.849  1.00  0.00     0.078 A 
ATOM     17  N   UNL A   1      50.439  22.804  37.111  1.00  0.00    -0.317 N 
ATOM     18  O   UNL A   1      49.006  19.800  32.868  1.00  0.00    -0.275 OA
ATOM     19  N   UNL A   1      48.587  20.855  34.827  1.00  0.00    -0.324 N 
ATOM     20  C   UNL A   1      49.202  22.914  37.697  1.00  0.00     0.109 A 
ATOM     21  H   UNL A   1      47.652  20.546  34.812  1.00  0.00     0.170 HD
BRANCH  12  22
ATOM     22  C   UNL A   1      51.400  23.241  33.931  1.00  0.00     0.012 A 
ATOM     23  C   UNL A   1      50.201  25.096  32.860  1.00  0.00     0.165 A 
ATOM     24  C   UNL A   1      50.238  24.039  33.771  1.00  0.00     0.059 A 
ATOM     25  C   UNL A   1      51.367  25.419  32.194  1.00  0.00     0.211 A 
ATOM     26  C   UNL A   1      52.526  24.691  32.375  1.00  0.00     0.211 A 
ATOM     27  O   UNL A   1      51.539  26.447  31.315  1.00  0.00    -0.449 OA
ATOM     28  C   UNL A   1      52.577  23.594  33.222  1.00  0.00     0.168 A 
ATOM     29  O   UNL A   1      53.545  25.179  31.611  1.00  0.00    -0.449 OA
ATOM     30  C   UNL A   1      52.942  26.346  31.038  1.00  0.00     0.468 C 
BRANCH  23  31
ATOM     31  O   UNL A   1      49.007  25.739  32.711  1.00  0.00    -0.493 OA
ATOM     32  C   UNL A   1      49.059  27.107  33.114  1.00  0.00     0.278 C 
ENDBRANCH  23  31
BRANCH  28  33
ATOM     33  O   UNL A   1      53.666  22.808  33.422  1.00  0.00    -0.492 OA
ATOM     34  C   UNL A   1      54.747  22.820  32.506  1.00  0.00     0.278 C 
ENDBRANCH  28  33
ENDBRANCH  12  22
BRANCH  17  35
ATOM     35  C   UNL A   1      51.627  23.337  37.644  1.00  0.00     0.046 A 
ATOM     36  C   UNL A   1      52.164  22.764  38.798  1.00  0.00     0.029 A 
ATOM     37  C   UNL A   1      52.227  24.446  37.039  1.00  0.00     0.029 A 
ATOM     38  C   UNL A   1      53.266  23.355  39.408  1.00  0.00     0.041 A 
ATOM     39  C   UNL A   1      53.337  25.030  37.655  1.00  0.00     0.041 A 
ATOM     40  C   UNL A   1      53.835  24.488  38.839  1.00  0.00     0.123 A 
ATOM     41  F   UNL A   1      54.881  25.067  39.442  1.00  0.00    -0.207 F 
ENDBRANCH  17  35
ENDBRANCH   9  11
ENDBRANCH   8   9
ENDBRANCH   7   8
ENDBRANCH   6   7
ENDBRANCH   5   6
ENDBRANCH   4   5
ENDBRANCH   3   4
ENDBRANCH   2   3
ENDBRANCH   1   2
BRANCH   1  42
ATOM     42  C   UNL A   1      45.979  26.183  29.320  1.00  0.00     0.188 C 
BRANCH  42  43
ATOM     43  O   UNL A   1      46.494  25.288  28.340  1.00  0.00    -0.376 OA
BRANCH  43  44
ATOM     44  C   UNL A   1      45.836  24.077  28.007  1.00  0.00     0.202 C 
BRANCH  44  45
ATOM     45  C   UNL A   1      44.738  24.159  26.954  1.00  0.00     0.261 C 
BRANCH  45  46
ATOM     46  O   UNL A   1      43.444  23.978  27.488  1.00  0.00    -0.460 OA
BRANCH  46  47
ATOM     47  C   UNL A   1      42.459  24.582  26.804  1.00  0.00     0.338 C 
ATOM     48  O   UNL A   1      42.226  24.495  25.601  1.00  0.00    -0.246 OA
BRANCH  47  49
ATOM     49  C   UNL A   1      41.758  25.470  27.719  1.00  0.00     0.060 A 
ATOM     50  C   UNL A   1      40.823  26.333  27.147  1.00  0.00     0.016 A 
ATOM     51  C   UNL A   1      42.346  25.695  28.972  1.00  0.00     0.016 A 
ATOM     52  C   UNL A   1      40.703  27.581  27.699  1.00  0.00     0.010 A 
ATOM     53  C   UNL A   1      42.266  26.954  29.486  1.00  0.00     0.010 A 
ATOM     54  C   UNL A   1      41.521  27.898  28.785  1.00  0.00    -0.014 A 
BRANCH  54  55
ATOM     55  C   UNL A   1      41.519  29.253  29.276  1.00  0.00     0.031 A 
ATOM     56  C   UNL A   1      42.630  30.029  28.689  1.00  0.00     0.074 A 
ATOM     57  C   UNL A   1      40.506  29.710  30.036  1.00  0.00     0.049 A 
ATOM     58  N   UNL A   1      43.675  30.492  29.287  1.00  0.00    -0.248 NA
ATOM     59  C   UNL A   1      42.722  30.069  27.215  1.00  0.00     0.031 C 
ATOM     60  C   UNL A   1      39.263  29.013  30.386  1.00  0.00     0.029 A 
ATOM     61  N   UNL A   1      40.310  30.949  30.553  1.00  0.00    -0.354 N 
ATOM     62  C   UNL A   1      44.393  31.138  28.288  1.00  0.00     0.074 A 
ATOM     63  C   UNL A   1      43.939  30.581  27.050  1.00  0.00     0.031 C 
ATOM     64  C   UNL A   1      38.358  29.916  30.833  1.00  0.00     0.029 A 
ATOM     65  C   UNL A   1      38.990  31.225  30.901  1.00  0.00     0.049 A 
ATOM     66  H   UNL A   1      41.040  31.598  30.673  1.00  0.00     0.167 HD
ATOM     67  C   UNL A   1      45.001  32.327  28.542  1.00  0.00     0.034 A 
ATOM     68  C   UNL A   1      38.449  32.455  31.124  1.00  0.00     0.034 A 
ATOM     69  C   UNL A   1      45.228  32.482  29.967  1.00  0.00     0.049 A 
ATOM     70  C   UNL A   1      39.588  33.381  31.375  1.00  0.00     0.074 A 
ATOM     71  C   UNL A   1      45.878  31.718  30.919  1.00  0.00     0.029 A 
ATOM     72  N   UNL A   1      44.401  33.329  30.673  1.00  0.00    -0.354 N 
ATOM     73  N   UNL A   1      40.377  33.283  32.412  1.00  0.00    -0.248 NA
ATOM     74  C   UNL A   1      40.166  34.073  30.230  1.00  0.00     0.031 C 
ATOM     75  C   UNL A   1      45.064  31.806  32.086  1.00  0.00     0.029 A 
ATOM     76  C   UNL A   1      44.013  32.689  31.825  1.00  0.00     0.049 A 
ATOM     77  H   UNL A   1      44.134  34.237  30.400  1.00  0.00     0.167 HD
ATOM     78  C   UNL A   1      41.656  33.499  31.919  1.00  0.00     0.074 A 
ATOM     79  C   UNL A   1      41.454  34.073  30.588  1.00  0.00     0.031 C 
ATOM     80  C   UNL A   1      42.747  32.919  32.503  1.00  0.00     0.034 A 
BRANCH  67  81
ATOM     81  C   UNL A   1      44.960  33.501  27.579  1.00  0.00     0.023 A 
ATOM     82  C   UNL A   1      46.182  33.852  26.984  1.00  0.00     0.031 A 
ATOM     83  C   UNL A   1      43.919  34.452  27.430  1.00  0.00     0.131 A 
ATOM     84  C   UNL A   1      46.377  35.129  26.433  1.00  0.00     0.055 A 
ATOM     85  C   UNL A   1      44.100  35.697  26.824  1.00  0.00     0.041 A 
ATOM     86  F   UNL A   1      42.684  34.284  27.914  1.00  0.00    -0.206 F 
ATOM     87  C   UNL A   1      45.347  36.061  26.357  1.00  0.00     0.022 A 
BRANCH  84  88
ATOM     88  S   UNL A   1      48.062  35.608  25.995  1.00  0.00     0.124 S 
ATOM     89  O   UNL A   1      48.737  35.491  27.283  1.00  0.00    -0.237 OA
ATOM     90  O   UNL A   1      48.403  34.603  24.993  1.00  0.00    -0.237 OA
ATOM     91  O   UNL A   1      47.904  36.968  25.488  1.00  0.00    -0.744 OA
ENDBRANCH  84  88
ENDBRANCH  67  81
BRANCH  68  92
ATOM     92  C   UNL A   1      37.077  32.917  30.752  1.00  0.00     0.023 A 
ATOM     93  C   UNL A   1      36.127  33.360  31.700  1.00  0.00     0.031 A 
ATOM     94  C   UNL A   1      36.758  33.145  29.393  1.00  0.00     0.131 A 
ATOM     95  C   UNL A   1      34.927  33.986  31.274  1.00  0.00     0.055 A 
ATOM     96  C   UNL A   1      35.572  33.757  28.978  1.00  0.00     0.041 A 
ATOM     97  F   UNL A   1      37.629  32.857  28.414  1.00  0.00    -0.206 F 
ATOM     98  C   UNL A   1      34.654  34.188  29.919  1.00  0.00     0.022 A 
BRANCH  95  99
ATOM     99  S   UNL A   1      33.724  34.628  32.487  1.00  0.00     0.124 S 
ATOM    100  O   UNL A   1      32.702  35.216  31.628  1.00  0.00    -0.237 OA
ATOM    101  O   UNL A   1      33.345  33.427  33.220  1.00  0.00    -0.237 OA
ATOM    102  O   UNL A   1      34.503  35.597  33.261  1.00  0.00    -0.744 OA
ENDBRANCH  95  99
ENDBRANCH  68  92
BRANCH  80 103
ATOM    103  C   UNL A   1      42.585  32.298  33.879  1.00  0.00     0.023 A 
ATOM    104  C   UNL A   1      42.256  30.946  34.136  1.00  0.00     0.031 A 
ATOM    105  C   UNL A   1      42.901  33.110  34.983  1.00  0.00     0.131 A 
ATOM    106  C   UNL A   1      42.246  30.463  35.462  1.00  0.00     0.055 A 
ATOM    107  C   UNL A   1      42.912  32.624  36.288  1.00  0.00     0.041 A 
ATOM    108  F   UNL A   1      43.247  34.397  34.805  1.00  0.00    -0.206 F 
ATOM    109  C   UNL A   1      42.578  31.298  36.534  1.00  0.00     0.022 A 
BRANCH 106 110
ATOM    110  S   UNL A   1      41.781  28.737  35.828  1.00  0.00     0.124 S 
ATOM    111  O   UNL A   1      42.730  28.339  36.860  1.00  0.00    -0.237 OA
ATOM    112  O   UNL A   1      40.390  28.869  36.253  1.00  0.00    -0.237 OA
ATOM    113  O   UNL A   1      41.960  28.058  34.542  1.00  0.00    -0.744 OA
ENDBRANCH 106 110
ENDBRANCH  80 103
ENDBRANCH  54  55
ENDBRANCH  47  49
ENDBRANCH  46  47
ENDBRANCH  45  46
ENDBRANCH  44  45
ENDBRANCH  43  44
ENDBRANCH  42  43
ENDBRANCH   1  42
TORSDOF 27
ENDMDL
MODEL 3
REMARK VINA RESULT:      -7.0      4.242      9.496
REMARK SMILES COc1cc([C@@H]2CC(=O)Nc3c(C(=O)OCCOCCOCCOCCOC(=O)c4ccc(-c5c6nc(c(-c7cc(S(=O)(=O)[O-])ccc7F)c7ccc([nH]7)c(-c7cc(S(=O)(=O)[O-])ccc7F)c7nc(c(-c8cc(S(=O)(=O)[O-])ccc8F)c8ccc5[nH]8)C=C7)C=C6)cc4)cn(-c4ccc(F)cc4)c32)c(OC)c2c1OCO2
REMARK SMILES IDX 22 1 21 2 20 3 19 4 18 5 17 6 16 7 15 8 13 9 14 10 12 11
REMARK SMILES IDX 6 12 7 13 102 14 8 15 11 16 94 17 9 18 10 19 93 20 5 22 3 23
REMARK SMILES IDX 4 24 107 25 106 26 108 27 103 28 110 29 109 30 2 31 1 32
REMARK SMILES IDX 104 33 105 34 95 35 96 36 101 37 97 38 100 39 98 40 99 41
REMARK SMILES IDX 23 42 24 43 25 44 26 45 27 46 28 47 29 48 30 49 31 50 92 51
REMARK SMILES IDX 32 52 91 53 33 54 34 55 35 56 85 57 36 58 90 59 84 60 86 61
REMARK SMILES IDX 37 62 89 63 83 64 82 65 38 67 70 68 50 69 69 70 51 71 54 72
REMARK SMILES IDX 68 73 87 74 52 75 53 76 67 78 88 79 55 80 39 81 40 82 48 83
REMARK SMILES IDX 41 84 47 85 49 86 46 87 42 88 43 89 44 90 45 91 71 92 72 93
REMARK SMILES IDX 80 94 73 95 79 96 81 97 78 98 74 99 75 100 76 101 77 102
REMARK SMILES IDX 56 103 57 104 65 105 58 106 64 107 66 108 63 109 59 110
REMARK SMILES IDX 60 111 61 112 62 113
REMARK H PARENT 10 21 86 66 54 77
REMARK Flexibility Score: inf
ROOT
ATOM      1  C   UNL A   1      51.169  38.130  29.335  1.00  0.00     0.188 C 
ENDROOT
BRANCH   1   2
ATOM      2  O   UNL A   1      51.816  38.674  30.488  1.00  0.00    -0.377 OA
BRANCH   2   3
ATOM      3  C   UNL A   1      51.109  39.715  31.139  1.00  0.00     0.188 C 
BRANCH   3   4
ATOM      4  C   UNL A   1      50.581  39.353  32.549  1.00  0.00     0.188 C 
BRANCH   4   5
ATOM      5  O   UNL A   1      49.483  38.469  32.765  1.00  0.00    -0.376 OA
BRANCH   5   6
ATOM      6  C   UNL A   1      49.335  37.698  33.944  1.00  0.00     0.202 C 
BRANCH   6   7
ATOM      7  C   UNL A   1      48.058  36.886  34.209  1.00  0.00     0.261 C 
BRANCH   7   8
ATOM      8  O   UNL A   1      48.070  35.537  33.750  1.00  0.00    -0.460 OA
BRANCH   8   9
ATOM      9  C   UNL A   1      47.495  35.343  32.533  1.00  0.00     0.341 C 
ATOM     10  O   UNL A   1      47.937  35.767  31.471  1.00  0.00    -0.246 OA
BRANCH   9  11
ATOM     11  C   UNL A   1      46.332  34.477  32.617  1.00  0.00     0.102 A 
ATOM     12  C   UNL A   1      43.916  32.322  34.358  1.00  0.00     0.082 C 
ATOM     13  C   UNL A   1      44.869  31.449  35.194  1.00  0.00     0.115 C 
ATOM     14  C   UNL A   1      44.710  33.110  33.365  1.00  0.00     0.055 A 
ATOM     15  C   UNL A   1      46.223  32.075  35.513  1.00  0.00     0.225 C 
ATOM     16  C   UNL A   1      46.023  33.468  33.554  1.00  0.00     0.078 A 
ATOM     17  N   UNL A   1      44.301  33.626  32.156  1.00  0.00    -0.317 N 
ATOM     18  O   UNL A   1      46.867  31.736  36.506  1.00  0.00    -0.275 OA
ATOM     19  N   UNL A   1      46.751  32.964  34.608  1.00  0.00    -0.324 N 
ATOM     20  C   UNL A   1      45.286  34.469  31.701  1.00  0.00     0.109 A 
ATOM     21  H   UNL A   1      47.686  33.252  34.717  1.00  0.00     0.170 HD
BRANCH  12  22
ATOM     22  C   UNL A   1      43.013  33.221  35.223  1.00  0.00     0.012 A 
ATOM     23  C   UNL A   1      42.924  35.122  36.773  1.00  0.00     0.165 A 
ATOM     24  C   UNL A   1      43.612  34.353  35.834  1.00  0.00     0.059 A 
ATOM     25  C   UNL A   1      41.598  34.819  37.012  1.00  0.00     0.211 A 
ATOM     26  C   UNL A   1      40.977  33.756  36.388  1.00  0.00     0.211 A 
ATOM     27  O   UNL A   1      40.754  35.488  37.847  1.00  0.00    -0.449 OA
ATOM     28  C   UNL A   1      41.652  32.932  35.501  1.00  0.00     0.168 A 
ATOM     29  O   UNL A   1      39.676  33.638  36.782  1.00  0.00    -0.449 OA
ATOM     30  C   UNL A   1      39.520  34.796  37.611  1.00  0.00     0.468 C 
BRANCH  23  31
ATOM     31  O   UNL A   1      43.622  36.129  37.374  1.00  0.00    -0.493 OA
ATOM     32  C   UNL A   1      44.251  35.722  38.588  1.00  0.00     0.278 C 
ENDBRANCH  23  31
BRANCH  28  33
ATOM     33  O   UNL A   1      41.122  31.847  34.879  1.00  0.00    -0.492 OA
ATOM     34  C   UNL A   1      40.850  30.658  35.600  1.00  0.00     0.278 C 
ENDBRANCH  28  33
ENDBRANCH  12  22
BRANCH  17  35
ATOM     35  C   UNL A   1      43.073  33.408  31.507  1.00  0.00     0.046 A 
ATOM     36  C   UNL A   1      42.013  34.281  31.757  1.00  0.00     0.029 A 
ATOM     37  C   UNL A   1      42.920  32.309  30.655  1.00  0.00     0.029 A 
ATOM     38  C   UNL A   1      40.759  34.009  31.220  1.00  0.00     0.041 A 
ATOM     39  C   UNL A   1      41.658  32.046  30.115  1.00  0.00     0.041 A 
ATOM     40  C   UNL A   1      40.589  32.889  30.415  1.00  0.00     0.123 A 
ATOM     41  F   UNL A   1      39.375  32.618  29.920  1.00  0.00    -0.207 F 
ENDBRANCH  17  35
ENDBRANCH   9  11
ENDBRANCH   8   9
ENDBRANCH   7   8
ENDBRANCH   6   7
ENDBRANCH   5   6
ENDBRANCH   4   5
ENDBRANCH   3   4
ENDBRANCH   2   3
ENDBRANCH   1   2
BRANCH   1  42
ATOM     42  C   UNL A   1      50.993  36.590  29.273  1.00  0.00     0.188 C 
BRANCH  42  43
ATOM     43  O   UNL A   1      49.813  36.157  28.606  1.00  0.00    -0.376 OA
BRANCH  43  44
ATOM     44  C   UNL A   1      49.629  36.332  27.211  1.00  0.00     0.202 C 
BRANCH  44  45
ATOM     45  C   UNL A   1      48.329  36.990  26.767  1.00  0.00     0.261 C 
BRANCH  45  46
ATOM     46  O   UNL A   1      47.244  36.089  26.710  1.00  0.00    -0.460 OA
BRANCH  46  47
ATOM     47  C   UNL A   1      47.527  34.892  26.172  1.00  0.00     0.338 C 
ATOM     48  O   UNL A   1      47.620  34.616  24.979  1.00  0.00    -0.246 OA
BRANCH  47  49
ATOM     49  C   UNL A   1      47.598  33.921  27.253  1.00  0.00     0.060 A 
ATOM     50  C   UNL A   1      48.289  32.741  26.978  1.00  0.00     0.016 A 
ATOM     51  C   UNL A   1      46.654  34.036  28.283  1.00  0.00     0.016 A 
ATOM     52  C   UNL A   1      47.811  31.588  27.544  1.00  0.00     0.010 A 
ATOM     53  C   UNL A   1      46.146  32.883  28.802  1.00  0.00     0.010 A 
ATOM     54  C   UNL A   1      46.673  31.677  28.349  1.00  0.00    -0.014 A 
BRANCH  54  55
ATOM     55  C   UNL A   1      46.068  30.458  28.823  1.00  0.00     0.031 A 
ATOM     56  C   UNL A   1      46.751  29.967  30.037  1.00  0.00     0.074 A 
ATOM     57  C   UNL A   1      44.933  29.991  28.269  1.00  0.00     0.049 A 
ATOM     58  N   UNL A   1      47.470  28.905  30.165  1.00  0.00    -0.248 NA
ATOM     59  C   UNL A   1      46.864  30.903  31.175  1.00  0.00     0.031 C 
ATOM     60  C   UNL A   1      44.105  30.635  27.243  1.00  0.00     0.029 A 
ATOM     61  N   UNL A   1      44.202  28.897  28.599  1.00  0.00    -0.354 N 
ATOM     62  C   UNL A   1      47.869  28.910  31.497  1.00  0.00     0.074 A 
ATOM     63  C   UNL A   1      47.742  30.264  31.943  1.00  0.00     0.031 C 
ATOM     64  C   UNL A   1      42.885  30.050  27.225  1.00  0.00     0.029 A 
ATOM     65  C   UNL A   1      42.883  28.930  28.155  1.00  0.00     0.049 A 
ATOM     66  H   UNL A   1      44.574  28.142  29.111  1.00  0.00     0.167 HD
ATOM     67  C   UNL A   1      47.892  27.752  32.208  1.00  0.00     0.034 A 
ATOM     68  C   UNL A   1      41.855  28.158  28.604  1.00  0.00     0.034 A 
ATOM     69  C   UNL A   1      47.984  26.613  31.314  1.00  0.00     0.049 A 
ATOM     70  C   UNL A   1      42.470  26.994  29.299  1.00  0.00     0.074 A 
ATOM     71  C   UNL A   1      48.869  26.251  30.316  1.00  0.00     0.029 A 
ATOM     72  N   UNL A   1      46.848  25.863  31.091  1.00  0.00    -0.354 N 
ATOM     73  N   UNL A   1      43.189  26.091  28.688  1.00  0.00    -0.248 NA
ATOM     74  C   UNL A   1      42.727  27.115  30.729  1.00  0.00     0.031 C 
ATOM     75  C   UNL A   1      48.061  25.683  29.288  1.00  0.00     0.029 A 
ATOM     76  C   UNL A   1      46.740  25.638  29.741  1.00  0.00     0.049 A 
ATOM     77  H   UNL A   1      46.223  25.543  31.782  1.00  0.00     0.167 HD
ATOM     78  C   UNL A   1      44.263  25.846  29.532  1.00  0.00     0.074 A 
ATOM     79  C   UNL A   1      43.875  26.435  30.814  1.00  0.00     0.031 C 
ATOM     80  C   UNL A   1      45.478  25.462  29.039  1.00  0.00     0.034 A 
BRANCH  67  81
ATOM     81  C   UNL A   1      47.377  27.646  33.633  1.00  0.00     0.023 A 
ATOM     82  C   UNL A   1      45.998  27.425  33.774  1.00  0.00     0.031 A 
ATOM     83  C   UNL A   1      48.054  28.024  34.820  1.00  0.00     0.131 A 
ATOM     84  C   UNL A   1      45.337  27.725  34.977  1.00  0.00     0.055 A 
ATOM     85  C   UNL A   1      47.401  28.261  36.032  1.00  0.00     0.041 A 
ATOM     86  F   UNL A   1      49.368  28.261  34.883  1.00  0.00    -0.206 F 
ATOM     87  C   UNL A   1      46.027  28.153  36.106  1.00  0.00     0.022 A 
BRANCH  84  88
ATOM     88  S   UNL A   1      43.531  27.728  34.966  1.00  0.00     0.124 S 
ATOM     89  O   UNL A   1      43.244  26.330  34.664  1.00  0.00    -0.237 OA
ATOM     90  O   UNL A   1      43.230  28.171  36.323  1.00  0.00    -0.237 OA
ATOM     91  O   UNL A   1      43.203  28.681  33.909  1.00  0.00    -0.744 OA
ENDBRANCH  84  88
ENDBRANCH  67  81
BRANCH  68  92
ATOM     92  C   UNL A   1      40.430  28.572  28.792  1.00  0.00     0.023 A 
ATOM     93  C   UNL A   1      39.879  28.896  30.052  1.00  0.00     0.031 A 
ATOM     94  C   UNL A   1      39.635  28.879  27.663  1.00  0.00     0.131 A 
ATOM     95  C   UNL A   1      38.593  29.486  30.141  1.00  0.00     0.055 A 
ATOM     96  C   UNL A   1      38.365  29.454  27.757  1.00  0.00     0.041 A 
ATOM     97  F   UNL A   1      40.098  28.707  26.416  1.00  0.00    -0.206 F 
ATOM     98  C   UNL A   1      37.841  29.769  28.998  1.00  0.00     0.022 A 
BRANCH  95  99
ATOM     99  S   UNL A   1      37.897  29.977  31.756  1.00  0.00     0.124 S 
ATOM    100  O   UNL A   1      37.297  28.734  32.226  1.00  0.00    -0.237 OA
ATOM    101  O   UNL A   1      39.075  30.443  32.477  1.00  0.00    -0.237 OA
ATOM    102  O   UNL A   1      36.937  31.027  31.410  1.00  0.00    -0.744 OA
ENDBRANCH  95  99
ENDBRANCH  68  92
BRANCH  80 103
ATOM    103  C   UNL A   1      45.557  24.996  27.596  1.00  0.00     0.023 A 
ATOM    104  C   UNL A   1      45.255  23.692  27.136  1.00  0.00     0.031 A 
ATOM    105  C   UNL A   1      45.844  25.975  26.628  1.00  0.00     0.131 A 
ATOM    106  C   UNL A   1      45.257  23.414  25.753  1.00  0.00     0.055 A 
ATOM    107  C   UNL A   1      45.823  25.702  25.262  1.00  0.00     0.041 A 
ATOM    108  F   UNL A   1      46.114  27.239  26.996  1.00  0.00    -0.206 F 
ATOM    109  C   UNL A   1      45.535  24.418  24.819  1.00  0.00     0.022 A 
BRANCH 106 110
ATOM    110  S   UNL A   1      44.916  21.733  25.134  1.00  0.00     0.124 S 
ATOM    111  O   UNL A   1      44.558  21.949  23.737  1.00  0.00    -0.237 OA
ATOM    112  O   UNL A   1      46.183  21.046  25.372  1.00  0.00    -0.237 OA
ATOM    113  O   UNL A   1      43.811  21.276  25.981  1.00  0.00    -0.744 OA
ENDBRANCH 106 110
ENDBRANCH  80 103
ENDBRANCH  54  55
ENDBRANCH  47  49
ENDBRANCH  46  47
ENDBRANCH  45  46
ENDBRANCH  44  45
ENDBRANCH  43  44
ENDBRANCH  42  43
ENDBRANCH   1  42
TORSDOF 27
ENDMDL
