MODEL 1
REMARK VINA RESULT:      -9.9      0.000      0.000
REMARK SMILES Cc1ccc2[nH]cc([C@@H](C(=O)OCCOCCOCCOCCOC(=O)c3ccc(-c4c5nc(c(-c6cc(S(=O)(=O)[O-])ccc6F)c6ccc([nH]6)c(-c6cc(S(=O)(=O)[O-])ccc6F)c6nc(c(-c7cc(S(=O)(=O)[O-])ccc7F)c7ccc4[nH]7)C=C6)C=C5)cc3)[NH+]3CCN(c4cccc(Cl)c4)CC3)c2c1
REMARK SMILES IDX 19 1 18 2 17 3 16 4 15 5 14 6 13 7 12 8 10 9 11 10 9 11 8 12
REMARK SMILES IDX 1 13 2 14 3 15 104 16 4 17 103 18 5 19 6 20 7 21 90 23 91 24
REMARK SMILES IDX 102 25 92 27 101 28 93 29 94 30 95 31 100 32 96 33 98 34
REMARK SMILES IDX 97 35 99 36 20 37 21 38 22 39 23 40 24 41 25 42 26 43 27 44
REMARK SMILES IDX 28 45 89 46 29 47 88 48 30 49 31 50 32 51 82 52 33 53 87 54
REMARK SMILES IDX 81 55 83 56 34 57 86 58 80 59 79 60 35 62 67 63 47 64 66 65
REMARK SMILES IDX 48 66 51 67 65 68 84 69 49 70 50 71 64 73 85 74 52 75 36 76
REMARK SMILES IDX 37 77 45 78 38 79 44 80 46 81 43 82 39 83 40 84 41 85 42 86
REMARK SMILES IDX 68 87 69 88 77 89 70 90 76 91 78 92 75 93 71 94 72 95 73 96
REMARK SMILES IDX 74 97 53 98 54 99 62 100 55 101 61 102 63 103 60 104 56 105
REMARK SMILES IDX 57 106 58 107 59 108
REMARK H PARENT 6 22 90 26 83 61 51 72
REMARK Flexibility Score: inf
ROOT
ATOM      1  C   UNL A   1      38.551  29.839  28.011  1.00  0.00     0.188 C 
ENDROOT
BRANCH   1   2
ATOM      2  O   UNL A   1      37.676  30.870  28.421  1.00  0.00    -0.377 OA
BRANCH   2   3
ATOM      3  C   UNL A   1      36.441  30.515  28.994  1.00  0.00     0.188 C 
BRANCH   3   4
ATOM      4  C   UNL A   1      35.196  31.051  28.294  1.00  0.00     0.188 C 
BRANCH   4   5
ATOM      5  O   UNL A   1      34.335  30.151  27.619  1.00  0.00    -0.376 OA
BRANCH   5   6
ATOM      6  C   UNL A   1      33.000  30.543  27.310  1.00  0.00     0.202 C 
BRANCH   6   7
ATOM      7  C   UNL A   1      32.234  29.855  26.157  1.00  0.00     0.261 C 
BRANCH   7   8
ATOM      8  O   UNL A   1      31.760  28.497  26.378  1.00  0.00    -0.459 OA
BRANCH   8   9
ATOM      9  C   UNL A   1      32.481  27.499  25.795  1.00  0.00     0.370 C 
ATOM     10  O   UNL A   1      33.450  26.981  26.358  1.00  0.00    -0.245 OA
BRANCH   9  11
ATOM     11  C   UNL A   1      32.045  27.058  24.360  1.00  0.00     0.328 C 
BRANCH  11  12
ATOM     12  C   UNL A   1      31.598  28.047  23.275  1.00  0.00     0.046 A 
ATOM     13  C   UNL A   1      26.471  28.098  23.617  1.00  0.00     0.044 C 
ATOM     14  C   UNL A   1      27.786  28.628  23.129  1.00  0.00    -0.050 A 
ATOM     15  C   UNL A   1      27.836  29.740  22.287  1.00  0.00     0.005 A 
ATOM     16  C   UNL A   1      28.974  27.981  23.516  1.00  0.00     0.014 A 
ATOM     17  C   UNL A   1      29.050  30.206  21.783  1.00  0.00     0.027 A 
ATOM     18  C   UNL A   1      30.219  28.431  23.029  1.00  0.00     0.009 A 
ATOM     19  C   UNL A   1      30.209  29.520  22.154  1.00  0.00     0.046 A 
ATOM     20  N   UNL A   1      31.504  29.736  21.776  1.00  0.00    -0.361 N 
ATOM     21  C   UNL A   1      32.332  28.866  22.430  1.00  0.00     0.094 A 
ATOM     22  H   UNL A   1      31.796  30.418  21.128  1.00  0.00     0.166 HD
ENDBRANCH  11  12
BRANCH  11  23
ATOM     23  N   UNL A   1      31.176  25.848  24.449  1.00  0.00    -0.316 N 
ATOM     24  C   UNL A   1      31.007  24.946  23.306  1.00  0.00     0.284 C 
ATOM     25  C   UNL A   1      31.238  25.096  25.700  1.00  0.00     0.284 C 
ATOM     26  H   UNL A   1      30.312  26.390  24.419  1.00  0.00     0.349 HD
ATOM     27  C   UNL A   1      31.910  23.691  23.234  1.00  0.00     0.178 C 
ATOM     28  C   UNL A   1      32.259  23.943  25.718  1.00  0.00     0.178 C 
ATOM     29  N   UNL A   1      32.095  23.069  24.547  1.00  0.00    -0.360 N 
BRANCH  29  30
ATOM     30  C   UNL A   1      32.765  21.856  24.606  1.00  0.00     0.038 A 
ATOM     31  C   UNL A   1      32.123  20.617  24.473  1.00  0.00     0.026 A 
ATOM     32  C   UNL A   1      34.150  21.877  24.789  1.00  0.00     0.046 A 
ATOM     33  C   UNL A   1      32.853  19.425  24.538  1.00  0.00     0.004 A 
ATOM     34  C   UNL A   1      34.874  20.692  24.863  1.00  0.00     0.043 A 
ATOM     35  C   UNL A   1      34.232  19.463  24.739  1.00  0.00     0.020 A 
ATOM     36  Cl  UNL A   1      36.576  20.754  25.120  1.00  0.00    -0.084 Cl
ENDBRANCH  29  30
ENDBRANCH  11  23
ENDBRANCH   9  11
ENDBRANCH   8   9
ENDBRANCH   7   8
ENDBRANCH   6   7
ENDBRANCH   5   6
ENDBRANCH   4   5
ENDBRANCH   3   4
ENDBRANCH   2   3
ENDBRANCH   1   2
BRANCH   1  37
ATOM     37  C   UNL A   1      39.561  29.328  29.044  1.00  0.00     0.188 C 
BRANCH  37  38
ATOM     38  O   UNL A   1      40.410  28.307  28.531  1.00  0.00    -0.376 OA
BRANCH  38  39
ATOM     39  C   UNL A   1      40.377  27.008  29.097  1.00  0.00     0.202 C 
BRANCH  39  40
ATOM     40  C   UNL A   1      40.033  25.777  28.234  1.00  0.00     0.261 C 
BRANCH  40  41
ATOM     41  O   UNL A   1      40.689  25.620  26.968  1.00  0.00    -0.460 OA
BRANCH  41  42
ATOM     42  C   UNL A   1      41.647  24.669  26.863  1.00  0.00     0.338 C 
ATOM     43  O   UNL A   1      41.467  23.477  26.746  1.00  0.00    -0.246 OA
BRANCH  42  44
ATOM     44  C   UNL A   1      42.951  25.359  26.700  1.00  0.00     0.060 A 
ATOM     45  C   UNL A   1      43.713  25.631  27.843  1.00  0.00     0.016 A 
ATOM     46  C   UNL A   1      43.418  25.737  25.438  1.00  0.00     0.016 A 
ATOM     47  C   UNL A   1      44.921  26.321  27.735  1.00  0.00     0.010 A 
ATOM     48  C   UNL A   1      44.616  26.455  25.334  1.00  0.00     0.010 A 
ATOM     49  C   UNL A   1      45.351  26.785  26.486  1.00  0.00    -0.014 A 
BRANCH  49  50
ATOM     50  C   UNL A   1      46.421  27.814  26.433  1.00  0.00     0.031 A 
ATOM     51  C   UNL A   1      46.015  29.260  26.552  1.00  0.00     0.074 A 
ATOM     52  C   UNL A   1      47.721  27.480  26.343  1.00  0.00     0.049 A 
ATOM     53  N   UNL A   1      46.750  30.340  26.517  1.00  0.00    -0.248 NA
ATOM     54  C   UNL A   1      44.578  29.517  26.734  1.00  0.00     0.031 C 
ATOM     55  C   UNL A   1      48.240  26.115  26.284  1.00  0.00     0.029 A 
ATOM     56  N   UNL A   1      48.843  28.269  26.289  1.00  0.00    -0.354 N 
ATOM     57  C   UNL A   1      45.866  31.404  26.669  1.00  0.00     0.074 A 
ATOM     58  C   UNL A   1      44.538  30.839  26.752  1.00  0.00     0.031 C 
ATOM     59  C   UNL A   1      49.581  26.162  26.196  1.00  0.00     0.029 A 
ATOM     60  C   UNL A   1      50.013  27.559  26.152  1.00  0.00     0.049 A 
ATOM     61  H   UNL A   1      48.813  29.252  26.344  1.00  0.00     0.167 HD
ATOM     62  C   UNL A   1      46.139  32.730  26.743  1.00  0.00     0.034 A 
ATOM     63  C   UNL A   1      51.281  27.989  25.985  1.00  0.00     0.034 A 
ATOM     64  C   UNL A   1      47.469  33.277  26.645  1.00  0.00     0.049 A 
ATOM     65  C   UNL A   1      51.551  29.479  25.972  1.00  0.00     0.074 A 
ATOM     66  C   UNL A   1      47.862  34.603  26.707  1.00  0.00     0.029 A 
ATOM     67  N   UNL A   1      48.625  32.531  26.448  1.00  0.00    -0.354 N 
ATOM     68  N   UNL A   1      50.708  30.476  26.114  1.00  0.00    -0.248 NA
ATOM     69  C   UNL A   1      52.947  29.896  25.786  1.00  0.00     0.031 C 
ATOM     70  C   UNL A   1      49.238  34.663  26.462  1.00  0.00     0.029 A 
ATOM     71  C   UNL A   1      49.724  33.370  26.349  1.00  0.00     0.049 A 
ATOM     72  H   UNL A   1      48.659  31.548  26.387  1.00  0.00     0.167 HD
ATOM     73  C   UNL A   1      51.480  31.636  26.077  1.00  0.00     0.074 A 
ATOM     74  C   UNL A   1      52.855  31.211  25.912  1.00  0.00     0.031 C 
ATOM     75  C   UNL A   1      51.091  32.934  26.177  1.00  0.00     0.034 A 
BRANCH  62  76
ATOM     76  C   UNL A   1      44.966  33.673  26.877  1.00  0.00     0.023 A 
ATOM     77  C   UNL A   1      44.549  34.170  28.125  1.00  0.00     0.031 A 
ATOM     78  C   UNL A   1      44.231  34.052  25.739  1.00  0.00     0.131 A 
ATOM     79  C   UNL A   1      43.389  34.954  28.212  1.00  0.00     0.055 A 
ATOM     80  C   UNL A   1      43.129  34.905  25.824  1.00  0.00     0.041 A 
ATOM     81  F   UNL A   1      44.562  33.586  24.525  1.00  0.00    -0.206 F 
ATOM     82  C   UNL A   1      42.692  35.349  27.068  1.00  0.00     0.022 A 
BRANCH  79  83
ATOM     83  S   UNL A   1      42.710  35.318  29.856  1.00  0.00     0.124 S 
ATOM     84  O   UNL A   1      43.094  36.716  30.029  1.00  0.00    -0.237 OA
ATOM     85  O   UNL A   1      41.286  35.063  29.672  1.00  0.00    -0.237 OA
ATOM     86  O   UNL A   1      43.407  34.376  30.730  1.00  0.00    -0.744 OA
ENDBRANCH  79  83
ENDBRANCH  62  76
BRANCH  63  87
ATOM     87  C   UNL A   1      52.394  27.017  25.773  1.00  0.00     0.023 A 
ATOM     88  C   UNL A   1      53.289  26.693  26.805  1.00  0.00     0.031 A 
ATOM     89  C   UNL A   1      52.620  26.447  24.507  1.00  0.00     0.131 A 
ATOM     90  C   UNL A   1      54.396  25.869  26.542  1.00  0.00     0.055 A 
ATOM     91  C   UNL A   1      53.686  25.578  24.265  1.00  0.00     0.041 A 
ATOM     92  F   UNL A   1      51.803  26.729  23.479  1.00  0.00    -0.206 F 
ATOM     93  C   UNL A   1      54.590  25.296  25.283  1.00  0.00     0.022 A 
BRANCH  90  94
ATOM     94  S   UNL A   1      55.638  25.638  27.843  1.00  0.00     0.124 S 
ATOM     95  O   UNL A   1      56.550  26.746  27.581  1.00  0.00    -0.237 OA
ATOM     96  O   UNL A   1      54.831  25.744  29.054  1.00  0.00    -0.237 OA
ATOM     97  O   UNL A   1      56.176  24.307  27.568  1.00  0.00    -0.744 OA
ENDBRANCH  90  94
ENDBRANCH  63  87
BRANCH  75  98
ATOM     98  C   UNL A   1      52.178  33.986  26.173  1.00  0.00     0.023 A 
ATOM     99  C   UNL A   1      52.656  34.562  24.984  1.00  0.00     0.031 A 
ATOM    100  C   UNL A   1      52.758  34.405  27.385  1.00  0.00     0.131 A 
ATOM    101  C   UNL A   1      53.726  35.469  25.025  1.00  0.00     0.055 A 
ATOM    102  C   UNL A   1      53.771  35.363  27.426  1.00  0.00     0.041 A 
ATOM    103  F   UNL A   1      52.348  33.887  28.555  1.00  0.00    -0.206 F 
ATOM    104  C   UNL A   1      54.273  35.889  26.240  1.00  0.00     0.022 A 
BRANCH 101 105
ATOM    105  S   UNL A   1      54.480  35.998  23.462  1.00  0.00     0.124 S 
ATOM    106  O   UNL A   1      54.004  34.977  22.535  1.00  0.00    -0.237 OA
ATOM    107  O   UNL A   1      53.919  37.334  23.282  1.00  0.00    -0.237 OA
ATOM    108  O   UNL A   1      55.914  35.962  23.743  1.00  0.00    -0.744 OA
ENDBRANCH 101 105
ENDBRANCH  75  98
ENDBRANCH  49  50
ENDBRANCH  42  44
ENDBRANCH  41  42
ENDBRANCH  40  41
ENDBRANCH  39  40
ENDBRANCH  38  39
ENDBRANCH  37  38
ENDBRANCH   1  37
TORSDOF 26
ENDMDL
MODEL 2
REMARK VINA RESULT:      -9.3      1.990      2.490
REMARK SMILES Cc1ccc2[nH]cc([C@@H](C(=O)OCCOCCOCCOCCOC(=O)c3ccc(-c4c5nc(c(-c6cc(S(=O)(=O)[O-])ccc6F)c6ccc([nH]6)c(-c6cc(S(=O)(=O)[O-])ccc6F)c6nc(c(-c7cc(S(=O)(=O)[O-])ccc7F)c7ccc4[nH]7)C=C6)C=C5)cc3)[NH+]3CCN(c4cccc(Cl)c4)CC3)c2c1
REMARK SMILES IDX 19 1 18 2 17 3 16 4 15 5 14 6 13 7 12 8 10 9 11 10 9 11 8 12
REMARK SMILES IDX 1 13 2 14 3 15 104 16 4 17 103 18 5 19 6 20 7 21 90 23 91 24
REMARK SMILES IDX 102 25 92 27 101 28 93 29 94 30 95 31 100 32 96 33 98 34
REMARK SMILES IDX 97 35 99 36 20 37 21 38 22 39 23 40 24 41 25 42 26 43 27 44
REMARK SMILES IDX 28 45 89 46 29 47 88 48 30 49 31 50 32 51 82 52 33 53 87 54
REMARK SMILES IDX 81 55 83 56 34 57 86 58 80 59 79 60 35 62 67 63 47 64 66 65
REMARK SMILES IDX 48 66 51 67 65 68 84 69 49 70 50 71 64 73 85 74 52 75 36 76
REMARK SMILES IDX 37 77 45 78 38 79 44 80 46 81 43 82 39 83 40 84 41 85 42 86
REMARK SMILES IDX 68 87 69 88 77 89 70 90 76 91 78 92 75 93 71 94 72 95 73 96
REMARK SMILES IDX 74 97 53 98 54 99 62 100 55 101 61 102 63 103 60 104 56 105
REMARK SMILES IDX 57 106 58 107 59 108
REMARK H PARENT 6 22 90 26 83 61 51 72
REMARK Flexibility Score: inf
ROOT
ATOM      1  C   UNL A   1      39.082  29.465  27.554  1.00  0.00     0.188 C 
ENDROOT
BRANCH   1   2
ATOM      2  O   UNL A   1      37.950  30.119  28.089  1.00  0.00    -0.377 OA
BRANCH   2   3
ATOM      3  C   UNL A   1      36.848  29.340  28.490  1.00  0.00     0.188 C 
BRANCH   3   4
ATOM      4  C   UNL A   1      35.476  29.837  28.046  1.00  0.00     0.188 C 
BRANCH   4   5
ATOM      5  O   UNL A   1      34.688  29.031  27.189  1.00  0.00    -0.376 OA
BRANCH   5   6
ATOM      6  C   UNL A   1      33.497  29.562  26.612  1.00  0.00     0.202 C 
BRANCH   6   7
ATOM      7  C   UNL A   1      32.946  28.980  25.291  1.00  0.00     0.261 C 
BRANCH   7   8
ATOM      8  O   UNL A   1      32.428  27.620  25.316  1.00  0.00    -0.459 OA
BRANCH   8   9
ATOM      9  C   UNL A   1      32.645  26.865  24.205  1.00  0.00     0.370 C 
ATOM     10  O   UNL A   1      33.737  26.847  23.631  1.00  0.00    -0.245 OA
BRANCH   9  11
ATOM     11  C   UNL A   1      31.431  26.041  23.663  1.00  0.00     0.328 C 
BRANCH  11  12
ATOM     12  C   UNL A   1      29.969  26.448  23.890  1.00  0.00     0.046 A 
ATOM     13  C   UNL A   1      29.521  30.993  21.535  1.00  0.00     0.044 C 
ATOM     14  C   UNL A   1      28.967  29.773  22.208  1.00  0.00    -0.050 A 
ATOM     15  C   UNL A   1      27.590  29.621  22.385  1.00  0.00     0.005 A 
ATOM     16  C   UNL A   1      29.852  28.784  22.675  1.00  0.00     0.014 A 
ATOM     17  C   UNL A   1      27.069  28.518  23.058  1.00  0.00     0.027 A 
ATOM     18  C   UNL A   1      29.357  27.651  23.355  1.00  0.00     0.009 A 
ATOM     19  C   UNL A   1      27.975  27.571  23.545  1.00  0.00     0.046 A 
ATOM     20  N   UNL A   1      27.739  26.435  24.265  1.00  0.00    -0.361 N 
ATOM     21  C   UNL A   1      28.914  25.767  24.479  1.00  0.00     0.094 A 
ATOM     22  H   UNL A   1      26.855  26.142  24.583  1.00  0.00     0.166 HD
ENDBRANCH  11  12
BRANCH  11  23
ATOM     23  N   UNL A   1      31.677  24.585  23.877  1.00  0.00    -0.316 N 
ATOM     24  C   UNL A   1      32.412  23.785  22.892  1.00  0.00     0.284 C 
ATOM     25  C   UNL A   1      32.019  24.178  25.238  1.00  0.00     0.284 C 
ATOM     26  H   UNL A   1      30.711  24.328  23.677  1.00  0.00     0.349 HD
ATOM     27  C   UNL A   1      33.929  23.575  23.116  1.00  0.00     0.178 C 
ATOM     28  C   UNL A   1      33.528  24.128  25.544  1.00  0.00     0.178 C 
ATOM     29  N   UNL A   1      34.252  23.350  24.527  1.00  0.00    -0.360 N 
BRANCH  29  30
ATOM     30  C   UNL A   1      35.556  23.006  24.851  1.00  0.00     0.038 A 
ATOM     31  C   UNL A   1      36.178  21.835  24.396  1.00  0.00     0.026 A 
ATOM     32  C   UNL A   1      36.286  23.882  25.658  1.00  0.00     0.046 A 
ATOM     33  C   UNL A   1      37.498  21.543  24.754  1.00  0.00     0.004 A 
ATOM     34  C   UNL A   1      37.596  23.586  26.023  1.00  0.00     0.043 A 
ATOM     35  C   UNL A   1      38.207  22.419  25.575  1.00  0.00     0.020 A 
ATOM     36  Cl  UNL A   1      38.457  24.673  27.044  1.00  0.00    -0.084 Cl
ENDBRANCH  29  30
ENDBRANCH  11  23
ENDBRANCH   9  11
ENDBRANCH   8   9
ENDBRANCH   7   8
ENDBRANCH   6   7
ENDBRANCH   5   6
ENDBRANCH   4   5
ENDBRANCH   3   4
ENDBRANCH   2   3
ENDBRANCH   1   2
BRANCH   1  37
ATOM     37  C   UNL A   1      40.221  29.136  28.524  1.00  0.00     0.188 C 
BRANCH  37  38
ATOM     38  O   UNL A   1      41.134  28.177  28.002  1.00  0.00    -0.376 OA
BRANCH  38  39
ATOM     39  C   UNL A   1      41.662  27.168  28.846  1.00  0.00     0.202 C 
BRANCH  39  40
ATOM     40  C   UNL A   1      41.602  25.682  28.437  1.00  0.00     0.261 C 
BRANCH  40  41
ATOM     41  O   UNL A   1      42.209  25.284  27.200  1.00  0.00    -0.460 OA
BRANCH  41  42
ATOM     42  C   UNL A   1      43.340  24.543  27.258  1.00  0.00     0.338 C 
ATOM     43  O   UNL A   1      43.405  23.337  27.341  1.00  0.00    -0.246 OA
BRANCH  42  44
ATOM     44  C   UNL A   1      44.486  25.446  26.984  1.00  0.00     0.060 A 
ATOM     45  C   UNL A   1      45.240  25.918  28.065  1.00  0.00     0.016 A 
ATOM     46  C   UNL A   1      44.812  25.828  25.680  1.00  0.00     0.016 A 
ATOM     47  C   UNL A   1      46.294  26.807  27.852  1.00  0.00     0.010 A 
ATOM     48  C   UNL A   1      45.852  26.742  25.470  1.00  0.00     0.010 A 
ATOM     49  C   UNL A   1      46.570  27.267  26.559  1.00  0.00    -0.014 A 
BRANCH  49  50
ATOM     50  C   UNL A   1      47.429  28.467  26.392  1.00  0.00     0.031 A 
ATOM     51  C   UNL A   1      46.773  29.821  26.481  1.00  0.00     0.074 A 
ATOM     52  C   UNL A   1      48.760  28.368  26.227  1.00  0.00     0.049 A 
ATOM     53  N   UNL A   1      47.296  31.013  26.353  1.00  0.00    -0.248 NA
ATOM     54  C   UNL A   1      45.327  29.824  26.750  1.00  0.00     0.031 C 
ATOM     55  C   UNL A   1      49.514  27.118  26.187  1.00  0.00     0.029 A 
ATOM     56  N   UNL A   1      49.714  29.342  26.065  1.00  0.00    -0.354 N 
ATOM     57  C   UNL A   1      46.242  31.907  26.522  1.00  0.00     0.074 A 
ATOM     58  C   UNL A   1      45.047  31.117  26.718  1.00  0.00     0.031 C 
ATOM     59  C   UNL A   1      50.817  27.400  26.005  1.00  0.00     0.029 A 
ATOM     60  C   UNL A   1      50.983  28.847  25.876  1.00  0.00     0.049 A 
ATOM     61  H   UNL A   1      49.508  30.305  26.083  1.00  0.00     0.167 HD
ATOM     62  C   UNL A   1      46.273  33.262  26.526  1.00  0.00     0.034 A 
ATOM     63  C   UNL A   1      52.139  29.489  25.606  1.00  0.00     0.034 A 
ATOM     64  C   UNL A   1      47.473  34.033  26.315  1.00  0.00     0.049 A 
ATOM     65  C   UNL A   1      52.132  31.000  25.515  1.00  0.00     0.074 A 
ATOM     66  C   UNL A   1      47.620  35.409  26.297  1.00  0.00     0.029 A 
ATOM     67  N   UNL A   1      48.731  33.497  26.069  1.00  0.00    -0.354 N 
ATOM     68  N   UNL A   1      51.130  31.836  25.676  1.00  0.00    -0.248 NA
ATOM     69  C   UNL A   1      53.414  31.652  25.219  1.00  0.00     0.031 C 
ATOM     70  C   UNL A   1      48.945  35.703  25.957  1.00  0.00     0.029 A 
ATOM     71  C   UNL A   1      49.651  34.514  25.862  1.00  0.00     0.049 A 
ATOM     72  H   UNL A   1      48.940  32.535  26.045  1.00  0.00     0.167 HD
ATOM     73  C   UNL A   1      51.674  33.113  25.540  1.00  0.00     0.074 A 
ATOM     74  C   UNL A   1      53.092  32.934  25.299  1.00  0.00     0.031 C 
ATOM     75  C   UNL A   1      51.061  34.323  25.615  1.00  0.00     0.034 A 
BRANCH  62  76
ATOM     76  C   UNL A   1      44.958  33.985  26.701  1.00  0.00     0.023 A 
ATOM     77  C   UNL A   1      44.404  34.225  27.972  1.00  0.00     0.031 A 
ATOM     78  C   UNL A   1      44.228  34.408  25.576  1.00  0.00     0.131 A 
ATOM     79  C   UNL A   1      43.129  34.801  28.081  1.00  0.00     0.055 A 
ATOM     80  C   UNL A   1      43.000  35.061  25.696  1.00  0.00     0.041 A 
ATOM     81  F   UNL A   1      44.690  34.181  24.337  1.00  0.00    -0.206 F 
ATOM     82  C   UNL A   1      42.436  35.247  26.954  1.00  0.00     0.022 A 
BRANCH  79  83
ATOM     83  S   UNL A   1      42.321  34.812  29.706  1.00  0.00     0.124 S 
ATOM     84  O   UNL A   1      40.969  35.242  29.358  1.00  0.00    -0.237 OA
ATOM     85  O   UNL A   1      42.460  33.427  30.137  1.00  0.00    -0.237 OA
ATOM     86  O   UNL A   1      43.098  35.786  30.469  1.00  0.00    -0.744 OA
ENDBRANCH  79  83
ENDBRANCH  62  76
BRANCH  63  87
ATOM     87  C   UNL A   1      53.396  28.723  25.358  1.00  0.00     0.023 A 
ATOM     88  C   UNL A   1      54.274  28.397  26.405  1.00  0.00     0.031 A 
ATOM     89  C   UNL A   1      53.773  28.364  24.051  1.00  0.00     0.131 A 
ATOM     90  C   UNL A   1      55.505  27.782  26.123  1.00  0.00     0.055 A 
ATOM     91  C   UNL A   1      54.970  27.697  23.782  1.00  0.00     0.041 A 
ATOM     92  F   UNL A   1      52.979  28.659  23.009  1.00  0.00    -0.206 F 
ATOM     93  C   UNL A   1      55.851  27.415  24.821  1.00  0.00     0.022 A 
BRANCH  90  94
ATOM     94  S   UNL A   1      56.696  27.562  27.472  1.00  0.00     0.124 S 
ATOM     95  O   UNL A   1      56.513  28.793  28.233  1.00  0.00    -0.237 OA
ATOM     96  O   UNL A   1      56.214  26.339  28.105  1.00  0.00    -0.237 OA
ATOM     97  O   UNL A   1      57.977  27.440  26.779  1.00  0.00    -0.744 OA
ENDBRANCH  90  94
ENDBRANCH  63  87
BRANCH  75  98
ATOM     98  C   UNL A   1      51.936  35.551  25.495  1.00  0.00     0.023 A 
ATOM     99  C   UNL A   1      52.389  36.259  26.622  1.00  0.00     0.031 A 
ATOM    100  C   UNL A   1      52.308  36.031  24.225  1.00  0.00     0.131 A 
ATOM    101  C   UNL A   1      53.125  37.442  26.456  1.00  0.00     0.055 A 
ATOM    102  C   UNL A   1      53.104  37.166  24.069  1.00  0.00     0.041 A 
ATOM    103  F   UNL A   1      51.902  35.400  23.110  1.00  0.00    -0.206 F 
ATOM    104  C   UNL A   1      53.503  37.889  25.188  1.00  0.00     0.022 A 
BRANCH 101 105
ATOM    105  S   UNL A   1      53.476  38.461  27.917  1.00  0.00     0.124 S 
ATOM    106  O   UNL A   1      53.018  39.777  27.484  1.00  0.00    -0.237 OA
ATOM    107  O   UNL A   1      52.671  37.814  28.948  1.00  0.00    -0.237 OA
ATOM    108  O   UNL A   1      54.921  38.331  28.087  1.00  0.00    -0.744 OA
ENDBRANCH 101 105
ENDBRANCH  75  98
ENDBRANCH  49  50
ENDBRANCH  42  44
ENDBRANCH  41  42
ENDBRANCH  40  41
ENDBRANCH  39  40
ENDBRANCH  38  39
ENDBRANCH  37  38
ENDBRANCH   1  37
TORSDOF 26
ENDMDL
MODEL 3
REMARK VINA RESULT:      -9.2      4.854      8.803
REMARK SMILES Cc1ccc2[nH]cc([C@@H](C(=O)OCCOCCOCCOCCOC(=O)c3ccc(-c4c5nc(c(-c6cc(S(=O)(=O)[O-])ccc6F)c6ccc([nH]6)c(-c6cc(S(=O)(=O)[O-])ccc6F)c6nc(c(-c7cc(S(=O)(=O)[O-])ccc7F)c7ccc4[nH]7)C=C6)C=C5)cc3)[NH+]3CCN(c4cccc(Cl)c4)CC3)c2c1
REMARK SMILES IDX 19 1 18 2 17 3 16 4 15 5 14 6 13 7 12 8 10 9 11 10 9 11 8 12
REMARK SMILES IDX 1 13 2 14 3 15 104 16 4 17 103 18 5 19 6 20 7 21 90 23 91 24
REMARK SMILES IDX 102 25 92 27 101 28 93 29 94 30 95 31 100 32 96 33 98 34
REMARK SMILES IDX 97 35 99 36 20 37 21 38 22 39 23 40 24 41 25 42 26 43 27 44
REMARK SMILES IDX 28 45 89 46 29 47 88 48 30 49 31 50 32 51 82 52 33 53 87 54
REMARK SMILES IDX 81 55 83 56 34 57 86 58 80 59 79 60 35 62 67 63 47 64 66 65
REMARK SMILES IDX 48 66 51 67 65 68 84 69 49 70 50 71 64 73 85 74 52 75 36 76
REMARK SMILES IDX 37 77 45 78 38 79 44 80 46 81 43 82 39 83 40 84 41 85 42 86
REMARK SMILES IDX 68 87 69 88 77 89 70 90 76 91 78 92 75 93 71 94 72 95 73 96
REMARK SMILES IDX 74 97 53 98 54 99 62 100 55 101 61 102 63 103 60 104 56 105
REMARK SMILES IDX 57 106 58 107 59 108
REMARK H PARENT 6 22 90 26 83 61 51 72
REMARK Flexibility Score: inf
ROOT
ATOM      1  C   UNL A   1      42.789  22.376  27.026  1.00  0.00     0.188 C 
ENDROOT
BRANCH   1   2
ATOM      2  O   UNL A   1      41.727  22.344  27.957  1.00  0.00    -0.377 OA
BRANCH   2   3
ATOM      3  C   UNL A   1      41.304  23.554  28.538  1.00  0.00     0.188 C 
BRANCH   3   4
ATOM      4  C   UNL A   1      40.495  24.484  27.641  1.00  0.00     0.188 C 
BRANCH   4   5
ATOM      5  O   UNL A   1      39.114  24.238  27.448  1.00  0.00    -0.376 OA
BRANCH   5   6
ATOM      6  C   UNL A   1      38.686  23.370  26.401  1.00  0.00     0.202 C 
BRANCH   6   7
ATOM      7  C   UNL A   1      37.395  23.682  25.610  1.00  0.00     0.261 C 
BRANCH   7   8
ATOM      8  O   UNL A   1      36.796  22.599  24.844  1.00  0.00    -0.459 OA
BRANCH   8   9
ATOM      9  C   UNL A   1      36.047  22.958  23.765  1.00  0.00     0.370 C 
ATOM     10  O   UNL A   1      36.462  22.826  22.611  1.00  0.00    -0.245 OA
BRANCH   9  11
ATOM     11  C   UNL A   1      34.642  23.581  24.057  1.00  0.00     0.328 C 
BRANCH  11  12
ATOM     12  C   UNL A   1      33.529  22.834  24.803  1.00  0.00     0.046 A 
ATOM     13  C   UNL A   1      30.711  26.552  26.957  1.00  0.00     0.044 C 
ATOM     14  C   UNL A   1      30.963  25.134  26.540  1.00  0.00    -0.050 A 
ATOM     15  C   UNL A   1      30.025  24.136  26.809  1.00  0.00     0.005 A 
ATOM     16  C   UNL A   1      32.166  24.815  25.884  1.00  0.00     0.014 A 
ATOM     17  C   UNL A   1      30.275  22.806  26.475  1.00  0.00     0.027 A 
ATOM     18  C   UNL A   1      32.447  23.479  25.526  1.00  0.00     0.009 A 
ATOM     19  C   UNL A   1      31.495  22.513  25.859  1.00  0.00     0.046 A 
ATOM     20  N   UNL A   1      32.003  21.306  25.472  1.00  0.00    -0.361 N 
ATOM     21  C   UNL A   1      33.208  21.486  24.850  1.00  0.00     0.094 A 
ATOM     22  H   UNL A   1      31.565  20.436  25.618  1.00  0.00     0.166 HD
ENDBRANCH  11  12
BRANCH  11  23
ATOM     23  N   UNL A   1      34.156  24.310  22.849  1.00  0.00    -0.316 N 
ATOM     24  C   UNL A   1      32.783  24.147  22.362  1.00  0.00     0.284 C 
ATOM     25  C   UNL A   1      34.597  25.697  22.708  1.00  0.00     0.284 C 
ATOM     26  H   UNL A   1      34.680  23.719  22.204  1.00  0.00     0.349 HD
ATOM     27  C   UNL A   1      31.727  25.185  22.812  1.00  0.00     0.178 C 
ATOM     28  C   UNL A   1      33.643  26.748  23.306  1.00  0.00     0.178 C 
ATOM     29  N   UNL A   1      32.265  26.547  22.832  1.00  0.00    -0.360 N 
BRANCH  29  30
ATOM     30  C   UNL A   1      31.387  27.593  23.079  1.00  0.00     0.038 A 
ATOM     31  C   UNL A   1      30.180  27.761  22.388  1.00  0.00     0.026 A 
ATOM     32  C   UNL A   1      31.721  28.510  24.078  1.00  0.00     0.046 A 
ATOM     33  C   UNL A   1      29.332  28.834  22.683  1.00  0.00     0.004 A 
ATOM     34  C   UNL A   1      30.884  29.583  24.365  1.00  0.00     0.043 A 
ATOM     35  C   UNL A   1      29.689  29.751  23.672  1.00  0.00     0.020 A 
ATOM     36  Cl  UNL A   1      31.341  30.712  25.582  1.00  0.00    -0.084 Cl
ENDBRANCH  29  30
ENDBRANCH  11  23
ENDBRANCH   9  11
ENDBRANCH   8   9
ENDBRANCH   7   8
ENDBRANCH   6   7
ENDBRANCH   5   6
ENDBRANCH   4   5
ENDBRANCH   3   4
ENDBRANCH   2   3
ENDBRANCH   1   2
BRANCH   1  37
ATOM     37  C   UNL A   1      42.419  22.299  25.541  1.00  0.00     0.188 C 
BRANCH  37  38
ATOM     38  O   UNL A   1      43.554  22.332  24.684  1.00  0.00    -0.376 OA
BRANCH  38  39
ATOM     39  C   UNL A   1      44.681  23.120  25.030  1.00  0.00     0.202 C 
BRANCH  39  40
ATOM     40  C   UNL A   1      44.680  24.646  24.805  1.00  0.00     0.261 C 
BRANCH  40  41
ATOM     41  O   UNL A   1      44.171  25.494  25.843  1.00  0.00    -0.460 OA
BRANCH  41  42
ATOM     42  C   UNL A   1      43.063  26.226  25.579  1.00  0.00     0.338 C 
ATOM     43  O   UNL A   1      42.166  25.924  24.825  1.00  0.00    -0.246 OA
BRANCH  42  44
ATOM     44  C   UNL A   1      43.035  27.360  26.537  1.00  0.00     0.060 A 
ATOM     45  C   UNL A   1      42.292  28.500  26.204  1.00  0.00     0.016 A 
ATOM     46  C   UNL A   1      43.732  27.305  27.747  1.00  0.00     0.016 A 
ATOM     47  C   UNL A   1      42.280  29.605  27.055  1.00  0.00     0.010 A 
ATOM     48  C   UNL A   1      43.743  28.425  28.587  1.00  0.00     0.010 A 
ATOM     49  C   UNL A   1      43.050  29.594  28.224  1.00  0.00    -0.014 A 
BRANCH  49  50
ATOM     50  C   UNL A   1      43.320  30.880  28.918  1.00  0.00     0.031 A 
ATOM     51  C   UNL A   1      42.474  31.225  30.116  1.00  0.00     0.074 A 
ATOM     52  C   UNL A   1      44.322  31.693  28.538  1.00  0.00     0.049 A 
ATOM     53  N   UNL A   1      42.498  32.287  30.878  1.00  0.00    -0.248 NA
ATOM     54  C   UNL A   1      41.462  30.230  30.504  1.00  0.00     0.031 C 
ATOM     55  C   UNL A   1      45.244  31.437  27.435  1.00  0.00     0.029 A 
ATOM     56  N   UNL A   1      44.732  32.901  29.046  1.00  0.00    -0.354 N 
ATOM     57  C   UNL A   1      41.504  32.090  31.832  1.00  0.00     0.074 A 
ATOM     58  C   UNL A   1      40.869  30.828  31.524  1.00  0.00     0.031 C 
ATOM     59  C   UNL A   1      46.111  32.461  27.344  1.00  0.00     0.029 A 
ATOM     60  C   UNL A   1      45.780  33.464  28.356  1.00  0.00     0.049 A 
ATOM     61  H   UNL A   1      44.314  33.324  29.831  1.00  0.00     0.167 HD
ATOM     62  C   UNL A   1      41.160  32.884  32.875  1.00  0.00     0.034 A 
ATOM     63  C   UNL A   1      46.383  34.661  28.510  1.00  0.00     0.034 A 
ATOM     64  C   UNL A   1      41.796  34.147  33.159  1.00  0.00     0.049 A 
ATOM     65  C   UNL A   1      45.917  35.577  29.621  1.00  0.00     0.074 A 
ATOM     66  C   UNL A   1      41.529  35.034  34.188  1.00  0.00     0.029 A 
ATOM     67  N   UNL A   1      42.815  34.714  32.404  1.00  0.00    -0.354 N 
ATOM     68  N   UNL A   1      44.975  35.382  30.516  1.00  0.00    -0.248 NA
ATOM     69  C   UNL A   1      46.604  36.868  29.747  1.00  0.00     0.031 C 
ATOM     70  C   UNL A   1      42.324  36.170  34.004  1.00  0.00     0.029 A 
ATOM     71  C   UNL A   1      43.162  35.952  32.922  1.00  0.00     0.049 A 
ATOM     72  H   UNL A   1      43.232  34.296  31.615  1.00  0.00     0.167 HD
ATOM     73  C   UNL A   1      44.988  36.510  31.336  1.00  0.00     0.074 A 
ATOM     74  C   UNL A   1      46.040  37.371  30.834  1.00  0.00     0.031 C 
ATOM     75  C   UNL A   1      44.208  36.805  32.408  1.00  0.00     0.034 A 
BRANCH  62  76
ATOM     76  C   UNL A   1      40.006  32.433  33.740  1.00  0.00     0.023 A 
ATOM     77  C   UNL A   1      38.726  33.005  33.630  1.00  0.00     0.031 A 
ATOM     78  C   UNL A   1      40.201  31.440  34.716  1.00  0.00     0.131 A 
ATOM     79  C   UNL A   1      37.715  32.633  34.529  1.00  0.00     0.055 A 
ATOM     80  C   UNL A   1      39.165  31.011  35.548  1.00  0.00     0.041 A 
ATOM     81  F   UNL A   1      41.407  30.878  34.889  1.00  0.00    -0.206 F 
ATOM     82  C   UNL A   1      37.917  31.619  35.468  1.00  0.00     0.022 A 
BRANCH  79  83
ATOM     83  S   UNL A   1      36.182  33.603  34.559  1.00  0.00     0.124 S 
ATOM     84  O   UNL A   1      35.282  32.756  33.781  1.00  0.00    -0.237 OA
ATOM     85  O   UNL A   1      35.897  33.698  35.986  1.00  0.00    -0.237 OA
ATOM     86  O   UNL A   1      36.558  34.858  33.911  1.00  0.00    -0.744 OA
ENDBRANCH  79  83
ENDBRANCH  62  76
BRANCH  63  87
ATOM     87  C   UNL A   1      47.463  35.095  27.575  1.00  0.00     0.023 A 
ATOM     88  C   UNL A   1      48.819  34.879  27.872  1.00  0.00     0.031 A 
ATOM     89  C   UNL A   1      47.154  35.800  26.397  1.00  0.00     0.131 A 
ATOM     90  C   UNL A   1      49.814  35.406  27.032  1.00  0.00     0.055 A 
ATOM     91  C   UNL A   1      48.147  36.267  25.532  1.00  0.00     0.041 A 
ATOM     92  F   UNL A   1      45.876  36.045  26.067  1.00  0.00    -0.206 F 
ATOM     93  C   UNL A   1      49.486  36.084  25.856  1.00  0.00     0.022 A 
BRANCH  90  94
ATOM     94  S   UNL A   1      51.547  35.283  27.553  1.00  0.00     0.124 S 
ATOM     95  O   UNL A   1      51.553  36.106  28.758  1.00  0.00    -0.237 OA
ATOM     96  O   UNL A   1      51.700  33.846  27.757  1.00  0.00    -0.237 OA
ATOM     97  O   UNL A   1      52.283  35.832  26.416  1.00  0.00    -0.744 OA
ENDBRANCH  90  94
ENDBRANCH  63  87
BRANCH  75  98
ATOM     98  C   UNL A   1      44.508  38.090  33.150  1.00  0.00     0.023 A 
ATOM     99  C   UNL A   1      43.721  39.243  32.995  1.00  0.00     0.031 A 
ATOM    100  C   UNL A   1      45.615  38.161  34.016  1.00  0.00     0.131 A 
ATOM    101  C   UNL A   1      44.091  40.435  33.636  1.00  0.00     0.055 A 
ATOM    102  C   UNL A   1      45.935  39.328  34.711  1.00  0.00     0.041 A 
ATOM    103  F   UNL A   1      46.408  37.093  34.202  1.00  0.00    -0.206 F 
ATOM    104  C   UNL A   1      45.181  40.480  34.510  1.00  0.00     0.022 A 
BRANCH 101 105
ATOM    105  S   UNL A   1      43.204  41.962  33.217  1.00  0.00     0.124 S 
ATOM    106  O   UNL A   1      43.920  42.955  34.011  1.00  0.00    -0.237 OA
ATOM    107  O   UNL A   1      43.392  42.044  31.772  1.00  0.00    -0.237 OA
ATOM    108  O   UNL A   1      41.834  41.693  33.649  1.00  0.00    -0.744 OA
ENDBRANCH 101 105
ENDBRANCH  75  98
ENDBRANCH  49  50
ENDBRANCH  42  44
ENDBRANCH  41  42
ENDBRANCH  40  41
ENDBRANCH  39  40
ENDBRANCH  38  39
ENDBRANCH  37  38
ENDBRANCH   1  37
TORSDOF 26
ENDMDL
