MODEL 1
REMARK VINA RESULT:     -10.3      0.000      0.000
REMARK SMILES Cc1ccc(S(=O)(=O)n2cc(C(=O)C(=O)N[C@@H](Cc3c[nH]c4ccccc34)C(=O)OCCOCCOCCOCCOC(=O)c3ccc(-c4c5nc(c(-c6cc(S(=O)(=O)[O-])ccc6F)c6ccc([nH]6)c(-c6cc(S(=O)(=O)[O-])ccc6F)c6nc(c(-c7cc(S(=O)(=O)[O-])ccc7F)c7ccc4[nH]7)C=C6)C=C5)cc3)c3ccccc32)cc1
REMARK SMILES IDX 35 1 34 2 33 3 32 4 31 5 30 6 28 7 29 8 17 9 16 10 14 11
REMARK SMILES IDX 15 12 12 14 13 15 11 16 9 17 10 18 113 19 108 20 112 21
REMARK SMILES IDX 109 22 111 23 110 24 6 25 7 26 8 27 5 28 1 29 2 30 3 31
REMARK SMILES IDX 115 32 4 33 114 34 18 35 19 36 20 37 27 38 21 39 22 40 26 41
REMARK SMILES IDX 23 43 25 44 24 45 36 46 37 47 38 48 39 49 40 50 41 51 42 52
REMARK SMILES IDX 43 53 44 54 45 55 46 56 107 57 47 58 106 59 48 60 49 61
REMARK SMILES IDX 50 62 100 63 51 64 105 65 99 66 101 67 52 68 104 69 98 70
REMARK SMILES IDX 97 71 53 73 85 74 65 75 84 76 66 77 69 78 83 79 102 80 67 81
REMARK SMILES IDX 68 82 82 84 103 85 70 86 54 87 55 88 63 89 56 90 62 91 64 92
REMARK SMILES IDX 61 93 57 94 58 95 59 96 60 97 86 98 87 99 95 100 88 101
REMARK SMILES IDX 94 102 96 103 93 104 89 105 90 106 91 107 92 108 71 109
REMARK SMILES IDX 72 110 80 111 73 112 79 113 81 114 78 115 74 116 75 117
REMARK SMILES IDX 76 118 77 119
REMARK H PARENT 16 13 21 42 101 72 69 83
REMARK Flexibility Score: inf
ROOT
ATOM      1  C   UNL A   1      32.588  29.393  24.843  1.00  0.00     0.188 C 
ENDROOT
BRANCH   1   2
ATOM      2  C   UNL A   1      33.121  28.125  24.192  1.00  0.00     0.188 C 
BRANCH   2   3
ATOM      3  O   UNL A   1      32.798  28.037  22.817  1.00  0.00    -0.376 OA
BRANCH   3   4
ATOM      4  C   UNL A   1      33.235  26.811  22.236  1.00  0.00     0.202 C 
BRANCH   4   5
ATOM      5  C   UNL A   1      33.240  25.562  23.142  1.00  0.00     0.261 C 
BRANCH   5   6
ATOM      6  O   UNL A   1      34.395  24.720  23.062  1.00  0.00    -0.462 OA
BRANCH   6   7
ATOM      7  C   UNL A   1      34.097  23.422  22.790  1.00  0.00     0.329 C 
ATOM      8  O   UNL A   1      33.872  22.974  21.668  1.00  0.00    -0.250 OA
BRANCH   7   9
ATOM      9  C   UNL A   1      34.090  22.505  24.028  1.00  0.00     0.197 C 
BRANCH   9  10
ATOM     10  N   UNL A   1      34.168  23.072  25.399  1.00  0.00    -0.335 N 
ATOM     11  C   UNL A   1      35.123  22.772  26.372  1.00  0.00     0.293 C 
ATOM     12  O   UNL A   1      34.936  22.936  27.570  1.00  0.00    -0.265 OA
ATOM     13  H   UNL A   1      33.474  23.724  25.648  1.00  0.00     0.164 HD
BRANCH  11  14
ATOM     14  C   UNL A   1      36.492  22.312  25.877  1.00  0.00     0.252 C 
ATOM     15  O   UNL A   1      36.487  21.228  25.293  1.00  0.00    -0.283 OA
BRANCH  14  16
ATOM     16  C   UNL A   1      37.794  22.973  25.979  1.00  0.00     0.054 A 
ATOM     17  N   UNL A   1      39.520  24.099  26.789  1.00  0.00    -0.240 N 
ATOM     18  C   UNL A   1      38.306  24.270  26.111  1.00  0.00     0.117 A 
ATOM     19  C   UNL A   1      39.654  22.723  27.052  1.00  0.00     0.065 A 
ATOM     20  C   UNL A   1      38.950  22.147  26.022  1.00  0.00     0.012 A 
ATOM     21  C   UNL A   1      40.565  21.982  27.820  1.00  0.00     0.028 A 
ATOM     22  C   UNL A   1      39.331  20.872  25.562  1.00  0.00     0.011 A 
ATOM     23  C   UNL A   1      40.949  20.732  27.332  1.00  0.00     0.002 A 
ATOM     24  C   UNL A   1      40.386  20.208  26.179  1.00  0.00     0.001 A 
BRANCH  17  25
ATOM     25  S   UNL A   1      41.080  24.766  26.535  1.00  0.00     0.268 S 
ATOM     26  O   UNL A   1      41.452  25.275  27.847  1.00  0.00    -0.201 OA
ATOM     27  O   UNL A   1      40.771  25.681  25.436  1.00  0.00    -0.201 OA
BRANCH  25  28
ATOM     28  C   UNL A   1      42.567  24.109  25.910  1.00  0.00     0.088 A 
ATOM     29  C   UNL A   1      46.601  23.788  24.447  1.00  0.00     0.044 C 
ATOM     30  C   UNL A   1      45.209  23.806  25.001  1.00  0.00    -0.051 A 
ATOM     31  C   UNL A   1      44.916  24.836  25.877  1.00  0.00     0.005 A 
ATOM     32  C   UNL A   1      44.189  22.892  24.640  1.00  0.00     0.005 A 
ATOM     33  C   UNL A   1      43.627  24.957  26.338  1.00  0.00     0.022 A 
ATOM     34  C   UNL A   1      42.848  23.039  25.087  1.00  0.00     0.022 A 
ENDBRANCH  25  28
ENDBRANCH  17  25
ENDBRANCH  14  16
ENDBRANCH  11  14
ENDBRANCH   9  10
BRANCH   9  35
ATOM     35  C   UNL A   1      33.020  21.408  23.829  1.00  0.00     0.074 C 
BRANCH  35  36
ATOM     36  C   UNL A   1      33.048  20.204  24.717  1.00  0.00    -0.020 A 
ATOM     37  C   UNL A   1      32.830  20.212  26.081  1.00  0.00     0.087 A 
ATOM     38  C   UNL A   1      33.208  18.829  24.340  1.00  0.00     0.003 A 
ATOM     39  N   UNL A   1      32.854  18.922  26.534  1.00  0.00    -0.361 N 
ATOM     40  C   UNL A   1      33.132  18.060  25.502  1.00  0.00     0.046 A 
ATOM     41  C   UNL A   1      33.434  18.162  23.117  1.00  0.00     0.010 A 
ATOM     42  H   UNL A   1      32.696  18.650  27.467  1.00  0.00     0.166 HD
ATOM     43  C   UNL A   1      33.326  16.673  25.509  1.00  0.00     0.026 A 
ATOM     44  C   UNL A   1      33.706  16.793  23.115  1.00  0.00     0.001 A 
ATOM     45  C   UNL A   1      33.648  16.059  24.296  1.00  0.00     0.002 A 
ENDBRANCH  35  36
ENDBRANCH   9  35
ENDBRANCH   7   9
ENDBRANCH   6   7
ENDBRANCH   5   6
ENDBRANCH   4   5
ENDBRANCH   3   4
ENDBRANCH   2   3
ENDBRANCH   1   2
BRANCH   1  46
ATOM     46  O   UNL A   1      32.096  29.257  26.151  1.00  0.00    -0.377 OA
BRANCH  46  47
ATOM     47  C   UNL A   1      32.630  30.259  27.011  1.00  0.00     0.188 C 
BRANCH  47  48
ATOM     48  C   UNL A   1      34.095  29.968  27.103  1.00  0.00     0.188 C 
BRANCH  48  49
ATOM     49  O   UNL A   1      34.698  31.247  27.339  1.00  0.00    -0.376 OA
BRANCH  49  50
ATOM     50  C   UNL A   1      33.981  32.061  28.253  1.00  0.00     0.202 C 
BRANCH  50  51
ATOM     51  C   UNL A   1      34.899  32.356  29.436  1.00  0.00     0.261 C 
BRANCH  51  52
ATOM     52  O   UNL A   1      36.256  32.008  29.052  1.00  0.00    -0.460 OA
BRANCH  52  53
ATOM     53  C   UNL A   1      36.928  31.258  29.965  1.00  0.00     0.338 C 
ATOM     54  O   UNL A   1      36.419  30.337  30.610  1.00  0.00    -0.246 OA
BRANCH  53  55
ATOM     55  C   UNL A   1      38.324  31.747  30.200  1.00  0.00     0.060 A 
ATOM     56  C   UNL A   1      39.108  31.135  31.193  1.00  0.00     0.016 A 
ATOM     57  C   UNL A   1      38.727  32.978  29.681  1.00  0.00     0.016 A 
ATOM     58  C   UNL A   1      40.188  31.821  31.774  1.00  0.00     0.010 A 
ATOM     59  C   UNL A   1      39.709  33.703  30.349  1.00  0.00     0.010 A 
ATOM     60  C   UNL A   1      40.429  33.155  31.424  1.00  0.00    -0.014 A 
BRANCH  60  61
ATOM     61  C   UNL A   1      41.128  34.123  32.306  1.00  0.00     0.031 A 
ATOM     62  C   UNL A   1      40.502  34.682  33.573  1.00  0.00     0.074 A 
ATOM     63  C   UNL A   1      42.478  34.084  32.209  1.00  0.00     0.049 A 
ATOM     64  N   UNL A   1      41.081  35.425  34.472  1.00  0.00    -0.248 NA
ATOM     65  C   UNL A   1      39.082  34.488  33.879  1.00  0.00     0.031 C 
ATOM     66  C   UNL A   1      43.325  33.866  33.353  1.00  0.00     0.029 A 
ATOM     67  N   UNL A   1      43.363  33.887  31.173  1.00  0.00    -0.354 N 
ATOM     68  C   UNL A   1      40.231  35.538  35.577  1.00  0.00     0.074 A 
ATOM     69  C   UNL A   1      38.966  35.049  35.088  1.00  0.00     0.031 C 
ATOM     70  C   UNL A   1      44.611  33.740  33.036  1.00  0.00     0.029 A 
ATOM     71  C   UNL A   1      44.688  33.980  31.636  1.00  0.00     0.049 A 
ATOM     72  H   UNL A   1      43.106  33.705  30.241  1.00  0.00     0.167 HD
ATOM     73  C   UNL A   1      40.701  35.888  36.826  1.00  0.00     0.034 A 
ATOM     74  C   UNL A   1      45.551  34.878  31.116  1.00  0.00     0.034 A 
ATOM     75  C   UNL A   1      42.091  36.405  36.794  1.00  0.00     0.049 A 
ATOM     76  C   UNL A   1      45.565  36.179  31.938  1.00  0.00     0.074 A 
ATOM     77  C   UNL A   1      43.198  36.349  37.629  1.00  0.00     0.029 A 
ATOM     78  N   UNL A   1      42.554  37.077  35.655  1.00  0.00    -0.354 N 
ATOM     79  N   UNL A   1      45.027  36.335  33.139  1.00  0.00    -0.248 NA
ATOM     80  C   UNL A   1      46.214  37.409  31.496  1.00  0.00     0.031 C 
ATOM     81  C   UNL A   1      44.343  36.808  36.902  1.00  0.00     0.029 A 
ATOM     82  C   UNL A   1      43.917  37.282  35.670  1.00  0.00     0.049 A 
ATOM     83  H   UNL A   1      41.967  37.372  34.922  1.00  0.00     0.167 HD
ATOM     84  C   UNL A   1      45.127  37.648  33.563  1.00  0.00     0.074 A 
ATOM     85  C   UNL A   1      45.962  38.241  32.524  1.00  0.00     0.031 C 
ATOM     86  C   UNL A   1      44.514  38.180  34.685  1.00  0.00     0.034 A 
BRANCH  73  87
ATOM     87  C   UNL A   1      39.959  35.606  38.177  1.00  0.00     0.023 A 
ATOM     88  C   UNL A   1      39.436  34.314  38.464  1.00  0.00     0.031 A 
ATOM     89  C   UNL A   1      39.616  36.577  39.152  1.00  0.00     0.131 A 
ATOM     90  C   UNL A   1      38.624  34.054  39.604  1.00  0.00     0.055 A 
ATOM     91  C   UNL A   1      38.891  36.295  40.329  1.00  0.00     0.041 A 
ATOM     92  F   UNL A   1      39.891  37.876  38.999  1.00  0.00    -0.206 F 
ATOM     93  C   UNL A   1      38.378  35.033  40.555  1.00  0.00     0.022 A 
BRANCH  90  94
ATOM     94  S   UNL A   1      37.826  32.427  39.817  1.00  0.00     0.124 S 
ATOM     95  O   UNL A   1      37.953  31.849  38.484  1.00  0.00    -0.237 OA
ATOM     96  O   UNL A   1      38.627  31.816  40.870  1.00  0.00    -0.237 OA
ATOM     97  O   UNL A   1      36.457  32.768  40.209  1.00  0.00    -0.744 OA
ENDBRANCH  90  94
ENDBRANCH  73  87
BRANCH  74  98
ATOM     98  C   UNL A   1      45.831  34.392  29.709  1.00  0.00     0.023 A 
ATOM     99  C   UNL A   1      45.827  35.477  28.773  1.00  0.00     0.031 A 
ATOM    100  C   UNL A   1      46.837  33.421  29.517  1.00  0.00     0.131 A 
ATOM    101  C   UNL A   1      46.960  35.743  27.971  1.00  0.00     0.055 A 
ATOM    102  C   UNL A   1      47.950  33.676  28.687  1.00  0.00     0.041 A 
ATOM    103  F   UNL A   1      46.902  32.352  30.324  1.00  0.00    -0.206 F 
ATOM    104  C   UNL A   1      48.048  34.870  27.970  1.00  0.00     0.022 A 
BRANCH 101 105
ATOM    105  S   UNL A   1      47.149  37.391  27.192  1.00  0.00     0.124 S 
ATOM    106  O   UNL A   1      48.537  37.356  26.747  1.00  0.00    -0.237 OA
ATOM    107  O   UNL A   1      46.141  37.370  26.139  1.00  0.00    -0.237 OA
ATOM    108  O   UNL A   1      46.863  38.312  28.291  1.00  0.00    -0.744 OA
ENDBRANCH 101 105
ENDBRANCH  74  98
BRANCH  86 109
ATOM    109  C   UNL A   1      44.373  39.678  35.033  1.00  0.00     0.023 A 
ATOM    110  C   UNL A   1      45.034  40.280  36.100  1.00  0.00     0.031 A 
ATOM    111  C   UNL A   1      43.613  40.587  34.233  1.00  0.00     0.131 A 
ATOM    112  C   UNL A   1      44.865  41.643  36.410  1.00  0.00     0.055 A 
ATOM    113  C   UNL A   1      43.515  41.961  34.488  1.00  0.00     0.041 A 
ATOM    114  F   UNL A   1      42.939  40.207  33.139  1.00  0.00    -0.206 F 
ATOM    115  C   UNL A   1      44.130  42.499  35.600  1.00  0.00     0.022 A 
BRANCH 112 116
ATOM    116  S   UNL A   1      45.584  42.229  37.959  1.00  0.00     0.124 S 
ATOM    117  O   UNL A   1      46.752  42.963  37.481  1.00  0.00    -0.237 OA
ATOM    118  O   UNL A   1      44.509  43.049  38.510  1.00  0.00    -0.237 OA
ATOM    119  O   UNL A   1      45.874  41.001  38.695  1.00  0.00    -0.744 OA
ENDBRANCH 112 116
ENDBRANCH  86 109
ENDBRANCH  60  61
ENDBRANCH  53  55
ENDBRANCH  52  53
ENDBRANCH  51  52
ENDBRANCH  50  51
ENDBRANCH  49  50
ENDBRANCH  48  49
ENDBRANCH  47  48
ENDBRANCH  46  47
ENDBRANCH   1  46
TORSDOF 30
ENDMDL
MODEL 2
REMARK VINA RESULT:      -9.9      3.905      8.127
REMARK SMILES Cc1ccc(S(=O)(=O)n2cc(C(=O)C(=O)N[C@@H](Cc3c[nH]c4ccccc34)C(=O)OCCOCCOCCOCCOC(=O)c3ccc(-c4c5nc(c(-c6cc(S(=O)(=O)[O-])ccc6F)c6ccc([nH]6)c(-c6cc(S(=O)(=O)[O-])ccc6F)c6nc(c(-c7cc(S(=O)(=O)[O-])ccc7F)c7ccc4[nH]7)C=C6)C=C5)cc3)c3ccccc32)cc1
REMARK SMILES IDX 35 1 34 2 33 3 32 4 31 5 30 6 28 7 29 8 17 9 16 10 14 11
REMARK SMILES IDX 15 12 12 14 13 15 11 16 9 17 10 18 113 19 108 20 112 21
REMARK SMILES IDX 109 22 111 23 110 24 6 25 7 26 8 27 5 28 1 29 2 30 3 31
REMARK SMILES IDX 115 32 4 33 114 34 18 35 19 36 20 37 27 38 21 39 22 40 26 41
REMARK SMILES IDX 23 43 25 44 24 45 36 46 37 47 38 48 39 49 40 50 41 51 42 52
REMARK SMILES IDX 43 53 44 54 45 55 46 56 107 57 47 58 106 59 48 60 49 61
REMARK SMILES IDX 50 62 100 63 51 64 105 65 99 66 101 67 52 68 104 69 98 70
REMARK SMILES IDX 97 71 53 73 85 74 65 75 84 76 66 77 69 78 83 79 102 80 67 81
REMARK SMILES IDX 68 82 82 84 103 85 70 86 54 87 55 88 63 89 56 90 62 91 64 92
REMARK SMILES IDX 61 93 57 94 58 95 59 96 60 97 86 98 87 99 95 100 88 101
REMARK SMILES IDX 94 102 96 103 93 104 89 105 90 106 91 107 92 108 71 109
REMARK SMILES IDX 72 110 80 111 73 112 79 113 81 114 78 115 74 116 75 117
REMARK SMILES IDX 76 118 77 119
REMARK H PARENT 16 13 21 42 101 72 69 83
REMARK Flexibility Score: inf
ROOT
ATOM      1  C   UNL A   1      31.977  29.107  24.505  1.00  0.00     0.188 C 
ENDROOT
BRANCH   1   2
ATOM      2  C   UNL A   1      33.188  28.639  23.711  1.00  0.00     0.188 C 
BRANCH   2   3
ATOM      3  O   UNL A   1      32.840  28.061  22.467  1.00  0.00    -0.376 OA
BRANCH   3   4
ATOM      4  C   UNL A   1      33.200  26.684  22.390  1.00  0.00     0.202 C 
BRANCH   4   5
ATOM      5  C   UNL A   1      33.447  25.944  23.721  1.00  0.00     0.261 C 
BRANCH   5   6
ATOM      6  O   UNL A   1      34.552  25.033  23.749  1.00  0.00    -0.462 OA
BRANCH   6   7
ATOM      7  C   UNL A   1      34.251  23.806  23.248  1.00  0.00     0.329 C 
ATOM      8  O   UNL A   1      34.288  23.506  22.056  1.00  0.00    -0.250 OA
BRANCH   7   9
ATOM      9  C   UNL A   1      33.874  22.764  24.318  1.00  0.00     0.197 C 
BRANCH   9  10
ATOM     10  N   UNL A   1      34.109  23.030  25.761  1.00  0.00    -0.335 N 
ATOM     11  C   UNL A   1      35.217  22.633  26.512  1.00  0.00     0.293 C 
ATOM     12  O   UNL A   1      35.195  22.518  27.730  1.00  0.00    -0.265 OA
ATOM     13  H   UNL A   1      33.412  23.538  26.235  1.00  0.00     0.164 HD
BRANCH  11  14
ATOM     14  C   UNL A   1      36.528  22.438  25.757  1.00  0.00     0.252 C 
ATOM     15  O   UNL A   1      36.478  21.604  24.852  1.00  0.00    -0.283 OA
BRANCH  14  16
ATOM     16  C   UNL A   1      37.821  23.101  25.939  1.00  0.00     0.054 A 
ATOM     17  N   UNL A   1      39.492  24.230  26.853  1.00  0.00    -0.240 N 
ATOM     18  C   UNL A   1      38.321  24.399  26.103  1.00  0.00     0.117 A 
ATOM     19  C   UNL A   1      39.612  22.854  27.122  1.00  0.00     0.065 A 
ATOM     20  C   UNL A   1      38.973  22.278  26.050  1.00  0.00     0.012 A 
ATOM     21  C   UNL A   1      40.477  22.114  27.942  1.00  0.00     0.028 A 
ATOM     22  C   UNL A   1      39.385  21.005  25.612  1.00  0.00     0.011 A 
ATOM     23  C   UNL A   1      40.892  20.865  27.476  1.00  0.00     0.002 A 
ATOM     24  C   UNL A   1      40.401  20.342  26.290  1.00  0.00     0.001 A 
BRANCH  17  25
ATOM     25  S   UNL A   1      41.063  24.901  26.696  1.00  0.00     0.268 S 
ATOM     26  O   UNL A   1      41.210  25.714  27.894  1.00  0.00    -0.201 OA
ATOM     27  O   UNL A   1      40.923  25.524  25.379  1.00  0.00    -0.201 OA
BRANCH  25  28
ATOM     28  C   UNL A   1      42.641  24.196  26.478  1.00  0.00     0.088 A 
ATOM     29  C   UNL A   1      45.860  21.748  25.007  1.00  0.00     0.044 C 
ATOM     30  C   UNL A   1      44.809  22.678  25.532  1.00  0.00    -0.051 A 
ATOM     31  C   UNL A   1      43.767  22.970  24.669  1.00  0.00     0.005 A 
ATOM     32  C   UNL A   1      44.789  23.208  26.845  1.00  0.00     0.005 A 
ATOM     33  C   UNL A   1      42.726  23.737  25.134  1.00  0.00     0.022 A 
ATOM     34  C   UNL A   1      43.696  23.971  27.337  1.00  0.00     0.022 A 
ENDBRANCH  25  28
ENDBRANCH  17  25
ENDBRANCH  14  16
ENDBRANCH  11  14
ENDBRANCH   9  10
BRANCH   9  35
ATOM     35  C   UNL A   1      32.486  22.177  23.975  1.00  0.00     0.074 C 
BRANCH  35  36
ATOM     36  C   UNL A   1      32.414  20.854  23.280  1.00  0.00    -0.020 A 
ATOM     37  C   UNL A   1      31.836  20.631  22.045  1.00  0.00     0.087 A 
ATOM     38  C   UNL A   1      32.991  19.606  23.690  1.00  0.00     0.003 A 
ATOM     39  N   UNL A   1      32.034  19.323  21.701  1.00  0.00    -0.361 N 
ATOM     40  C   UNL A   1      32.693  18.661  22.708  1.00  0.00     0.046 A 
ATOM     41  C   UNL A   1      33.722  19.182  24.819  1.00  0.00     0.010 A 
ATOM     42  H   UNL A   1      31.745  18.913  20.853  1.00  0.00     0.166 HD
ATOM     43  C   UNL A   1      33.039  17.309  22.826  1.00  0.00     0.026 A 
ATOM     44  C   UNL A   1      34.007  17.826  24.990  1.00  0.00     0.001 A 
ATOM     45  C   UNL A   1      33.673  16.904  24.003  1.00  0.00     0.002 A 
ENDBRANCH  35  36
ENDBRANCH   9  35
ENDBRANCH   7   9
ENDBRANCH   6   7
ENDBRANCH   5   6
ENDBRANCH   4   5
ENDBRANCH   3   4
ENDBRANCH   2   3
ENDBRANCH   1   2
BRANCH   1  46
ATOM     46  O   UNL A   1      31.625  28.325  25.616  1.00  0.00    -0.377 OA
BRANCH  46  47
ATOM     47  C   UNL A   1      31.733  29.070  26.826  1.00  0.00     0.188 C 
BRANCH  47  48
ATOM     48  C   UNL A   1      32.166  30.441  26.414  1.00  0.00     0.188 C 
BRANCH  48  49
ATOM     49  O   UNL A   1      32.553  31.075  27.641  1.00  0.00    -0.376 OA
BRANCH  49  50
ATOM     50  C   UNL A   1      33.796  31.753  27.569  1.00  0.00     0.202 C 
BRANCH  50  51
ATOM     51  C   UNL A   1      34.445  31.688  28.950  1.00  0.00     0.261 C 
BRANCH  51  52
ATOM     52  O   UNL A   1      34.327  32.999  29.564  1.00  0.00    -0.460 OA
BRANCH  52  53
ATOM     53  C   UNL A   1      34.958  33.122  30.762  1.00  0.00     0.338 C 
ATOM     54  O   UNL A   1      34.489  32.727  31.833  1.00  0.00    -0.246 OA
BRANCH  53  55
ATOM     55  C   UNL A   1      36.232  33.904  30.667  1.00  0.00     0.060 A 
ATOM     56  C   UNL A   1      36.813  34.118  29.404  1.00  0.00     0.016 A 
ATOM     57  C   UNL A   1      36.993  34.138  31.812  1.00  0.00     0.016 A 
ATOM     58  C   UNL A   1      38.184  34.402  29.289  1.00  0.00     0.010 A 
ATOM     59  C   UNL A   1      38.372  34.285  31.687  1.00  0.00     0.010 A 
ATOM     60  C   UNL A   1      38.994  34.385  30.431  1.00  0.00    -0.014 A 
BRANCH  60  61
ATOM     61  C   UNL A   1      40.454  34.121  30.400  1.00  0.00     0.031 A 
ATOM     62  C   UNL A   1      41.383  34.758  29.381  1.00  0.00     0.074 A 
ATOM     63  C   UNL A   1      40.968  33.716  31.585  1.00  0.00     0.049 A 
ATOM     64  N   UNL A   1      42.684  34.693  29.356  1.00  0.00    -0.248 NA
ATOM     65  C   UNL A   1      40.867  35.484  28.217  1.00  0.00     0.031 C 
ATOM     66  C   UNL A   1      42.057  34.405  32.228  1.00  0.00     0.029 A 
ATOM     67  N   UNL A   1      40.512  32.915  32.608  1.00  0.00    -0.354 N 
ATOM     68  C   UNL A   1      43.161  35.589  28.395  1.00  0.00     0.074 A 
ATOM     69  C   UNL A   1      41.983  35.942  27.640  1.00  0.00     0.031 C 
ATOM     70  C   UNL A   1      42.337  33.928  33.438  1.00  0.00     0.029 A 
ATOM     71  C   UNL A   1      41.487  32.801  33.614  1.00  0.00     0.049 A 
ATOM     72  H   UNL A   1      39.627  32.483  32.633  1.00  0.00     0.167 HD
ATOM     73  C   UNL A   1      44.458  36.060  28.415  1.00  0.00     0.034 A 
ATOM     74  C   UNL A   1      41.972  31.598  33.989  1.00  0.00     0.034 A 
ATOM     75  C   UNL A   1      45.329  35.304  29.349  1.00  0.00     0.049 A 
ATOM     76  C   UNL A   1      43.259  31.251  33.219  1.00  0.00     0.074 A 
ATOM     77  C   UNL A   1      46.398  35.603  30.181  1.00  0.00     0.029 A 
ATOM     78  N   UNL A   1      45.069  33.950  29.596  1.00  0.00    -0.354 N 
ATOM     79  N   UNL A   1      43.967  32.097  32.485  1.00  0.00    -0.248 NA
ATOM     80  C   UNL A   1      43.879  29.931  33.233  1.00  0.00     0.031 C 
ATOM     81  C   UNL A   1      46.628  34.486  31.048  1.00  0.00     0.029 A 
ATOM     82  C   UNL A   1      45.798  33.448  30.653  1.00  0.00     0.049 A 
ATOM     83  H   UNL A   1      44.433  33.414  29.069  1.00  0.00     0.167 HD
ATOM     84  C   UNL A   1      45.011  31.451  31.848  1.00  0.00     0.074 A 
ATOM     85  C   UNL A   1      44.948  30.117  32.436  1.00  0.00     0.031 C 
ATOM     86  C   UNL A   1      45.828  32.004  30.877  1.00  0.00     0.034 A 
BRANCH  73  87
ATOM     87  C   UNL A   1      44.952  37.364  27.702  1.00  0.00     0.023 A 
ATOM     88  C   UNL A   1      44.105  38.502  27.596  1.00  0.00     0.031 A 
ATOM     89  C   UNL A   1      46.173  37.509  26.995  1.00  0.00     0.131 A 
ATOM     90  C   UNL A   1      44.454  39.647  26.825  1.00  0.00     0.055 A 
ATOM     91  C   UNL A   1      46.558  38.681  26.310  1.00  0.00     0.041 A 
ATOM     92  F   UNL A   1      47.045  36.506  26.854  1.00  0.00    -0.206 F 
ATOM     93  C   UNL A   1      45.693  39.753  26.208  1.00  0.00     0.022 A 
BRANCH  90  94
ATOM     94  S   UNL A   1      43.248  40.992  26.571  1.00  0.00     0.124 S 
ATOM     95  O   UNL A   1      42.783  40.731  25.213  1.00  0.00    -0.237 OA
ATOM     96  O   UNL A   1      42.287  40.763  27.642  1.00  0.00    -0.237 OA
ATOM     97  O   UNL A   1      44.054  42.205  26.720  1.00  0.00    -0.744 OA
ENDBRANCH  90  94
ENDBRANCH  73  87
BRANCH  74  98
ATOM     98  C   UNL A   1      40.825  30.911  34.701  1.00  0.00     0.023 A 
ATOM     99  C   UNL A   1      40.101  31.828  35.530  1.00  0.00     0.031 A 
ATOM    100  C   UNL A   1      40.040  29.986  33.981  1.00  0.00     0.131 A 
ATOM    101  C   UNL A   1      38.715  32.032  35.342  1.00  0.00     0.055 A 
ATOM    102  C   UNL A   1      38.649  30.172  33.825  1.00  0.00     0.041 A 
ATOM    103  F   UNL A   1      40.630  29.066  33.202  1.00  0.00    -0.206 F 
ATOM    104  C   UNL A   1      37.998  31.239  34.447  1.00  0.00     0.022 A 
BRANCH 101 105
ATOM    105  S   UNL A   1      37.925  33.542  36.016  1.00  0.00     0.124 S 
ATOM    106  O   UNL A   1      36.618  33.510  35.370  1.00  0.00    -0.237 OA
ATOM    107  O   UNL A   1      37.931  33.298  37.453  1.00  0.00    -0.237 OA
ATOM    108  O   UNL A   1      38.819  34.611  35.574  1.00  0.00    -0.744 OA
ENDBRANCH 101 105
ENDBRANCH  74  98
BRANCH  86 109
ATOM    109  C   UNL A   1      46.807  31.246  29.955  1.00  0.00     0.023 A 
ATOM    110  C   UNL A   1      46.481  30.842  28.663  1.00  0.00     0.031 A 
ATOM    111  C   UNL A   1      48.159  30.970  30.327  1.00  0.00     0.131 A 
ATOM    112  C   UNL A   1      47.386  30.128  27.854  1.00  0.00     0.055 A 
ATOM    113  C   UNL A   1      49.088  30.338  29.490  1.00  0.00     0.041 A 
ATOM    114  F   UNL A   1      48.673  31.318  31.514  1.00  0.00    -0.206 F 
ATOM    115  C   UNL A   1      48.698  29.892  28.244  1.00  0.00     0.022 A 
BRANCH 112 116
ATOM    116  S   UNL A   1      46.749  29.456  26.304  1.00  0.00     0.124 S 
ATOM    117  O   UNL A   1      47.949  28.851  25.731  1.00  0.00    -0.237 OA
ATOM    118  O   UNL A   1      45.732  28.516  26.767  1.00  0.00    -0.237 OA
ATOM    119  O   UNL A   1      46.242  30.629  25.598  1.00  0.00    -0.744 OA
ENDBRANCH 112 116
ENDBRANCH  86 109
ENDBRANCH  60  61
ENDBRANCH  53  55
ENDBRANCH  52  53
ENDBRANCH  51  52
ENDBRANCH  50  51
ENDBRANCH  49  50
ENDBRANCH  48  49
ENDBRANCH  47  48
ENDBRANCH  46  47
ENDBRANCH   1  46
TORSDOF 30
ENDMDL
MODEL 3
REMARK VINA RESULT:      -9.3      5.184     10.318
REMARK SMILES Cc1ccc(S(=O)(=O)n2cc(C(=O)C(=O)N[C@@H](Cc3c[nH]c4ccccc34)C(=O)OCCOCCOCCOCCOC(=O)c3ccc(-c4c5nc(c(-c6cc(S(=O)(=O)[O-])ccc6F)c6ccc([nH]6)c(-c6cc(S(=O)(=O)[O-])ccc6F)c6nc(c(-c7cc(S(=O)(=O)[O-])ccc7F)c7ccc4[nH]7)C=C6)C=C5)cc3)c3ccccc32)cc1
REMARK SMILES IDX 35 1 34 2 33 3 32 4 31 5 30 6 28 7 29 8 17 9 16 10 14 11
REMARK SMILES IDX 15 12 12 14 13 15 11 16 9 17 10 18 113 19 108 20 112 21
REMARK SMILES IDX 109 22 111 23 110 24 6 25 7 26 8 27 5 28 1 29 2 30 3 31
REMARK SMILES IDX 115 32 4 33 114 34 18 35 19 36 20 37 27 38 21 39 22 40 26 41
REMARK SMILES IDX 23 43 25 44 24 45 36 46 37 47 38 48 39 49 40 50 41 51 42 52
REMARK SMILES IDX 43 53 44 54 45 55 46 56 107 57 47 58 106 59 48 60 49 61
REMARK SMILES IDX 50 62 100 63 51 64 105 65 99 66 101 67 52 68 104 69 98 70
REMARK SMILES IDX 97 71 53 73 85 74 65 75 84 76 66 77 69 78 83 79 102 80 67 81
REMARK SMILES IDX 68 82 82 84 103 85 70 86 54 87 55 88 63 89 56 90 62 91 64 92
REMARK SMILES IDX 61 93 57 94 58 95 59 96 60 97 86 98 87 99 95 100 88 101
REMARK SMILES IDX 94 102 96 103 93 104 89 105 90 106 91 107 92 108 71 109
REMARK SMILES IDX 72 110 80 111 73 112 79 113 81 114 78 115 74 116 75 117
REMARK SMILES IDX 76 118 77 119
REMARK H PARENT 16 13 21 42 101 72 69 83
REMARK Flexibility Score: inf
ROOT
ATOM      1  C   UNL A   1      31.826  29.617  24.973  1.00  0.00     0.188 C 
ENDROOT
BRANCH   1   2
ATOM      2  C   UNL A   1      33.098  28.947  24.473  1.00  0.00     0.188 C 
BRANCH   2   3
ATOM      3  O   UNL A   1      32.971  28.438  23.159  1.00  0.00    -0.376 OA
BRANCH   3   4
ATOM      4  C   UNL A   1      33.375  27.075  23.064  1.00  0.00     0.202 C 
BRANCH   4   5
ATOM      5  C   UNL A   1      33.570  26.303  24.386  1.00  0.00     0.261 C 
BRANCH   5   6
ATOM      6  O   UNL A   1      34.637  25.348  24.416  1.00  0.00    -0.462 OA
BRANCH   6   7
ATOM      7  C   UNL A   1      34.404  24.256  23.642  1.00  0.00     0.329 C 
ATOM      8  O   UNL A   1      34.550  24.217  22.422  1.00  0.00    -0.250 OA
BRANCH   7   9
ATOM      9  C   UNL A   1      33.955  23.010  24.429  1.00  0.00     0.197 C 
BRANCH   9  10
ATOM     10  N   UNL A   1      34.190  22.905  25.892  1.00  0.00    -0.335 N 
ATOM     11  C   UNL A   1      35.262  22.269  26.521  1.00  0.00     0.293 C 
ATOM     12  O   UNL A   1      35.220  21.865  27.675  1.00  0.00    -0.265 OA
ATOM     13  H   UNL A   1      33.521  23.326  26.479  1.00  0.00     0.164 HD
BRANCH  11  14
ATOM     14  C   UNL A   1      36.568  22.178  25.735  1.00  0.00     0.252 C 
ATOM     15  O   UNL A   1      36.521  21.443  24.749  1.00  0.00    -0.283 OA
BRANCH  14  16
ATOM     16  C   UNL A   1      37.850  22.844  25.971  1.00  0.00     0.054 A 
ATOM     17  N   UNL A   1      39.503  23.922  26.975  1.00  0.00    -0.240 N 
ATOM     18  C   UNL A   1      38.331  24.133  26.239  1.00  0.00     0.117 A 
ATOM     19  C   UNL A   1      39.644  22.531  27.135  1.00  0.00     0.065 A 
ATOM     20  C   UNL A   1      39.014  22.031  26.020  1.00  0.00     0.012 A 
ATOM     21  C   UNL A   1      40.518  21.741  27.897  1.00  0.00     0.028 A 
ATOM     22  C   UNL A   1      39.445  20.803  25.484  1.00  0.00     0.011 A 
ATOM     23  C   UNL A   1      40.952  20.539  27.335  1.00  0.00     0.002 A 
ATOM     24  C   UNL A   1      40.470  20.103  26.111  1.00  0.00     0.001 A 
BRANCH  17  25
ATOM     25  S   UNL A   1      41.065  24.625  26.874  1.00  0.00     0.268 S 
ATOM     26  O   UNL A   1      41.203  25.334  28.138  1.00  0.00    -0.201 OA
ATOM     27  O   UNL A   1      40.913  25.358  25.617  1.00  0.00    -0.201 OA
BRANCH  25  28
ATOM     28  C   UNL A   1      42.651  23.964  26.594  1.00  0.00     0.088 A 
ATOM     29  C   UNL A   1      45.889  21.656  24.949  1.00  0.00     0.044 C 
ATOM     30  C   UNL A   1      44.830  22.537  25.537  1.00  0.00    -0.051 A 
ATOM     31  C   UNL A   1      43.767  22.848  24.708  1.00  0.00     0.005 A 
ATOM     32  C   UNL A   1      44.826  23.004  26.874  1.00  0.00     0.005 A 
ATOM     33  C   UNL A   1      42.720  23.571  25.228  1.00  0.00     0.022 A 
ATOM     34  C   UNL A   1      43.727  23.721  27.422  1.00  0.00     0.022 A 
ENDBRANCH  25  28
ENDBRANCH  17  25
ENDBRANCH  14  16
ENDBRANCH  11  14
ENDBRANCH   9  10
BRANCH   9  35
ATOM     35  C   UNL A   1      32.539  22.608  23.960  1.00  0.00     0.074 C 
BRANCH  35  36
ATOM     36  C   UNL A   1      32.358  21.304  23.248  1.00  0.00    -0.020 A 
ATOM     37  C   UNL A   1      31.871  21.156  21.964  1.00  0.00     0.087 A 
ATOM     38  C   UNL A   1      32.728  19.992  23.696  1.00  0.00     0.003 A 
ATOM     39  N   UNL A   1      31.927  19.832  21.627  1.00  0.00    -0.361 N 
ATOM     40  C   UNL A   1      32.400  19.092  22.683  1.00  0.00     0.046 A 
ATOM     41  C   UNL A   1      33.292  19.479  24.883  1.00  0.00     0.010 A 
ATOM     42  H   UNL A   1      31.666  19.462  20.753  1.00  0.00     0.166 HD
ATOM     43  C   UNL A   1      32.555  17.706  22.818  1.00  0.00     0.026 A 
ATOM     44  C   UNL A   1      33.382  18.097  25.066  1.00  0.00     0.001 A 
ATOM     45  C   UNL A   1      33.021  17.225  24.044  1.00  0.00     0.002 A 
ENDBRANCH  35  36
ENDBRANCH   9  35
ENDBRANCH   7   9
ENDBRANCH   6   7
ENDBRANCH   5   6
ENDBRANCH   4   5
ENDBRANCH   3   4
ENDBRANCH   2   3
ENDBRANCH   1   2
BRANCH   1  46
ATOM     46  O   UNL A   1      31.387  29.236  26.251  1.00  0.00    -0.377 OA
BRANCH  46  47
ATOM     47  C   UNL A   1      32.161  29.863  27.270  1.00  0.00     0.188 C 
BRANCH  47  48
ATOM     48  C   UNL A   1      33.461  30.221  26.623  1.00  0.00     0.188 C 
BRANCH  48  49
ATOM     49  O   UNL A   1      34.388  30.314  27.713  1.00  0.00    -0.376 OA
BRANCH  49  50
ATOM     50  C   UNL A   1      35.631  29.678  27.467  1.00  0.00     0.202 C 
BRANCH  50  51
ATOM     51  C   UNL A   1      36.368  29.559  28.798  1.00  0.00     0.261 C 
BRANCH  51  52
ATOM     52  O   UNL A   1      37.631  30.265  28.678  1.00  0.00    -0.460 OA
BRANCH  52  53
ATOM     53  C   UNL A   1      38.194  30.626  29.862  1.00  0.00     0.338 C 
ATOM     54  O   UNL A   1      37.561  31.094  30.811  1.00  0.00    -0.246 OA
BRANCH  53  55
ATOM     55  C   UNL A   1      39.687  30.516  29.849  1.00  0.00     0.060 A 
ATOM     56  C   UNL A   1      40.305  29.666  28.915  1.00  0.00     0.016 A 
ATOM     57  C   UNL A   1      40.430  30.986  30.933  1.00  0.00     0.016 A 
ATOM     58  C   UNL A   1      41.596  29.162  29.152  1.00  0.00     0.010 A 
ATOM     59  C   UNL A   1      41.648  30.382  31.229  1.00  0.00     0.010 A 
ATOM     60  C   UNL A   1      42.234  29.439  30.368  1.00  0.00    -0.014 A 
BRANCH  60  61
ATOM     61  C   UNL A   1      43.284  28.573  30.960  1.00  0.00     0.031 A 
ATOM     62  C   UNL A   1      44.211  27.712  30.119  1.00  0.00     0.074 A 
ATOM     63  C   UNL A   1      43.697  28.967  32.188  1.00  0.00     0.049 A 
ATOM     64  N   UNL A   1      45.239  27.029  30.535  1.00  0.00    -0.248 NA
ATOM     65  C   UNL A   1      43.974  27.496  28.690  1.00  0.00     0.031 C 
ATOM     66  C   UNL A   1      45.079  29.242  32.484  1.00  0.00     0.029 A 
ATOM     67  N   UNL A   1      43.070  29.518  33.283  1.00  0.00    -0.354 N 
ATOM     68  C   UNL A   1      45.946  26.559  29.423  1.00  0.00     0.074 A 
ATOM     69  C   UNL A   1      45.037  26.770  28.325  1.00  0.00     0.031 C 
ATOM     70  C   UNL A   1      45.266  29.731  33.707  1.00  0.00     0.029 A 
ATOM     71  C   UNL A   1      43.988  29.706  34.331  1.00  0.00     0.049 A 
ATOM     72  H   UNL A   1      42.114  29.749  33.326  1.00  0.00     0.167 HD
ATOM     73  C   UNL A   1      47.270  26.179  29.508  1.00  0.00     0.034 A 
ATOM     74  C   UNL A   1      43.800  29.133  35.539  1.00  0.00     0.034 A 
ATOM     75  C   UNL A   1      47.741  26.042  30.908  1.00  0.00     0.049 A 
ATOM     76  C   UNL A   1      44.531  27.782  35.637  1.00  0.00     0.074 A 
ATOM     77  C   UNL A   1      48.929  26.267  31.589  1.00  0.00     0.029 A 
ATOM     78  N   UNL A   1      46.837  25.666  31.909  1.00  0.00    -0.354 N 
ATOM     79  N   UNL A   1      45.441  27.337  34.782  1.00  0.00    -0.248 NA
ATOM     80  C   UNL A   1      44.326  26.827  36.721  1.00  0.00     0.031 C 
ATOM     81  C   UNL A   1      48.666  26.215  32.996  1.00  0.00     0.029 A 
ATOM     82  C   UNL A   1      47.351  25.814  33.180  1.00  0.00     0.049 A 
ATOM     83  H   UNL A   1      45.930  25.330  31.724  1.00  0.00     0.167 HD
ATOM     84  C   UNL A   1      45.833  26.050  35.098  1.00  0.00     0.074 A 
ATOM     85  C   UNL A   1      45.162  25.831  36.375  1.00  0.00     0.031 C 
ATOM     86  C   UNL A   1      46.632  25.236  34.313  1.00  0.00     0.034 A 
BRANCH  73  87
ATOM     87  C   UNL A   1      48.257  26.083  28.295  1.00  0.00     0.023 A 
ATOM     88  C   UNL A   1      47.891  26.590  27.017  1.00  0.00     0.031 A 
ATOM     89  C   UNL A   1      49.497  25.395  28.289  1.00  0.00     0.131 A 
ATOM     90  C   UNL A   1      48.689  26.386  25.856  1.00  0.00     0.055 A 
ATOM     91  C   UNL A   1      50.332  25.276  27.157  1.00  0.00     0.041 A 
ATOM     92  F   UNL A   1      49.953  24.728  29.353  1.00  0.00    -0.206 F 
ATOM     93  C   UNL A   1      49.925  25.759  25.929  1.00  0.00     0.022 A 
BRANCH  90  94
ATOM     94  S   UNL A   1      48.077  26.891  24.214  1.00  0.00     0.124 S 
ATOM     95  O   UNL A   1      49.186  26.514  23.345  1.00  0.00    -0.237 OA
ATOM     96  O   UNL A   1      46.852  26.113  24.078  1.00  0.00    -0.237 OA
ATOM     97  O   UNL A   1      47.872  28.334  24.355  1.00  0.00    -0.744 OA
ENDBRANCH  90  94
ENDBRANCH  73  87
BRANCH  74  98
ATOM     98  C   UNL A   1      42.612  29.855  36.141  1.00  0.00     0.023 A 
ATOM     99  C   UNL A   1      42.732  31.275  35.986  1.00  0.00     0.031 A 
ATOM    100  C   UNL A   1      41.322  29.323  35.934  1.00  0.00     0.131 A 
ATOM    101  C   UNL A   1      41.733  32.015  35.314  1.00  0.00     0.055 A 
ATOM    102  C   UNL A   1      40.314  30.078  35.294  1.00  0.00     0.041 A 
ATOM    103  F   UNL A   1      41.104  28.009  36.087  1.00  0.00    -0.206 F 
ATOM    104  C   UNL A   1      40.544  31.402  34.917  1.00  0.00     0.022 A 
BRANCH 101 105
ATOM    105  S   UNL A   1      42.126  33.683  34.667  1.00  0.00     0.124 S 
ATOM    106  O   UNL A   1      43.123  34.150  35.624  1.00  0.00    -0.237 OA
ATOM    107  O   UNL A   1      42.616  33.404  33.323  1.00  0.00    -0.237 OA
ATOM    108  O   UNL A   1      40.837  34.372  34.716  1.00  0.00    -0.744 OA
ENDBRANCH 101 105
ENDBRANCH  74  98
BRANCH  86 109
ATOM    109  C   UNL A   1      46.860  23.719  34.492  1.00  0.00     0.023 A 
ATOM    110  C   UNL A   1      48.071  23.172  34.906  1.00  0.00     0.031 A 
ATOM    111  C   UNL A   1      45.814  22.758  34.327  1.00  0.00     0.131 A 
ATOM    112  C   UNL A   1      48.257  21.783  35.035  1.00  0.00     0.055 A 
ATOM    113  C   UNL A   1      45.974  21.383  34.542  1.00  0.00     0.041 A 
ATOM    114  F   UNL A   1      44.567  23.093  33.973  1.00  0.00    -0.206 F 
ATOM    115  C   UNL A   1      47.213  20.880  34.881  1.00  0.00     0.022 A 
BRANCH 112 116
ATOM    116  S   UNL A   1      49.941  21.204  35.338  1.00  0.00     0.124 S 
ATOM    117  O   UNL A   1      50.515  22.336  36.060  1.00  0.00    -0.237 OA
ATOM    118  O   UNL A   1      49.717  20.000  36.134  1.00  0.00    -0.237 OA
ATOM    119  O   UNL A   1      50.477  20.978  33.999  1.00  0.00    -0.744 OA
ENDBRANCH 112 116
ENDBRANCH  86 109
ENDBRANCH  60  61
ENDBRANCH  53  55
ENDBRANCH  52  53
ENDBRANCH  51  52
ENDBRANCH  50  51
ENDBRANCH  49  50
ENDBRANCH  48  49
ENDBRANCH  47  48
ENDBRANCH  46  47
ENDBRANCH   1  46
TORSDOF 30
ENDMDL
