MODEL 1
REMARK VINA RESULT:     -10.4      0.000      0.000
REMARK SMILES CN1C(=O)C[C@@H](C(=O)OCCOCCOCCOCCOC(=O)c2ccc(-c3c4nc(c(-c5cc(S(=O)(=O)[O-])ccc5F)c5ccc([nH]5)c(-c5cc(S(=O)(=O)[O-])ccc5F)c5nc(c(-c6cc(S(=O)(=O)[O-])ccc6F)c6ccc3[nH]6)C=C5)C=C4)cc2)C12CCN(c1ccc(Cl)cn1)CC2
REMARK SMILES IDX 16 1 15 2 14 3 13 4 12 5 11 6 10 7 9 8 7 9 8 10 6 11 1 12
REMARK SMILES IDX 2 13 3 14 87 15 4 16 5 17 88 18 99 19 89 20 98 21 90 22
REMARK SMILES IDX 91 23 92 24 97 25 93 26 96 27 94 28 95 29 17 30 18 31 19 32
REMARK SMILES IDX 20 33 21 34 22 35 23 36 24 37 25 38 86 39 26 40 85 41 27 42
REMARK SMILES IDX 28 43 29 44 79 45 30 46 84 47 78 48 80 49 31 50 83 51 77 52
REMARK SMILES IDX 76 53 32 55 64 56 44 57 63 58 45 59 48 60 62 61 81 62 46 63
REMARK SMILES IDX 47 64 61 66 82 67 49 68 33 69 34 70 42 71 35 72 41 73 43 74
REMARK SMILES IDX 40 75 36 76 37 77 38 78 39 79 65 80 66 81 74 82 67 83 73 84
REMARK SMILES IDX 75 85 72 86 68 87 69 88 70 89 71 90 50 91 51 92 59 93 52 94
REMARK SMILES IDX 58 95 60 96 57 97 53 98 54 99 55 100 56 101
REMARK H PARENT 80 54 48 65
REMARK Flexibility Score: inf
ROOT
ATOM      1  C   UNL A   1      39.144  22.208  26.424  1.00  0.00     0.188 C 
ENDROOT
BRANCH   1   2
ATOM      2  O   UNL A   1      38.575  23.513  26.316  1.00  0.00    -0.377 OA
BRANCH   2   3
ATOM      3  C   UNL A   1      37.417  23.749  25.538  1.00  0.00     0.188 C 
BRANCH   3   4
ATOM      4  C   UNL A   1      36.073  23.387  26.162  1.00  0.00     0.188 C 
BRANCH   4   5
ATOM      5  O   UNL A   1      35.501  22.137  25.852  1.00  0.00    -0.376 OA
BRANCH   5   6
ATOM      6  C   UNL A   1      35.282  21.810  24.483  1.00  0.00     0.202 C 
BRANCH   6   7
ATOM      7  C   UNL A   1      34.487  22.754  23.549  1.00  0.00     0.261 C 
BRANCH   7   8
ATOM      8  O   UNL A   1      33.137  23.148  23.947  1.00  0.00    -0.463 OA
BRANCH   8   9
ATOM      9  C   UNL A   1      32.718  24.346  23.490  1.00  0.00     0.311 C 
ATOM     10  O   UNL A   1      32.689  24.627  22.288  1.00  0.00    -0.252 OA
BRANCH   9  11
ATOM     11  C   UNL A   1      32.359  25.448  24.487  1.00  0.00     0.134 C 
ATOM     12  C   UNL A   1      29.169  25.232  26.455  1.00  0.00     0.147 C 
ATOM     13  N   UNL A   1      30.540  25.271  25.968  1.00  0.00    -0.339 N 
ATOM     14  C   UNL A   1      31.549  24.531  26.549  1.00  0.00     0.223 C 
ATOM     15  C   UNL A   1      31.002  26.127  24.853  1.00  0.00     0.060 C 
ATOM     16  O   UNL A   1      31.449  23.776  27.501  1.00  0.00    -0.275 OA
ATOM     17  C   UNL A   1      32.830  24.867  25.844  1.00  0.00     0.118 C 
ATOM     18  C   UNL A   1      29.898  26.239  23.794  1.00  0.00     0.051 C 
ATOM     19  C   UNL A   1      31.315  27.568  25.436  1.00  0.00     0.051 C 
ATOM     20  C   UNL A   1      29.935  27.456  22.895  1.00  0.00     0.120 C 
ATOM     21  C   UNL A   1      31.389  28.694  24.385  1.00  0.00     0.120 C 
ATOM     22  N   UNL A   1      30.131  28.674  23.665  1.00  0.00    -0.356 N 
BRANCH  22  23
ATOM     23  C   UNL A   1      29.697  29.797  22.957  1.00  0.00     0.128 A 
ATOM     24  C   UNL A   1      29.135  30.848  23.697  1.00  0.00     0.048 A 
ATOM     25  N   UNL A   1      29.679  29.808  21.609  1.00  0.00    -0.238 NA
ATOM     26  C   UNL A   1      28.486  31.902  23.058  1.00  0.00     0.026 A 
ATOM     27  C   UNL A   1      29.041  30.851  21.003  1.00  0.00     0.134 A 
ATOM     28  C   UNL A   1      28.425  31.896  21.678  1.00  0.00     0.059 A 
ATOM     29  Cl  UNL A   1      27.590  33.137  20.838  1.00  0.00    -0.083 Cl
ENDBRANCH  22  23
ENDBRANCH   9  11
ENDBRANCH   8   9
ENDBRANCH   7   8
ENDBRANCH   6   7
ENDBRANCH   5   6
ENDBRANCH   4   5
ENDBRANCH   3   4
ENDBRANCH   2   3
ENDBRANCH   1   2
BRANCH   1  30
ATOM     30  C   UNL A   1      40.419  22.029  27.253  1.00  0.00     0.188 C 
BRANCH  30  31
ATOM     31  O   UNL A   1      40.722  20.731  27.778  1.00  0.00    -0.376 OA
BRANCH  31  32
ATOM     32  C   UNL A   1      41.988  20.151  27.488  1.00  0.00     0.202 C 
BRANCH  32  33
ATOM     33  C   UNL A   1      42.244  19.782  26.030  1.00  0.00     0.261 C 
BRANCH  33  34
ATOM     34  O   UNL A   1      42.916  20.846  25.343  1.00  0.00    -0.460 OA
BRANCH  34  35
ATOM     35  C   UNL A   1      44.161  20.523  24.933  1.00  0.00     0.338 C 
ATOM     36  O   UNL A   1      44.500  19.488  24.374  1.00  0.00    -0.246 OA
BRANCH  35  37
ATOM     37  C   UNL A   1      45.062  21.673  25.087  1.00  0.00     0.060 A 
ATOM     38  C   UNL A   1      45.305  22.107  26.394  1.00  0.00     0.016 A 
ATOM     39  C   UNL A   1      45.566  22.380  23.989  1.00  0.00     0.016 A 
ATOM     40  C   UNL A   1      45.966  23.304  26.613  1.00  0.00     0.010 A 
ATOM     41  C   UNL A   1      46.222  23.594  24.209  1.00  0.00     0.010 A 
ATOM     42  C   UNL A   1      46.357  24.087  25.520  1.00  0.00    -0.014 A 
BRANCH  42  43
ATOM     43  C   UNL A   1      46.629  25.517  25.782  1.00  0.00     0.031 A 
ATOM     44  C   UNL A   1      45.471  26.389  26.193  1.00  0.00     0.074 A 
ATOM     45  C   UNL A   1      47.893  25.974  25.811  1.00  0.00     0.049 A 
ATOM     46  N   UNL A   1      45.461  27.650  26.535  1.00  0.00    -0.248 NA
ATOM     47  C   UNL A   1      44.144  25.749  26.233  1.00  0.00     0.031 C 
ATOM     48  C   UNL A   1      49.082  25.177  25.513  1.00  0.00     0.029 A 
ATOM     49  N   UNL A   1      48.386  27.211  26.129  1.00  0.00    -0.354 N 
ATOM     50  C   UNL A   1      44.137  27.947  26.843  1.00  0.00     0.074 A 
ATOM     51  C   UNL A   1      43.362  26.753  26.593  1.00  0.00     0.031 C 
ATOM     52  C   UNL A   1      50.172  25.947  25.665  1.00  0.00     0.029 A 
ATOM     53  C   UNL A   1      49.755  27.299  26.031  1.00  0.00     0.049 A 
ATOM     54  H   UNL A   1      47.815  27.965  26.400  1.00  0.00     0.167 HD
ATOM     55  C   UNL A   1      43.620  29.106  27.316  1.00  0.00     0.034 A 
ATOM     56  C   UNL A   1      50.566  28.362  26.197  1.00  0.00     0.034 A 
ATOM     57  C   UNL A   1      44.413  30.285  27.553  1.00  0.00     0.049 A 
ATOM     58  C   UNL A   1      49.944  29.678  26.610  1.00  0.00     0.074 A 
ATOM     59  C   UNL A   1      43.999  31.528  27.995  1.00  0.00     0.029 A 
ATOM     60  N   UNL A   1      45.787  30.363  27.368  1.00  0.00    -0.354 N 
ATOM     61  N   UNL A   1      48.685  29.951  26.878  1.00  0.00    -0.248 NA
ATOM     62  C   UNL A   1      50.851  30.822  26.758  1.00  0.00     0.031 C 
ATOM     63  C   UNL A   1      45.111  32.376  28.009  1.00  0.00     0.029 A 
ATOM     64  C   UNL A   1      46.232  31.641  27.661  1.00  0.00     0.049 A 
ATOM     65  H   UNL A   1      46.361  29.620  27.072  1.00  0.00     0.167 HD
ATOM     66  C   UNL A   1      48.662  31.291  27.260  1.00  0.00     0.074 A 
ATOM     67  C   UNL A   1      50.032  31.755  27.216  1.00  0.00     0.031 C 
ATOM     68  C   UNL A   1      47.608  32.074  27.609  1.00  0.00     0.034 A 
BRANCH  55  69
ATOM     69  C   UNL A   1      42.134  29.160  27.566  1.00  0.00     0.023 A 
ATOM     70  C   UNL A   1      41.604  29.210  28.868  1.00  0.00     0.031 A 
ATOM     71  C   UNL A   1      41.232  29.157  26.487  1.00  0.00     0.131 A 
ATOM     72  C   UNL A   1      40.214  29.206  29.058  1.00  0.00     0.055 A 
ATOM     73  C   UNL A   1      39.851  29.228  26.681  1.00  0.00     0.041 A 
ATOM     74  F   UNL A   1      41.679  29.079  25.224  1.00  0.00    -0.206 F 
ATOM     75  C   UNL A   1      39.334  29.244  27.974  1.00  0.00     0.022 A 
BRANCH  72  76
ATOM     76  S   UNL A   1      39.567  29.031  30.743  1.00  0.00     0.124 S 
ATOM     77  O   UNL A   1      38.200  28.582  30.488  1.00  0.00    -0.237 OA
ATOM     78  O   UNL A   1      40.467  28.041  31.327  1.00  0.00    -0.237 OA
ATOM     79  O   UNL A   1      39.679  30.378  31.295  1.00  0.00    -0.744 OA
ENDBRANCH  72  76
ENDBRANCH  55  69
BRANCH  56  80
ATOM     80  C   UNL A   1      52.030  28.261  25.926  1.00  0.00     0.023 A 
ATOM     81  C   UNL A   1      52.522  28.138  24.617  1.00  0.00     0.031 A 
ATOM     82  C   UNL A   1      52.955  28.173  26.983  1.00  0.00     0.131 A 
ATOM     83  C   UNL A   1      53.880  27.852  24.404  1.00  0.00     0.055 A 
ATOM     84  C   UNL A   1      54.317  27.968  26.761  1.00  0.00     0.041 A 
ATOM     85  F   UNL A   1      52.544  28.277  28.257  1.00  0.00    -0.206 F 
ATOM     86  C   UNL A   1      54.784  27.781  25.465  1.00  0.00     0.022 A 
BRANCH  83  87
ATOM     87  S   UNL A   1      54.417  27.416  22.726  1.00  0.00     0.124 S 
ATOM     88  O   UNL A   1      54.084  28.628  21.987  1.00  0.00    -0.237 OA
ATOM     89  O   UNL A   1      55.838  27.154  22.922  1.00  0.00    -0.237 OA
ATOM     90  O   UNL A   1      53.605  26.245  22.404  1.00  0.00    -0.744 OA
ENDBRANCH  83  87
ENDBRANCH  56  80
BRANCH  68  91
ATOM     91  C   UNL A   1      47.918  33.493  28.015  1.00  0.00     0.023 A 
ATOM     92  C   UNL A   1      47.905  34.546  27.083  1.00  0.00     0.031 A 
ATOM     93  C   UNL A   1      48.250  33.794  29.348  1.00  0.00     0.131 A 
ATOM     94  C   UNL A   1      48.293  35.833  27.480  1.00  0.00     0.055 A 
ATOM     95  C   UNL A   1      48.559  35.093  29.753  1.00  0.00     0.041 A 
ATOM     96  F   UNL A   1      48.278  32.829  30.281  1.00  0.00    -0.206 F 
ATOM     97  C   UNL A   1      48.599  36.117  28.813  1.00  0.00     0.022 A 
BRANCH  94  98
ATOM     98  S   UNL A   1      48.507  37.103  26.203  1.00  0.00     0.124 S 
ATOM     99  O   UNL A   1      48.726  38.302  27.005  1.00  0.00    -0.237 OA
ATOM    100  O   UNL A   1      49.666  36.610  25.465  1.00  0.00    -0.237 OA
ATOM    101  O   UNL A   1      47.243  37.067  25.470  1.00  0.00    -0.744 OA
ENDBRANCH  94  98
ENDBRANCH  68  91
ENDBRANCH  42  43
ENDBRANCH  35  37
ENDBRANCH  34  35
ENDBRANCH  33  34
ENDBRANCH  32  33
ENDBRANCH  31  32
ENDBRANCH  30  31
ENDBRANCH   1  30
TORSDOF 24
ENDMDL
MODEL 2
REMARK VINA RESULT:      -9.9      1.804      2.031
REMARK SMILES CN1C(=O)C[C@@H](C(=O)OCCOCCOCCOCCOC(=O)c2ccc(-c3c4nc(c(-c5cc(S(=O)(=O)[O-])ccc5F)c5ccc([nH]5)c(-c5cc(S(=O)(=O)[O-])ccc5F)c5nc(c(-c6cc(S(=O)(=O)[O-])ccc6F)c6ccc3[nH]6)C=C5)C=C4)cc2)C12CCN(c1ccc(Cl)cn1)CC2
REMARK SMILES IDX 16 1 15 2 14 3 13 4 12 5 11 6 10 7 9 8 7 9 8 10 6 11 1 12
REMARK SMILES IDX 2 13 3 14 87 15 4 16 5 17 88 18 99 19 89 20 98 21 90 22
REMARK SMILES IDX 91 23 92 24 97 25 93 26 96 27 94 28 95 29 17 30 18 31 19 32
REMARK SMILES IDX 20 33 21 34 22 35 23 36 24 37 25 38 86 39 26 40 85 41 27 42
REMARK SMILES IDX 28 43 29 44 79 45 30 46 84 47 78 48 80 49 31 50 83 51 77 52
REMARK SMILES IDX 76 53 32 55 64 56 44 57 63 58 45 59 48 60 62 61 81 62 46 63
REMARK SMILES IDX 47 64 61 66 82 67 49 68 33 69 34 70 42 71 35 72 41 73 43 74
REMARK SMILES IDX 40 75 36 76 37 77 38 78 39 79 65 80 66 81 74 82 67 83 73 84
REMARK SMILES IDX 75 85 72 86 68 87 69 88 70 89 71 90 50 91 51 92 59 93 52 94
REMARK SMILES IDX 58 95 60 96 57 97 53 98 54 99 55 100 56 101
REMARK H PARENT 80 54 48 65
REMARK Flexibility Score: inf
ROOT
ATOM      1  C   UNL A   1      39.087  22.343  26.478  1.00  0.00     0.188 C 
ENDROOT
BRANCH   1   2
ATOM      2  O   UNL A   1      38.453  23.617  26.367  1.00  0.00    -0.377 OA
BRANCH   2   3
ATOM      3  C   UNL A   1      37.269  23.788  25.614  1.00  0.00     0.188 C 
BRANCH   3   4
ATOM      4  C   UNL A   1      35.961  23.340  26.260  1.00  0.00     0.188 C 
BRANCH   4   5
ATOM      5  O   UNL A   1      35.392  22.117  25.852  1.00  0.00    -0.376 OA
BRANCH   5   6
ATOM      6  C   UNL A   1      35.263  21.860  24.456  1.00  0.00     0.202 C 
BRANCH   6   7
ATOM      7  C   UNL A   1      34.451  22.804  23.538  1.00  0.00     0.261 C 
BRANCH   7   8
ATOM      8  O   UNL A   1      33.050  23.060  23.869  1.00  0.00    -0.463 OA
BRANCH   8   9
ATOM      9  C   UNL A   1      32.547  24.230  23.424  1.00  0.00     0.311 C 
ATOM     10  O   UNL A   1      32.386  24.473  22.225  1.00  0.00    -0.252 OA
BRANCH   9  11
ATOM     11  C   UNL A   1      32.258  25.352  24.422  1.00  0.00     0.134 C 
ATOM     12  C   UNL A   1      29.138  25.249  26.508  1.00  0.00     0.147 C 
ATOM     13  N   UNL A   1      30.491  25.243  25.970  1.00  0.00    -0.339 N 
ATOM     14  C   UNL A   1      31.499  24.480  26.522  1.00  0.00     0.223 C 
ATOM     15  C   UNL A   1      30.936  26.074  24.830  1.00  0.00     0.060 C 
ATOM     16  O   UNL A   1      31.412  23.737  27.485  1.00  0.00    -0.275 OA
ATOM     17  C   UNL A   1      32.762  24.771  25.767  1.00  0.00     0.118 C 
ATOM     18  C   UNL A   1      29.797  26.208  23.811  1.00  0.00     0.051 C 
ATOM     19  C   UNL A   1      31.312  27.511  25.385  1.00  0.00     0.051 C 
ATOM     20  C   UNL A   1      29.836  27.415  22.898  1.00  0.00     0.120 C 
ATOM     21  C   UNL A   1      31.380  28.624  24.321  1.00  0.00     0.120 C 
ATOM     22  N   UNL A   1      30.096  28.634  23.647  1.00  0.00    -0.356 N 
BRANCH  22  23
ATOM     23  C   UNL A   1      29.668  29.763  22.944  1.00  0.00     0.128 A 
ATOM     24  C   UNL A   1      29.144  30.828  23.690  1.00  0.00     0.048 A 
ATOM     25  N   UNL A   1      29.621  29.768  21.596  1.00  0.00    -0.238 NA
ATOM     26  C   UNL A   1      28.502  31.891  23.061  1.00  0.00     0.026 A 
ATOM     27  C   UNL A   1      28.991  30.821  20.999  1.00  0.00     0.134 A 
ATOM     28  C   UNL A   1      28.411  31.880  21.682  1.00  0.00     0.059 A 
ATOM     29  Cl  UNL A   1      27.582  33.134  20.855  1.00  0.00    -0.083 Cl
ENDBRANCH  22  23
ENDBRANCH   9  11
ENDBRANCH   8   9
ENDBRANCH   7   8
ENDBRANCH   6   7
ENDBRANCH   5   6
ENDBRANCH   4   5
ENDBRANCH   3   4
ENDBRANCH   2   3
ENDBRANCH   1   2
BRANCH   1  30
ATOM     30  C   UNL A   1      40.512  22.276  27.033  1.00  0.00     0.188 C 
BRANCH  30  31
ATOM     31  O   UNL A   1      40.939  21.078  27.693  1.00  0.00    -0.376 OA
BRANCH  31  32
ATOM     32  C   UNL A   1      42.271  20.621  27.492  1.00  0.00     0.202 C 
BRANCH  32  33
ATOM     33  C   UNL A   1      42.572  19.993  26.135  1.00  0.00     0.261 C 
BRANCH  33  34
ATOM     34  O   UNL A   1      43.211  20.938  25.265  1.00  0.00    -0.460 OA
BRANCH  34  35
ATOM     35  C   UNL A   1      44.498  20.636  24.993  1.00  0.00     0.338 C 
ATOM     36  O   UNL A   1      44.920  19.583  24.532  1.00  0.00    -0.246 OA
BRANCH  35  37
ATOM     37  C   UNL A   1      45.345  21.825  25.158  1.00  0.00     0.060 A 
ATOM     38  C   UNL A   1      45.519  22.293  26.464  1.00  0.00     0.016 A 
ATOM     39  C   UNL A   1      45.862  22.533  24.067  1.00  0.00     0.016 A 
ATOM     40  C   UNL A   1      46.121  23.519  26.685  1.00  0.00     0.010 A 
ATOM     41  C   UNL A   1      46.459  23.777  24.288  1.00  0.00     0.010 A 
ATOM     42  C   UNL A   1      46.522  24.298  25.592  1.00  0.00    -0.014 A 
BRANCH  42  43
ATOM     43  C   UNL A   1      46.726  25.743  25.837  1.00  0.00     0.031 A 
ATOM     44  C   UNL A   1      45.529  26.562  26.245  1.00  0.00     0.074 A 
ATOM     45  C   UNL A   1      47.966  26.261  25.852  1.00  0.00     0.049 A 
ATOM     46  N   UNL A   1      45.459  27.824  26.574  1.00  0.00    -0.248 NA
ATOM     47  C   UNL A   1      44.236  25.857  26.302  1.00  0.00     0.031 C 
ATOM     48  C   UNL A   1      49.191  25.520  25.554  1.00  0.00     0.029 A 
ATOM     49  N   UNL A   1      48.400  27.524  26.152  1.00  0.00    -0.354 N 
ATOM     50  C   UNL A   1      44.124  28.060  26.888  1.00  0.00     0.074 A 
ATOM     51  C   UNL A   1      43.407  26.827  26.656  1.00  0.00     0.031 C 
ATOM     52  C   UNL A   1      50.243  26.345  25.690  1.00  0.00     0.029 A 
ATOM     53  C   UNL A   1      49.762  27.679  26.043  1.00  0.00     0.049 A 
ATOM     54  H   UNL A   1      47.794  28.253  26.419  1.00  0.00     0.167 HD
ATOM     55  C   UNL A   1      43.554  29.197  27.351  1.00  0.00     0.034 A 
ATOM     56  C   UNL A   1      50.521  28.782  26.192  1.00  0.00     0.034 A 
ATOM     57  C   UNL A   1      44.290  30.416  27.570  1.00  0.00     0.049 A 
ATOM     58  C   UNL A   1      49.837  30.071  26.595  1.00  0.00     0.074 A 
ATOM     59  C   UNL A   1      43.818  31.643  28.001  1.00  0.00     0.029 A 
ATOM     60  N   UNL A   1      45.657  30.560  27.374  1.00  0.00    -0.354 N 
ATOM     61  N   UNL A   1      48.569  30.285  26.869  1.00  0.00    -0.248 NA
ATOM     62  C   UNL A   1      50.688  31.259  26.723  1.00  0.00     0.031 C 
ATOM     63  C   UNL A   1      44.887  32.544  27.997  1.00  0.00     0.029 A 
ATOM     64  C   UNL A   1      46.041  31.861  27.650  1.00  0.00     0.049 A 
ATOM     65  H   UNL A   1      46.264  29.842  27.082  1.00  0.00     0.167 HD
ATOM     66  C   UNL A   1      48.482  31.626  27.235  1.00  0.00     0.074 A 
ATOM     67  C   UNL A   1      49.828  32.156  27.176  1.00  0.00     0.031 C 
ATOM     68  C   UNL A   1      47.393  32.360  27.584  1.00  0.00     0.034 A 
BRANCH  55  69
ATOM     69  C   UNL A   1      42.069  29.182  27.611  1.00  0.00     0.023 A 
ATOM     70  C   UNL A   1      41.546  29.193  28.916  1.00  0.00     0.031 A 
ATOM     71  C   UNL A   1      41.161  29.150  26.538  1.00  0.00     0.131 A 
ATOM     72  C   UNL A   1      40.159  29.123  29.115  1.00  0.00     0.055 A 
ATOM     73  C   UNL A   1      39.780  29.156  26.741  1.00  0.00     0.041 A 
ATOM     74  F   UNL A   1      41.602  29.106  25.271  1.00  0.00    -0.206 F 
ATOM     75  C   UNL A   1      39.271  29.134  28.037  1.00  0.00     0.022 A 
BRANCH  72  76
ATOM     76  S   UNL A   1      39.532  28.900  30.803  1.00  0.00     0.124 S 
ATOM     77  O   UNL A   1      38.287  28.174  30.559  1.00  0.00    -0.237 OA
ATOM     78  O   UNL A   1      40.601  28.140  31.440  1.00  0.00    -0.237 OA
ATOM     79  O   UNL A   1      39.362  30.267  31.289  1.00  0.00    -0.744 OA
ENDBRANCH  72  76
ENDBRANCH  55  69
BRANCH  56  80
ATOM     80  C   UNL A   1      51.986  28.750  25.912  1.00  0.00     0.023 A 
ATOM     81  C   UNL A   1      52.921  28.535  26.936  1.00  0.00     0.031 A 
ATOM     82  C   UNL A   1      52.481  29.045  24.627  1.00  0.00     0.131 A 
ATOM     83  C   UNL A   1      54.291  28.700  26.681  1.00  0.00     0.055 A 
ATOM     84  C   UNL A   1      53.848  29.130  24.361  1.00  0.00     0.041 A 
ATOM     85  F   UNL A   1      51.636  29.267  23.607  1.00  0.00    -0.206 F 
ATOM     86  C   UNL A   1      54.762  28.981  25.397  1.00  0.00     0.022 A 
BRANCH  83  87
ATOM     87  S   UNL A   1      55.438  28.699  28.087  1.00  0.00     0.124 S 
ATOM     88  O   UNL A   1      54.632  29.333  29.124  1.00  0.00    -0.237 OA
ATOM     89  O   UNL A   1      55.701  27.275  28.260  1.00  0.00    -0.237 OA
ATOM     90  O   UNL A   1      56.568  29.488  27.604  1.00  0.00    -0.744 OA
ENDBRANCH  83  87
ENDBRANCH  56  80
BRANCH  68  91
ATOM     91  C   UNL A   1      47.636  33.798  27.971  1.00  0.00     0.023 A 
ATOM     92  C   UNL A   1      47.887  34.171  29.302  1.00  0.00     0.031 A 
ATOM     93  C   UNL A   1      47.597  34.811  26.996  1.00  0.00     0.131 A 
ATOM     94  C   UNL A   1      48.011  35.526  29.636  1.00  0.00     0.055 A 
ATOM     95  C   UNL A   1      47.800  36.152  27.323  1.00  0.00     0.041 A 
ATOM     96  F   UNL A   1      47.362  34.514  25.708  1.00  0.00    -0.206 F 
ATOM     97  C   UNL A   1      47.990  36.517  28.651  1.00  0.00     0.022 A 
BRANCH  94  98
ATOM     98  S   UNL A   1      48.080  35.983  31.389  1.00  0.00     0.124 S 
ATOM     99  O   UNL A   1      46.849  36.749  31.550  1.00  0.00    -0.237 OA
ATOM    100  O   UNL A   1      48.112  34.681  32.049  1.00  0.00    -0.237 OA
ATOM    101  O   UNL A   1      49.314  36.760  31.492  1.00  0.00    -0.744 OA
ENDBRANCH  94  98
ENDBRANCH  68  91
ENDBRANCH  42  43
ENDBRANCH  35  37
ENDBRANCH  34  35
ENDBRANCH  33  34
ENDBRANCH  32  33
ENDBRANCH  31  32
ENDBRANCH  30  31
ENDBRANCH   1  30
TORSDOF 24
ENDMDL
MODEL 3
REMARK VINA RESULT:      -9.2      5.075      8.212
REMARK SMILES CN1C(=O)C[C@@H](C(=O)OCCOCCOCCOCCOC(=O)c2ccc(-c3c4nc(c(-c5cc(S(=O)(=O)[O-])ccc5F)c5ccc([nH]5)c(-c5cc(S(=O)(=O)[O-])ccc5F)c5nc(c(-c6cc(S(=O)(=O)[O-])ccc6F)c6ccc3[nH]6)C=C5)C=C4)cc2)C12CCN(c1ccc(Cl)cn1)CC2
REMARK SMILES IDX 16 1 15 2 14 3 13 4 12 5 11 6 10 7 9 8 7 9 8 10 6 11 1 12
REMARK SMILES IDX 2 13 3 14 87 15 4 16 5 17 88 18 99 19 89 20 98 21 90 22
REMARK SMILES IDX 91 23 92 24 97 25 93 26 96 27 94 28 95 29 17 30 18 31 19 32
REMARK SMILES IDX 20 33 21 34 22 35 23 36 24 37 25 38 86 39 26 40 85 41 27 42
REMARK SMILES IDX 28 43 29 44 79 45 30 46 84 47 78 48 80 49 31 50 83 51 77 52
REMARK SMILES IDX 76 53 32 55 64 56 44 57 63 58 45 59 48 60 62 61 81 62 46 63
REMARK SMILES IDX 47 64 61 66 82 67 49 68 33 69 34 70 42 71 35 72 41 73 43 74
REMARK SMILES IDX 40 75 36 76 37 77 38 78 39 79 65 80 66 81 74 82 67 83 73 84
REMARK SMILES IDX 75 85 72 86 68 87 69 88 70 89 71 90 50 91 51 92 59 93 52 94
REMARK SMILES IDX 58 95 60 96 57 97 53 98 54 99 55 100 56 101
REMARK H PARENT 80 54 48 65
REMARK Flexibility Score: inf
ROOT
ATOM      1  C   UNL A   1      38.975  22.801  26.361  1.00  0.00     0.188 C 
ENDROOT
BRANCH   1   2
ATOM      2  O   UNL A   1      37.943  23.777  26.221  1.00  0.00    -0.377 OA
BRANCH   2   3
ATOM      3  C   UNL A   1      36.807  23.536  25.413  1.00  0.00     0.188 C 
BRANCH   3   4
ATOM      4  C   UNL A   1      35.465  23.388  26.124  1.00  0.00     0.188 C 
BRANCH   4   5
ATOM      5  O   UNL A   1      34.769  22.169  26.002  1.00  0.00    -0.376 OA
BRANCH   5   6
ATOM      6  C   UNL A   1      34.329  21.765  24.708  1.00  0.00     0.202 C 
BRANCH   6   7
ATOM      7  C   UNL A   1      33.496  22.711  23.811  1.00  0.00     0.261 C 
BRANCH   7   8
ATOM      8  O   UNL A   1      32.480  23.551  24.443  1.00  0.00    -0.463 OA
BRANCH   8   9
ATOM      9  C   UNL A   1      32.566  24.871  24.180  1.00  0.00     0.311 C 
ATOM     10  O   UNL A   1      33.253  25.325  23.261  1.00  0.00    -0.252 OA
BRANCH   9  11
ATOM     11  C   UNL A   1      31.875  25.870  25.110  1.00  0.00     0.134 C 
ATOM     12  C   UNL A   1      30.091  28.845  23.674  1.00  0.00     0.147 C 
ATOM     13  N   UNL A   1      30.497  27.600  24.308  1.00  0.00    -0.339 N 
ATOM     14  C   UNL A   1      29.704  26.471  24.288  1.00  0.00     0.223 C 
ATOM     15  C   UNL A   1      31.754  27.426  25.070  1.00  0.00     0.060 C 
ATOM     16  O   UNL A   1      28.610  26.353  23.764  1.00  0.00    -0.275 OA
ATOM     17  C   UNL A   1      30.396  25.409  25.091  1.00  0.00     0.118 C 
ATOM     18  C   UNL A   1      32.869  28.258  24.426  1.00  0.00     0.051 C 
ATOM     19  C   UNL A   1      31.507  27.937  26.550  1.00  0.00     0.051 C 
ATOM     20  C   UNL A   1      34.024  28.660  25.319  1.00  0.00     0.120 C 
ATOM     21  C   UNL A   1      32.785  28.237  27.357  1.00  0.00     0.120 C 
ATOM     22  N   UNL A   1      33.550  29.197  26.584  1.00  0.00    -0.356 N 
BRANCH  22  23
ATOM     23  C   UNL A   1      34.523  29.991  27.195  1.00  0.00     0.128 A 
ATOM     24  C   UNL A   1      35.647  29.341  27.726  1.00  0.00     0.048 A 
ATOM     25  N   UNL A   1      34.320  31.309  27.399  1.00  0.00    -0.238 NA
ATOM     26  C   UNL A   1      36.551  30.026  28.534  1.00  0.00     0.026 A 
ATOM     27  C   UNL A   1      35.219  31.962  28.191  1.00  0.00     0.134 A 
ATOM     28  C   UNL A   1      36.323  31.366  28.784  1.00  0.00     0.059 A 
ATOM     29  Cl  UNL A   1      37.371  32.247  29.819  1.00  0.00    -0.083 Cl
ENDBRANCH  22  23
ENDBRANCH   9  11
ENDBRANCH   8   9
ENDBRANCH   7   8
ENDBRANCH   6   7
ENDBRANCH   5   6
ENDBRANCH   4   5
ENDBRANCH   3   4
ENDBRANCH   2   3
ENDBRANCH   1   2
BRANCH   1  30
ATOM     30  C   UNL A   1      40.433  23.268  26.364  1.00  0.00     0.188 C 
BRANCH  30  31
ATOM     31  O   UNL A   1      41.412  22.468  27.037  1.00  0.00    -0.376 OA
BRANCH  31  32
ATOM     32  C   UNL A   1      42.790  22.748  26.826  1.00  0.00     0.202 C 
BRANCH  32  33
ATOM     33  C   UNL A   1      43.289  22.641  25.389  1.00  0.00     0.261 C 
BRANCH  33  34
ATOM     34  O   UNL A   1      43.353  23.935  24.772  1.00  0.00    -0.460 OA
BRANCH  34  35
ATOM     35  C   UNL A   1      44.531  24.567  24.967  1.00  0.00     0.338 C 
ATOM     36  O   UNL A   1      45.630  24.203  24.569  1.00  0.00    -0.246 OA
BRANCH  35  37
ATOM     37  C   UNL A   1      44.306  25.882  25.584  1.00  0.00     0.060 A 
ATOM     38  C   UNL A   1      45.391  26.447  26.262  1.00  0.00     0.016 A 
ATOM     39  C   UNL A   1      43.049  26.495  25.601  1.00  0.00     0.016 A 
ATOM     40  C   UNL A   1      45.205  27.573  27.045  1.00  0.00     0.010 A 
ATOM     41  C   UNL A   1      42.858  27.625  26.400  1.00  0.00     0.010 A 
ATOM     42  C   UNL A   1      43.921  28.118  27.177  1.00  0.00    -0.014 A 
BRANCH  42  43
ATOM     43  C   UNL A   1      43.683  29.001  28.340  1.00  0.00     0.031 A 
ATOM     44  C   UNL A   1      43.620  28.364  29.704  1.00  0.00     0.074 A 
ATOM     45  C   UNL A   1      43.690  30.337  28.192  1.00  0.00     0.049 A 
ATOM     46  N   UNL A   1      43.485  28.923  30.877  1.00  0.00    -0.248 NA
ATOM     47  C   UNL A   1      43.736  26.895  29.752  1.00  0.00     0.031 C 
ATOM     48  C   UNL A   1      43.834  31.041  26.918  1.00  0.00     0.029 A 
ATOM     49  N   UNL A   1      43.597  31.337  29.122  1.00  0.00    -0.354 N 
ATOM     50  C   UNL A   1      43.514  27.880  31.798  1.00  0.00     0.074 A 
ATOM     51  C   UNL A   1      43.621  26.650  31.047  1.00  0.00     0.031 C 
ATOM     52  C   UNL A   1      43.823  32.365  27.150  1.00  0.00     0.029 A 
ATOM     53  C   UNL A   1      43.630  32.599  28.579  1.00  0.00     0.049 A 
ATOM     54  H   UNL A   1      43.514  31.167  30.089  1.00  0.00     0.167 HD
ATOM     55  C   UNL A   1      43.478  27.948  33.150  1.00  0.00     0.034 A 
ATOM     56  C   UNL A   1      43.496  33.800  29.175  1.00  0.00     0.034 A 
ATOM     57  C   UNL A   1      43.365  29.187  33.876  1.00  0.00     0.049 A 
ATOM     58  C   UNL A   1      43.337  33.837  30.679  1.00  0.00     0.074 A 
ATOM     59  C   UNL A   1      43.282  29.382  35.242  1.00  0.00     0.029 A 
ATOM     60  N   UNL A   1      43.321  30.445  33.288  1.00  0.00    -0.354 N 
ATOM     61  N   UNL A   1      43.345  32.841  31.538  1.00  0.00    -0.248 NA
ATOM     62  C   UNL A   1      43.167  35.159  31.294  1.00  0.00     0.031 C 
ATOM     63  C   UNL A   1      43.118  30.751  35.476  1.00  0.00     0.029 A 
ATOM     64  C   UNL A   1      43.186  31.418  34.264  1.00  0.00     0.049 A 
ATOM     65  H   UNL A   1      43.379  30.620  32.322  1.00  0.00     0.167 HD
ATOM     66  C   UNL A   1      43.215  33.425  32.796  1.00  0.00     0.074 A 
ATOM     67  C   UNL A   1      43.164  34.856  32.582  1.00  0.00     0.031 C 
ATOM     68  C   UNL A   1      43.139  32.840  34.019  1.00  0.00     0.034 A 
BRANCH  55  69
ATOM     69  C   UNL A   1      43.521  26.651  33.918  1.00  0.00     0.023 A 
ATOM     70  C   UNL A   1      44.705  25.902  34.038  1.00  0.00     0.031 A 
ATOM     71  C   UNL A   1      42.360  26.152  34.534  1.00  0.00     0.131 A 
ATOM     72  C   UNL A   1      44.690  24.673  34.716  1.00  0.00     0.055 A 
ATOM     73  C   UNL A   1      42.369  24.966  35.271  1.00  0.00     0.041 A 
ATOM     74  F   UNL A   1      41.194  26.807  34.426  1.00  0.00    -0.206 F 
ATOM     75  C   UNL A   1      43.538  24.214  35.358  1.00  0.00     0.022 A 
BRANCH  72  76
ATOM     76  S   UNL A   1      46.169  23.625  34.650  1.00  0.00     0.124 S 
ATOM     77  O   UNL A   1      45.647  22.423  34.001  1.00  0.00    -0.237 OA
ATOM     78  O   UNL A   1      47.092  24.430  33.857  1.00  0.00    -0.237 OA
ATOM     79  O   UNL A   1      46.534  23.457  36.054  1.00  0.00    -0.744 OA
ENDBRANCH  72  76
ENDBRANCH  55  69
BRANCH  56  80
ATOM     80  C   UNL A   1      43.447  35.056  28.370  1.00  0.00     0.023 A 
ATOM     81  C   UNL A   1      44.620  35.682  27.923  1.00  0.00     0.031 A 
ATOM     82  C   UNL A   1      42.224  35.710  28.129  1.00  0.00     0.131 A 
ATOM     83  C   UNL A   1      44.555  36.957  27.337  1.00  0.00     0.055 A 
ATOM     84  C   UNL A   1      42.158  36.941  27.474  1.00  0.00     0.041 A 
ATOM     85  F   UNL A   1      41.068  35.164  28.537  1.00  0.00    -0.206 F 
ATOM     86  C   UNL A   1      43.331  37.584  27.096  1.00  0.00     0.022 A 
BRANCH  83  87
ATOM     87  S   UNL A   1      46.105  37.851  27.041  1.00  0.00     0.124 S 
ATOM     88  O   UNL A   1      46.522  38.175  28.400  1.00  0.00    -0.237 OA
ATOM     89  O   UNL A   1      46.904  36.848  26.346  1.00  0.00    -0.237 OA
ATOM     90  O   UNL A   1      45.689  38.991  26.227  1.00  0.00    -0.744 OA
ENDBRANCH  83  87
ENDBRANCH  56  80
BRANCH  68  91
ATOM     91  C   UNL A   1      43.042  33.759  35.211  1.00  0.00     0.023 A 
ATOM     92  C   UNL A   1      41.805  34.078  35.797  1.00  0.00     0.031 A 
ATOM     93  C   UNL A   1      44.201  34.340  35.756  1.00  0.00     0.131 A 
ATOM     94  C   UNL A   1      41.747  35.011  36.841  1.00  0.00     0.055 A 
ATOM     95  C   UNL A   1      44.145  35.208  36.846  1.00  0.00     0.041 A 
ATOM     96  F   UNL A   1      45.410  34.072  35.236  1.00  0.00    -0.206 F 
ATOM     97  C   UNL A   1      42.911  35.562  37.383  1.00  0.00     0.022 A 
BRANCH  94  98
ATOM     98  S   UNL A   1      40.121  35.585  37.400  1.00  0.00     0.124 S 
ATOM     99  O   UNL A   1      39.251  34.498  36.963  1.00  0.00    -0.237 OA
ATOM    100  O   UNL A   1      40.312  35.709  38.841  1.00  0.00    -0.237 OA
ATOM    101  O   UNL A   1      39.941  36.849  36.687  1.00  0.00    -0.744 OA
ENDBRANCH  94  98
ENDBRANCH  68  91
ENDBRANCH  42  43
ENDBRANCH  35  37
ENDBRANCH  34  35
ENDBRANCH  33  34
ENDBRANCH  32  33
ENDBRANCH  31  32
ENDBRANCH  30  31
ENDBRANCH   1  30
TORSDOF 24
ENDMDL
