MODEL 1
REMARK VINA RESULT:      -7.7      0.000      0.000
REMARK SMILES Cc1ccc(C)c(N2C(=O)S[C@H](CC(=O)Nc3ccc(C(=O)OCCOCCOCCOCCOC(=O)c4ccc(-c5c6nc(c(-c7cc(S(=O)(=O)[O-])ccc7F)c7ccc([nH]7)c(-c7cc(S(=O)(=O)[O-])ccc7F)c7nc(c(-c8cc(S(=O)(=O)[O-])ccc8F)c8ccc5[nH]8)C=C7)C=C6)cc4)c(O)c3)C2=O)c1
REMARK SMILES IDX 28 1 27 2 26 3 25 4 24 5 23 6 21 7 22 8 20 9 17 10 18 11
REMARK SMILES IDX 103 12 19 13 101 14 16 15 14 16 15 17 13 19 12 20 8 21 9 22
REMARK SMILES IDX 104 23 10 24 11 25 105 26 7 27 1 28 2 29 3 30 106 31 4 32
REMARK SMILES IDX 5 33 6 34 102 35 29 37 30 38 31 39 32 40 33 41 34 42 35 43
REMARK SMILES IDX 36 44 37 45 38 46 39 47 100 48 40 49 99 50 41 51 42 52 43 53
REMARK SMILES IDX 93 54 44 55 98 56 92 57 94 58 45 59 97 60 91 61 90 62 46 64
REMARK SMILES IDX 78 65 58 66 77 67 59 68 62 69 76 70 95 71 60 72 61 73 75 75
REMARK SMILES IDX 96 76 63 77 47 78 48 79 56 80 49 81 55 82 57 83 54 84 50 85
REMARK SMILES IDX 51 86 52 87 53 88 79 89 80 90 88 91 81 92 87 93 89 94 86 95
REMARK SMILES IDX 82 96 83 97 84 98 85 99 64 100 65 101 73 102 66 103 72 104
REMARK SMILES IDX 74 105 71 106 67 107 68 108 69 109 70 110
REMARK H PARENT 16 18 102 36 94 63 62 74
REMARK Flexibility Score: inf
ROOT
ATOM      1  C   UNL A   1      45.706  24.272  27.505  1.00  0.00     0.188 C 
ENDROOT
BRANCH   1   2
ATOM      2  C   UNL A   1      44.385  24.737  26.834  1.00  0.00     0.188 C 
BRANCH   2   3
ATOM      3  O   UNL A   1      43.281  24.878  27.707  1.00  0.00    -0.376 OA
BRANCH   3   4
ATOM      4  C   UNL A   1      43.511  25.234  29.055  1.00  0.00     0.202 C 
BRANCH   4   5
ATOM      5  C   UNL A   1      43.137  26.648  29.514  1.00  0.00     0.261 C 
BRANCH   5   6
ATOM      6  O   UNL A   1      42.262  27.353  28.616  1.00  0.00    -0.460 OA
BRANCH   6   7
ATOM      7  C   UNL A   1      40.948  27.093  28.853  1.00  0.00     0.341 C 
ATOM      8  O   UNL A   1      40.245  27.768  29.592  1.00  0.00    -0.246 OA
BRANCH   7   9
ATOM      9  C   UNL A   1      40.357  26.144  27.875  1.00  0.00     0.101 A 
ATOM     10  C   UNL A   1      39.466  23.916  26.345  1.00  0.00     0.044 A 
ATOM     11  C   UNL A   1      39.096  24.069  27.647  1.00  0.00     0.027 A 
ATOM     12  C   UNL A   1      40.125  25.013  25.744  1.00  0.00     0.073 A 
ATOM     13  C   UNL A   1      39.626  25.090  28.407  1.00  0.00     0.022 A 
ATOM     14  C   UNL A   1      40.516  26.152  26.501  1.00  0.00     0.132 A 
BRANCH  10  15
ATOM     15  N   UNL A   1      39.358  22.647  25.725  1.00  0.00    -0.326 N 
ATOM     16  C   UNL A   1      38.402  21.646  25.783  1.00  0.00     0.226 C 
ATOM     17  O   UNL A   1      38.777  20.492  25.533  1.00  0.00    -0.275 OA
ATOM     18  H   UNL A   1      40.116  22.432  25.133  1.00  0.00     0.169 HD
BRANCH  16  19
ATOM     19  C   UNL A   1      36.873  21.873  25.980  1.00  0.00     0.125 C 
BRANCH  19  20
ATOM     20  C   UNL A   1      36.010  21.865  24.697  1.00  0.00     0.156 C 
ATOM     21  N   UNL A   1      34.307  23.516  24.051  1.00  0.00    -0.240 N 
ATOM     22  C   UNL A   1      33.635  22.788  24.965  1.00  0.00     0.293 C 
ATOM     23  C   UNL A   1      35.664  23.215  23.981  1.00  0.00     0.248 C 
ATOM     24  O   UNL A   1      32.721  23.186  25.688  1.00  0.00    -0.261 OA
ATOM     25  S   UNL A   1      34.409  21.256  25.144  1.00  0.00    -0.050 SA
ATOM     26  O   UNL A   1      36.517  23.915  23.442  1.00  0.00    -0.273 OA
BRANCH  21  27
ATOM     27  C   UNL A   1      33.607  24.571  23.384  1.00  0.00     0.056 A 
ATOM     28  C   UNL A   1      32.430  25.427  19.817  1.00  0.00     0.044 C 
ATOM     29  C   UNL A   1      32.812  25.540  21.263  1.00  0.00    -0.049 A 
ATOM     30  C   UNL A   1      32.814  26.814  21.834  1.00  0.00     0.004 A 
ATOM     31  C   UNL A   1      33.215  24.427  22.036  1.00  0.00     0.030 A 
ATOM     32  C   UNL A   1      33.223  26.981  23.147  1.00  0.00     0.006 A 
ATOM     33  C   UNL A   1      33.643  25.880  23.920  1.00  0.00    -0.027 A 
ATOM     34  C   UNL A   1      34.189  26.207  25.279  1.00  0.00     0.046 C 
ENDBRANCH  21  27
ENDBRANCH  19  20
ENDBRANCH  16  19
ENDBRANCH  10  15
BRANCH  14  35
ATOM     35  O   UNL A   1      41.105  27.204  25.855  1.00  0.00    -0.507 OA
ATOM     36  H   UNL A   1      41.424  27.936  26.346  1.00  0.00     0.293 HD
ENDBRANCH  14  35
ENDBRANCH   7   9
ENDBRANCH   6   7
ENDBRANCH   5   6
ENDBRANCH   4   5
ENDBRANCH   3   4
ENDBRANCH   2   3
ENDBRANCH   1   2
BRANCH   1  37
ATOM     37  O   UNL A   1      46.748  23.654  26.756  1.00  0.00    -0.377 OA
BRANCH  37  38
ATOM     38  C   UNL A   1      46.583  23.593  25.353  1.00  0.00     0.188 C 
BRANCH  38  39
ATOM     39  C   UNL A   1      47.213  24.748  24.566  1.00  0.00     0.188 C 
BRANCH  39  40
ATOM     40  O   UNL A   1      47.997  25.616  25.370  1.00  0.00    -0.376 OA
BRANCH  40  41
ATOM     41  C   UNL A   1      48.946  26.421  24.692  1.00  0.00     0.202 C 
BRANCH  41  42
ATOM     42  C   UNL A   1      50.122  26.707  25.617  1.00  0.00     0.261 C 
BRANCH  42  43
ATOM     43  O   UNL A   1      49.792  27.587  26.725  1.00  0.00    -0.460 OA
BRANCH  43  44
ATOM     44  C   UNL A   1      49.003  27.082  27.726  1.00  0.00     0.338 C 
ATOM     45  O   UNL A   1      49.247  26.039  28.311  1.00  0.00    -0.246 OA
BRANCH  44  46
ATOM     46  C   UNL A   1      47.840  27.999  28.003  1.00  0.00     0.060 A 
ATOM     47  C   UNL A   1      46.570  27.796  27.473  1.00  0.00     0.016 A 
ATOM     48  C   UNL A   1      48.055  29.182  28.705  1.00  0.00     0.016 A 
ATOM     49  C   UNL A   1      45.600  28.838  27.547  1.00  0.00     0.010 A 
ATOM     50  C   UNL A   1      47.138  30.241  28.691  1.00  0.00     0.010 A 
ATOM     51  C   UNL A   1      45.899  30.130  28.054  1.00  0.00    -0.014 A 
BRANCH  51  52
ATOM     52  C   UNL A   1      44.848  31.123  28.505  1.00  0.00     0.031 A 
ATOM     53  C   UNL A   1      45.354  32.389  28.003  1.00  0.00     0.074 A 
ATOM     54  C   UNL A   1      43.760  31.171  29.347  1.00  0.00     0.049 A 
ATOM     55  N   UNL A   1      46.081  33.145  28.764  1.00  0.00    -0.248 NA
ATOM     56  C   UNL A   1      45.500  32.671  26.572  1.00  0.00     0.031 C 
ATOM     57  C   UNL A   1      43.592  30.332  30.501  1.00  0.00     0.029 A 
ATOM     58  N   UNL A   1      42.580  31.959  29.445  1.00  0.00    -0.354 N 
ATOM     59  C   UNL A   1      46.221  34.271  28.003  1.00  0.00     0.074 A 
ATOM     60  C   UNL A   1      46.185  33.819  26.633  1.00  0.00     0.031 C 
ATOM     61  C   UNL A   1      42.357  30.418  31.031  1.00  0.00     0.029 A 
ATOM     62  C   UNL A   1      41.531  31.342  30.234  1.00  0.00     0.049 A 
ATOM     63  H   UNL A   1      42.483  32.840  29.017  1.00  0.00     0.167 HD
ATOM     64  C   UNL A   1      45.664  35.369  28.572  1.00  0.00     0.034 A 
ATOM     65  C   UNL A   1      40.372  31.790  30.850  1.00  0.00     0.034 A 
ATOM     66  C   UNL A   1      45.684  35.297  30.032  1.00  0.00     0.049 A 
ATOM     67  C   UNL A   1      40.693  33.021  31.576  1.00  0.00     0.074 A 
ATOM     68  C   UNL A   1      46.675  35.172  30.990  1.00  0.00     0.029 A 
ATOM     69  N   UNL A   1      44.512  34.912  30.643  1.00  0.00    -0.354 N 
ATOM     70  N   UNL A   1      41.433  33.031  32.649  1.00  0.00    -0.248 NA
ATOM     71  C   UNL A   1      40.649  34.264  30.817  1.00  0.00     0.031 C 
ATOM     72  C   UNL A   1      46.066  34.661  32.173  1.00  0.00     0.029 A 
ATOM     73  C   UNL A   1      44.701  34.533  31.954  1.00  0.00     0.049 A 
ATOM     74  H   UNL A   1      43.636  34.909  30.192  1.00  0.00     0.167 HD
ATOM     75  C   UNL A   1      42.326  34.048  32.388  1.00  0.00     0.074 A 
ATOM     76  C   UNL A   1      41.707  34.871  31.354  1.00  0.00     0.031 C 
ATOM     77  C   UNL A   1      43.635  33.939  32.746  1.00  0.00     0.034 A 
BRANCH  64  78
ATOM     78  C   UNL A   1      44.659  36.182  27.808  1.00  0.00     0.023 A 
ATOM     79  C   UNL A   1      44.990  37.512  27.565  1.00  0.00     0.031 A 
ATOM     80  C   UNL A   1      43.320  35.808  27.512  1.00  0.00     0.131 A 
ATOM     81  C   UNL A   1      44.025  38.394  27.059  1.00  0.00     0.055 A 
ATOM     82  C   UNL A   1      42.392  36.663  26.929  1.00  0.00     0.041 A 
ATOM     83  F   UNL A   1      42.788  34.636  27.868  1.00  0.00    -0.206 F 
ATOM     84  C   UNL A   1      42.741  37.977  26.712  1.00  0.00     0.022 A 
BRANCH  81  85
ATOM     85  S   UNL A   1      44.446  40.144  26.998  1.00  0.00     0.124 S 
ATOM     86  O   UNL A   1      45.754  40.146  27.643  1.00  0.00    -0.237 OA
ATOM     87  O   UNL A   1      44.428  40.403  25.563  1.00  0.00    -0.237 OA
ATOM     88  O   UNL A   1      43.368  40.771  27.760  1.00  0.00    -0.744 OA
ENDBRANCH  81  85
ENDBRANCH  64  78
BRANCH  65  89
ATOM     89  C   UNL A   1      38.958  31.257  30.659  1.00  0.00     0.023 A 
ATOM     90  C   UNL A   1      37.921  31.734  29.803  1.00  0.00     0.031 A 
ATOM     91  C   UNL A   1      38.634  30.087  31.365  1.00  0.00     0.131 A 
ATOM     92  C   UNL A   1      36.627  31.108  29.801  1.00  0.00     0.055 A 
ATOM     93  C   UNL A   1      37.348  29.535  31.438  1.00  0.00     0.041 A 
ATOM     94  F   UNL A   1      39.607  29.433  32.015  1.00  0.00    -0.206 F 
ATOM     95  C   UNL A   1      36.328  30.064  30.675  1.00  0.00     0.022 A 
BRANCH  92  96
ATOM     96  S   UNL A   1      35.339  31.481  28.534  1.00  0.00     0.124 S 
ATOM     97  O   UNL A   1      34.992  30.167  28.009  1.00  0.00    -0.237 OA
ATOM     98  O   UNL A   1      34.319  32.157  29.328  1.00  0.00    -0.237 OA
ATOM     99  O   UNL A   1      36.032  32.354  27.582  1.00  0.00    -0.744 OA
ENDBRANCH  92  96
ENDBRANCH  65  89
BRANCH  77 100
ATOM    100  C   UNL A   1      43.960  33.216  34.035  1.00  0.00     0.023 A 
ATOM    101  C   UNL A   1      44.349  31.866  34.195  1.00  0.00     0.031 A 
ATOM    102  C   UNL A   1      43.888  34.006  35.198  1.00  0.00     0.131 A 
ATOM    103  C   UNL A   1      44.691  31.371  35.478  1.00  0.00     0.055 A 
ATOM    104  C   UNL A   1      44.221  33.518  36.459  1.00  0.00     0.041 A 
ATOM    105  F   UNL A   1      43.503  35.290  35.121  1.00  0.00    -0.206 F 
ATOM    106  C   UNL A   1      44.627  32.199  36.603  1.00  0.00     0.022 A 
BRANCH 103 107
ATOM    107  S   UNL A   1      45.083  29.615  35.782  1.00  0.00     0.124 S 
ATOM    108  O   UNL A   1      46.539  29.575  35.765  1.00  0.00    -0.237 OA
ATOM    109  O   UNL A   1      44.470  29.313  37.079  1.00  0.00    -0.237 OA
ATOM    110  O   UNL A   1      44.435  28.919  34.672  1.00  0.00    -0.744 OA
ENDBRANCH 103 107
ENDBRANCH  77 100
ENDBRANCH  51  52
ENDBRANCH  44  46
ENDBRANCH  43  44
ENDBRANCH  42  43
ENDBRANCH  41  42
ENDBRANCH  40  41
ENDBRANCH  39  40
ENDBRANCH  38  39
ENDBRANCH  37  38
ENDBRANCH   1  37
TORSDOF 28
ENDMDL
MODEL 2
REMARK VINA RESULT:      -7.4      6.749     13.158
REMARK SMILES Cc1ccc(C)c(N2C(=O)S[C@H](CC(=O)Nc3ccc(C(=O)OCCOCCOCCOCCOC(=O)c4ccc(-c5c6nc(c(-c7cc(S(=O)(=O)[O-])ccc7F)c7ccc([nH]7)c(-c7cc(S(=O)(=O)[O-])ccc7F)c7nc(c(-c8cc(S(=O)(=O)[O-])ccc8F)c8ccc5[nH]8)C=C7)C=C6)cc4)c(O)c3)C2=O)c1
REMARK SMILES IDX 28 1 27 2 26 3 25 4 24 5 23 6 21 7 22 8 20 9 17 10 18 11
REMARK SMILES IDX 103 12 19 13 101 14 16 15 14 16 15 17 13 19 12 20 8 21 9 22
REMARK SMILES IDX 104 23 10 24 11 25 105 26 7 27 1 28 2 29 3 30 106 31 4 32
REMARK SMILES IDX 5 33 6 34 102 35 29 37 30 38 31 39 32 40 33 41 34 42 35 43
REMARK SMILES IDX 36 44 37 45 38 46 39 47 100 48 40 49 99 50 41 51 42 52 43 53
REMARK SMILES IDX 93 54 44 55 98 56 92 57 94 58 45 59 97 60 91 61 90 62 46 64
REMARK SMILES IDX 78 65 58 66 77 67 59 68 62 69 76 70 95 71 60 72 61 73 75 75
REMARK SMILES IDX 96 76 63 77 47 78 48 79 56 80 49 81 55 82 57 83 54 84 50 85
REMARK SMILES IDX 51 86 52 87 53 88 79 89 80 90 88 91 81 92 87 93 89 94 86 95
REMARK SMILES IDX 82 96 83 97 84 98 85 99 64 100 65 101 73 102 66 103 72 104
REMARK SMILES IDX 74 105 71 106 67 107 68 108 69 109 70 110
REMARK H PARENT 16 18 102 36 94 63 62 74
REMARK Flexibility Score: inf
ROOT
ATOM      1  C   UNL A   1      46.754  28.736  30.811  1.00  0.00     0.188 C 
ENDROOT
BRANCH   1   2
ATOM      2  C   UNL A   1      45.604  27.699  30.685  1.00  0.00     0.188 C 
BRANCH   2   3
ATOM      3  O   UNL A   1      44.522  28.095  29.866  1.00  0.00    -0.376 OA
BRANCH   3   4
ATOM      4  C   UNL A   1      44.457  29.430  29.408  1.00  0.00     0.202 C 
BRANCH   4   5
ATOM      5  C   UNL A   1      43.079  30.048  29.144  1.00  0.00     0.261 C 
BRANCH   5   6
ATOM      6  O   UNL A   1      42.736  30.163  27.752  1.00  0.00    -0.460 OA
BRANCH   6   7
ATOM      7  C   UNL A   1      42.202  29.018  27.248  1.00  0.00     0.341 C 
ATOM      8  O   UNL A   1      42.753  28.326  26.403  1.00  0.00    -0.246 OA
BRANCH   7   9
ATOM      9  C   UNL A   1      41.070  28.499  28.058  1.00  0.00     0.101 A 
ATOM     10  C   UNL A   1      38.877  28.052  29.815  1.00  0.00     0.044 A 
ATOM     11  C   UNL A   1      38.797  28.965  28.807  1.00  0.00     0.027 A 
ATOM     12  C   UNL A   1      40.007  27.202  29.807  1.00  0.00     0.073 A 
ATOM     13  C   UNL A   1      39.903  29.251  28.036  1.00  0.00     0.022 A 
ATOM     14  C   UNL A   1      41.075  27.392  28.887  1.00  0.00     0.132 A 
BRANCH  10  15
ATOM     15  N   UNL A   1      37.966  28.116  30.899  1.00  0.00    -0.326 N 
ATOM     16  C   UNL A   1      37.922  28.884  32.051  1.00  0.00     0.226 C 
ATOM     17  O   UNL A   1      37.307  28.416  33.018  1.00  0.00    -0.275 OA
ATOM     18  H   UNL A   1      37.213  27.487  30.817  1.00  0.00     0.169 HD
BRANCH  16  19
ATOM     19  C   UNL A   1      38.444  30.347  32.176  1.00  0.00     0.125 C 
BRANCH  19  20
ATOM     20  C   UNL A   1      39.578  30.583  33.201  1.00  0.00     0.156 C 
ATOM     21  N   UNL A   1      39.639  32.286  34.973  1.00  0.00    -0.240 N 
ATOM     22  C   UNL A   1      39.949  33.023  33.888  1.00  0.00     0.293 C 
ATOM     23  C   UNL A   1      39.227  30.990  34.672  1.00  0.00     0.248 C 
ATOM     24  O   UNL A   1      39.717  34.222  33.729  1.00  0.00    -0.261 OA
ATOM     25  S   UNL A   1      40.514  31.976  32.638  1.00  0.00    -0.050 SA
ATOM     26  O   UNL A   1      38.642  30.236  35.445  1.00  0.00    -0.273 OA
BRANCH  21  27
ATOM     27  C   UNL A   1      39.632  32.934  36.249  1.00  0.00     0.056 A 
ATOM     28  C   UNL A   1      41.706  32.903  39.495  1.00  0.00     0.044 C 
ATOM     29  C   UNL A   1      40.597  33.116  38.508  1.00  0.00    -0.049 A 
ATOM     30  C   UNL A   1      39.396  33.641  38.988  1.00  0.00     0.004 A 
ATOM     31  C   UNL A   1      40.708  32.757  37.145  1.00  0.00     0.030 A 
ATOM     32  C   UNL A   1      38.319  33.796  38.131  1.00  0.00     0.006 A 
ATOM     33  C   UNL A   1      38.414  33.426  36.775  1.00  0.00    -0.027 A 
ATOM     34  C   UNL A   1      37.142  33.514  35.983  1.00  0.00     0.046 C 
ENDBRANCH  21  27
ENDBRANCH  19  20
ENDBRANCH  16  19
ENDBRANCH  10  15
BRANCH  14  35
ATOM     35  O   UNL A   1      42.117  26.507  28.894  1.00  0.00    -0.507 OA
ATOM     36  H   UNL A   1      42.224  25.915  29.613  1.00  0.00     0.293 HD
ENDBRANCH  14  35
ENDBRANCH   7   9
ENDBRANCH   6   7
ENDBRANCH   5   6
ENDBRANCH   4   5
ENDBRANCH   3   4
ENDBRANCH   2   3
ENDBRANCH   1   2
BRANCH   1  37
ATOM     37  O   UNL A   1      47.943  28.633  30.032  1.00  0.00    -0.377 OA
BRANCH  37  38
ATOM     38  C   UNL A   1      48.306  29.760  29.260  1.00  0.00     0.188 C 
BRANCH  38  39
ATOM     39  C   UNL A   1      49.785  30.155  29.329  1.00  0.00     0.188 C 
BRANCH  39  40
ATOM     40  O   UNL A   1      50.510  29.833  28.151  1.00  0.00    -0.376 OA
BRANCH  40  41
ATOM     41  C   UNL A   1      51.075  28.535  28.091  1.00  0.00     0.202 C 
BRANCH  41  42
ATOM     42  C   UNL A   1      51.592  28.142  29.470  1.00  0.00     0.261 C 
BRANCH  42  43
ATOM     43  O   UNL A   1      52.036  26.762  29.555  1.00  0.00    -0.460 OA
BRANCH  43  44
ATOM     44  C   UNL A   1      51.075  25.784  29.580  1.00  0.00     0.338 C 
ATOM     45  O   UNL A   1      50.683  25.202  28.582  1.00  0.00    -0.246 OA
BRANCH  44  46
ATOM     46  C   UNL A   1      50.612  25.528  30.991  1.00  0.00     0.060 A 
ATOM     47  C   UNL A   1      51.437  24.994  31.976  1.00  0.00     0.016 A 
ATOM     48  C   UNL A   1      49.268  25.697  31.310  1.00  0.00     0.016 A 
ATOM     49  C   UNL A   1      50.867  24.523  33.194  1.00  0.00     0.010 A 
ATOM     50  C   UNL A   1      48.695  25.145  32.463  1.00  0.00     0.010 A 
ATOM     51  C   UNL A   1      49.466  24.480  33.420  1.00  0.00    -0.014 A 
BRANCH  51  52
ATOM     52  C   UNL A   1      48.835  24.361  34.792  1.00  0.00     0.031 A 
ATOM     53  C   UNL A   1      48.433  22.967  34.850  1.00  0.00     0.074 A 
ATOM     54  C   UNL A   1      48.406  25.183  35.810  1.00  0.00     0.049 A 
ATOM     55  N   UNL A   1      47.231  22.624  34.508  1.00  0.00    -0.248 NA
ATOM     56  C   UNL A   1      49.397  21.863  34.820  1.00  0.00     0.031 C 
ATOM     57  C   UNL A   1      47.970  26.539  35.627  1.00  0.00     0.029 A 
ATOM     58  N   UNL A   1      48.203  25.049  37.212  1.00  0.00    -0.354 N 
ATOM     59  C   UNL A   1      47.204  21.299  34.840  1.00  0.00     0.074 A 
ATOM     60  C   UNL A   1      48.559  20.830  34.672  1.00  0.00     0.031 C 
ATOM     61  C   UNL A   1      47.808  27.195  36.792  1.00  0.00     0.029 A 
ATOM     62  C   UNL A   1      48.163  26.314  37.918  1.00  0.00     0.049 A 
ATOM     63  H   UNL A   1      48.099  24.178  37.660  1.00  0.00     0.167 HD
ATOM     64  C   UNL A   1      46.297  21.011  35.806  1.00  0.00     0.034 A 
ATOM     65  C   UNL A   1      47.719  26.730  39.165  1.00  0.00     0.034 A 
ATOM     66  C   UNL A   1      45.156  21.923  35.772  1.00  0.00     0.049 A 
ATOM     67  C   UNL A   1      46.393  26.150  39.389  1.00  0.00     0.074 A 
ATOM     68  C   UNL A   1      44.201  22.258  34.829  1.00  0.00     0.029 A 
ATOM     69  N   UNL A   1      45.166  22.953  36.687  1.00  0.00    -0.354 N 
ATOM     70  N   UNL A   1      45.337  26.536  38.730  1.00  0.00    -0.248 NA
ATOM     71  C   UNL A   1      46.349  24.799  39.936  1.00  0.00     0.031 C 
ATOM     72  C   UNL A   1      43.677  23.535  35.183  1.00  0.00     0.029 A 
ATOM     73  C   UNL A   1      44.266  23.947  36.370  1.00  0.00     0.049 A 
ATOM     74  H   UNL A   1      45.752  22.975  37.478  1.00  0.00     0.167 HD
ATOM     75  C   UNL A   1      44.776  25.339  38.335  1.00  0.00     0.074 A 
ATOM     76  C   UNL A   1      45.324  24.324  39.230  1.00  0.00     0.031 C 
ATOM     77  C   UNL A   1      44.216  25.202  37.103  1.00  0.00     0.034 A 
BRANCH  64  78
ATOM     78  C   UNL A   1      46.730  20.289  37.051  1.00  0.00     0.023 A 
ATOM     79  C   UNL A   1      45.985  19.171  37.413  1.00  0.00     0.031 A 
ATOM     80  C   UNL A   1      47.665  20.756  38.015  1.00  0.00     0.131 A 
ATOM     81  C   UNL A   1      46.178  18.575  38.667  1.00  0.00     0.055 A 
ATOM     82  C   UNL A   1      47.915  20.110  39.220  1.00  0.00     0.041 A 
ATOM     83  F   UNL A   1      48.311  21.920  37.911  1.00  0.00    -0.206 F 
ATOM     84  C   UNL A   1      47.154  19.014  39.560  1.00  0.00     0.022 A 
BRANCH  81  85
ATOM     85  S   UNL A   1      45.020  17.291  39.166  1.00  0.00     0.124 S 
ATOM     86  O   UNL A   1      44.149  17.221  37.998  1.00  0.00    -0.237 OA
ATOM     87  O   UNL A   1      45.910  16.155  39.381  1.00  0.00    -0.237 OA
ATOM     88  O   UNL A   1      44.410  17.845  40.373  1.00  0.00    -0.744 OA
ENDBRANCH  81  85
ENDBRANCH  64  78
BRANCH  65  89
ATOM     89  C   UNL A   1      48.517  27.473  40.230  1.00  0.00     0.023 A 
ATOM     90  C   UNL A   1      48.404  28.827  40.660  1.00  0.00     0.031 A 
ATOM     91  C   UNL A   1      49.452  26.711  40.949  1.00  0.00     0.131 A 
ATOM     92  C   UNL A   1      49.290  29.353  41.663  1.00  0.00     0.055 A 
ATOM     93  C   UNL A   1      50.380  27.244  41.855  1.00  0.00     0.041 A 
ATOM     94  F   UNL A   1      49.471  25.382  40.780  1.00  0.00    -0.206 F 
ATOM     95  C   UNL A   1      50.321  28.580  42.194  1.00  0.00     0.022 A 
BRANCH  92  96
ATOM     96  S   UNL A   1      49.027  30.992  42.468  1.00  0.00     0.124 S 
ATOM     97  O   UNL A   1      47.582  31.167  42.415  1.00  0.00    -0.237 OA
ATOM     98  O   UNL A   1      49.612  30.780  43.788  1.00  0.00    -0.237 OA
ATOM     99  O   UNL A   1      49.784  31.919  41.621  1.00  0.00    -0.744 OA
ENDBRANCH  92  96
ENDBRANCH  65  89
BRANCH  77 100
ATOM    100  C   UNL A   1      43.483  26.392  36.520  1.00  0.00     0.023 A 
ATOM    101  C   UNL A   1      43.985  27.359  35.618  1.00  0.00     0.031 A 
ATOM    102  C   UNL A   1      42.138  26.517  36.913  1.00  0.00     0.131 A 
ATOM    103  C   UNL A   1      43.130  28.371  35.112  1.00  0.00     0.055 A 
ATOM    104  C   UNL A   1      41.300  27.513  36.419  1.00  0.00     0.041 A 
ATOM    105  F   UNL A   1      41.604  25.646  37.786  1.00  0.00    -0.206 F 
ATOM    106  C   UNL A   1      41.793  28.442  35.514  1.00  0.00     0.022 A 
BRANCH 103 107
ATOM    107  S   UNL A   1      43.732  29.722  34.043  1.00  0.00     0.124 S 
ATOM    108  O   UNL A   1      43.231  30.927  34.688  1.00  0.00    -0.237 OA
ATOM    109  O   UNL A   1      45.192  29.579  34.046  1.00  0.00    -0.237 OA
ATOM    110  O   UNL A   1      43.135  29.425  32.742  1.00  0.00    -0.744 OA
ENDBRANCH 103 107
ENDBRANCH  77 100
ENDBRANCH  51  52
ENDBRANCH  44  46
ENDBRANCH  43  44
ENDBRANCH  42  43
ENDBRANCH  41  42
ENDBRANCH  40  41
ENDBRANCH  39  40
ENDBRANCH  38  39
ENDBRANCH  37  38
ENDBRANCH   1  37
TORSDOF 28
ENDMDL
MODEL 3
REMARK VINA RESULT:      -7.3      5.144     14.096
REMARK SMILES Cc1ccc(C)c(N2C(=O)S[C@H](CC(=O)Nc3ccc(C(=O)OCCOCCOCCOCCOC(=O)c4ccc(-c5c6nc(c(-c7cc(S(=O)(=O)[O-])ccc7F)c7ccc([nH]7)c(-c7cc(S(=O)(=O)[O-])ccc7F)c7nc(c(-c8cc(S(=O)(=O)[O-])ccc8F)c8ccc5[nH]8)C=C7)C=C6)cc4)c(O)c3)C2=O)c1
REMARK SMILES IDX 28 1 27 2 26 3 25 4 24 5 23 6 21 7 22 8 20 9 17 10 18 11
REMARK SMILES IDX 103 12 19 13 101 14 16 15 14 16 15 17 13 19 12 20 8 21 9 22
REMARK SMILES IDX 104 23 10 24 11 25 105 26 7 27 1 28 2 29 3 30 106 31 4 32
REMARK SMILES IDX 5 33 6 34 102 35 29 37 30 38 31 39 32 40 33 41 34 42 35 43
REMARK SMILES IDX 36 44 37 45 38 46 39 47 100 48 40 49 99 50 41 51 42 52 43 53
REMARK SMILES IDX 93 54 44 55 98 56 92 57 94 58 45 59 97 60 91 61 90 62 46 64
REMARK SMILES IDX 78 65 58 66 77 67 59 68 62 69 76 70 95 71 60 72 61 73 75 75
REMARK SMILES IDX 96 76 63 77 47 78 48 79 56 80 49 81 55 82 57 83 54 84 50 85
REMARK SMILES IDX 51 86 52 87 53 88 79 89 80 90 88 91 81 92 87 93 89 94 86 95
REMARK SMILES IDX 82 96 83 97 84 98 85 99 64 100 65 101 73 102 66 103 72 104
REMARK SMILES IDX 74 105 71 106 67 107 68 108 69 109 70 110
REMARK H PARENT 16 18 102 36 94 63 62 74
REMARK Flexibility Score: inf
ROOT
ATOM      1  C   UNL A   1      45.714  40.499  31.204  1.00  0.00     0.188 C 
ENDROOT
BRANCH   1   2
ATOM      2  C   UNL A   1      44.645  41.525  30.736  1.00  0.00     0.188 C 
BRANCH   2   3
ATOM      3  O   UNL A   1      44.825  42.844  31.213  1.00  0.00    -0.376 OA
BRANCH   3   4
ATOM      4  C   UNL A   1      44.162  43.908  30.561  1.00  0.00     0.202 C 
BRANCH   4   5
ATOM      5  C   UNL A   1      44.859  44.590  29.377  1.00  0.00     0.261 C 
BRANCH   5   6
ATOM      6  O   UNL A   1      45.628  43.702  28.548  1.00  0.00    -0.460 OA
BRANCH   6   7
ATOM      7  C   UNL A   1      46.966  43.932  28.633  1.00  0.00     0.341 C 
ATOM      8  O   UNL A   1      47.719  43.304  29.363  1.00  0.00    -0.246 OA
BRANCH   7   9
ATOM      9  C   UNL A   1      47.484  44.764  27.516  1.00  0.00     0.101 A 
ATOM     10  C   UNL A   1      48.615  45.842  25.137  1.00  0.00     0.044 A 
ATOM     11  C   UNL A   1      47.542  45.004  25.090  1.00  0.00     0.027 A 
ATOM     12  C   UNL A   1      48.993  46.310  26.417  1.00  0.00     0.073 A 
ATOM     13  C   UNL A   1      47.076  44.401  26.239  1.00  0.00     0.022 A 
ATOM     14  C   UNL A   1      48.383  45.812  27.602  1.00  0.00     0.132 A 
BRANCH  10  15
ATOM     15  N   UNL A   1      49.400  46.050  23.977  1.00  0.00    -0.326 N 
ATOM     16  C   UNL A   1      49.826  45.208  22.962  1.00  0.00     0.226 C 
ATOM     17  O   UNL A   1      50.858  45.530  22.358  1.00  0.00    -0.275 OA
ATOM     18  H   UNL A   1      49.705  46.980  23.869  1.00  0.00     0.169 HD
BRANCH  16  19
ATOM     19  C   UNL A   1      49.032  43.982  22.417  1.00  0.00     0.125 C 
BRANCH  19  20
ATOM     20  C   UNL A   1      48.096  44.253  21.217  1.00  0.00     0.156 C 
ATOM     21  N   UNL A   1      45.721  43.645  21.029  1.00  0.00    -0.240 N 
ATOM     22  C   UNL A   1      46.316  42.461  20.785  1.00  0.00     0.293 C 
ATOM     23  C   UNL A   1      46.597  44.634  21.469  1.00  0.00     0.248 C 
ATOM     24  O   UNL A   1      45.849  41.346  21.018  1.00  0.00    -0.261 OA
ATOM     25  S   UNL A   1      47.952  42.740  20.310  1.00  0.00    -0.050 SA
ATOM     26  O   UNL A   1      46.263  45.686  22.008  1.00  0.00    -0.273 OA
BRANCH  21  27
ATOM     27  C   UNL A   1      44.294  43.710  20.948  1.00  0.00     0.056 A 
ATOM     28  C   UNL A   1      41.247  42.663  23.060  1.00  0.00     0.044 C 
ATOM     29  C   UNL A   1      42.113  43.096  21.914  1.00  0.00    -0.049 A 
ATOM     30  C   UNL A   1      41.516  43.201  20.657  1.00  0.00     0.004 A 
ATOM     31  C   UNL A   1      43.498  43.342  22.054  1.00  0.00     0.030 A 
ATOM     32  C   UNL A   1      42.285  43.533  19.553  1.00  0.00     0.006 A 
ATOM     33  C   UNL A   1      43.669  43.764  19.679  1.00  0.00    -0.027 A 
ATOM     34  C   UNL A   1      44.414  43.982  18.394  1.00  0.00     0.046 C 
ENDBRANCH  21  27
ENDBRANCH  19  20
ENDBRANCH  16  19
ENDBRANCH  10  15
BRANCH  14  35
ATOM     35  O   UNL A   1      48.755  46.340  28.807  1.00  0.00    -0.507 OA
ATOM     36  H   UNL A   1      49.599  46.145  29.163  1.00  0.00     0.293 HD
ENDBRANCH  14  35
ENDBRANCH   7   9
ENDBRANCH   6   7
ENDBRANCH   5   6
ENDBRANCH   4   5
ENDBRANCH   3   4
ENDBRANCH   2   3
ENDBRANCH   1   2
BRANCH   1  37
ATOM     37  O   UNL A   1      46.985  40.915  31.694  1.00  0.00    -0.377 OA
BRANCH  37  38
ATOM     38  C   UNL A   1      47.910  39.899  32.029  1.00  0.00     0.188 C 
BRANCH  38  39
ATOM     39  C   UNL A   1      47.350  38.759  32.887  1.00  0.00     0.188 C 
BRANCH  39  40
ATOM     40  O   UNL A   1      47.386  37.496  32.238  1.00  0.00    -0.376 OA
BRANCH  40  41
ATOM     41  C   UNL A   1      48.616  37.129  31.637  1.00  0.00     0.202 C 
BRANCH  41  42
ATOM     42  C   UNL A   1      48.360  36.640  30.217  1.00  0.00     0.261 C 
BRANCH  42  43
ATOM     43  O   UNL A   1      47.064  37.032  29.689  1.00  0.00    -0.460 OA
BRANCH  43  44
ATOM     44  C   UNL A   1      46.672  36.487  28.494  1.00  0.00     0.338 C 
ATOM     45  O   UNL A   1      47.156  36.806  27.420  1.00  0.00    -0.246 OA
BRANCH  44  46
ATOM     46  C   UNL A   1      45.603  35.446  28.707  1.00  0.00     0.060 A 
ATOM     47  C   UNL A   1      45.040  34.713  27.667  1.00  0.00     0.016 A 
ATOM     48  C   UNL A   1      45.043  35.292  29.972  1.00  0.00     0.016 A 
ATOM     49  C   UNL A   1      43.856  33.955  27.900  1.00  0.00     0.010 A 
ATOM     50  C   UNL A   1      43.826  34.629  30.177  1.00  0.00     0.010 A 
ATOM     51  C   UNL A   1      43.152  33.989  29.133  1.00  0.00    -0.014 A 
BRANCH  51  52
ATOM     52  C   UNL A   1      42.143  32.943  29.558  1.00  0.00     0.031 A 
ATOM     53  C   UNL A   1      41.017  33.738  30.016  1.00  0.00     0.074 A 
ATOM     54  C   UNL A   1      42.091  31.587  29.790  1.00  0.00     0.049 A 
ATOM     55  N   UNL A   1      40.905  34.041  31.271  1.00  0.00    -0.248 NA
ATOM     56  C   UNL A   1      40.250  34.612  29.123  1.00  0.00     0.031 C 
ATOM     57  C   UNL A   1      43.218  30.788  30.181  1.00  0.00     0.029 A 
ATOM     58  N   UNL A   1      41.075  30.591  29.789  1.00  0.00    -0.354 N 
ATOM     59  C   UNL A   1      39.678  34.641  31.314  1.00  0.00     0.074 A 
ATOM     60  C   UNL A   1      39.507  35.266  30.024  1.00  0.00     0.031 C 
ATOM     61  C   UNL A   1      42.961  29.467  30.134  1.00  0.00     0.029 A 
ATOM     62  C   UNL A   1      41.585  29.239  29.661  1.00  0.00     0.049 A 
ATOM     63  H   UNL A   1      40.116  30.799  29.868  1.00  0.00     0.167 HD
ATOM     64  C   UNL A   1      38.784  33.969  32.080  1.00  0.00     0.034 A 
ATOM     65  C   UNL A   1      41.075  27.971  29.893  1.00  0.00     0.034 A 
ATOM     66  C   UNL A   1      39.436  33.241  33.167  1.00  0.00     0.049 A 
ATOM     67  C   UNL A   1      40.411  27.983  31.198  1.00  0.00     0.074 A 
ATOM     68  C   UNL A   1      40.242  33.596  34.234  1.00  0.00     0.029 A 
ATOM     69  N   UNL A   1      39.635  31.893  32.970  1.00  0.00    -0.354 N 
ATOM     70  N   UNL A   1      41.067  28.076  32.320  1.00  0.00    -0.248 NA
ATOM     71  C   UNL A   1      39.025  28.435  31.228  1.00  0.00     0.031 C 
ATOM     72  C   UNL A   1      40.959  32.432  34.636  1.00  0.00     0.029 A 
ATOM     73  C   UNL A   1      40.545  31.360  33.857  1.00  0.00     0.049 A 
ATOM     74  H   UNL A   1      39.177  31.368  32.273  1.00  0.00     0.167 HD
ATOM     75  C   UNL A   1      40.375  29.061  32.992  1.00  0.00     0.074 A 
ATOM     76  C   UNL A   1      39.057  29.122  32.369  1.00  0.00     0.031 C 
ATOM     77  C   UNL A   1      41.030  29.994  33.735  1.00  0.00     0.034 A 
BRANCH  64  78
ATOM     78  C   UNL A   1      37.458  33.561  31.503  1.00  0.00     0.023 A 
ATOM     79  C   UNL A   1      36.328  34.152  32.063  1.00  0.00     0.031 A 
ATOM     80  C   UNL A   1      37.221  32.476  30.616  1.00  0.00     0.131 A 
ATOM     81  C   UNL A   1      35.053  33.669  31.741  1.00  0.00     0.055 A 
ATOM     82  C   UNL A   1      35.952  32.058  30.233  1.00  0.00     0.041 A 
ATOM     83  F   UNL A   1      38.188  31.679  30.154  1.00  0.00    -0.206 F 
ATOM     84  C   UNL A   1      34.852  32.649  30.811  1.00  0.00     0.022 A 
BRANCH  81  85
ATOM     85  S   UNL A   1      33.657  34.313  32.678  1.00  0.00     0.124 S 
ATOM     86  O   UNL A   1      33.110  33.089  33.253  1.00  0.00    -0.237 OA
ATOM     87  O   UNL A   1      34.318  35.227  33.604  1.00  0.00    -0.237 OA
ATOM     88  O   UNL A   1      32.833  34.948  31.653  1.00  0.00    -0.744 OA
ENDBRANCH  81  85
ENDBRANCH  64  78
BRANCH  65  89
ATOM     89  C   UNL A   1      41.004  26.808  28.910  1.00  0.00     0.023 A 
ATOM     90  C   UNL A   1      41.870  25.683  28.780  1.00  0.00     0.031 A 
ATOM     91  C   UNL A   1      39.894  26.789  28.050  1.00  0.00     0.131 A 
ATOM     92  C   UNL A   1      41.651  24.706  27.748  1.00  0.00     0.055 A 
ATOM     93  C   UNL A   1      39.733  25.894  26.984  1.00  0.00     0.041 A 
ATOM     94  F   UNL A   1      38.907  27.673  28.248  1.00  0.00    -0.206 F 
ATOM     95  C   UNL A   1      40.631  24.862  26.810  1.00  0.00     0.022 A 
BRANCH  92  96
ATOM     96  S   UNL A   1      42.546  23.094  27.692  1.00  0.00     0.124 S 
ATOM     97  O   UNL A   1      43.267  23.063  28.958  1.00  0.00    -0.237 OA
ATOM     98  O   UNL A   1      41.450  22.143  27.542  1.00  0.00    -0.237 OA
ATOM     99  O   UNL A   1      43.400  23.213  26.507  1.00  0.00    -0.744 OA
ENDBRANCH  92  96
ENDBRANCH  65  89
BRANCH  77 100
ATOM    100  C   UNL A   1      42.271  29.560  34.487  1.00  0.00     0.023 A 
ATOM    101  C   UNL A   1      43.618  29.675  34.071  1.00  0.00     0.031 A 
ATOM    102  C   UNL A   1      42.036  29.003  35.757  1.00  0.00     0.131 A 
ATOM    103  C   UNL A   1      44.666  29.282  34.940  1.00  0.00     0.055 A 
ATOM    104  C   UNL A   1      43.066  28.614  36.609  1.00  0.00     0.041 A 
ATOM    105  F   UNL A   1      40.779  28.843  36.205  1.00  0.00    -0.206 F 
ATOM    106  C   UNL A   1      44.385  28.755  36.204  1.00  0.00     0.022 A 
BRANCH 103 107
ATOM    107  S   UNL A   1      46.419  29.287  34.431  1.00  0.00     0.124 S 
ATOM    108  O   UNL A   1      46.358  29.284  32.976  1.00  0.00    -0.237 OA
ATOM    109  O   UNL A   1      46.978  30.505  35.025  1.00  0.00    -0.237 OA
ATOM    110  O   UNL A   1      46.955  28.065  35.027  1.00  0.00    -0.744 OA
ENDBRANCH 103 107
ENDBRANCH  77 100
ENDBRANCH  51  52
ENDBRANCH  44  46
ENDBRANCH  43  44
ENDBRANCH  42  43
ENDBRANCH  41  42
ENDBRANCH  40  41
ENDBRANCH  39  40
ENDBRANCH  38  39
ENDBRANCH  37  38
ENDBRANCH   1  37
TORSDOF 28
ENDMDL
