MODEL 1
REMARK VINA RESULT:      -8.0      0.000      0.000
REMARK SMILES COC(=O)[C@H]1CCN(S(=O)(=O)N2CCC[C@H](C(=O)OCCOCCOCCOCCOC(=O)c3ccc(-c4c5nc(c(-c6cc(S(=O)(=O)[O-])ccc6F)c6ccc([nH]6)c(-c6cc(S(=O)(=O)[O-])ccc6F)c6nc(c(-c7cc(S(=O)(=O)[O-])ccc7F)c7ccc4[nH]7)C=C6)C=C5)cc3)C2)C1
REMARK SMILES IDX 24 1 23 2 22 3 21 4 20 5 19 6 17 7 18 8 16 9 12 10 13 11
REMARK SMILES IDX 97 12 14 13 15 14 9 15 10 16 11 17 8 18 5 19 6 20 98 21 7 22
REMARK SMILES IDX 3 23 4 24 2 25 1 26 25 27 26 28 27 29 28 30 29 31 30 32
REMARK SMILES IDX 31 33 32 34 33 35 34 36 35 37 96 38 36 39 95 40 37 41 38 42
REMARK SMILES IDX 39 43 89 44 40 45 94 46 88 47 90 48 41 49 93 50 87 51 86 52
REMARK SMILES IDX 42 54 74 55 54 56 73 57 55 58 58 59 72 60 91 61 56 62 57 63
REMARK SMILES IDX 71 65 92 66 59 67 43 68 44 69 52 70 45 71 51 72 53 73 50 74
REMARK SMILES IDX 46 75 47 76 48 77 49 78 75 79 76 80 84 81 77 82 83 83 85 84
REMARK SMILES IDX 82 85 78 86 79 87 80 88 81 89 60 90 61 91 69 92 62 93 68 94
REMARK SMILES IDX 70 95 67 96 63 97 64 98 65 99 66 100
REMARK H PARENT 90 53 58 64
REMARK Flexibility Score: inf
ROOT
ATOM      1  C   UNL A   1      34.347  35.881  32.710  1.00  0.00     0.188 C 
ENDROOT
BRANCH   1   2
ATOM      2  C   UNL A   1      34.852  34.867  33.744  1.00  0.00     0.188 C 
BRANCH   2   3
ATOM      3  O   UNL A   1      36.240  34.650  33.816  1.00  0.00    -0.376 OA
BRANCH   3   4
ATOM      4  C   UNL A   1      36.880  34.168  34.987  1.00  0.00     0.202 C 
BRANCH   4   5
ATOM      5  C   UNL A   1      38.160  33.313  35.051  1.00  0.00     0.261 C 
BRANCH   5   6
ATOM      6  O   UNL A   1      39.291  33.858  35.736  1.00  0.00    -0.463 OA
BRANCH   6   7
ATOM      7  C   UNL A   1      39.779  33.083  36.727  1.00  0.00     0.310 C 
ATOM      8  O   UNL A   1      39.626  31.862  36.786  1.00  0.00    -0.252 OA
BRANCH   7   9
ATOM      9  C   UNL A   1      40.606  33.799  37.775  1.00  0.00     0.114 C 
ATOM     10  N   UNL A   1      38.968  33.567  39.587  1.00  0.00    -0.188 NA
ATOM     11  C   UNL A   1      38.866  35.017  39.848  1.00  0.00     0.103 C 
ATOM     12  C   UNL A   1      40.277  33.123  39.079  1.00  0.00     0.118 C 
ATOM     13  C   UNL A   1      39.277  35.807  38.607  1.00  0.00     0.018 C 
ATOM     14  C   UNL A   1      40.594  35.307  38.035  1.00  0.00     0.018 C 
BRANCH  10  15
ATOM     15  S   UNL A   1      38.150  32.531  40.612  1.00  0.00     0.282 S 
ATOM     16  O   UNL A   1      39.078  31.567  41.146  1.00  0.00    -0.195 OA
ATOM     17  O   UNL A   1      36.935  32.103  39.951  1.00  0.00    -0.195 OA
BRANCH  15  18
ATOM     18  N   UNL A   1      37.681  33.546  41.897  1.00  0.00    -0.188 NA
ATOM     19  C   UNL A   1      35.554  33.188  43.030  1.00  0.00     0.116 C 
ATOM     20  C   UNL A   1      36.649  32.368  43.683  1.00  0.00     0.033 C 
ATOM     21  C   UNL A   1      36.211  33.867  41.826  1.00  0.00     0.118 C 
ATOM     22  C   UNL A   1      37.894  33.115  43.298  1.00  0.00     0.104 C 
BRANCH  19  23
ATOM     23  C   UNL A   1      34.390  32.317  42.638  1.00  0.00     0.310 C 
ATOM     24  O   UNL A   1      34.160  31.204  43.091  1.00  0.00    -0.252 OA
BRANCH  23  25
ATOM     25  O   UNL A   1      33.566  32.999  41.798  1.00  0.00    -0.469 OA
ATOM     26  C   UNL A   1      32.645  33.845  42.485  1.00  0.00     0.282 C 
ENDBRANCH  23  25
ENDBRANCH  19  23
ENDBRANCH  15  18
ENDBRANCH  10  15
ENDBRANCH   7   9
ENDBRANCH   6   7
ENDBRANCH   5   6
ENDBRANCH   4   5
ENDBRANCH   3   4
ENDBRANCH   2   3
ENDBRANCH   1   2
BRANCH   1  27
ATOM     27  O   UNL A   1      33.351  35.489  31.786  1.00  0.00    -0.377 OA
BRANCH  27  28
ATOM     28  C   UNL A   1      32.889  36.382  30.782  1.00  0.00     0.188 C 
BRANCH  28  29
ATOM     29  C   UNL A   1      33.049  36.024  29.294  1.00  0.00     0.188 C 
BRANCH  29  30
ATOM     30  O   UNL A   1      32.556  34.745  28.934  1.00  0.00    -0.376 OA
BRANCH  30  31
ATOM     31  C   UNL A   1      33.309  33.964  28.019  1.00  0.00     0.202 C 
BRANCH  31  32
ATOM     32  C   UNL A   1      34.130  32.780  28.555  1.00  0.00     0.261 C 
BRANCH  32  33
ATOM     33  O   UNL A   1      35.179  33.087  29.488  1.00  0.00    -0.460 OA
BRANCH  33  34
ATOM     34  C   UNL A   1      35.236  32.376  30.635  1.00  0.00     0.338 C 
ATOM     35  O   UNL A   1      34.401  32.340  31.518  1.00  0.00    -0.246 OA
BRANCH  34  36
ATOM     36  C   UNL A   1      36.416  31.490  30.553  1.00  0.00     0.060 A 
ATOM     37  C   UNL A   1      36.418  30.278  31.256  1.00  0.00     0.016 A 
ATOM     38  C   UNL A   1      37.523  31.871  29.793  1.00  0.00     0.016 A 
ATOM     39  C   UNL A   1      37.546  29.459  31.233  1.00  0.00     0.010 A 
ATOM     40  C   UNL A   1      38.661  31.062  29.792  1.00  0.00     0.010 A 
ATOM     41  C   UNL A   1      38.691  29.872  30.542  1.00  0.00    -0.014 A 
BRANCH  41  42
ATOM     42  C   UNL A   1      39.988  29.190  30.778  1.00  0.00     0.031 A 
ATOM     43  C   UNL A   1      40.825  29.653  31.940  1.00  0.00     0.074 A 
ATOM     44  C   UNL A   1      40.410  28.184  29.993  1.00  0.00     0.049 A 
ATOM     45  N   UNL A   1      42.038  29.310  32.283  1.00  0.00    -0.248 NA
ATOM     46  C   UNL A   1      40.204  30.647  32.831  1.00  0.00     0.031 C 
ATOM     47  C   UNL A   1      39.656  27.602  28.886  1.00  0.00     0.029 A 
ATOM     48  N   UNL A   1      41.592  27.483  30.002  1.00  0.00    -0.354 N 
ATOM     49  C   UNL A   1      42.333  30.053  33.421  1.00  0.00     0.074 A 
ATOM     50  C   UNL A   1      41.184  30.891  33.687  1.00  0.00     0.031 C 
ATOM     51  C   UNL A   1      40.400  26.641  28.310  1.00  0.00     0.029 A 
ATOM     52  C   UNL A   1      41.703  26.577  28.972  1.00  0.00     0.049 A 
ATOM     53  H   UNL A   1      42.292  27.616  30.681  1.00  0.00     0.167 HD
ATOM     54  C   UNL A   1      43.458  30.033  34.176  1.00  0.00     0.034 A 
ATOM     55  C   UNL A   1      42.750  25.816  28.590  1.00  0.00     0.034 A 
ATOM     56  C   UNL A   1      44.599  29.200  33.884  1.00  0.00     0.049 A 
ATOM     57  C   UNL A   1      44.040  25.895  29.378  1.00  0.00     0.074 A 
ATOM     58  C   UNL A   1      45.792  29.102  34.577  1.00  0.00     0.029 A 
ATOM     59  N   UNL A   1      44.694  28.331  32.805  1.00  0.00    -0.354 N 
ATOM     60  N   UNL A   1      44.318  26.616  30.441  1.00  0.00    -0.248 NA
ATOM     61  C   UNL A   1      45.155  25.056  28.918  1.00  0.00     0.031 C 
ATOM     62  C   UNL A   1      46.638  28.241  33.871  1.00  0.00     0.029 A 
ATOM     63  C   UNL A   1      45.938  27.721  32.795  1.00  0.00     0.049 A 
ATOM     64  H   UNL A   1      43.982  28.172  32.143  1.00  0.00     0.167 HD
ATOM     65  C   UNL A   1      45.622  26.275  30.802  1.00  0.00     0.074 A 
ATOM     66  C   UNL A   1      46.072  25.288  29.846  1.00  0.00     0.031 C 
ATOM     67  C   UNL A   1      46.373  26.729  31.839  1.00  0.00     0.034 A 
BRANCH  54  68
ATOM     68  C   UNL A   1      43.529  30.983  35.347  1.00  0.00     0.023 A 
ATOM     69  C   UNL A   1      43.986  32.305  35.205  1.00  0.00     0.031 A 
ATOM     70  C   UNL A   1      43.155  30.551  36.631  1.00  0.00     0.131 A 
ATOM     71  C   UNL A   1      44.120  33.124  36.336  1.00  0.00     0.055 A 
ATOM     72  C   UNL A   1      43.209  31.399  37.739  1.00  0.00     0.041 A 
ATOM     73  F   UNL A   1      42.740  29.291  36.835  1.00  0.00    -0.206 F 
ATOM     74  C   UNL A   1      43.707  32.690  37.598  1.00  0.00     0.022 A 
BRANCH  71  75
ATOM     75  S   UNL A   1      44.980  34.711  36.161  1.00  0.00     0.124 S 
ATOM     76  O   UNL A   1      43.882  35.661  36.325  1.00  0.00    -0.237 OA
ATOM     77  O   UNL A   1      45.953  34.665  37.247  1.00  0.00    -0.237 OA
ATOM     78  O   UNL A   1      45.545  34.649  34.814  1.00  0.00    -0.744 OA
ENDBRANCH  71  75
ENDBRANCH  54  68
BRANCH  55  79
ATOM     79  C   UNL A   1      42.657  24.947  27.379  1.00  0.00     0.023 A 
ATOM     80  C   UNL A   1      42.122  23.652  27.454  1.00  0.00     0.031 A 
ATOM     81  C   UNL A   1      43.172  25.373  26.140  1.00  0.00     0.131 A 
ATOM     82  C   UNL A   1      42.165  22.808  26.333  1.00  0.00     0.055 A 
ATOM     83  C   UNL A   1      43.149  24.554  25.009  1.00  0.00     0.041 A 
ATOM     84  F   UNL A   1      43.707  26.597  26.011  1.00  0.00    -0.206 F 
ATOM     85  C   UNL A   1      42.658  23.257  25.107  1.00  0.00     0.022 A 
BRANCH  82  86
ATOM     86  S   UNL A   1      41.675  21.073  26.535  1.00  0.00     0.124 S 
ATOM     87  O   UNL A   1      40.220  21.171  26.498  1.00  0.00    -0.237 OA
ATOM     88  O   UNL A   1      42.305  20.443  25.380  1.00  0.00    -0.237 OA
ATOM     89  O   UNL A   1      42.243  20.708  27.831  1.00  0.00    -0.744 OA
ENDBRANCH  82  86
ENDBRANCH  55  79
BRANCH  67  90
ATOM     90  C   UNL A   1      47.732  26.101  32.045  1.00  0.00     0.023 A 
ATOM     91  C   UNL A   1      47.943  25.040  32.941  1.00  0.00     0.031 A 
ATOM     92  C   UNL A   1      48.835  26.570  31.306  1.00  0.00     0.131 A 
ATOM     93  C   UNL A   1      49.234  24.515  33.110  1.00  0.00     0.055 A 
ATOM     94  C   UNL A   1      50.101  26.000  31.429  1.00  0.00     0.041 A 
ATOM     95  F   UNL A   1      48.694  27.586  30.437  1.00  0.00    -0.206 F 
ATOM     96  C   UNL A   1      50.309  24.973  32.344  1.00  0.00     0.022 A 
BRANCH  93  97
ATOM     97  S   UNL A   1      49.514  23.280  34.409  1.00  0.00     0.124 S 
ATOM     98  O   UNL A   1      50.182  24.069  35.439  1.00  0.00    -0.237 OA
ATOM     99  O   UNL A   1      48.157  22.843  34.722  1.00  0.00    -0.237 OA
ATOM    100  O   UNL A   1      50.352  22.277  33.756  1.00  0.00    -0.744 OA
ENDBRANCH  93  97
ENDBRANCH  67  90
ENDBRANCH  41  42
ENDBRANCH  34  36
ENDBRANCH  33  34
ENDBRANCH  32  33
ENDBRANCH  31  32
ENDBRANCH  30  31
ENDBRANCH  29  30
ENDBRANCH  28  29
ENDBRANCH  27  28
ENDBRANCH   1  27
TORSDOF 27
ENDMDL
MODEL 2
REMARK VINA RESULT:      -7.8      4.220     13.859
REMARK SMILES COC(=O)[C@H]1CCN(S(=O)(=O)N2CCC[C@H](C(=O)OCCOCCOCCOCCOC(=O)c3ccc(-c4c5nc(c(-c6cc(S(=O)(=O)[O-])ccc6F)c6ccc([nH]6)c(-c6cc(S(=O)(=O)[O-])ccc6F)c6nc(c(-c7cc(S(=O)(=O)[O-])ccc7F)c7ccc4[nH]7)C=C6)C=C5)cc3)C2)C1
REMARK SMILES IDX 24 1 23 2 22 3 21 4 20 5 19 6 17 7 18 8 16 9 12 10 13 11
REMARK SMILES IDX 97 12 14 13 15 14 9 15 10 16 11 17 8 18 5 19 6 20 98 21 7 22
REMARK SMILES IDX 3 23 4 24 2 25 1 26 25 27 26 28 27 29 28 30 29 31 30 32
REMARK SMILES IDX 31 33 32 34 33 35 34 36 35 37 96 38 36 39 95 40 37 41 38 42
REMARK SMILES IDX 39 43 89 44 40 45 94 46 88 47 90 48 41 49 93 50 87 51 86 52
REMARK SMILES IDX 42 54 74 55 54 56 73 57 55 58 58 59 72 60 91 61 56 62 57 63
REMARK SMILES IDX 71 65 92 66 59 67 43 68 44 69 52 70 45 71 51 72 53 73 50 74
REMARK SMILES IDX 46 75 47 76 48 77 49 78 75 79 76 80 84 81 77 82 83 83 85 84
REMARK SMILES IDX 82 85 78 86 79 87 80 88 81 89 60 90 61 91 69 92 62 93 68 94
REMARK SMILES IDX 70 95 67 96 63 97 64 98 65 99 66 100
REMARK H PARENT 90 53 58 64
REMARK Flexibility Score: inf
ROOT
ATOM      1  C   UNL A   1      43.198  29.310  30.866  1.00  0.00     0.188 C 
ENDROOT
BRANCH   1   2
ATOM      2  C   UNL A   1      41.673  29.253  30.715  1.00  0.00     0.188 C 
BRANCH   2   3
ATOM      3  O   UNL A   1      41.131  29.604  29.466  1.00  0.00    -0.376 OA
BRANCH   3   4
ATOM      4  C   UNL A   1      41.282  28.793  28.311  1.00  0.00     0.202 C 
BRANCH   4   5
ATOM      5  C   UNL A   1      42.486  28.773  27.351  1.00  0.00     0.261 C 
BRANCH   5   6
ATOM      6  O   UNL A   1      43.056  27.502  27.024  1.00  0.00    -0.463 OA
BRANCH   6   7
ATOM      7  C   UNL A   1      44.376  27.529  26.749  1.00  0.00     0.310 C 
ATOM      8  O   UNL A   1      45.240  27.888  27.549  1.00  0.00    -0.252 OA
BRANCH   7   9
ATOM      9  C   UNL A   1      44.772  27.019  25.378  1.00  0.00     0.114 C 
ATOM     10  N   UNL A   1      45.430  24.777  26.128  1.00  0.00    -0.188 NA
ATOM     11  C   UNL A   1      46.806  24.867  25.596  1.00  0.00     0.103 C 
ATOM     12  C   UNL A   1      44.428  25.553  25.379  1.00  0.00     0.118 C 
ATOM     13  C   UNL A   1      47.224  26.331  25.461  1.00  0.00     0.018 C 
ATOM     14  C   UNL A   1      46.162  27.154  24.750  1.00  0.00     0.018 C 
BRANCH  10  15
ATOM     15  S   UNL A   1      44.941  23.318  26.780  1.00  0.00     0.282 S 
ATOM     16  O   UNL A   1      45.194  23.327  28.198  1.00  0.00    -0.195 OA
ATOM     17  O   UNL A   1      45.453  22.253  25.942  1.00  0.00    -0.195 OA
BRANCH  15  18
ATOM     18  N   UNL A   1      43.251  23.344  26.566  1.00  0.00    -0.188 NA
ATOM     19  C   UNL A   1      41.999  21.258  26.438  1.00  0.00     0.116 C 
ATOM     20  C   UNL A   1      42.124  21.715  27.877  1.00  0.00     0.033 C 
ATOM     21  C   UNL A   1      42.808  22.264  25.615  1.00  0.00     0.118 C 
ATOM     22  C   UNL A   1      42.354  23.192  27.736  1.00  0.00     0.104 C 
BRANCH  19  23
ATOM     23  C   UNL A   1      42.495  19.846  26.275  1.00  0.00     0.310 C 
ATOM     24  O   UNL A   1      42.399  18.965  27.118  1.00  0.00    -0.252 OA
BRANCH  23  25
ATOM     25  O   UNL A   1      42.956  19.662  25.008  1.00  0.00    -0.469 OA
ATOM     26  C   UNL A   1      44.168  18.911  24.959  1.00  0.00     0.282 C 
ENDBRANCH  23  25
ENDBRANCH  19  23
ENDBRANCH  15  18
ENDBRANCH  10  15
ENDBRANCH   7   9
ENDBRANCH   6   7
ENDBRANCH   5   6
ENDBRANCH   4   5
ENDBRANCH   3   4
ENDBRANCH   2   3
ENDBRANCH   1   2
BRANCH   1  27
ATOM     27  O   UNL A   1      43.928  30.291  30.154  1.00  0.00    -0.377 OA
BRANCH  27  28
ATOM     28  C   UNL A   1      45.247  30.650  30.541  1.00  0.00     0.188 C 
BRANCH  28  29
ATOM     29  C   UNL A   1      46.253  31.146  29.489  1.00  0.00     0.188 C 
BRANCH  29  30
ATOM     30  O   UNL A   1      47.334  31.901  30.009  1.00  0.00    -0.376 OA
BRANCH  30  31
ATOM     31  C   UNL A   1      47.484  33.247  29.587  1.00  0.00     0.202 C 
BRANCH  31  32
ATOM     32  C   UNL A   1      47.172  33.604  28.124  1.00  0.00     0.261 C 
BRANCH  32  33
ATOM     33  O   UNL A   1      46.682  34.930  27.869  1.00  0.00    -0.460 OA
BRANCH  33  34
ATOM     34  C   UNL A   1      45.446  35.059  27.339  1.00  0.00     0.338 C 
ATOM     35  O   UNL A   1      45.160  35.168  26.162  1.00  0.00    -0.246 OA
BRANCH  34  36
ATOM     36  C   UNL A   1      44.471  34.854  28.430  1.00  0.00     0.060 A 
ATOM     37  C   UNL A   1      44.289  35.860  29.389  1.00  0.00     0.016 A 
ATOM     38  C   UNL A   1      43.751  33.661  28.508  1.00  0.00     0.016 A 
ATOM     39  C   UNL A   1      43.414  35.658  30.456  1.00  0.00     0.010 A 
ATOM     40  C   UNL A   1      42.895  33.450  29.591  1.00  0.00     0.010 A 
ATOM     41  C   UNL A   1      42.751  34.432  30.588  1.00  0.00    -0.014 A 
BRANCH  41  42
ATOM     42  C   UNL A   1      42.090  34.080  31.869  1.00  0.00     0.031 A 
ATOM     43  C   UNL A   1      40.588  34.157  31.932  1.00  0.00     0.074 A 
ATOM     44  C   UNL A   1      42.796  33.694  32.946  1.00  0.00     0.049 A 
ATOM     45  N   UNL A   1      39.788  34.022  32.955  1.00  0.00    -0.248 NA
ATOM     46  C   UNL A   1      39.899  34.434  30.660  1.00  0.00     0.031 C 
ATOM     47  C   UNL A   1      44.245  33.511  32.985  1.00  0.00     0.029 A 
ATOM     48  N   UNL A   1      42.384  33.399  34.223  1.00  0.00    -0.354 N 
ATOM     49  C   UNL A   1      38.502  34.209  32.457  1.00  0.00     0.074 A 
ATOM     50  C   UNL A   1      38.636  34.503  31.046  1.00  0.00     0.031 C 
ATOM     51  C   UNL A   1      44.605  33.150  34.229  1.00  0.00     0.029 A 
ATOM     52  C   UNL A   1      43.420  33.129  35.087  1.00  0.00     0.049 A 
ATOM     53  H   UNL A   1      41.438  33.382  34.493  1.00  0.00     0.167 HD
ATOM     54  C   UNL A   1      37.321  34.138  33.117  1.00  0.00     0.034 A 
ATOM     55  C   UNL A   1      43.412  32.928  36.422  1.00  0.00     0.034 A 
ATOM     56  C   UNL A   1      37.211  33.858  34.527  1.00  0.00     0.049 A 
ATOM     57  C   UNL A   1      42.091  32.967  37.161  1.00  0.00     0.074 A 
ATOM     58  C   UNL A   1      36.068  33.765  35.299  1.00  0.00     0.029 A 
ATOM     59  N   UNL A   1      38.285  33.638  35.380  1.00  0.00    -0.354 N 
ATOM     60  N   UNL A   1      40.882  33.165  36.686  1.00  0.00    -0.248 NA
ATOM     61  C   UNL A   1      42.133  32.753  38.614  1.00  0.00     0.031 C 
ATOM     62  C   UNL A   1      36.453  33.575  36.630  1.00  0.00     0.029 A 
ATOM     63  C   UNL A   1      37.831  33.445  36.675  1.00  0.00     0.049 A 
ATOM     64  H   UNL A   1      39.231  33.622  35.105  1.00  0.00     0.167 HD
ATOM     65  C   UNL A   1      40.020  33.048  37.776  1.00  0.00     0.074 A 
ATOM     66  C   UNL A   1      40.846  32.763  38.929  1.00  0.00     0.031 C 
ATOM     67  C   UNL A   1      38.667  33.153  37.817  1.00  0.00     0.034 A 
BRANCH  54  68
ATOM     68  C   UNL A   1      36.065  34.427  32.331  1.00  0.00     0.023 A 
ATOM     69  C   UNL A   1      35.391  35.656  32.433  1.00  0.00     0.031 A 
ATOM     70  C   UNL A   1      35.521  33.448  31.482  1.00  0.00     0.131 A 
ATOM     71  C   UNL A   1      34.179  35.849  31.754  1.00  0.00     0.055 A 
ATOM     72  C   UNL A   1      34.360  33.676  30.741  1.00  0.00     0.041 A 
ATOM     73  F   UNL A   1      36.102  32.243  31.366  1.00  0.00    -0.206 F 
ATOM     74  C   UNL A   1      33.673  34.878  30.885  1.00  0.00     0.022 A 
BRANCH  71  75
ATOM     75  S   UNL A   1      33.195  37.323  32.135  1.00  0.00     0.124 S 
ATOM     76  O   UNL A   1      32.954  37.870  30.801  1.00  0.00    -0.237 OA
ATOM     77  O   UNL A   1      32.033  36.761  32.814  1.00  0.00    -0.237 OA
ATOM     78  O   UNL A   1      34.084  38.122  32.976  1.00  0.00    -0.744 OA
ENDBRANCH  71  75
ENDBRANCH  54  68
BRANCH  55  79
ATOM     79  C   UNL A   1      44.689  32.720  37.168  1.00  0.00     0.023 A 
ATOM     80  C   UNL A   1      45.168  31.429  37.442  1.00  0.00     0.031 A 
ATOM     81  C   UNL A   1      45.413  33.811  37.685  1.00  0.00     0.131 A 
ATOM     82  C   UNL A   1      46.299  31.258  38.256  1.00  0.00     0.055 A 
ATOM     83  C   UNL A   1      46.577  33.637  38.436  1.00  0.00     0.041 A 
ATOM     84  F   UNL A   1      44.996  35.068  37.465  1.00  0.00    -0.206 F 
ATOM     85  C   UNL A   1      47.016  32.354  38.739  1.00  0.00     0.022 A 
BRANCH  82  86
ATOM     86  S   UNL A   1      46.747  29.578  38.773  1.00  0.00     0.124 S 
ATOM     87  O   UNL A   1      45.770  28.776  38.048  1.00  0.00    -0.237 OA
ATOM     88  O   UNL A   1      48.129  29.478  38.313  1.00  0.00    -0.237 OA
ATOM     89  O   UNL A   1      46.575  29.611  40.224  1.00  0.00    -0.744 OA
ENDBRANCH  82  86
ENDBRANCH  55  79
BRANCH  67  90
ATOM     90  C   UNL A   1      37.983  32.876  39.136  1.00  0.00     0.023 A 
ATOM     91  C   UNL A   1      38.014  33.785  40.206  1.00  0.00     0.031 A 
ATOM     92  C   UNL A   1      37.266  31.676  39.310  1.00  0.00     0.131 A 
ATOM     93  C   UNL A   1      37.382  33.460  41.417  1.00  0.00     0.055 A 
ATOM     94  C   UNL A   1      36.584  31.389  40.492  1.00  0.00     0.041 A 
ATOM     95  F   UNL A   1      37.205  30.767  38.322  1.00  0.00    -0.206 F 
ATOM     96  C   UNL A   1      36.649  32.279  41.559  1.00  0.00     0.022 A 
BRANCH  93  97
ATOM     97  S   UNL A   1      37.601  34.563  42.841  1.00  0.00     0.124 S 
ATOM     98  O   UNL A   1      38.674  33.901  43.576  1.00  0.00    -0.237 OA
ATOM     99  O   UNL A   1      37.951  35.829  42.206  1.00  0.00    -0.237 OA
ATOM    100  O   UNL A   1      36.294  34.540  43.497  1.00  0.00    -0.744 OA
ENDBRANCH  93  97
ENDBRANCH  67  90
ENDBRANCH  41  42
ENDBRANCH  34  36
ENDBRANCH  33  34
ENDBRANCH  32  33
ENDBRANCH  31  32
ENDBRANCH  30  31
ENDBRANCH  29  30
ENDBRANCH  28  29
ENDBRANCH  27  28
ENDBRANCH   1  27
TORSDOF 27
ENDMDL
MODEL 3
REMARK VINA RESULT:      -7.5      8.309     14.100
REMARK SMILES COC(=O)[C@H]1CCN(S(=O)(=O)N2CCC[C@H](C(=O)OCCOCCOCCOCCOC(=O)c3ccc(-c4c5nc(c(-c6cc(S(=O)(=O)[O-])ccc6F)c6ccc([nH]6)c(-c6cc(S(=O)(=O)[O-])ccc6F)c6nc(c(-c7cc(S(=O)(=O)[O-])ccc7F)c7ccc4[nH]7)C=C6)C=C5)cc3)C2)C1
REMARK SMILES IDX 24 1 23 2 22 3 21 4 20 5 19 6 17 7 18 8 16 9 12 10 13 11
REMARK SMILES IDX 97 12 14 13 15 14 9 15 10 16 11 17 8 18 5 19 6 20 98 21 7 22
REMARK SMILES IDX 3 23 4 24 2 25 1 26 25 27 26 28 27 29 28 30 29 31 30 32
REMARK SMILES IDX 31 33 32 34 33 35 34 36 35 37 96 38 36 39 95 40 37 41 38 42
REMARK SMILES IDX 39 43 89 44 40 45 94 46 88 47 90 48 41 49 93 50 87 51 86 52
REMARK SMILES IDX 42 54 74 55 54 56 73 57 55 58 58 59 72 60 91 61 56 62 57 63
REMARK SMILES IDX 71 65 92 66 59 67 43 68 44 69 52 70 45 71 51 72 53 73 50 74
REMARK SMILES IDX 46 75 47 76 48 77 49 78 75 79 76 80 84 81 77 82 83 83 85 84
REMARK SMILES IDX 82 85 78 86 79 87 80 88 81 89 60 90 61 91 69 92 62 93 68 94
REMARK SMILES IDX 70 95 67 96 63 97 64 98 65 99 66 100
REMARK H PARENT 90 53 58 64
REMARK Flexibility Score: inf
ROOT
ATOM      1  C   UNL A   1      36.366  29.681  27.266  1.00  0.00     0.188 C 
ENDROOT
BRANCH   1   2
ATOM      2  C   UNL A   1      34.964  29.421  27.832  1.00  0.00     0.188 C 
BRANCH   2   3
ATOM      3  O   UNL A   1      34.112  28.580  27.093  1.00  0.00    -0.376 OA
BRANCH   3   4
ATOM      4  C   UNL A   1      33.377  29.033  25.966  1.00  0.00     0.202 C 
BRANCH   4   5
ATOM      5  C   UNL A   1      32.066  28.434  25.422  1.00  0.00     0.261 C 
BRANCH   5   6
ATOM      6  O   UNL A   1      32.151  27.226  24.662  1.00  0.00    -0.463 OA
BRANCH   6   7
ATOM      7  C   UNL A   1      30.967  26.742  24.236  1.00  0.00     0.310 C 
ATOM      8  O   UNL A   1      29.874  27.123  24.657  1.00  0.00    -0.252 OA
BRANCH   7   9
ATOM      9  C   UNL A   1      31.038  25.710  23.129  1.00  0.00     0.114 C 
ATOM     10  N   UNL A   1      33.223  24.801  23.777  1.00  0.00    -0.188 NA
ATOM     11  C   UNL A   1      33.858  25.060  22.468  1.00  0.00     0.103 C 
ATOM     12  C   UNL A   1      31.776  24.537  23.718  1.00  0.00     0.118 C 
ATOM     13  C   UNL A   1      33.118  26.177  21.735  1.00  0.00     0.018 C 
ATOM     14  C   UNL A   1      31.615  25.948  21.732  1.00  0.00     0.018 C 
BRANCH  10  15
ATOM     15  S   UNL A   1      34.111  23.968  24.922  1.00  0.00     0.282 S 
ATOM     16  O   UNL A   1      33.216  23.444  25.921  1.00  0.00    -0.195 OA
ATOM     17  O   UNL A   1      35.247  24.784  25.297  1.00  0.00    -0.195 OA
BRANCH  15  18
ATOM     18  N   UNL A   1      34.725  22.641  24.047  1.00  0.00    -0.188 NA
ATOM     19  C   UNL A   1      36.869  21.657  24.654  1.00  0.00     0.116 C 
ATOM     20  C   UNL A   1      35.746  21.005  25.434  1.00  0.00     0.033 C 
ATOM     21  C   UNL A   1      36.211  22.771  23.836  1.00  0.00     0.118 C 
ATOM     22  C   UNL A   1      34.548  21.265  24.567  1.00  0.00     0.104 C 
BRANCH  19  23
ATOM     23  C   UNL A   1      37.938  22.176  25.579  1.00  0.00     0.310 C 
ATOM     24  O   UNL A   1      37.876  23.224  26.207  1.00  0.00    -0.252 OA
BRANCH  23  25
ATOM     25  O   UNL A   1      38.927  21.251  25.707  1.00  0.00    -0.469 OA
ATOM     26  C   UNL A   1      40.074  21.752  26.393  1.00  0.00     0.282 C 
ENDBRANCH  23  25
ENDBRANCH  19  23
ENDBRANCH  15  18
ENDBRANCH  10  15
ENDBRANCH   7   9
ENDBRANCH   6   7
ENDBRANCH   5   6
ENDBRANCH   4   5
ENDBRANCH   3   4
ENDBRANCH   2   3
ENDBRANCH   1   2
BRANCH   1  27
ATOM     27  O   UNL A   1      37.433  29.944  28.157  1.00  0.00    -0.377 OA
BRANCH  27  28
ATOM     28  C   UNL A   1      38.148  28.886  28.778  1.00  0.00     0.188 C 
BRANCH  28  29
ATOM     29  C   UNL A   1      38.225  28.799  30.312  1.00  0.00     0.188 C 
BRANCH  29  30
ATOM     30  O   UNL A   1      36.983  28.943  30.978  1.00  0.00    -0.376 OA
BRANCH  30  31
ATOM     31  C   UNL A   1      36.754  30.121  31.735  1.00  0.00     0.202 C 
BRANCH  31  32
ATOM     32  C   UNL A   1      36.488  31.440  30.990  1.00  0.00     0.261 C 
BRANCH  32  33
ATOM     33  O   UNL A   1      37.636  32.225  30.629  1.00  0.00    -0.460 OA
BRANCH  33  34
ATOM     34  C   UNL A   1      37.873  33.359  31.324  1.00  0.00     0.338 C 
ATOM     35  O   UNL A   1      37.298  33.740  32.326  1.00  0.00    -0.246 OA
BRANCH  34  36
ATOM     36  C   UNL A   1      39.091  33.979  30.762  1.00  0.00     0.060 A 
ATOM     37  C   UNL A   1      39.102  34.382  29.420  1.00  0.00     0.016 A 
ATOM     38  C   UNL A   1      40.223  34.145  31.562  1.00  0.00     0.016 A 
ATOM     39  C   UNL A   1      40.263  34.917  28.860  1.00  0.00     0.010 A 
ATOM     40  C   UNL A   1      41.391  34.656  30.994  1.00  0.00     0.010 A 
ATOM     41  C   UNL A   1      41.427  35.010  29.632  1.00  0.00    -0.014 A 
BRANCH  41  42
ATOM     42  C   UNL A   1      42.735  35.256  28.976  1.00  0.00     0.031 A 
ATOM     43  C   UNL A   1      43.614  34.068  28.689  1.00  0.00     0.074 A 
ATOM     44  C   UNL A   1      43.132  36.494  28.635  1.00  0.00     0.049 A 
ATOM     45  N   UNL A   1      44.840  34.027  28.242  1.00  0.00    -0.248 NA
ATOM     46  C   UNL A   1      43.023  32.745  28.954  1.00  0.00     0.031 C 
ATOM     47  C   UNL A   1      42.338  37.710  28.794  1.00  0.00     0.029 A 
ATOM     48  N   UNL A   1      44.316  36.932  28.093  1.00  0.00    -0.354 N 
ATOM     49  C   UNL A   1      45.175  32.678  28.183  1.00  0.00     0.074 A 
ATOM     50  C   UNL A   1      44.033  31.938  28.674  1.00  0.00     0.031 C 
ATOM     51  C   UNL A   1      43.064  38.762  28.374  1.00  0.00     0.029 A 
ATOM     52  C   UNL A   1      44.392  38.300  27.968  1.00  0.00     0.049 A 
ATOM     53  H   UNL A   1      45.040  36.325  27.820  1.00  0.00     0.167 HD
ATOM     54  C   UNL A   1      46.329  32.111  27.753  1.00  0.00     0.034 A 
ATOM     55  C   UNL A   1      45.427  39.086  27.605  1.00  0.00     0.034 A 
ATOM     56  C   UNL A   1      47.461  32.869  27.280  1.00  0.00     0.049 A 
ATOM     57  C   UNL A   1      46.746  38.439  27.239  1.00  0.00     0.074 A 
ATOM     58  C   UNL A   1      48.680  32.400  26.825  1.00  0.00     0.029 A 
ATOM     59  N   UNL A   1      47.519  34.255  27.214  1.00  0.00    -0.354 N 
ATOM     60  N   UNL A   1      47.061  37.164  27.205  1.00  0.00    -0.248 NA
ATOM     61  C   UNL A   1      47.846  39.336  26.860  1.00  0.00     0.031 C 
ATOM     62  C   UNL A   1      49.503  33.501  26.565  1.00  0.00     0.029 A 
ATOM     63  C   UNL A   1      48.764  34.657  26.758  1.00  0.00     0.049 A 
ATOM     64  H   UNL A   1      46.783  34.864  27.455  1.00  0.00     0.167 HD
ATOM     65  C   UNL A   1      48.379  37.109  26.752  1.00  0.00     0.074 A 
ATOM     66  C   UNL A   1      48.798  38.475  26.527  1.00  0.00     0.031 C 
ATOM     67  C   UNL A   1      49.167  36.025  26.530  1.00  0.00     0.034 A 
BRANCH  54  68
ATOM     68  C   UNL A   1      46.440  30.608  27.835  1.00  0.00     0.023 A 
ATOM     69  C   UNL A   1      45.913  29.768  26.839  1.00  0.00     0.031 A 
ATOM     70  C   UNL A   1      47.065  30.005  28.941  1.00  0.00     0.131 A 
ATOM     71  C   UNL A   1      45.960  28.375  27.001  1.00  0.00     0.055 A 
ATOM     72  C   UNL A   1      47.185  28.619  29.055  1.00  0.00     0.041 A 
ATOM     73  F   UNL A   1      47.560  30.754  29.939  1.00  0.00    -0.206 F 
ATOM     74  C   UNL A   1      46.618  27.794  28.088  1.00  0.00     0.022 A 
BRANCH  71  75
ATOM     75  S   UNL A   1      45.020  27.336  25.851  1.00  0.00     0.124 S 
ATOM     76  O   UNL A   1      46.030  27.026  24.842  1.00  0.00    -0.237 OA
ATOM     77  O   UNL A   1      44.602  26.224  26.699  1.00  0.00    -0.237 OA
ATOM     78  O   UNL A   1      43.944  28.213  25.395  1.00  0.00    -0.744 OA
ENDBRANCH  71  75
ENDBRANCH  54  68
BRANCH  55  79
ATOM     79  C   UNL A   1      45.292  40.574  27.611  1.00  0.00     0.023 A 
ATOM     80  C   UNL A   1      45.293  41.298  28.814  1.00  0.00     0.031 A 
ATOM     81  C   UNL A   1      45.083  41.288  26.416  1.00  0.00     0.131 A 
ATOM     82  C   UNL A   1      45.033  42.677  28.803  1.00  0.00     0.055 A 
ATOM     83  C   UNL A   1      44.894  42.671  26.405  1.00  0.00     0.041 A 
ATOM     84  F   UNL A   1      45.059  40.646  25.237  1.00  0.00    -0.206 F 
ATOM     85  C   UNL A   1      44.852  43.371  27.605  1.00  0.00     0.022 A 
BRANCH  82  86
ATOM     86  S   UNL A   1      44.817  43.531  30.389  1.00  0.00     0.124 S 
ATOM     87  O   UNL A   1      46.080  43.237  31.056  1.00  0.00    -0.237 OA
ATOM     88  O   UNL A   1      44.621  44.913  29.965  1.00  0.00    -0.237 OA
ATOM     89  O   UNL A   1      43.641  42.883  30.966  1.00  0.00    -0.744 OA
ENDBRANCH  82  86
ENDBRANCH  55  79
BRANCH  67  90
ATOM     90  C   UNL A   1      50.536  36.266  25.936  1.00  0.00     0.023 A 
ATOM     91  C   UNL A   1      51.700  36.312  26.721  1.00  0.00     0.031 A 
ATOM     92  C   UNL A   1      50.672  36.431  24.544  1.00  0.00     0.131 A 
ATOM     93  C   UNL A   1      52.941  36.565  26.116  1.00  0.00     0.055 A 
ATOM     94  C   UNL A   1      51.915  36.615  23.941  1.00  0.00     0.041 A 
ATOM     95  F   UNL A   1      49.593  36.400  23.744  1.00  0.00    -0.206 F 
ATOM     96  C   UNL A   1      53.059  36.695  24.730  1.00  0.00     0.022 A 
BRANCH  93  97
ATOM     97  S   UNL A   1      54.396  36.811  27.172  1.00  0.00     0.124 S 
ATOM     98  O   UNL A   1      53.924  37.827  28.107  1.00  0.00    -0.237 OA
ATOM     99  O   UNL A   1      54.605  35.480  27.730  1.00  0.00    -0.237 OA
ATOM    100  O   UNL A   1      55.427  37.260  26.238  1.00  0.00    -0.744 OA
ENDBRANCH  93  97
ENDBRANCH  67  90
ENDBRANCH  41  42
ENDBRANCH  34  36
ENDBRANCH  33  34
ENDBRANCH  32  33
ENDBRANCH  31  32
ENDBRANCH  30  31
ENDBRANCH  29  30
ENDBRANCH  28  29
ENDBRANCH  27  28
ENDBRANCH   1  27
TORSDOF 27
ENDMDL
