MODEL 1
REMARK VINA RESULT:     -10.9      0.000      0.000
REMARK SMILES O=C(OCCOCCOCCOCCOC(=O)c1ccc(-c2c3nc(c(-c4cc(S(=O)(=O)[O-])ccc4F)c4ccc([nH]4)c(-c4cc(S(=O)(=O)[O-])ccc4F)c4nc(c(-c5cc(S(=O)(=O)[O-])ccc5F)c5ccc2[nH]5)C=C4)C=C3)cc1)C1=Cc2cc(Cl)ccc2O[C@@H]1C(F)(F)F
REMARK SMILES IDX 10 1 9 2 8 3 7 4 6 5 5 6 4 7 3 8 2 9 1 10 81 11 82 12 91 13
REMARK SMILES IDX 83 14 90 15 84 16 89 17 85 18 88 19 86 20 87 21 92 22 93 23
REMARK SMILES IDX 94 24 95 25 11 26 12 27 13 28 14 29 15 30 16 31 17 32 18 33
REMARK SMILES IDX 19 34 80 35 20 36 79 37 21 38 22 39 23 40 73 41 24 42 78 43
REMARK SMILES IDX 72 44 74 45 25 46 77 47 71 48 70 49 26 51 58 52 38 53 57 54
REMARK SMILES IDX 39 55 42 56 56 57 75 58 40 59 41 60 55 62 76 63 43 64 27 65
REMARK SMILES IDX 28 66 36 67 29 68 35 69 37 70 34 71 30 72 31 73 32 74 33 75
REMARK SMILES IDX 59 76 60 77 68 78 61 79 67 80 69 81 66 82 62 83 63 84 64 85
REMARK SMILES IDX 65 86 44 87 45 88 53 89 46 90 52 91 54 92 51 93 47 94 48 95
REMARK SMILES IDX 49 96 50 97
REMARK H PARENT 74 50 42 61
REMARK Flexibility Score: inf
ROOT
ATOM      1  C   UNL A   1      37.035  23.217  25.450  1.00  0.00     0.188 C 
ENDROOT
BRANCH   1   2
ATOM      2  O   UNL A   1      35.772  23.812  25.657  1.00  0.00    -0.377 OA
BRANCH   2   3
ATOM      3  C   UNL A   1      34.755  22.850  25.824  1.00  0.00     0.188 C 
BRANCH   3   4
ATOM      4  C   UNL A   1      33.975  22.887  27.151  1.00  0.00     0.188 C 
BRANCH   4   5
ATOM      5  O   UNL A   1      32.578  23.296  27.359  1.00  0.00    -0.376 OA
BRANCH   5   6
ATOM      6  C   UNL A   1      31.207  23.307  26.453  1.00  0.00     0.202 C 
BRANCH   6   7
ATOM      7  C   UNL A   1      29.903  25.008  26.050  1.00  0.00     0.261 C 
BRANCH   7   8
ATOM      8  O   UNL A   1      30.001  25.961  24.867  1.00  0.00    -0.460 OA
BRANCH   8   9
ATOM      9  C   UNL A   1      30.393  25.343  23.746  1.00  0.00     0.338 C 
ATOM     10  O   UNL A   1      30.262  24.185  23.440  1.00  0.00    -0.246 OA
BRANCH   9  11
ATOM     11  C   UNL A   1      31.358  26.343  23.332  1.00  0.00     0.087 C 
ATOM     12  C   UNL A   1      30.964  27.722  23.676  1.00  0.00     0.027 C 
ATOM     13  C   UNL A   1      32.861  25.405  24.089  1.00  0.00     0.316 C 
ATOM     14  C   UNL A   1      31.690  28.673  25.023  1.00  0.00     0.019 A 
ATOM     15  O   UNL A   1      33.563  26.351  25.637  1.00  0.00    -0.475 OA
ATOM     16  C   UNL A   1      31.266  29.953  25.265  1.00  0.00     0.032 A 
ATOM     17  C   UNL A   1      32.885  28.003  26.078  1.00  0.00     0.128 A 
ATOM     18  C   UNL A   1      31.896  30.603  26.345  1.00  0.00     0.041 A 
ATOM     19  C   UNL A   1      33.402  28.695  27.143  1.00  0.00     0.048 A 
ATOM     20  Cl  UNL A   1      31.436  32.252  26.634  1.00  0.00    -0.084 Cl
ATOM     21  C   UNL A   1      32.897  30.017  27.225  1.00  0.00     0.024 A 
BRANCH  13  22
ATOM     22  C   UNL A   1      33.508  25.046  22.597  1.00  0.00     0.430 C 
ATOM     23  F   UNL A   1      33.805  26.046  21.749  1.00  0.00    -0.167 F 
ATOM     24  F   UNL A   1      34.726  24.464  22.846  1.00  0.00    -0.167 F 
ATOM     25  F   UNL A   1      32.834  24.100  21.895  1.00  0.00    -0.167 F 
ENDBRANCH  13  22
ENDBRANCH   9  11
ENDBRANCH   8   9
ENDBRANCH   7   8
ENDBRANCH   6   7
ENDBRANCH   5   6
ENDBRANCH   4   5
ENDBRANCH   3   4
ENDBRANCH   2   3
ENDBRANCH   1   2
BRANCH   1  26
ATOM     26  C   UNL A   1      37.094  21.708  25.691  1.00  0.00     0.188 C 
BRANCH  26  27
ATOM     27  O   UNL A   1      37.582  20.968  24.583  1.00  0.00    -0.376 OA
BRANCH  27  28
ATOM     28  C   UNL A   1      37.860  19.590  24.804  1.00  0.00     0.202 C 
BRANCH  28  29
ATOM     29  C   UNL A   1      39.157  19.234  25.561  1.00  0.00     0.261 C 
BRANCH  29  30
ATOM     30  O   UNL A   1      40.307  20.081  25.352  1.00  0.00    -0.460 OA
BRANCH  30  31
ATOM     31  C   UNL A   1      41.232  20.166  26.327  1.00  0.00     0.338 C 
ATOM     32  O   UNL A   1      42.131  19.374  26.548  1.00  0.00    -0.246 OA
BRANCH  31  33
ATOM     33  C   UNL A   1      41.149  21.507  26.957  1.00  0.00     0.060 A 
ATOM     34  C   UNL A   1      40.551  22.546  26.225  1.00  0.00     0.016 A 
ATOM     35  C   UNL A   1      41.659  21.753  28.235  1.00  0.00     0.016 A 
ATOM     36  C   UNL A   1      40.544  23.845  26.722  1.00  0.00     0.010 A 
ATOM     37  C   UNL A   1      41.690  23.067  28.716  1.00  0.00     0.010 A 
ATOM     38  C   UNL A   1      41.203  24.124  27.924  1.00  0.00    -0.014 A 
BRANCH  38  39
ATOM     39  C   UNL A   1      41.679  25.513  28.144  1.00  0.00     0.031 A 
ATOM     40  C   UNL A   1      43.027  25.878  27.570  1.00  0.00     0.074 A 
ATOM     41  C   UNL A   1      40.912  26.448  28.731  1.00  0.00     0.049 A 
ATOM     42  N   UNL A   1      43.669  27.017  27.603  1.00  0.00    -0.248 NA
ATOM     43  C   UNL A   1      43.748  24.806  26.865  1.00  0.00     0.031 C 
ATOM     44  C   UNL A   1      39.564  26.232  29.250  1.00  0.00     0.029 A 
ATOM     45  N   UNL A   1      41.161  27.775  28.976  1.00  0.00    -0.354 N 
ATOM     46  C   UNL A   1      44.873  26.790  26.940  1.00  0.00     0.074 A 
ATOM     47  C   UNL A   1      44.889  25.397  26.557  1.00  0.00     0.031 C 
ATOM     48  C   UNL A   1      39.102  27.392  29.751  1.00  0.00     0.029 A 
ATOM     49  C   UNL A   1      40.135  28.419  29.626  1.00  0.00     0.049 A 
ATOM     50  H   UNL A   1      41.997  28.223  28.712  1.00  0.00     0.167 HD
ATOM     51  C   UNL A   1      45.869  27.666  26.668  1.00  0.00     0.034 A 
ATOM     52  C   UNL A   1      40.054  29.687  30.081  1.00  0.00     0.034 A 
ATOM     53  C   UNL A   1      45.838  29.051  27.062  1.00  0.00     0.049 A 
ATOM     54  C   UNL A   1      41.220  30.623  29.851  1.00  0.00     0.074 A 
ATOM     55  C   UNL A   1      46.784  30.033  26.833  1.00  0.00     0.029 A 
ATOM     56  N   UNL A   1      44.811  29.651  27.783  1.00  0.00    -0.354 N 
ATOM     57  N   UNL A   1      42.357  30.397  29.231  1.00  0.00    -0.248 NA
ATOM     58  C   UNL A   1      41.083  31.989  30.372  1.00  0.00     0.031 C 
ATOM     59  C   UNL A   1      46.380  31.194  27.500  1.00  0.00     0.029 A 
ATOM     60  C   UNL A   1      45.123  30.976  28.041  1.00  0.00     0.049 A 
ATOM     61  H   UNL A   1      43.983  29.199  28.068  1.00  0.00     0.167 HD
ATOM     62  C   UNL A   1      43.045  31.611  29.242  1.00  0.00     0.074 A 
ATOM     63  C   UNL A   1      42.190  32.560  29.923  1.00  0.00     0.031 C 
ATOM     64  C   UNL A   1      44.265  31.916  28.724  1.00  0.00     0.034 A 
BRANCH  51  65
ATOM     65  C   UNL A   1      47.101  27.129  25.976  1.00  0.00     0.023 A 
ATOM     66  C   UNL A   1      48.117  26.449  26.671  1.00  0.00     0.031 A 
ATOM     67  C   UNL A   1      47.277  27.337  24.596  1.00  0.00     0.131 A 
ATOM     68  C   UNL A   1      49.292  26.072  26.001  1.00  0.00     0.055 A 
ATOM     69  C   UNL A   1      48.406  26.875  23.917  1.00  0.00     0.041 A 
ATOM     70  F   UNL A   1      46.360  28.009  23.883  1.00  0.00    -0.206 F 
ATOM     71  C   UNL A   1      49.430  26.252  24.624  1.00  0.00     0.022 A 
BRANCH  68  72
ATOM     72  S   UNL A   1      50.706  25.501  26.984  1.00  0.00     0.124 S 
ATOM     73  O   UNL A   1      51.713  25.280  25.950  1.00  0.00    -0.237 OA
ATOM     74  O   UNL A   1      50.945  26.627  27.879  1.00  0.00    -0.237 OA
ATOM     75  O   UNL A   1      50.207  24.286  27.627  1.00  0.00    -0.744 OA
ENDBRANCH  68  72
ENDBRANCH  51  65
BRANCH  52  76
ATOM     76  C   UNL A   1      38.846  30.153  30.823  1.00  0.00     0.023 A 
ATOM     77  C   UNL A   1      37.815  30.850  30.172  1.00  0.00     0.031 A 
ATOM     78  C   UNL A   1      38.738  29.971  32.214  1.00  0.00     0.131 A 
ATOM     79  C   UNL A   1      36.753  31.389  30.917  1.00  0.00     0.055 A 
ATOM     80  C   UNL A   1      37.646  30.450  32.940  1.00  0.00     0.041 A 
ATOM     81  F   UNL A   1      39.698  29.321  32.891  1.00  0.00    -0.206 F 
ATOM     82  C   UNL A   1      36.652  31.177  32.294  1.00  0.00     0.022 A 
BRANCH  79  83
ATOM     83  S   UNL A   1      35.563  32.470  30.077  1.00  0.00     0.124 S 
ATOM     84  O   UNL A   1      35.387  31.780  28.803  1.00  0.00    -0.237 OA
ATOM     85  O   UNL A   1      34.425  32.433  30.990  1.00  0.00    -0.237 OA
ATOM     86  O   UNL A   1      36.260  33.751  30.005  1.00  0.00    -0.744 OA
ENDBRANCH  79  83
ENDBRANCH  52  76
BRANCH  64  87
ATOM     87  C   UNL A   1      44.711  33.360  28.802  1.00  0.00     0.023 A 
ATOM     88  C   UNL A   1      45.493  33.849  29.861  1.00  0.00     0.031 A 
ATOM     89  C   UNL A   1      44.314  34.270  27.804  1.00  0.00     0.131 A 
ATOM     90  C   UNL A   1      45.778  35.221  29.944  1.00  0.00     0.055 A 
ATOM     91  C   UNL A   1      44.677  35.616  27.844  1.00  0.00     0.041 A 
ATOM     92  F   UNL A   1      43.559  33.866  26.768  1.00  0.00    -0.206 F 
ATOM     93  C   UNL A   1      45.396  36.103  28.930  1.00  0.00     0.022 A 
BRANCH  90  94
ATOM     94  S   UNL A   1      46.518  35.863  31.471  1.00  0.00     0.124 S 
ATOM     95  O   UNL A   1      45.374  35.877  32.376  1.00  0.00    -0.237 OA
ATOM     96  O   UNL A   1      47.546  34.870  31.761  1.00  0.00    -0.237 OA
ATOM     97  O   UNL A   1      47.018  37.180  31.083  1.00  0.00    -0.744 OA
ENDBRANCH  90  94
ENDBRANCH  64  87
ENDBRANCH  38  39
ENDBRANCH  31  33
ENDBRANCH  30  31
ENDBRANCH  29  30
ENDBRANCH  28  29
ENDBRANCH  27  28
ENDBRANCH  26  27
ENDBRANCH   1  26
TORSDOF 24
ENDMDL
MODEL 2
REMARK VINA RESULT:     -10.7      2.153      2.657
REMARK SMILES O=C(OCCOCCOCCOCCOC(=O)c1ccc(-c2c3nc(c(-c4cc(S(=O)(=O)[O-])ccc4F)c4ccc([nH]4)c(-c4cc(S(=O)(=O)[O-])ccc4F)c4nc(c(-c5cc(S(=O)(=O)[O-])ccc5F)c5ccc2[nH]5)C=C4)C=C3)cc1)C1=Cc2cc(Cl)ccc2O[C@@H]1C(F)(F)F
REMARK SMILES IDX 10 1 9 2 8 3 7 4 6 5 5 6 4 7 3 8 2 9 1 10 81 11 82 12 91 13
REMARK SMILES IDX 83 14 90 15 84 16 89 17 85 18 88 19 86 20 87 21 92 22 93 23
REMARK SMILES IDX 94 24 95 25 11 26 12 27 13 28 14 29 15 30 16 31 17 32 18 33
REMARK SMILES IDX 19 34 80 35 20 36 79 37 21 38 22 39 23 40 73 41 24 42 78 43
REMARK SMILES IDX 72 44 74 45 25 46 77 47 71 48 70 49 26 51 58 52 38 53 57 54
REMARK SMILES IDX 39 55 42 56 56 57 75 58 40 59 41 60 55 62 76 63 43 64 27 65
REMARK SMILES IDX 28 66 36 67 29 68 35 69 37 70 34 71 30 72 31 73 32 74 33 75
REMARK SMILES IDX 59 76 60 77 68 78 61 79 67 80 69 81 66 82 62 83 63 84 64 85
REMARK SMILES IDX 65 86 44 87 45 88 53 89 46 90 52 91 54 92 51 93 47 94 48 95
REMARK SMILES IDX 49 96 50 97
REMARK H PARENT 74 50 42 61
REMARK Flexibility Score: inf
ROOT
ATOM      1  C   UNL A   1      35.044  23.775  24.627  1.00  0.00     0.188 C 
ENDROOT
BRANCH   1   2
ATOM      2  O   UNL A   1      34.295  23.964  25.807  1.00  0.00    -0.377 OA
BRANCH   2   3
ATOM      3  C   UNL A   1      33.907  22.740  26.389  1.00  0.00     0.188 C 
BRANCH   3   4
ATOM      4  C   UNL A   1      33.007  22.818  27.636  1.00  0.00     0.188 C 
BRANCH   4   5
ATOM      5  O   UNL A   1      31.552  23.031  27.680  1.00  0.00    -0.376 OA
BRANCH   5   6
ATOM      6  C   UNL A   1      30.376  23.360  26.580  1.00  0.00     0.202 C 
BRANCH   6   7
ATOM      7  C   UNL A   1      29.510  25.306  26.113  1.00  0.00     0.261 C 
BRANCH   7   8
ATOM      8  O   UNL A   1      30.208  26.458  25.402  1.00  0.00    -0.460 OA
BRANCH   8   9
ATOM      9  C   UNL A   1      31.152  27.027  26.161  1.00  0.00     0.338 C 
ATOM     10  O   UNL A   1      31.182  27.150  27.359  1.00  0.00    -0.246 OA
BRANCH   9  11
ATOM     11  C   UNL A   1      31.782  27.788  25.100  1.00  0.00     0.087 C 
ATOM     12  C   UNL A   1      30.949  27.917  23.890  1.00  0.00     0.027 C 
ATOM     13  C   UNL A   1      32.282  29.246  26.255  1.00  0.00     0.316 C 
ATOM     14  C   UNL A   1      30.077  29.423  23.421  1.00  0.00     0.019 A 
ATOM     15  O   UNL A   1      31.240  30.840  25.854  1.00  0.00    -0.475 OA
ATOM     16  C   UNL A   1      29.331  29.453  22.272  1.00  0.00     0.032 A 
ATOM     17  C   UNL A   1      30.101  30.840  24.410  1.00  0.00     0.128 A 
ATOM     18  C   UNL A   1      28.688  30.677  22.003  1.00  0.00     0.041 A 
ATOM     19  C   UNL A   1      29.394  31.973  24.094  1.00  0.00     0.048 A 
ATOM     20  Cl  UNL A   1      27.792  30.775  20.519  1.00  0.00    -0.084 Cl
ATOM     21  C   UNL A   1      28.716  31.859  22.854  1.00  0.00     0.024 A 
BRANCH  13  22
ATOM     22  C   UNL A   1      33.907  28.903  26.144  1.00  0.00     0.430 C 
ATOM     23  F   UNL A   1      34.484  28.830  24.931  1.00  0.00    -0.167 F 
ATOM     24  F   UNL A   1      34.555  29.953  26.745  1.00  0.00    -0.167 F 
ATOM     25  F   UNL A   1      34.313  27.820  26.855  1.00  0.00    -0.167 F 
ENDBRANCH  13  22
ENDBRANCH   9  11
ENDBRANCH   8   9
ENDBRANCH   7   8
ENDBRANCH   6   7
ENDBRANCH   5   6
ENDBRANCH   4   5
ENDBRANCH   3   4
ENDBRANCH   2   3
ENDBRANCH   1   2
BRANCH   1  26
ATOM     26  C   UNL A   1      36.415  23.124  24.819  1.00  0.00     0.188 C 
BRANCH  26  27
ATOM     27  O   UNL A   1      36.551  21.869  24.171  1.00  0.00    -0.376 OA
BRANCH  27  28
ATOM     28  C   UNL A   1      36.731  20.731  25.006  1.00  0.00     0.202 C 
BRANCH  28  29
ATOM     29  C   UNL A   1      38.172  20.225  25.223  1.00  0.00     0.261 C 
BRANCH  29  30
ATOM     30  O   UNL A   1      39.228  21.208  25.260  1.00  0.00    -0.460 OA
BRANCH  30  31
ATOM     31  C   UNL A   1      40.238  21.039  26.134  1.00  0.00     0.338 C 
ATOM     32  O   UNL A   1      41.046  20.127  26.145  1.00  0.00    -0.246 OA
BRANCH  31  33
ATOM     33  C   UNL A   1      40.380  22.268  26.954  1.00  0.00     0.060 A 
ATOM     34  C   UNL A   1      39.539  23.355  26.666  1.00  0.00     0.016 A 
ATOM     35  C   UNL A   1      41.328  22.367  27.976  1.00  0.00     0.016 A 
ATOM     36  C   UNL A   1      39.701  24.567  27.328  1.00  0.00     0.010 A 
ATOM     37  C   UNL A   1      41.521  23.599  28.611  1.00  0.00     0.010 A 
ATOM     38  C   UNL A   1      40.759  24.720  28.231  1.00  0.00    -0.014 A 
BRANCH  38  39
ATOM     39  C   UNL A   1      41.265  26.094  28.476  1.00  0.00     0.031 A 
ATOM     40  C   UNL A   1      42.628  26.435  27.923  1.00  0.00     0.074 A 
ATOM     41  C   UNL A   1      40.514  27.039  29.067  1.00  0.00     0.049 A 
ATOM     42  N   UNL A   1      43.296  27.558  27.980  1.00  0.00    -0.248 NA
ATOM     43  C   UNL A   1      43.332  25.356  27.212  1.00  0.00     0.031 C 
ATOM     44  C   UNL A   1      39.155  26.848  29.567  1.00  0.00     0.029 A 
ATOM     45  N   UNL A   1      40.791  28.356  29.334  1.00  0.00    -0.354 N 
ATOM     46  C   UNL A   1      44.503  27.311  27.328  1.00  0.00     0.074 A 
ATOM     47  C   UNL A   1      44.491  25.924  26.925  1.00  0.00     0.031 C 
ATOM     48  C   UNL A   1      38.714  28.012  30.079  1.00  0.00     0.029 A 
ATOM     49  C   UNL A   1      39.773  29.016  29.980  1.00  0.00     0.049 A 
ATOM     50  H   UNL A   1      41.640  28.788  29.086  1.00  0.00     0.167 HD
ATOM     51  C   UNL A   1      45.523  28.167  27.080  1.00  0.00     0.034 A 
ATOM     52  C   UNL A   1      39.716  30.279  30.452  1.00  0.00     0.034 A 
ATOM     53  C   UNL A   1      45.519  29.547  27.493  1.00  0.00     0.049 A 
ATOM     54  C   UNL A   1      40.906  31.189  30.249  1.00  0.00     0.074 A 
ATOM     55  C   UNL A   1      46.491  30.509  27.288  1.00  0.00     0.029 A 
ATOM     56  N   UNL A   1      44.498  30.161  28.210  1.00  0.00    -0.354 N 
ATOM     57  N   UNL A   1      42.045  30.945  29.639  1.00  0.00    -0.248 NA
ATOM     58  C   UNL A   1      40.795  32.551  30.787  1.00  0.00     0.031 C 
ATOM     59  C   UNL A   1      46.107  31.670  27.967  1.00  0.00     0.029 A 
ATOM     60  C   UNL A   1      44.838  31.474  28.491  1.00  0.00     0.049 A 
ATOM     61  H   UNL A   1      43.657  29.726  28.479  1.00  0.00     0.167 HD
ATOM     62  C   UNL A   1      42.761  32.142  29.676  1.00  0.00     0.074 A 
ATOM     63  C   UNL A   1      41.921  33.102  30.359  1.00  0.00     0.031 C 
ATOM     64  C   UNL A   1      43.994  32.425  29.176  1.00  0.00     0.034 A 
BRANCH  51  65
ATOM     65  C   UNL A   1      46.749  27.610  26.395  1.00  0.00     0.023 A 
ATOM     66  C   UNL A   1      47.096  27.954  25.077  1.00  0.00     0.031 A 
ATOM     67  C   UNL A   1      47.568  26.685  27.068  1.00  0.00     0.131 A 
ATOM     68  C   UNL A   1      48.181  27.320  24.450  1.00  0.00     0.055 A 
ATOM     69  C   UNL A   1      48.702  26.131  26.471  1.00  0.00     0.041 A 
ATOM     70  F   UNL A   1      47.271  26.289  28.316  1.00  0.00    -0.206 F 
ATOM     71  C   UNL A   1      49.004  26.435  25.148  1.00  0.00     0.022 A 
BRANCH  68  72
ATOM     72  S   UNL A   1      48.399  27.538  22.662  1.00  0.00     0.124 S 
ATOM     73  O   UNL A   1      48.497  26.154  22.206  1.00  0.00    -0.237 OA
ATOM     74  O   UNL A   1      47.185  28.251  22.281  1.00  0.00    -0.237 OA
ATOM     75  O   UNL A   1      49.636  28.310  22.559  1.00  0.00    -0.744 OA
ENDBRANCH  68  72
ENDBRANCH  51  65
BRANCH  52  76
ATOM     76  C   UNL A   1      38.510  30.763  31.186  1.00  0.00     0.023 A 
ATOM     77  C   UNL A   1      37.439  31.369  30.509  1.00  0.00     0.031 A 
ATOM     78  C   UNL A   1      38.442  30.693  32.590  1.00  0.00     0.131 A 
ATOM     79  C   UNL A   1      36.377  31.931  31.236  1.00  0.00     0.055 A 
ATOM     80  C   UNL A   1      37.352  31.193  33.304  1.00  0.00     0.041 A 
ATOM     81  F   UNL A   1      39.441  30.133  33.291  1.00  0.00    -0.206 F 
ATOM     82  C   UNL A   1      36.318  31.830  32.628  1.00  0.00     0.022 A 
BRANCH  79  83
ATOM     83  S   UNL A   1      35.128  32.898  30.344  1.00  0.00     0.124 S 
ATOM     84  O   UNL A   1      34.623  31.917  29.390  1.00  0.00    -0.237 OA
ATOM     85  O   UNL A   1      34.217  33.280  31.417  1.00  0.00    -0.237 OA
ATOM     86  O   UNL A   1      35.900  33.995  29.764  1.00  0.00    -0.744 OA
ENDBRANCH  79  83
ENDBRANCH  52  76
BRANCH  64  87
ATOM     87  C   UNL A   1      44.473  33.857  29.280  1.00  0.00     0.023 A 
ATOM     88  C   UNL A   1      45.378  34.278  30.268  1.00  0.00     0.031 A 
ATOM     89  C   UNL A   1      43.984  34.825  28.382  1.00  0.00     0.131 A 
ATOM     90  C   UNL A   1      45.696  35.639  30.390  1.00  0.00     0.055 A 
ATOM     91  C   UNL A   1      44.375  36.163  28.453  1.00  0.00     0.041 A 
ATOM     92  F   UNL A   1      43.111  34.488  27.418  1.00  0.00    -0.206 F 
ATOM     93  C   UNL A   1      45.220  36.580  29.475  1.00  0.00     0.022 A 
BRANCH  90  94
ATOM     94  S   UNL A   1      46.614  36.187  31.856  1.00  0.00     0.124 S 
ATOM     95  O   UNL A   1      45.798  37.303  32.323  1.00  0.00    -0.237 OA
ATOM     96  O   UNL A   1      46.602  34.994  32.696  1.00  0.00    -0.237 OA
ATOM     97  O   UNL A   1      47.924  36.557  31.322  1.00  0.00    -0.744 OA
ENDBRANCH  90  94
ENDBRANCH  64  87
ENDBRANCH  38  39
ENDBRANCH  31  33
ENDBRANCH  30  31
ENDBRANCH  29  30
ENDBRANCH  28  29
ENDBRANCH  27  28
ENDBRANCH  26  27
ENDBRANCH   1  26
TORSDOF 24
ENDMDL
MODEL 3
REMARK VINA RESULT:     -10.6      2.042      2.621
REMARK SMILES O=C(OCCOCCOCCOCCOC(=O)c1ccc(-c2c3nc(c(-c4cc(S(=O)(=O)[O-])ccc4F)c4ccc([nH]4)c(-c4cc(S(=O)(=O)[O-])ccc4F)c4nc(c(-c5cc(S(=O)(=O)[O-])ccc5F)c5ccc2[nH]5)C=C4)C=C3)cc1)C1=Cc2cc(Cl)ccc2O[C@@H]1C(F)(F)F
REMARK SMILES IDX 10 1 9 2 8 3 7 4 6 5 5 6 4 7 3 8 2 9 1 10 81 11 82 12 91 13
REMARK SMILES IDX 83 14 90 15 84 16 89 17 85 18 88 19 86 20 87 21 92 22 93 23
REMARK SMILES IDX 94 24 95 25 11 26 12 27 13 28 14 29 15 30 16 31 17 32 18 33
REMARK SMILES IDX 19 34 80 35 20 36 79 37 21 38 22 39 23 40 73 41 24 42 78 43
REMARK SMILES IDX 72 44 74 45 25 46 77 47 71 48 70 49 26 51 58 52 38 53 57 54
REMARK SMILES IDX 39 55 42 56 56 57 75 58 40 59 41 60 55 62 76 63 43 64 27 65
REMARK SMILES IDX 28 66 36 67 29 68 35 69 37 70 34 71 30 72 31 73 32 74 33 75
REMARK SMILES IDX 59 76 60 77 68 78 61 79 67 80 69 81 66 82 62 83 63 84 64 85
REMARK SMILES IDX 65 86 44 87 45 88 53 89 46 90 52 91 54 92 51 93 47 94 48 95
REMARK SMILES IDX 49 96 50 97
REMARK H PARENT 74 50 42 61
REMARK Flexibility Score: inf
ROOT
ATOM      1  C   UNL A   1      35.003  23.784  24.637  1.00  0.00     0.188 C 
ENDROOT
BRANCH   1   2
ATOM      2  O   UNL A   1      34.271  23.962  25.830  1.00  0.00    -0.377 OA
BRANCH   2   3
ATOM      3  C   UNL A   1      33.872  22.733  26.394  1.00  0.00     0.188 C 
BRANCH   3   4
ATOM      4  C   UNL A   1      32.999  22.801  27.661  1.00  0.00     0.188 C 
BRANCH   4   5
ATOM      5  O   UNL A   1      31.545  23.004  27.740  1.00  0.00    -0.376 OA
BRANCH   5   6
ATOM      6  C   UNL A   1      30.337  23.292  26.663  1.00  0.00     0.202 C 
BRANCH   6   7
ATOM      7  C   UNL A   1      29.462  25.220  26.142  1.00  0.00     0.261 C 
BRANCH   7   8
ATOM      8  O   UNL A   1      30.172  26.378  25.454  1.00  0.00    -0.460 OA
BRANCH   8   9
ATOM      9  C   UNL A   1      31.175  26.870  26.191  1.00  0.00     0.338 C 
ATOM     10  O   UNL A   1      31.253  26.963  27.390  1.00  0.00    -0.246 OA
BRANCH   9  11
ATOM     11  C   UNL A   1      31.816  27.615  25.125  1.00  0.00     0.087 C 
ATOM     12  C   UNL A   1      30.970  27.779  23.928  1.00  0.00     0.027 C 
ATOM     13  C   UNL A   1      32.381  29.049  26.281  1.00  0.00     0.316 C 
ATOM     14  C   UNL A   1      30.144  29.316  23.479  1.00  0.00     0.019 A 
ATOM     15  O   UNL A   1      31.388  30.679  25.903  1.00  0.00    -0.475 OA
ATOM     16  C   UNL A   1      29.382  29.378  22.342  1.00  0.00     0.032 A 
ATOM     17  C   UNL A   1      30.229  30.727  24.475  1.00  0.00     0.128 A 
ATOM     18  C   UNL A   1      28.777  30.625  22.089  1.00  0.00     0.041 A 
ATOM     19  C   UNL A   1      29.557  31.884  24.176  1.00  0.00     0.048 A 
ATOM     20  Cl  UNL A   1      27.865  30.761  20.618  1.00  0.00    -0.084 Cl
ATOM     21  C   UNL A   1      28.857  31.800  22.946  1.00  0.00     0.024 A 
BRANCH  13  22
ATOM     22  C   UNL A   1      33.991  28.651  26.144  1.00  0.00     0.430 C 
ATOM     23  F   UNL A   1      34.388  27.399  26.431  1.00  0.00    -0.167 F 
ATOM     24  F   UNL A   1      34.300  28.788  24.813  1.00  0.00    -0.167 F 
ATOM     25  F   UNL A   1      34.846  29.504  26.764  1.00  0.00    -0.167 F 
ENDBRANCH  13  22
ENDBRANCH   9  11
ENDBRANCH   8   9
ENDBRANCH   7   8
ENDBRANCH   6   7
ENDBRANCH   5   6
ENDBRANCH   4   5
ENDBRANCH   3   4
ENDBRANCH   2   3
ENDBRANCH   1   2
BRANCH   1  26
ATOM     26  C   UNL A   1      36.342  23.061  24.794  1.00  0.00     0.188 C 
BRANCH  26  27
ATOM     27  O   UNL A   1      36.405  21.816  24.117  1.00  0.00    -0.376 OA
BRANCH  27  28
ATOM     28  C   UNL A   1      36.535  20.652  24.925  1.00  0.00     0.202 C 
BRANCH  28  29
ATOM     29  C   UNL A   1      37.955  20.086  25.140  1.00  0.00     0.261 C 
BRANCH  29  30
ATOM     30  O   UNL A   1      39.049  21.025  25.191  1.00  0.00    -0.460 OA
BRANCH  30  31
ATOM     31  C   UNL A   1      40.024  20.832  26.100  1.00  0.00     0.338 C 
ATOM     32  O   UNL A   1      40.806  19.900  26.139  1.00  0.00    -0.246 OA
BRANCH  31  33
ATOM     33  C   UNL A   1      40.171  22.060  26.920  1.00  0.00     0.060 A 
ATOM     34  C   UNL A   1      39.384  23.176  26.588  1.00  0.00     0.016 A 
ATOM     35  C   UNL A   1      41.070  22.130  27.987  1.00  0.00     0.016 A 
ATOM     36  C   UNL A   1      39.559  24.385  27.253  1.00  0.00     0.010 A 
ATOM     37  C   UNL A   1      41.277  23.357  28.627  1.00  0.00     0.010 A 
ATOM     38  C   UNL A   1      40.576  24.503  28.206  1.00  0.00    -0.014 A 
BRANCH  38  39
ATOM     39  C   UNL A   1      41.119  25.860  28.470  1.00  0.00     0.031 A 
ATOM     40  C   UNL A   1      42.503  26.161  27.948  1.00  0.00     0.074 A 
ATOM     41  C   UNL A   1      40.386  26.824  29.052  1.00  0.00     0.049 A 
ATOM     42  N   UNL A   1      43.205  27.262  28.026  1.00  0.00    -0.248 NA
ATOM     43  C   UNL A   1      43.188  25.065  27.244  1.00  0.00     0.031 C 
ATOM     44  C   UNL A   1      39.011  26.672  29.524  1.00  0.00     0.029 A 
ATOM     45  N   UNL A   1      40.698  28.130  29.334  1.00  0.00    -0.354 N 
ATOM     46  C   UNL A   1      44.416  26.982  27.397  1.00  0.00     0.074 A 
ATOM     47  C   UNL A   1      44.369  25.598  26.985  1.00  0.00     0.031 C 
ATOM     48  C   UNL A   1      38.597  27.846  30.034  1.00  0.00     0.029 A 
ATOM     49  C   UNL A   1      39.688  28.817  29.963  1.00  0.00     0.049 A 
ATOM     50  H   UNL A   1      41.565  28.537  29.106  1.00  0.00     0.167 HD
ATOM     51  C   UNL A   1      45.467  27.807  27.175  1.00  0.00     0.034 A 
ATOM     52  C   UNL A   1      39.660  30.078  30.443  1.00  0.00     0.034 A 
ATOM     53  C   UNL A   1      45.498  29.184  27.598  1.00  0.00     0.049 A 
ATOM     54  C   UNL A   1      40.883  30.953  30.270  1.00  0.00     0.074 A 
ATOM     55  C   UNL A   1      46.503  30.117  27.420  1.00  0.00     0.029 A 
ATOM     56  N   UNL A   1      44.481  29.825  28.298  1.00  0.00    -0.354 N 
ATOM     57  N   UNL A   1      42.025  30.677  29.682  1.00  0.00    -0.248 NA
ATOM     58  C   UNL A   1      40.803  32.314  30.815  1.00  0.00     0.031 C 
ATOM     59  C   UNL A   1      46.141  31.284  28.098  1.00  0.00     0.029 A 
ATOM     60  C   UNL A   1      44.857  31.126  28.595  1.00  0.00     0.049 A 
ATOM     61  H   UNL A   1      43.622  29.415  28.547  1.00  0.00     0.167 HD
ATOM     62  C   UNL A   1      42.777  31.851  29.741  1.00  0.00     0.074 A 
ATOM     63  C   UNL A   1      41.953  32.832  30.414  1.00  0.00     0.031 C 
ATOM     64  C   UNL A   1      44.028  32.098  29.269  1.00  0.00     0.034 A 
BRANCH  51  65
ATOM     65  C   UNL A   1      46.690  27.217  26.513  1.00  0.00     0.023 A 
ATOM     66  C   UNL A   1      47.758  26.676  27.250  1.00  0.00     0.031 A 
ATOM     67  C   UNL A   1      46.803  27.231  25.110  1.00  0.00     0.131 A 
ATOM     68  C   UNL A   1      48.919  26.246  26.589  1.00  0.00     0.055 A 
ATOM     69  C   UNL A   1      47.921  26.713  24.454  1.00  0.00     0.041 A 
ATOM     70  F   UNL A   1      45.833  27.765  24.351  1.00  0.00    -0.206 F 
ATOM     71  C   UNL A   1      48.995  26.231  25.195  1.00  0.00     0.022 A 
BRANCH  68  72
ATOM     72  S   UNL A   1      50.391  25.866  27.578  1.00  0.00     0.124 S 
ATOM     73  O   UNL A   1      50.028  26.432  28.875  1.00  0.00    -0.237 OA
ATOM     74  O   UNL A   1      50.451  24.410  27.511  1.00  0.00    -0.237 OA
ATOM     75  O   UNL A   1      51.465  26.569  26.878  1.00  0.00    -0.744 OA
ENDBRANCH  68  72
ENDBRANCH  51  65
BRANCH  52  76
ATOM     76  C   UNL A   1      38.455  30.595  31.155  1.00  0.00     0.023 A 
ATOM     77  C   UNL A   1      37.421  31.245  30.461  1.00  0.00     0.031 A 
ATOM     78  C   UNL A   1      38.353  30.513  32.556  1.00  0.00     0.131 A 
ATOM     79  C   UNL A   1      36.362  31.835  31.171  1.00  0.00     0.055 A 
ATOM     80  C   UNL A   1      37.265  31.042  33.252  1.00  0.00     0.041 A 
ATOM     81  F   UNL A   1      39.317  29.912  33.273  1.00  0.00    -0.206 F 
ATOM     82  C   UNL A   1      36.268  31.721  32.560  1.00  0.00     0.022 A 
BRANCH  79  83
ATOM     83  S   UNL A   1      35.168  32.853  30.262  1.00  0.00     0.124 S 
ATOM     84  O   UNL A   1      34.631  31.893  29.304  1.00  0.00    -0.237 OA
ATOM     85  O   UNL A   1      34.261  33.276  31.325  1.00  0.00    -0.237 OA
ATOM     86  O   UNL A   1      35.993  33.915  29.691  1.00  0.00    -0.744 OA
ENDBRANCH  79  83
ENDBRANCH  52  76
BRANCH  64  87
ATOM     87  C   UNL A   1      44.549  33.514  29.392  1.00  0.00     0.023 A 
ATOM     88  C   UNL A   1      44.366  34.473  28.382  1.00  0.00     0.031 A 
ATOM     89  C   UNL A   1      45.272  33.897  30.538  1.00  0.00     0.131 A 
ATOM     90  C   UNL A   1      44.972  35.734  28.498  1.00  0.00     0.055 A 
ATOM     91  C   UNL A   1      45.795  35.181  30.687  1.00  0.00     0.041 A 
ATOM     92  F   UNL A   1      45.487  33.024  31.536  1.00  0.00    -0.206 F 
ATOM     93  C   UNL A   1      45.664  36.102  29.653  1.00  0.00     0.022 A 
BRANCH  90  94
ATOM     94  S   UNL A   1      44.977  36.829  27.051  1.00  0.00     0.124 S 
ATOM     95  O   UNL A   1      44.765  35.885  25.958  1.00  0.00    -0.237 OA
ATOM     96  O   UNL A   1      43.866  37.731  27.338  1.00  0.00    -0.237 OA
ATOM     97  O   UNL A   1      46.302  37.444  27.092  1.00  0.00    -0.744 OA
ENDBRANCH  90  94
ENDBRANCH  64  87
ENDBRANCH  38  39
ENDBRANCH  31  33
ENDBRANCH  30  31
ENDBRANCH  29  30
ENDBRANCH  28  29
ENDBRANCH  27  28
ENDBRANCH  26  27
ENDBRANCH   1  26
TORSDOF 24
ENDMDL
