MODEL 1
REMARK VINA RESULT:      -5.9      0.000      0.000
REMARK SMILES NC(=O)C[C@H](NC(=O)C1(c2ccccc2)CCN(C(=O)[C@@H]2CCC[NH2+]2)CC1)C(=O)OCCOCCOCCOCCOC(=O)c1ccc(-c2c3nc(c(-c4cc(S(=O)(=O)[O-])ccc4F)c4ccc([nH]4)c(-c4cc(S(=O)(=O)[O-])ccc4F)c4nc(c(-c5cc(S(=O)(=O)[O-])ccc5F)c5ccc2[nH]5)C=C4)C=C3)cc1
REMARK SMILES IDX 36 1 35 2 34 3 33 4 32 5 31 6 30 7 28 8 29 9 5 10 4 11 2 12
REMARK SMILES IDX 1 13 3 16 6 17 7 18 8 20 9 21 16 22 27 23 17 24 26 25 18 26
REMARK SMILES IDX 19 27 20 28 10 29 11 30 15 31 12 32 14 33 13 34 21 35 22 36
REMARK SMILES IDX 25 37 23 38 24 39 37 42 38 43 39 44 40 45 41 46 42 47 43 48
REMARK SMILES IDX 44 49 45 50 46 51 107 52 47 53 106 54 48 55 49 56 50 57
REMARK SMILES IDX 100 58 51 59 105 60 99 61 101 62 52 63 104 64 98 65 97 66
REMARK SMILES IDX 53 68 85 69 65 70 84 71 66 72 69 73 83 74 102 75 67 76 68 77
REMARK SMILES IDX 82 79 103 80 70 81 54 82 55 83 63 84 56 85 62 86 64 87 61 88
REMARK SMILES IDX 57 89 58 90 59 91 60 92 86 93 87 94 95 95 88 96 94 97 96 98
REMARK SMILES IDX 93 99 89 100 90 101 91 102 92 103 71 104 72 105 80 106
REMARK SMILES IDX 73 107 79 108 81 109 78 110 74 111 75 112 76 113 77 114
REMARK H PARENT 1 14 1 15 6 19 25 40 25 41 101 67 69 78
REMARK Flexibility Score: inf
ROOT
ATOM      1  O   UNL A   1      44.067  33.785  42.629  1.00  0.00    -0.377 OA
ENDROOT
BRANCH   1   2
ATOM      2  C   UNL A   1      44.102  35.191  42.590  1.00  0.00     0.188 C 
BRANCH   2   3
ATOM      3  C   UNL A   1      45.489  35.839  42.454  1.00  0.00     0.188 C 
BRANCH   3   4
ATOM      4  O   UNL A   1      45.843  36.606  41.318  1.00  0.00    -0.376 OA
BRANCH   4   5
ATOM      5  C   UNL A   1      45.292  37.900  41.112  1.00  0.00     0.202 C 
BRANCH   5   6
ATOM      6  C   UNL A   1      43.827  38.079  40.682  1.00  0.00     0.261 C 
BRANCH   6   7
ATOM      7  O   UNL A   1      43.470  37.435  39.444  1.00  0.00    -0.462 OA
BRANCH   7   8
ATOM      8  C   UNL A   1      43.937  38.023  38.327  1.00  0.00     0.329 C 
ATOM      9  O   UNL A   1      44.264  39.205  38.238  1.00  0.00    -0.250 OA
BRANCH   8  10
ATOM     10  C   UNL A   1      43.998  37.100  37.092  1.00  0.00     0.201 C 
BRANCH  10  11
ATOM     11  C   UNL A   1      45.009  37.727  36.127  1.00  0.00     0.136 C 
BRANCH  11  12
ATOM     12  C   UNL A   1      44.297  38.550  35.079  1.00  0.00     0.220 C 
ATOM     13  N   UNL A   1      44.188  39.882  35.337  1.00  0.00    -0.370 N 
ATOM     14  H   UNL A   1      43.736  40.473  34.692  1.00  0.00     0.159 HD
ATOM     15  H   UNL A   1      44.563  40.254  36.168  1.00  0.00     0.159 HD
ATOM     16  O   UNL A   1      43.871  38.070  34.037  1.00  0.00    -0.275 OA
ENDBRANCH  11  12
ENDBRANCH  10  11
BRANCH  10  17
ATOM     17  N   UNL A   1      42.840  36.589  36.315  1.00  0.00    -0.342 N 
ATOM     18  C   UNL A   1      42.545  35.497  35.546  1.00  0.00     0.231 C 
ATOM     19  H   UNL A   1      42.075  37.205  36.368  1.00  0.00     0.164 HD
ATOM     20  O   UNL A   1      41.465  35.604  34.939  1.00  0.00    -0.274 OA
BRANCH  18  21
ATOM     21  C   UNL A   1      43.383  34.171  35.337  1.00  0.00     0.077 C 
ATOM     22  C   UNL A   1      44.881  34.313  34.999  1.00  0.00     0.043 C 
ATOM     23  C   UNL A   1      42.711  33.377  34.172  1.00  0.00     0.043 C 
ATOM     24  C   UNL A   1      45.201  34.724  33.565  1.00  0.00     0.121 C 
ATOM     25  C   UNL A   1      43.032  33.931  32.796  1.00  0.00     0.121 C 
ATOM     26  N   UNL A   1      44.478  33.957  32.583  1.00  0.00    -0.337 N 
ATOM     27  C   UNL A   1      45.192  33.596  31.446  1.00  0.00     0.280 C 
ATOM     28  O   UNL A   1      46.380  33.914  31.314  1.00  0.00    -0.268 OA
BRANCH  21  29
ATOM     29  C   UNL A   1      43.300  33.294  36.654  1.00  0.00    -0.032 A 
ATOM     30  C   UNL A   1      44.433  32.798  37.333  1.00  0.00     0.005 A 
ATOM     31  C   UNL A   1      42.056  33.041  37.261  1.00  0.00     0.005 A 
ATOM     32  C   UNL A   1      44.328  32.139  38.568  1.00  0.00     0.000 A 
ATOM     33  C   UNL A   1      41.944  32.359  38.480  1.00  0.00     0.000 A 
ATOM     34  C   UNL A   1      43.083  31.919  39.142  1.00  0.00     0.000 A 
ENDBRANCH  21  29
BRANCH  27  35
ATOM     35  C   UNL A   1      44.530  32.802  30.322  1.00  0.00     0.272 C 
ATOM     36  C   UNL A   1      44.286  31.339  30.630  1.00  0.00     0.081 C 
ATOM     37  N   UNL A   1      45.279  32.881  29.049  1.00  0.00    -0.336 N 
ATOM     38  C   UNL A   1      44.264  30.714  29.252  1.00  0.00     0.068 C 
ATOM     39  C   UNL A   1      45.219  31.561  28.424  1.00  0.00     0.261 C 
ATOM     40  H   UNL A   1      46.250  33.137  29.231  1.00  0.00     0.346 HD
ATOM     41  H   UNL A   1      44.874  33.589  28.436  1.00  0.00     0.346 HD
ENDBRANCH  27  35
ENDBRANCH  18  21
ENDBRANCH  10  17
ENDBRANCH   8  10
ENDBRANCH   7   8
ENDBRANCH   6   7
ENDBRANCH   5   6
ENDBRANCH   4   5
ENDBRANCH   3   4
ENDBRANCH   2   3
ENDBRANCH   1   2
BRANCH   1  42
ATOM     42  C   UNL A   1      42.818  33.194  42.956  1.00  0.00     0.188 C 
BRANCH  42  43
ATOM     43  C   UNL A   1      41.543  33.865  42.404  1.00  0.00     0.188 C 
BRANCH  43  44
ATOM     44  O   UNL A   1      41.660  34.396  41.086  1.00  0.00    -0.376 OA
BRANCH  44  45
ATOM     45  C   UNL A   1      40.478  34.772  40.389  1.00  0.00     0.202 C 
BRANCH  45  46
ATOM     46  C   UNL A   1      39.134  34.208  40.886  1.00  0.00     0.261 C 
BRANCH  46  47
ATOM     47  O   UNL A   1      38.746  32.944  40.330  1.00  0.00    -0.460 OA
BRANCH  47  48
ATOM     48  C   UNL A   1      37.542  32.882  39.715  1.00  0.00     0.338 C 
ATOM     49  O   UNL A   1      36.484  33.290  40.140  1.00  0.00    -0.246 OA
BRANCH  48  50
ATOM     50  C   UNL A   1      37.784  32.453  38.322  1.00  0.00     0.060 A 
ATOM     51  C   UNL A   1      37.591  31.102  38.006  1.00  0.00     0.016 A 
ATOM     52  C   UNL A   1      38.171  33.367  37.339  1.00  0.00     0.016 A 
ATOM     53  C   UNL A   1      37.809  30.656  36.707  1.00  0.00     0.010 A 
ATOM     54  C   UNL A   1      38.423  32.910  36.042  1.00  0.00     0.010 A 
ATOM     55  C   UNL A   1      38.272  31.548  35.733  1.00  0.00    -0.014 A 
BRANCH  55  56
ATOM     56  C   UNL A   1      38.801  30.988  34.468  1.00  0.00     0.031 A 
ATOM     57  C   UNL A   1      40.126  30.278  34.511  1.00  0.00     0.074 A 
ATOM     58  C   UNL A   1      38.074  31.027  33.339  1.00  0.00     0.049 A 
ATOM     59  N   UNL A   1      40.772  29.665  33.556  1.00  0.00    -0.248 NA
ATOM     60  C   UNL A   1      40.809  30.253  35.814  1.00  0.00     0.031 C 
ATOM     61  C   UNL A   1      36.752  31.635  33.208  1.00  0.00     0.029 A 
ATOM     62  N   UNL A   1      38.343  30.531  32.089  1.00  0.00    -0.354 N 
ATOM     63  C   UNL A   1      41.934  29.175  34.142  1.00  0.00     0.074 A 
ATOM     64  C   UNL A   1      41.924  29.604  35.523  1.00  0.00     0.031 C 
ATOM     65  C   UNL A   1      36.321  31.472  31.945  1.00  0.00     0.029 A 
ATOM     66  C   UNL A   1      37.351  30.782  31.170  1.00  0.00     0.049 A 
ATOM     67  H   UNL A   1      39.167  30.039  31.870  1.00  0.00     0.167 HD
ATOM     68  C   UNL A   1      42.913  28.427  33.578  1.00  0.00     0.034 A 
ATOM     69  C   UNL A   1      37.295  30.500  29.854  1.00  0.00     0.034 A 
ATOM     70  C   UNL A   1      42.911  28.030  32.192  1.00  0.00     0.049 A 
ATOM     71  C   UNL A   1      38.451  29.756  29.224  1.00  0.00     0.074 A 
ATOM     72  C   UNL A   1      43.850  27.275  31.510  1.00  0.00     0.029 A 
ATOM     73  N   UNL A   1      41.930  28.370  31.269  1.00  0.00    -0.354 N 
ATOM     74  N   UNL A   1      39.544  29.292  29.787  1.00  0.00    -0.248 NA
ATOM     75  C   UNL A   1      38.358  29.489  27.784  1.00  0.00     0.031 C 
ATOM     76  C   UNL A   1      43.480  27.233  30.162  1.00  0.00     0.029 A 
ATOM     77  C   UNL A   1      42.262  27.878  30.016  1.00  0.00     0.049 A 
ATOM     78  H   UNL A   1      41.117  28.886  31.474  1.00  0.00     0.167 HD
ATOM     79  C   UNL A   1      40.253  28.653  28.773  1.00  0.00     0.074 A 
ATOM     80  C   UNL A   1      39.449  28.770  27.574  1.00  0.00     0.031 C 
ATOM     81  C   UNL A   1      41.457  28.025  28.824  1.00  0.00     0.034 A 
BRANCH  68  82
ATOM     82  C   UNL A   1      44.088  28.052  34.450  1.00  0.00     0.023 A 
ATOM     83  C   UNL A   1      44.112  26.859  35.194  1.00  0.00     0.031 A 
ATOM     84  C   UNL A   1      45.187  28.921  34.569  1.00  0.00     0.131 A 
ATOM     85  C   UNL A   1      45.175  26.603  36.073  1.00  0.00     0.055 A 
ATOM     86  C   UNL A   1      46.282  28.621  35.380  1.00  0.00     0.041 A 
ATOM     87  F   UNL A   1      45.207  30.090  33.908  1.00  0.00    -0.206 F 
ATOM     88  C   UNL A   1      46.273  27.462  36.151  1.00  0.00     0.022 A 
BRANCH  85  89
ATOM     89  S   UNL A   1      45.031  25.211  37.229  1.00  0.00     0.124 S 
ATOM     90  O   UNL A   1      44.620  25.888  38.457  1.00  0.00    -0.237 OA
ATOM     91  O   UNL A   1      44.021  24.375  36.592  1.00  0.00    -0.237 OA
ATOM     92  O   UNL A   1      46.380  24.648  37.258  1.00  0.00    -0.744 OA
ENDBRANCH  85  89
ENDBRANCH  68  82
BRANCH  69  93
ATOM     93  C   UNL A   1      36.137  30.951  29.028  1.00  0.00     0.023 A 
ATOM     94  C   UNL A   1      35.254  30.029  28.442  1.00  0.00     0.031 A 
ATOM     95  C   UNL A   1      35.934  32.317  28.758  1.00  0.00     0.131 A 
ATOM     96  C   UNL A   1      34.243  30.480  27.578  1.00  0.00     0.055 A 
ATOM     97  C   UNL A   1      34.889  32.764  27.948  1.00  0.00     0.041 A 
ATOM     98  F   UNL A   1      36.752  33.243  29.284  1.00  0.00    -0.206 F 
ATOM     99  C   UNL A   1      34.044  31.842  27.340  1.00  0.00     0.022 A 
BRANCH  96 100
ATOM    100  S   UNL A   1      33.253  29.251  26.685  1.00  0.00     0.124 S 
ATOM    101  O   UNL A   1      34.206  28.764  25.695  1.00  0.00    -0.237 OA
ATOM    102  O   UNL A   1      32.899  28.317  27.749  1.00  0.00    -0.237 OA
ATOM    103  O   UNL A   1      32.140  30.033  26.149  1.00  0.00    -0.744 OA
ENDBRANCH  96 100
ENDBRANCH  69  93
BRANCH  81 104
ATOM    104  C   UNL A   1      41.953  27.389  27.544  1.00  0.00     0.023 A 
ATOM    105  C   UNL A   1      41.896  25.999  27.341  1.00  0.00     0.031 A 
ATOM    106  C   UNL A   1      42.515  28.181  26.528  1.00  0.00     0.131 A 
ATOM    107  C   UNL A   1      42.465  25.437  26.187  1.00  0.00     0.055 A 
ATOM    108  C   UNL A   1      43.008  27.625  25.347  1.00  0.00     0.041 A 
ATOM    109  F   UNL A   1      42.599  29.514  26.666  1.00  0.00    -0.206 F 
ATOM    110  C   UNL A   1      43.002  26.243  25.180  1.00  0.00     0.022 A 
BRANCH 107 111
ATOM    111  S   UNL A   1      42.616  23.633  26.086  1.00  0.00     0.124 S 
ATOM    112  O   UNL A   1      41.241  23.202  26.318  1.00  0.00    -0.237 OA
ATOM    113  O   UNL A   1      43.125  23.438  24.732  1.00  0.00    -0.237 OA
ATOM    114  O   UNL A   1      43.557  23.308  27.155  1.00  0.00    -0.744 OA
ENDBRANCH 107 111
ENDBRANCH  81 104
ENDBRANCH  55  56
ENDBRANCH  48  50
ENDBRANCH  47  48
ENDBRANCH  46  47
ENDBRANCH  45  46
ENDBRANCH  44  45
ENDBRANCH  43  44
ENDBRANCH  42  43
ENDBRANCH   1  42
TORSDOF 29
ENDMDL
MODEL 2
REMARK VINA RESULT:      -5.8      5.867     11.667
REMARK SMILES NC(=O)C[C@H](NC(=O)C1(c2ccccc2)CCN(C(=O)[C@@H]2CCC[NH2+]2)CC1)C(=O)OCCOCCOCCOCCOC(=O)c1ccc(-c2c3nc(c(-c4cc(S(=O)(=O)[O-])ccc4F)c4ccc([nH]4)c(-c4cc(S(=O)(=O)[O-])ccc4F)c4nc(c(-c5cc(S(=O)(=O)[O-])ccc5F)c5ccc2[nH]5)C=C4)C=C3)cc1
REMARK SMILES IDX 36 1 35 2 34 3 33 4 32 5 31 6 30 7 28 8 29 9 5 10 4 11 2 12
REMARK SMILES IDX 1 13 3 16 6 17 7 18 8 20 9 21 16 22 27 23 17 24 26 25 18 26
REMARK SMILES IDX 19 27 20 28 10 29 11 30 15 31 12 32 14 33 13 34 21 35 22 36
REMARK SMILES IDX 25 37 23 38 24 39 37 42 38 43 39 44 40 45 41 46 42 47 43 48
REMARK SMILES IDX 44 49 45 50 46 51 107 52 47 53 106 54 48 55 49 56 50 57
REMARK SMILES IDX 100 58 51 59 105 60 99 61 101 62 52 63 104 64 98 65 97 66
REMARK SMILES IDX 53 68 85 69 65 70 84 71 66 72 69 73 83 74 102 75 67 76 68 77
REMARK SMILES IDX 82 79 103 80 70 81 54 82 55 83 63 84 56 85 62 86 64 87 61 88
REMARK SMILES IDX 57 89 58 90 59 91 60 92 86 93 87 94 95 95 88 96 94 97 96 98
REMARK SMILES IDX 93 99 89 100 90 101 91 102 92 103 71 104 72 105 80 106
REMARK SMILES IDX 73 107 79 108 81 109 78 110 74 111 75 112 76 113 77 114
REMARK H PARENT 1 14 1 15 6 19 25 40 25 41 101 67 69 78
REMARK Flexibility Score: inf
ROOT
ATOM      1  O   UNL A   1      44.332  30.996  33.962  1.00  0.00    -0.377 OA
ENDROOT
BRANCH   1   2
ATOM      2  C   UNL A   1      43.916  29.795  33.357  1.00  0.00     0.188 C 
BRANCH   2   3
ATOM      3  C   UNL A   1      43.347  28.717  34.293  1.00  0.00     0.188 C 
BRANCH   3   4
ATOM      4  O   UNL A   1      42.071  28.144  34.079  1.00  0.00    -0.376 OA
BRANCH   4   5
ATOM      5  C   UNL A   1      41.023  28.899  33.485  1.00  0.00     0.202 C 
BRANCH   5   6
ATOM      6  C   UNL A   1      39.975  28.229  32.583  1.00  0.00     0.261 C 
BRANCH   6   7
ATOM      7  O   UNL A   1      39.085  29.135  31.903  1.00  0.00    -0.462 OA
BRANCH   7   8
ATOM      8  C   UNL A   1      37.802  29.105  32.308  1.00  0.00     0.329 C 
ATOM      9  O   UNL A   1      37.362  28.377  33.196  1.00  0.00    -0.250 OA
BRANCH   8  10
ATOM     10  C   UNL A   1      36.859  30.045  31.528  1.00  0.00     0.201 C 
BRANCH  10  11
ATOM     11  C   UNL A   1      37.603  30.453  30.255  1.00  0.00     0.136 C 
BRANCH  11  12
ATOM     12  C   UNL A   1      36.634  30.619  29.107  1.00  0.00     0.220 C 
ATOM     13  N   UNL A   1      35.657  29.676  29.008  1.00  0.00    -0.370 N 
ATOM     14  H   UNL A   1      34.994  29.728  28.282  1.00  0.00     0.159 HD
ATOM     15  H   UNL A   1      35.613  28.943  29.664  1.00  0.00     0.159 HD
ATOM     16  O   UNL A   1      36.689  31.559  28.325  1.00  0.00    -0.275 OA
ENDBRANCH  11  12
ENDBRANCH  10  11
BRANCH  10  17
ATOM     17  N   UNL A   1      36.146  31.228  32.073  1.00  0.00    -0.342 N 
ATOM     18  C   UNL A   1      36.448  32.332  32.822  1.00  0.00     0.231 C 
ATOM     19  H   UNL A   1      35.192  31.213  31.829  1.00  0.00     0.164 HD
ATOM     20  O   UNL A   1      35.443  32.968  33.184  1.00  0.00    -0.274 OA
BRANCH  18  21
ATOM     21  C   UNL A   1      37.868  32.871  33.270  1.00  0.00     0.077 C 
ATOM     22  C   UNL A   1      38.788  31.910  34.050  1.00  0.00     0.043 C 
ATOM     23  C   UNL A   1      37.623  34.123  34.172  1.00  0.00     0.043 C 
ATOM     24  C   UNL A   1      38.424  31.687  35.515  1.00  0.00     0.121 C 
ATOM     25  C   UNL A   1      37.182  33.779  35.582  1.00  0.00     0.121 C 
ATOM     26  N   UNL A   1      38.167  32.913  36.227  1.00  0.00    -0.337 N 
ATOM     27  C   UNL A   1      38.658  32.979  37.525  1.00  0.00     0.280 C 
ATOM     28  O   UNL A   1      39.287  32.032  38.016  1.00  0.00    -0.268 OA
BRANCH  21  29
ATOM     29  C   UNL A   1      38.677  33.327  31.987  1.00  0.00    -0.032 A 
ATOM     30  C   UNL A   1      38.164  34.215  31.017  1.00  0.00     0.005 A 
ATOM     31  C   UNL A   1      40.010  32.917  31.806  1.00  0.00     0.005 A 
ATOM     32  C   UNL A   1      38.955  34.701  29.965  1.00  0.00     0.000 A 
ATOM     33  C   UNL A   1      40.795  33.378  30.741  1.00  0.00     0.000 A 
ATOM     34  C   UNL A   1      40.272  34.283  29.827  1.00  0.00     0.000 A 
ENDBRANCH  21  29
BRANCH  27  35
ATOM     35  C   UNL A   1      38.431  34.216  38.390  1.00  0.00     0.272 C 
ATOM     36  C   UNL A   1      39.407  35.350  38.153  1.00  0.00     0.081 C 
ATOM     37  N   UNL A   1      38.430  33.910  39.837  1.00  0.00    -0.336 N 
ATOM     38  C   UNL A   1      39.381  36.085  39.476  1.00  0.00     0.068 C 
ATOM     39  C   UNL A   1      39.116  35.008  40.517  1.00  0.00     0.261 C 
ATOM     40  H   UNL A   1      38.922  33.033  40.008  1.00  0.00     0.346 HD
ATOM     41  H   UNL A   1      37.475  33.812  40.184  1.00  0.00     0.346 HD
ENDBRANCH  27  35
ENDBRANCH  18  21
ENDBRANCH  10  17
ENDBRANCH   8  10
ENDBRANCH   7   8
ENDBRANCH   6   7
ENDBRANCH   5   6
ENDBRANCH   4   5
ENDBRANCH   3   4
ENDBRANCH   2   3
ENDBRANCH   1   2
BRANCH   1  42
ATOM     42  C   UNL A   1      43.604  31.411  35.108  1.00  0.00     0.188 C 
BRANCH  42  43
ATOM     43  C   UNL A   1      42.295  32.195  34.878  1.00  0.00     0.188 C 
BRANCH  43  44
ATOM     44  O   UNL A   1      41.872  33.001  35.974  1.00  0.00    -0.376 OA
BRANCH  44  45
ATOM     45  C   UNL A   1      42.686  34.095  36.379  1.00  0.00     0.202 C 
BRANCH  45  46
ATOM     46  C   UNL A   1      42.769  35.319  35.448  1.00  0.00     0.261 C 
BRANCH  46  47
ATOM     47  O   UNL A   1      43.777  35.259  34.428  1.00  0.00    -0.460 OA
BRANCH  47  48
ATOM     48  C   UNL A   1      43.356  35.256  33.142  1.00  0.00     0.338 C 
ATOM     49  O   UNL A   1      42.376  35.807  32.694  1.00  0.00    -0.246 OA
BRANCH  48  50
ATOM     50  C   UNL A   1      44.441  34.668  32.329  1.00  0.00     0.060 A 
ATOM     51  C   UNL A   1      44.347  34.766  30.935  1.00  0.00     0.016 A 
ATOM     52  C   UNL A   1      45.544  34.053  32.928  1.00  0.00     0.016 A 
ATOM     53  C   UNL A   1      45.346  34.225  30.133  1.00  0.00     0.010 A 
ATOM     54  C   UNL A   1      46.529  33.479  32.119  1.00  0.00     0.010 A 
ATOM     55  C   UNL A   1      46.415  33.538  30.720  1.00  0.00    -0.014 A 
BRANCH  55  56
ATOM     56  C   UNL A   1      47.272  32.705  29.847  1.00  0.00     0.031 A 
ATOM     57  C   UNL A   1      46.715  31.399  29.351  1.00  0.00     0.074 A 
ATOM     58  C   UNL A   1      48.472  33.146  29.432  1.00  0.00     0.049 A 
ATOM     59  N   UNL A   1      47.247  30.521  28.542  1.00  0.00    -0.248 NA
ATOM     60  C   UNL A   1      45.371  31.040  29.830  1.00  0.00     0.031 C 
ATOM     61  C   UNL A   1      49.073  34.425  29.804  1.00  0.00     0.029 A 
ATOM     62  N   UNL A   1      49.391  32.571  28.593  1.00  0.00    -0.354 N 
ATOM     63  C   UNL A   1      46.302  29.510  28.410  1.00  0.00     0.074 A 
ATOM     64  C   UNL A   1      45.184  29.862  29.258  1.00  0.00     0.031 C 
ATOM     65  C   UNL A   1      50.264  34.540  29.191  1.00  0.00     0.029 A 
ATOM     66  C   UNL A   1      50.525  33.329  28.414  1.00  0.00     0.049 A 
ATOM     67  H   UNL A   1      49.252  31.699  28.159  1.00  0.00     0.167 HD
ATOM     68  C   UNL A   1      46.359  28.396  27.641  1.00  0.00     0.034 A 
ATOM     69  C   UNL A   1      51.646  33.062  27.717  1.00  0.00     0.034 A 
ATOM     70  C   UNL A   1      47.494  28.056  26.819  1.00  0.00     0.049 A 
ATOM     71  C   UNL A   1      51.730  31.761  26.951  1.00  0.00     0.074 A 
ATOM     72  C   UNL A   1      47.666  26.953  26.001  1.00  0.00     0.029 A 
ATOM     73  N   UNL A   1      48.660  28.806  26.724  1.00  0.00    -0.354 N 
ATOM     74  N   UNL A   1      50.828  30.813  26.827  1.00  0.00    -0.248 NA
ATOM     75  C   UNL A   1      52.977  31.502  26.223  1.00  0.00     0.031 C 
ATOM     76  C   UNL A   1      48.964  26.993  25.481  1.00  0.00     0.029 A 
ATOM     77  C   UNL A   1      49.571  28.169  25.895  1.00  0.00     0.049 A 
ATOM     78  H   UNL A   1      48.817  29.665  27.178  1.00  0.00     0.167 HD
ATOM     79  C   UNL A   1      51.391  29.860  25.983  1.00  0.00     0.074 A 
ATOM     80  C   UNL A   1      52.697  30.363  25.609  1.00  0.00     0.031 C 
ATOM     81  C   UNL A   1      50.880  28.676  25.552  1.00  0.00     0.034 A 
BRANCH  68  82
ATOM     82  C   UNL A   1      45.188  27.445  27.710  1.00  0.00     0.023 A 
ATOM     83  C   UNL A   1      44.070  27.578  26.868  1.00  0.00     0.031 A 
ATOM     84  C   UNL A   1      45.173  26.409  28.661  1.00  0.00     0.131 A 
ATOM     85  C   UNL A   1      42.959  26.738  27.040  1.00  0.00     0.055 A 
ATOM     86  C   UNL A   1      44.101  25.523  28.771  1.00  0.00     0.041 A 
ATOM     87  F   UNL A   1      46.198  26.251  29.515  1.00  0.00    -0.206 F 
ATOM     88  C   UNL A   1      42.978  25.694  27.967  1.00  0.00     0.022 A 
BRANCH  85  89
ATOM     89  S   UNL A   1      41.429  27.126  26.144  1.00  0.00     0.124 S 
ATOM     90  O   UNL A   1      41.292  25.958  25.276  1.00  0.00    -0.237 OA
ATOM     91  O   UNL A   1      40.453  27.240  27.220  1.00  0.00    -0.237 OA
ATOM     92  O   UNL A   1      41.745  28.373  25.451  1.00  0.00    -0.744 OA
ENDBRANCH  85  89
ENDBRANCH  68  82
BRANCH  69  93
ATOM     93  C   UNL A   1      52.798  34.011  27.735  1.00  0.00     0.023 A 
ATOM     94  C   UNL A   1      52.962  34.981  26.734  1.00  0.00     0.031 A 
ATOM     95  C   UNL A   1      53.791  33.917  28.727  1.00  0.00     0.131 A 
ATOM     96  C   UNL A   1      54.115  35.783  26.717  1.00  0.00     0.055 A 
ATOM     97  C   UNL A   1      54.906  34.759  28.741  1.00  0.00     0.041 A 
ATOM     98  F   UNL A   1      53.692  33.003  29.705  1.00  0.00    -0.206 F 
ATOM     99  C   UNL A   1      55.079  35.689  27.723  1.00  0.00     0.022 A 
BRANCH  96 100
ATOM    100  S   UNL A   1      54.388  36.881  25.300  1.00  0.00     0.124 S 
ATOM    101  O   UNL A   1      55.237  37.913  25.884  1.00  0.00    -0.237 OA
ATOM    102  O   UNL A   1      55.031  35.987  24.343  1.00  0.00    -0.237 OA
ATOM    103  O   UNL A   1      53.039  37.312  24.939  1.00  0.00    -0.744 OA
ENDBRANCH  96 100
ENDBRANCH  69  93
BRANCH  81 104
ATOM    104  C   UNL A   1      51.733  27.868  24.600  1.00  0.00     0.023 A 
ATOM    105  C   UNL A   1      51.638  28.029  23.206  1.00  0.00     0.031 A 
ATOM    106  C   UNL A   1      52.631  26.904  25.091  1.00  0.00     0.131 A 
ATOM    107  C   UNL A   1      52.365  27.184  22.353  1.00  0.00     0.055 A 
ATOM    108  C   UNL A   1      53.412  26.122  24.239  1.00  0.00     0.041 A 
ATOM    109  F   UNL A   1      52.763  26.703  26.412  1.00  0.00    -0.206 F 
ATOM    110  C   UNL A   1      53.267  26.247  22.861  1.00  0.00     0.022 A 
BRANCH 107 111
ATOM    111  S   UNL A   1      52.014  27.238  20.574  1.00  0.00     0.124 S 
ATOM    112  O   UNL A   1      53.171  27.964  20.060  1.00  0.00    -0.237 OA
ATOM    113  O   UNL A   1      51.944  25.822  20.227  1.00  0.00    -0.237 OA
ATOM    114  O   UNL A   1      50.745  27.959  20.498  1.00  0.00    -0.744 OA
ENDBRANCH 107 111
ENDBRANCH  81 104
ENDBRANCH  55  56
ENDBRANCH  48  50
ENDBRANCH  47  48
ENDBRANCH  46  47
ENDBRANCH  45  46
ENDBRANCH  44  45
ENDBRANCH  43  44
ENDBRANCH  42  43
ENDBRANCH   1  42
TORSDOF 29
ENDMDL
MODEL 3
REMARK VINA RESULT:      -5.7      4.958     12.363
REMARK SMILES NC(=O)C[C@H](NC(=O)C1(c2ccccc2)CCN(C(=O)[C@@H]2CCC[NH2+]2)CC1)C(=O)OCCOCCOCCOCCOC(=O)c1ccc(-c2c3nc(c(-c4cc(S(=O)(=O)[O-])ccc4F)c4ccc([nH]4)c(-c4cc(S(=O)(=O)[O-])ccc4F)c4nc(c(-c5cc(S(=O)(=O)[O-])ccc5F)c5ccc2[nH]5)C=C4)C=C3)cc1
REMARK SMILES IDX 36 1 35 2 34 3 33 4 32 5 31 6 30 7 28 8 29 9 5 10 4 11 2 12
REMARK SMILES IDX 1 13 3 16 6 17 7 18 8 20 9 21 16 22 27 23 17 24 26 25 18 26
REMARK SMILES IDX 19 27 20 28 10 29 11 30 15 31 12 32 14 33 13 34 21 35 22 36
REMARK SMILES IDX 25 37 23 38 24 39 37 42 38 43 39 44 40 45 41 46 42 47 43 48
REMARK SMILES IDX 44 49 45 50 46 51 107 52 47 53 106 54 48 55 49 56 50 57
REMARK SMILES IDX 100 58 51 59 105 60 99 61 101 62 52 63 104 64 98 65 97 66
REMARK SMILES IDX 53 68 85 69 65 70 84 71 66 72 69 73 83 74 102 75 67 76 68 77
REMARK SMILES IDX 82 79 103 80 70 81 54 82 55 83 63 84 56 85 62 86 64 87 61 88
REMARK SMILES IDX 57 89 58 90 59 91 60 92 86 93 87 94 95 95 88 96 94 97 96 98
REMARK SMILES IDX 93 99 89 100 90 101 91 102 92 103 71 104 72 105 80 106
REMARK SMILES IDX 73 107 79 108 81 109 78 110 74 111 75 112 76 113 77 114
REMARK H PARENT 1 14 1 15 6 19 25 40 25 41 101 67 69 78
REMARK Flexibility Score: inf
ROOT
ATOM      1  O   UNL A   1      51.719  23.999  33.117  1.00  0.00    -0.377 OA
ENDROOT
BRANCH   1   2
ATOM      2  C   UNL A   1      51.348  25.347  33.272  1.00  0.00     0.188 C 
BRANCH   2   3
ATOM      3  C   UNL A   1      51.054  26.131  31.983  1.00  0.00     0.188 C 
BRANCH   3   4
ATOM      4  O   UNL A   1      51.276  25.568  30.703  1.00  0.00    -0.376 OA
BRANCH   4   5
ATOM      5  C   UNL A   1      50.200  25.028  29.948  1.00  0.00     0.202 C 
BRANCH   5   6
ATOM      6  C   UNL A   1      49.911  25.514  28.519  1.00  0.00     0.261 C 
BRANCH   6   7
ATOM      7  O   UNL A   1      49.345  26.834  28.425  1.00  0.00    -0.462 OA
BRANCH   7   8
ATOM      8  C   UNL A   1      49.119  27.284  27.177  1.00  0.00     0.329 C 
ATOM      9  O   UNL A   1      49.925  27.920  26.502  1.00  0.00    -0.250 OA
BRANCH   8  10
ATOM     10  C   UNL A   1      47.707  26.982  26.630  1.00  0.00     0.201 C 
BRANCH  10  11
ATOM     11  C   UNL A   1      47.708  27.408  25.159  1.00  0.00     0.136 C 
BRANCH  11  12
ATOM     12  C   UNL A   1      46.526  28.303  24.869  1.00  0.00     0.220 C 
ATOM     13  N   UNL A   1      45.454  27.706  24.279  1.00  0.00    -0.370 N 
ATOM     14  H   UNL A   1      44.652  28.235  24.064  1.00  0.00     0.159 HD
ATOM     15  H   UNL A   1      45.481  26.744  24.068  1.00  0.00     0.159 HD
ATOM     16  O   UNL A   1      46.503  29.488  25.172  1.00  0.00    -0.275 OA
ENDBRANCH  11  12
ENDBRANCH  10  11
BRANCH  10  17
ATOM     17  N   UNL A   1      46.418  27.380  27.249  1.00  0.00    -0.342 N 
ATOM     18  C   UNL A   1      45.420  26.787  27.973  1.00  0.00     0.231 C 
ATOM     19  H   UNL A   1      46.229  28.334  27.097  1.00  0.00     0.164 HD
ATOM     20  O   UNL A   1      44.423  27.515  28.119  1.00  0.00    -0.274 OA
BRANCH  18  21
ATOM     21  C   UNL A   1      45.382  25.340  28.614  1.00  0.00     0.077 C 
ATOM     22  C   UNL A   1      46.337  24.274  28.040  1.00  0.00     0.043 C 
ATOM     23  C   UNL A   1      43.925  24.801  28.452  1.00  0.00     0.043 C 
ATOM     24  C   UNL A   1      45.932  23.675  26.696  1.00  0.00     0.121 C 
ATOM     25  C   UNL A   1      43.610  24.313  27.050  1.00  0.00     0.121 C 
ATOM     26  N   UNL A   1      44.551  23.267  26.653  1.00  0.00    -0.337 N 
ATOM     27  C   UNL A   1      44.289  22.073  25.992  1.00  0.00     0.280 C 
ATOM     28  O   UNL A   1      45.205  21.410  25.489  1.00  0.00    -0.268 OA
BRANCH  21  29
ATOM     29  C   UNL A   1      45.707  25.451  30.160  1.00  0.00    -0.032 A 
ATOM     30  C   UNL A   1      46.739  26.258  30.684  1.00  0.00     0.005 A 
ATOM     31  C   UNL A   1      44.898  24.793  31.104  1.00  0.00     0.005 A 
ATOM     32  C   UNL A   1      46.913  26.436  32.064  1.00  0.00     0.000 A 
ATOM     33  C   UNL A   1      45.086  24.945  32.485  1.00  0.00     0.000 A 
ATOM     34  C   UNL A   1      46.086  25.779  32.966  1.00  0.00     0.000 A 
ENDBRANCH  21  29
BRANCH  27  35
ATOM     35  C   UNL A   1      42.862  21.545  25.858  1.00  0.00     0.272 C 
ATOM     36  C   UNL A   1      42.014  21.671  27.107  1.00  0.00     0.081 C 
ATOM     37  N   UNL A   1      42.813  20.136  25.413  1.00  0.00    -0.336 N 
ATOM     38  C   UNL A   1      40.996  20.567  26.923  1.00  0.00     0.068 C 
ATOM     39  C   UNL A   1      41.730  19.483  26.148  1.00  0.00     0.261 C 
ATOM     40  H   UNL A   1      43.700  19.675  25.618  1.00  0.00     0.346 HD
ATOM     41  H   UNL A   1      42.651  20.080  24.408  1.00  0.00     0.346 HD
ENDBRANCH  27  35
ENDBRANCH  18  21
ENDBRANCH  10  17
ENDBRANCH   8  10
ENDBRANCH   7   8
ENDBRANCH   6   7
ENDBRANCH   5   6
ENDBRANCH   4   5
ENDBRANCH   3   4
ENDBRANCH   2   3
ENDBRANCH   1   2
BRANCH   1  42
ATOM     42  C   UNL A   1      52.008  23.283  34.309  1.00  0.00     0.188 C 
BRANCH  42  43
ATOM     43  C   UNL A   1      50.823  22.647  35.066  1.00  0.00     0.188 C 
BRANCH  43  44
ATOM     44  O   UNL A   1      50.905  21.236  35.244  1.00  0.00    -0.376 OA
BRANCH  44  45
ATOM     45  C   UNL A   1      49.958  20.593  36.089  1.00  0.00     0.202 C 
BRANCH  45  46
ATOM     46  C   UNL A   1      48.944  21.474  36.841  1.00  0.00     0.261 C 
BRANCH  46  47
ATOM     47  O   UNL A   1      47.567  21.279  36.489  1.00  0.00    -0.460 OA
BRANCH  47  48
ATOM     48  C   UNL A   1      47.077  22.027  35.473  1.00  0.00     0.338 C 
ATOM     49  O   UNL A   1      46.856  21.663  34.340  1.00  0.00    -0.246 OA
BRANCH  48  50
ATOM     50  C   UNL A   1      46.620  23.307  36.055  1.00  0.00     0.060 A 
ATOM     51  C   UNL A   1      45.393  23.324  36.729  1.00  0.00     0.016 A 
ATOM     52  C   UNL A   1      47.398  24.464  35.960  1.00  0.00     0.016 A 
ATOM     53  C   UNL A   1      44.927  24.507  37.291  1.00  0.00     0.010 A 
ATOM     54  C   UNL A   1      46.911  25.661  36.494  1.00  0.00     0.010 A 
ATOM     55  C   UNL A   1      45.660  25.690  37.132  1.00  0.00    -0.014 A 
BRANCH  55  56
ATOM     56  C   UNL A   1      44.991  26.972  37.448  1.00  0.00     0.031 A 
ATOM     57  C   UNL A   1      45.275  27.606  38.782  1.00  0.00     0.074 A 
ATOM     58  C   UNL A   1      44.231  27.598  36.534  1.00  0.00     0.049 A 
ATOM     59  N   UNL A   1      44.853  28.742  39.269  1.00  0.00    -0.248 NA
ATOM     60  C   UNL A   1      46.162  26.855  39.684  1.00  0.00     0.031 C 
ATOM     61  C   UNL A   1      43.946  27.098  35.190  1.00  0.00     0.029 A 
ATOM     62  N   UNL A   1      43.572  28.799  36.594  1.00  0.00    -0.354 N 
ATOM     63  C   UNL A   1      45.428  28.846  40.531  1.00  0.00     0.074 A 
ATOM     64  C   UNL A   1      46.189  27.636  40.751  1.00  0.00     0.031 C 
ATOM     65  C   UNL A   1      43.171  27.991  34.549  1.00  0.00     0.029 A 
ATOM     66  C   UNL A   1      42.876  29.105  35.449  1.00  0.00     0.049 A 
ATOM     67  H   UNL A   1      43.597  29.388  37.382  1.00  0.00     0.167 HD
ATOM     68  C   UNL A   1      45.336  29.865  41.420  1.00  0.00     0.034 A 
ATOM     69  C   UNL A   1      42.079  30.155  35.171  1.00  0.00     0.034 A 
ATOM     70  C   UNL A   1      44.553  31.054  41.186  1.00  0.00     0.049 A 
ATOM     71  C   UNL A   1      41.907  31.230  36.221  1.00  0.00     0.074 A 
ATOM     72  C   UNL A   1      44.383  32.149  42.014  1.00  0.00     0.029 A 
ATOM     73  N   UNL A   1      43.794  31.295  40.048  1.00  0.00    -0.354 N 
ATOM     74  N   UNL A   1      42.459  31.323  37.410  1.00  0.00    -0.248 NA
ATOM     75  C   UNL A   1      41.014  32.344  35.885  1.00  0.00     0.031 C 
ATOM     76  C   UNL A   1      43.456  33.009  41.415  1.00  0.00     0.029 A 
ATOM     77  C   UNL A   1      43.120  32.501  40.170  1.00  0.00     0.049 A 
ATOM     78  H   UNL A   1      43.741  30.697  39.267  1.00  0.00     0.167 HD
ATOM     79  C   UNL A   1      42.000  32.522  37.950  1.00  0.00     0.074 A 
ATOM     80  C   UNL A   1      41.150  33.126  36.945  1.00  0.00     0.031 C 
ATOM     81  C   UNL A   1      42.257  33.077  39.164  1.00  0.00     0.034 A 
BRANCH  68  82
ATOM     82  C   UNL A   1      46.049  29.701  42.740  1.00  0.00     0.023 A 
ATOM     83  C   UNL A   1      45.440  29.077  43.844  1.00  0.00     0.031 A 
ATOM     84  C   UNL A   1      47.349  30.210  42.910  1.00  0.00     0.131 A 
ATOM     85  C   UNL A   1      46.099  29.042  45.081  1.00  0.00     0.055 A 
ATOM     86  C   UNL A   1      48.034  30.097  44.121  1.00  0.00     0.041 A 
ATOM     87  F   UNL A   1      47.971  30.844  41.903  1.00  0.00    -0.206 F 
ATOM     88  C   UNL A   1      47.403  29.523  45.221  1.00  0.00     0.022 A 
BRANCH  85  89
ATOM     89  S   UNL A   1      45.172  28.501  46.545  1.00  0.00     0.124 S 
ATOM     90  O   UNL A   1      43.834  29.008  46.250  1.00  0.00    -0.237 OA
ATOM     91  O   UNL A   1      45.330  27.053  46.501  1.00  0.00    -0.237 OA
ATOM     92  O   UNL A   1      45.854  29.172  47.650  1.00  0.00    -0.744 OA
ENDBRANCH  85  89
ENDBRANCH  68  82
BRANCH  69  93
ATOM     93  C   UNL A   1      41.349  30.235  33.872  1.00  0.00     0.023 A 
ATOM     94  C   UNL A   1      40.108  29.603  33.690  1.00  0.00     0.031 A 
ATOM     95  C   UNL A   1      41.917  30.894  32.767  1.00  0.00     0.131 A 
ATOM     96  C   UNL A   1      39.502  29.601  32.423  1.00  0.00     0.055 A 
ATOM     97  C   UNL A   1      41.281  30.942  31.525  1.00  0.00     0.041 A 
ATOM     98  F   UNL A   1      43.106  31.509  32.879  1.00  0.00    -0.206 F 
ATOM     99  C   UNL A   1      40.072  30.280  31.345  1.00  0.00     0.022 A 
BRANCH  96 100
ATOM    100  S   UNL A   1      38.004  28.608  32.180  1.00  0.00     0.124 S 
ATOM    101  O   UNL A   1      38.538  27.424  31.517  1.00  0.00    -0.237 OA
ATOM    102  O   UNL A   1      37.538  28.421  33.550  1.00  0.00    -0.237 OA
ATOM    103  O   UNL A   1      37.160  29.462  31.348  1.00  0.00    -0.744 OA
ENDBRANCH  96 100
ENDBRANCH  69  93
BRANCH  81 104
ATOM    104  C   UNL A   1      41.630  34.424  39.447  1.00  0.00     0.023 A 
ATOM    105  C   UNL A   1      42.358  35.619  39.316  1.00  0.00     0.031 A 
ATOM    106  C   UNL A   1      40.295  34.511  39.882  1.00  0.00     0.131 A 
ATOM    107  C   UNL A   1      41.775  36.839  39.692  1.00  0.00     0.055 A 
ATOM    108  C   UNL A   1      39.695  35.735  40.178  1.00  0.00     0.041 A 
ATOM    109  F   UNL A   1      39.550  33.404  40.028  1.00  0.00    -0.206 F 
ATOM    110  C   UNL A   1      40.442  36.907  40.102  1.00  0.00     0.022 A 
BRANCH 107 111
ATOM    111  S   UNL A   1      42.826  38.316  39.767  1.00  0.00     0.124 S 
ATOM    112  O   UNL A   1      43.583  38.086  40.992  1.00  0.00    -0.237 OA
ATOM    113  O   UNL A   1      43.584  38.222  38.522  1.00  0.00    -0.237 OA
ATOM    114  O   UNL A   1      41.866  39.416  39.827  1.00  0.00    -0.744 OA
ENDBRANCH 107 111
ENDBRANCH  81 104
ENDBRANCH  55  56
ENDBRANCH  48  50
ENDBRANCH  47  48
ENDBRANCH  46  47
ENDBRANCH  45  46
ENDBRANCH  44  45
ENDBRANCH  43  44
ENDBRANCH  42  43
ENDBRANCH   1  42
TORSDOF 29
ENDMDL
