MODEL 1
REMARK VINA RESULT:     -12.3      0.000      0.000
REMARK SMILES COc1cc2ccccc2cc1C(=O)Nc1cc(C(=O)OCCOCCOCCOCCOC(=O)c2ccc(-c3c4nc(c(-c5cc(S(=O)(=O)[O-])ccc5F)c5ccc([nH]5)c(-c5cc(S(=O)(=O)[O-])ccc5F)c5nc(c(-c6cc(S(=O)(=O)[O-])ccc6F)c6ccc3[nH]6)C=C5)C=C4)cc2)ccc1C
REMARK SMILES IDX 27 1 26 2 25 3 24 4 23 5 22 6 21 7 19 8 20 9 18 10 16 11
REMARK SMILES IDX 17 12 101 13 100 14 102 15 99 16 15 17 13 18 14 19 12 21
REMARK SMILES IDX 3 22 4 23 5 24 11 25 6 26 10 27 7 28 9 29 8 30 2 31 1 32
REMARK SMILES IDX 28 33 29 34 30 35 31 36 32 37 33 38 34 39 35 40 36 41 37 42
REMARK SMILES IDX 98 43 38 44 97 45 39 46 40 47 41 48 91 49 42 50 96 51 90 52
REMARK SMILES IDX 92 53 43 54 95 55 89 56 88 57 44 59 76 60 56 61 75 62 57 63
REMARK SMILES IDX 60 64 74 65 93 66 58 67 59 68 73 70 94 71 61 72 45 73 46 74
REMARK SMILES IDX 54 75 47 76 53 77 55 78 52 79 48 80 49 81 50 82 51 83 77 84
REMARK SMILES IDX 78 85 86 86 79 87 85 88 87 89 84 90 80 91 81 92 82 93 83 94
REMARK SMILES IDX 62 95 63 96 71 97 64 98 70 99 72 100 69 101 65 102 66 103
REMARK SMILES IDX 67 104 68 105
REMARK H PARENT 15 20 92 58 60 69
REMARK Flexibility Score: inf
ROOT
ATOM      1  O   UNL A   1      41.642  37.677  27.657  1.00  0.00    -0.377 OA
ENDROOT
BRANCH   1   2
ATOM      2  C   UNL A   1      42.059  38.683  26.721  1.00  0.00     0.188 C 
BRANCH   2   3
ATOM      3  C   UNL A   1      41.552  40.255  26.501  1.00  0.00     0.188 C 
BRANCH   3   4
ATOM      4  O   UNL A   1      41.769  41.465  25.332  1.00  0.00    -0.376 OA
BRANCH   4   5
ATOM      5  C   UNL A   1      41.634  41.627  23.621  1.00  0.00     0.202 C 
BRANCH   5   6
ATOM      6  C   UNL A   1      41.784  43.130  22.483  1.00  0.00     0.261 C 
BRANCH   6   7
ATOM      7  O   UNL A   1      41.406  43.254  20.709  1.00  0.00    -0.460 OA
BRANCH   7   8
ATOM      8  C   UNL A   1      41.958  43.611  19.336  1.00  0.00     0.338 C 
ATOM      9  O   UNL A   1      42.160  42.765  18.454  1.00  0.00    -0.246 OA
BRANCH   8  10
ATOM     10  C   UNL A   1      42.428  45.025  18.738  1.00  0.00     0.062 A 
ATOM     11  C   UNL A   1      44.126  46.866  18.430  1.00  0.00     0.045 A 
ATOM     12  C   UNL A   1      43.556  45.783  19.119  1.00  0.00     0.042 A 
ATOM     13  C   UNL A   1      43.539  47.282  17.239  1.00  0.00    -0.027 A 
ATOM     14  C   UNL A   1      42.429  46.543  16.780  1.00  0.00     0.006 A 
ATOM     15  C   UNL A   1      44.179  48.299  16.332  1.00  0.00     0.046 C 
ATOM     16  C   UNL A   1      41.893  45.444  17.508  1.00  0.00     0.016 A 
BRANCH  11  17
ATOM     17  N   UNL A   1      45.323  47.460  18.895  1.00  0.00    -0.322 N 
ATOM     18  C   UNL A   1      46.161  47.191  19.966  1.00  0.00     0.259 C 
ATOM     19  O   UNL A   1      47.055  48.013  20.200  1.00  0.00    -0.269 OA
ATOM     20  H   UNL A   1      45.624  48.220  18.344  1.00  0.00     0.170 HD
BRANCH  18  21
ATOM     21  C   UNL A   1      46.130  45.951  20.809  1.00  0.00     0.082 A 
ATOM     22  C   UNL A   1      46.594  44.685  20.432  1.00  0.00     0.132 A 
ATOM     23  C   UNL A   1      46.352  43.571  21.240  1.00  0.00     0.056 A 
ATOM     24  C   UNL A   1      45.759  43.698  22.498  1.00  0.00    -0.015 A 
ATOM     25  C   UNL A   1      45.584  46.090  22.105  1.00  0.00     0.026 A 
ATOM     26  C   UNL A   1      45.523  42.571  23.299  1.00  0.00     0.009 A 
ATOM     27  C   UNL A   1      45.405  44.980  22.962  1.00  0.00    -0.017 A 
ATOM     28  C   UNL A   1      44.981  42.705  24.574  1.00  0.00     0.001 A 
ATOM     29  C   UNL A   1      44.867  45.099  24.257  1.00  0.00     0.009 A 
ATOM     30  C   UNL A   1      44.665  43.969  25.058  1.00  0.00     0.001 A 
BRANCH  22  31
ATOM     31  O   UNL A   1      47.141  44.367  19.222  1.00  0.00    -0.496 OA
ATOM     32  C   UNL A   1      48.521  44.659  19.123  1.00  0.00     0.278 C 
ENDBRANCH  22  31
ENDBRANCH  18  21
ENDBRANCH  11  17
ENDBRANCH   8  10
ENDBRANCH   7   8
ENDBRANCH   6   7
ENDBRANCH   5   6
ENDBRANCH   4   5
ENDBRANCH   3   4
ENDBRANCH   2   3
ENDBRANCH   1   2
BRANCH   1  33
ATOM     33  C   UNL A   1      41.891  36.274  27.586  1.00  0.00     0.188 C 
BRANCH  33  34
ATOM     34  C   UNL A   1      41.618  35.394  28.785  1.00  0.00     0.188 C 
BRANCH  34  35
ATOM     35  O   UNL A   1      40.216  35.346  29.018  1.00  0.00    -0.376 OA
BRANCH  35  36
ATOM     36  C   UNL A   1      39.825  34.404  30.001  1.00  0.00     0.202 C 
BRANCH  36  37
ATOM     37  C   UNL A   1      38.352  33.993  29.890  1.00  0.00     0.261 C 
BRANCH  37  38
ATOM     38  O   UNL A   1      38.104  32.824  30.698  1.00  0.00    -0.460 OA
BRANCH  38  39
ATOM     39  C   UNL A   1      37.026  32.082  30.308  1.00  0.00     0.338 C 
ATOM     40  O   UNL A   1      35.864  32.380  30.534  1.00  0.00    -0.246 OA
BRANCH  39  41
ATOM     41  C   UNL A   1      37.501  30.848  29.637  1.00  0.00     0.060 A 
ATOM     42  C   UNL A   1      37.963  29.734  30.302  1.00  0.00     0.016 A 
ATOM     43  C   UNL A   1      37.566  30.773  28.278  1.00  0.00     0.016 A 
ATOM     44  C   UNL A   1      38.824  28.802  29.638  1.00  0.00     0.010 A 
ATOM     45  C   UNL A   1      38.404  29.800  27.694  1.00  0.00     0.010 A 
ATOM     46  C   UNL A   1      39.404  29.016  28.373  1.00  0.00    -0.014 A 
BRANCH  46  47
ATOM     47  C   UNL A   1      41.069  28.386  27.861  1.00  0.00     0.031 A 
ATOM     48  C   UNL A   1      41.460  26.660  26.998  1.00  0.00     0.074 A 
ATOM     49  C   UNL A   1      42.017  29.235  28.528  1.00  0.00     0.049 A 
ATOM     50  N   UNL A   1      41.876  25.593  27.729  1.00  0.00    -0.248 NA
ATOM     51  C   UNL A   1      41.024  25.771  25.753  1.00  0.00     0.031 C 
ATOM     52  C   UNL A   1      43.455  29.172  28.797  1.00  0.00     0.029 A 
ATOM     53  N   UNL A   1      41.791  30.324  29.415  1.00  0.00    -0.354 N 
ATOM     54  C   UNL A   1      41.987  24.340  27.249  1.00  0.00     0.074 A 
ATOM     55  C   UNL A   1      41.235  24.458  26.055  1.00  0.00     0.031 C 
ATOM     56  C   UNL A   1      43.951  29.938  29.757  1.00  0.00     0.029 A 
ATOM     57  C   UNL A   1      42.813  30.428  30.381  1.00  0.00     0.049 A 
ATOM     58  H   UNL A   1      41.017  30.930  29.361  1.00  0.00     0.167 HD
ATOM     59  C   UNL A   1      42.709  23.362  27.889  1.00  0.00     0.034 A 
ATOM     60  C   UNL A   1      42.678  30.281  31.715  1.00  0.00     0.034 A 
ATOM     61  C   UNL A   1      43.698  23.835  28.890  1.00  0.00     0.049 A 
ATOM     62  C   UNL A   1      43.242  28.951  32.279  1.00  0.00     0.074 A 
ATOM     63  C   UNL A   1      45.050  24.118  28.749  1.00  0.00     0.029 A 
ATOM     64  N   UNL A   1      43.385  24.287  30.175  1.00  0.00    -0.354 N 
ATOM     65  N   UNL A   1      43.478  27.830  31.609  1.00  0.00    -0.248 NA
ATOM     66  C   UNL A   1      43.615  28.821  33.680  1.00  0.00     0.031 C 
ATOM     67  C   UNL A   1      45.464  24.938  29.831  1.00  0.00     0.029 A 
ATOM     68  C   UNL A   1      44.416  25.076  30.725  1.00  0.00     0.049 A 
ATOM     69  H   UNL A   1      42.543  24.079  30.641  1.00  0.00     0.167 HD
ATOM     70  C   UNL A   1      44.012  26.854  32.452  1.00  0.00     0.074 A 
ATOM     71  C   UNL A   1      44.037  27.545  33.744  1.00  0.00     0.031 C 
ATOM     72  C   UNL A   1      44.420  25.566  32.119  1.00  0.00     0.034 A 
BRANCH  59  73
ATOM     73  C   UNL A   1      42.769  21.999  27.247  1.00  0.00     0.023 A 
ATOM     74  C   UNL A   1      43.808  21.645  26.365  1.00  0.00     0.031 A 
ATOM     75  C   UNL A   1      41.745  21.051  27.432  1.00  0.00     0.131 A 
ATOM     76  C   UNL A   1      43.753  20.447  25.629  1.00  0.00     0.055 A 
ATOM     77  C   UNL A   1      41.681  19.864  26.688  1.00  0.00     0.041 A 
ATOM     78  F   UNL A   1      40.758  21.275  28.316  1.00  0.00    -0.206 F 
ATOM     79  C   UNL A   1      42.675  19.569  25.761  1.00  0.00     0.022 A 
BRANCH  76  80
ATOM     80  S   UNL A   1      45.079  20.068  24.445  1.00  0.00     0.124 S 
ATOM     81  O   UNL A   1      45.609  21.390  24.127  1.00  0.00    -0.237 OA
ATOM     82  O   UNL A   1      45.951  19.193  25.222  1.00  0.00    -0.237 OA
ATOM     83  O   UNL A   1      44.376  19.411  23.342  1.00  0.00    -0.744 OA
ENDBRANCH  76  80
ENDBRANCH  59  73
BRANCH  60  84
ATOM     84  C   UNL A   1      41.756  31.347  32.192  1.00  0.00     0.023 A 
ATOM     85  C   UNL A   1      40.496  30.873  32.683  1.00  0.00     0.031 A 
ATOM     86  C   UNL A   1      42.199  32.585  32.637  1.00  0.00     0.131 A 
ATOM     87  C   UNL A   1      39.926  31.449  33.820  1.00  0.00     0.055 A 
ATOM     88  C   UNL A   1      41.515  33.254  33.666  1.00  0.00     0.041 A 
ATOM     89  F   UNL A   1      43.371  33.081  32.216  1.00  0.00    -0.206 F 
ATOM     90  C   UNL A   1      40.416  32.658  34.302  1.00  0.00     0.022 A 
BRANCH  87  91
ATOM     91  S   UNL A   1      38.902  30.393  34.919  1.00  0.00     0.124 S 
ATOM     92  O   UNL A   1      37.917  31.339  35.427  1.00  0.00    -0.237 OA
ATOM     93  O   UNL A   1      38.398  29.362  34.017  1.00  0.00    -0.237 OA
ATOM     94  O   UNL A   1      39.876  29.896  35.889  1.00  0.00    -0.744 OA
ENDBRANCH  87  91
ENDBRANCH  60  84
BRANCH  72  95
ATOM     95  C   UNL A   1      45.065  24.567  33.103  1.00  0.00     0.023 A 
ATOM     96  C   UNL A   1      46.387  24.648  33.554  1.00  0.00     0.031 A 
ATOM     97  C   UNL A   1      44.365  23.399  33.521  1.00  0.00     0.131 A 
ATOM     98  C   UNL A   1      46.923  23.687  34.439  1.00  0.00     0.055 A 
ATOM     99  C   UNL A   1      44.930  22.395  34.314  1.00  0.00     0.041 A 
ATOM    100  F   UNL A   1      43.083  23.182  33.198  1.00  0.00    -0.206 F 
ATOM    101  C   UNL A   1      46.210  22.549  34.807  1.00  0.00     0.022 A 
BRANCH  98 102
ATOM    102  S   UNL A   1      48.541  24.011  35.182  1.00  0.00     0.124 S 
ATOM    103  O   UNL A   1      48.195  24.893  36.292  1.00  0.00    -0.237 OA
ATOM    104  O   UNL A   1      48.981  22.669  35.555  1.00  0.00    -0.237 OA
ATOM    105  O   UNL A   1      49.302  24.628  34.099  1.00  0.00    -0.744 OA
ENDBRANCH  98 102
ENDBRANCH  72  95
ENDBRANCH  46  47
ENDBRANCH  39  41
ENDBRANCH  38  39
ENDBRANCH  37  38
ENDBRANCH  36  37
ENDBRANCH  35  36
ENDBRANCH  34  35
ENDBRANCH  33  34
ENDBRANCH   1  33
TORSDOF 26
ENDMDL
MODEL 2
REMARK VINA RESULT:     -10.3      6.427     14.341
REMARK SMILES COc1cc2ccccc2cc1C(=O)Nc1cc(C(=O)OCCOCCOCCOCCOC(=O)c2ccc(-c3c4nc(c(-c5cc(S(=O)(=O)[O-])ccc5F)c5ccc([nH]5)c(-c5cc(S(=O)(=O)[O-])ccc5F)c5nc(c(-c6cc(S(=O)(=O)[O-])ccc6F)c6ccc3[nH]6)C=C5)C=C4)cc2)ccc1C
REMARK SMILES IDX 27 1 26 2 25 3 24 4 23 5 22 6 21 7 19 8 20 9 18 10 16 11
REMARK SMILES IDX 17 12 101 13 100 14 102 15 99 16 15 17 13 18 14 19 12 21
REMARK SMILES IDX 3 22 4 23 5 24 11 25 6 26 10 27 7 28 9 29 8 30 2 31 1 32
REMARK SMILES IDX 28 33 29 34 30 35 31 36 32 37 33 38 34 39 35 40 36 41 37 42
REMARK SMILES IDX 98 43 38 44 97 45 39 46 40 47 41 48 91 49 42 50 96 51 90 52
REMARK SMILES IDX 92 53 43 54 95 55 89 56 88 57 44 59 76 60 56 61 75 62 57 63
REMARK SMILES IDX 60 64 74 65 93 66 58 67 59 68 73 70 94 71 61 72 45 73 46 74
REMARK SMILES IDX 54 75 47 76 53 77 55 78 52 79 48 80 49 81 50 82 51 83 77 84
REMARK SMILES IDX 78 85 86 86 79 87 85 88 87 89 84 90 80 91 81 92 82 93 83 94
REMARK SMILES IDX 62 95 63 96 71 97 64 98 70 99 72 100 69 101 65 102 66 103
REMARK SMILES IDX 67 104 68 105
REMARK H PARENT 15 20 92 58 60 69
REMARK Flexibility Score: inf
ROOT
ATOM      1  O   UNL A   1      40.219  22.237  27.209  1.00  0.00    -0.377 OA
ENDROOT
BRANCH   1   2
ATOM      2  C   UNL A   1      39.373  23.392  27.110  1.00  0.00     0.188 C 
BRANCH   2   3
ATOM      3  C   UNL A   1      39.677  24.932  26.552  1.00  0.00     0.188 C 
BRANCH   3   4
ATOM      4  O   UNL A   1      40.274  26.381  27.203  1.00  0.00    -0.376 OA
BRANCH   4   5
ATOM      5  C   UNL A   1      39.897  28.062  27.137  1.00  0.00     0.202 C 
BRANCH   5   6
ATOM      6  C   UNL A   1      38.749  29.137  28.187  1.00  0.00     0.261 C 
BRANCH   6   7
ATOM      7  O   UNL A   1      37.314  30.121  27.658  1.00  0.00    -0.460 OA
BRANCH   7   8
ATOM      8  C   UNL A   1      35.828  30.374  27.867  1.00  0.00     0.338 C 
ATOM      9  O   UNL A   1      34.949  29.679  27.339  1.00  0.00    -0.246 OA
BRANCH   8  10
ATOM     10  C   UNL A   1      35.074  31.522  28.698  1.00  0.00     0.062 A 
ATOM     11  C   UNL A   1      34.826  33.025  30.711  1.00  0.00     0.045 A 
ATOM     12  C   UNL A   1      35.269  31.865  30.054  1.00  0.00     0.042 A 
ATOM     13  C   UNL A   1      34.098  33.964  29.986  1.00  0.00    -0.027 A 
ATOM     14  C   UNL A   1      33.899  33.702  28.615  1.00  0.00     0.006 A 
ATOM     15  C   UNL A   1      33.745  35.319  30.540  1.00  0.00     0.046 C 
ATOM     16  C   UNL A   1      34.377  32.515  27.991  1.00  0.00     0.016 A 
BRANCH  11  17
ATOM     17  N   UNL A   1      35.192  33.270  32.055  1.00  0.00    -0.322 N 
ATOM     18  C   UNL A   1      36.311  32.948  32.806  1.00  0.00     0.259 C 
ATOM     19  O   UNL A   1      36.253  33.165  34.023  1.00  0.00    -0.269 OA
ATOM     20  H   UNL A   1      34.512  33.774  32.561  1.00  0.00     0.170 HD
BRANCH  18  21
ATOM     21  C   UNL A   1      37.613  32.441  32.261  1.00  0.00     0.082 A 
ATOM     22  C   UNL A   1      38.387  33.055  31.269  1.00  0.00     0.132 A 
ATOM     23  C   UNL A   1      39.492  32.397  30.723  1.00  0.00     0.056 A 
ATOM     24  C   UNL A   1      39.934  31.173  31.228  1.00  0.00    -0.015 A 
ATOM     25  C   UNL A   1      38.094  31.233  32.813  1.00  0.00     0.026 A 
ATOM     26  C   UNL A   1      41.046  30.524  30.670  1.00  0.00     0.009 A 
ATOM     27  C   UNL A   1      39.255  30.596  32.319  1.00  0.00    -0.017 A 
ATOM     28  C   UNL A   1      41.519  29.332  31.210  1.00  0.00     0.001 A 
ATOM     29  C   UNL A   1      39.752  29.395  32.859  1.00  0.00     0.009 A 
ATOM     30  C   UNL A   1      40.879  28.773  32.311  1.00  0.00     0.001 A 
BRANCH  22  31
ATOM     31  O   UNL A   1      38.074  34.216  30.622  1.00  0.00    -0.496 OA
ATOM     32  C   UNL A   1      38.361  34.196  29.237  1.00  0.00     0.278 C 
ENDBRANCH  22  31
ENDBRANCH  18  21
ENDBRANCH  11  17
ENDBRANCH   8  10
ENDBRANCH   7   8
ENDBRANCH   6   7
ENDBRANCH   5   6
ENDBRANCH   4   5
ENDBRANCH   3   4
ENDBRANCH   2   3
ENDBRANCH   1   2
BRANCH   1  33
ATOM     33  C   UNL A   1      40.935  21.598  26.153  1.00  0.00     0.188 C 
BRANCH  33  34
ATOM     34  C   UNL A   1      42.183  20.800  26.458  1.00  0.00     0.188 C 
BRANCH  34  35
ATOM     35  O   UNL A   1      43.325  21.566  26.094  1.00  0.00    -0.376 OA
BRANCH  35  36
ATOM     36  C   UNL A   1      43.091  22.962  26.040  1.00  0.00     0.202 C 
BRANCH  36  37
ATOM     37  C   UNL A   1      44.312  23.795  26.448  1.00  0.00     0.261 C 
BRANCH  37  38
ATOM     38  O   UNL A   1      44.368  23.919  27.884  1.00  0.00    -0.460 OA
BRANCH  38  39
ATOM     39  C   UNL A   1      43.886  25.099  28.372  1.00  0.00     0.338 C 
ATOM     40  O   UNL A   1      42.941  25.708  27.896  1.00  0.00    -0.246 OA
BRANCH  39  41
ATOM     41  C   UNL A   1      44.728  25.537  29.510  1.00  0.00     0.060 A 
ATOM     42  C   UNL A   1      44.283  25.639  30.809  1.00  0.00     0.016 A 
ATOM     43  C   UNL A   1      46.017  25.936  29.312  1.00  0.00     0.016 A 
ATOM     44  C   UNL A   1      44.961  26.490  31.740  1.00  0.00     0.010 A 
ATOM     45  C   UNL A   1      46.634  26.738  30.294  1.00  0.00     0.010 A 
ATOM     46  C   UNL A   1      45.978  27.400  31.393  1.00  0.00    -0.014 A 
BRANCH  46  47
ATOM     47  C   UNL A   1      46.265  29.025  32.234  1.00  0.00     0.031 A 
ATOM     48  C   UNL A   1      44.985  30.009  33.362  1.00  0.00     0.074 A 
ATOM     49  C   UNL A   1      47.445  29.567  31.619  1.00  0.00     0.049 A 
ATOM     50  N   UNL A   1      44.234  31.017  32.848  1.00  0.00    -0.248 NA
ATOM     51  C   UNL A   1      44.043  29.810  34.627  1.00  0.00     0.031 C 
ATOM     52  C   UNL A   1      48.085  30.883  31.587  1.00  0.00     0.029 A 
ATOM     53  N   UNL A   1      48.250  29.032  30.576  1.00  0.00    -0.354 N 
ATOM     54  C   UNL A   1      43.215  31.611  33.495  1.00  0.00     0.074 A 
ATOM     55  C   UNL A   1      42.992  30.674  34.533  1.00  0.00     0.031 C 
ATOM     56  C   UNL A   1      48.961  31.135  30.626  1.00  0.00     0.029 A 
ATOM     57  C   UNL A   1      48.807  30.050  29.775  1.00  0.00     0.049 A 
ATOM     58  H   UNL A   1      48.401  28.070  30.431  1.00  0.00     0.167 HD
ATOM     59  C   UNL A   1      42.694  32.822  33.106  1.00  0.00     0.034 A 
ATOM     60  C   UNL A   1      48.564  30.269  28.466  1.00  0.00     0.034 A 
ATOM     61  C   UNL A   1      43.554  33.644  32.218  1.00  0.00     0.049 A 
ATOM     62  C   UNL A   1      47.662  31.496  28.172  1.00  0.00     0.074 A 
ATOM     63  C   UNL A   1      44.469  34.641  32.530  1.00  0.00     0.029 A 
ATOM     64  N   UNL A   1      43.748  33.415  30.853  1.00  0.00    -0.354 N 
ATOM     65  N   UNL A   1      46.827  32.097  29.008  1.00  0.00    -0.248 NA
ATOM     66  C   UNL A   1      47.681  32.154  26.874  1.00  0.00     0.031 C 
ATOM     67  C   UNL A   1      45.347  34.821  31.430  1.00  0.00     0.029 A 
ATOM     68  C   UNL A   1      44.921  34.034  30.374  1.00  0.00     0.049 A 
ATOM     69  H   UNL A   1      43.137  32.884  30.292  1.00  0.00     0.167 HD
ATOM     70  C   UNL A   1      46.207  33.185  28.390  1.00  0.00     0.074 A 
ATOM     71  C   UNL A   1      46.775  33.134  27.040  1.00  0.00     0.031 C 
ATOM     72  C   UNL A   1      45.298  34.081  28.946  1.00  0.00     0.034 A 
BRANCH  59  73
ATOM     73  C   UNL A   1      41.560  33.394  33.919  1.00  0.00     0.023 A 
ATOM     74  C   UNL A   1      41.192  32.842  35.161  1.00  0.00     0.031 A 
ATOM     75  C   UNL A   1      40.764  34.448  33.433  1.00  0.00     0.131 A 
ATOM     76  C   UNL A   1      40.019  33.260  35.817  1.00  0.00     0.055 A 
ATOM     77  C   UNL A   1      39.587  34.855  34.079  1.00  0.00     0.041 A 
ATOM     78  F   UNL A   1      41.090  35.083  32.296  1.00  0.00    -0.206 F 
ATOM     79  C   UNL A   1      39.196  34.243  35.264  1.00  0.00     0.022 A 
BRANCH  76  80
ATOM     80  S   UNL A   1      39.543  32.466  37.382  1.00  0.00     0.124 S 
ATOM     81  O   UNL A   1      40.834  32.215  38.016  1.00  0.00    -0.237 OA
ATOM     82  O   UNL A   1      38.704  33.484  38.006  1.00  0.00    -0.237 OA
ATOM     83  O   UNL A   1      38.831  31.263  36.951  1.00  0.00    -0.744 OA
ENDBRANCH  76  80
ENDBRANCH  59  73
BRANCH  60  84
ATOM     84  C   UNL A   1      49.023  29.067  27.719  1.00  0.00     0.023 A 
ATOM     85  C   UNL A   1      47.979  28.331  27.069  1.00  0.00     0.031 A 
ATOM     86  C   UNL A   1      50.313  28.931  27.224  1.00  0.00     0.131 A 
ATOM     87  C   UNL A   1      48.184  27.803  25.793  1.00  0.00     0.055 A 
ATOM     88  C   UNL A   1      50.543  28.239  26.024  1.00  0.00     0.041 A 
ATOM     89  F   UNL A   1      51.332  29.596  27.788  1.00  0.00    -0.206 F 
ATOM     90  C   UNL A   1      49.471  27.730  25.274  1.00  0.00     0.022 A 
BRANCH  87  91
ATOM     91  S   UNL A   1      46.748  27.677  24.655  1.00  0.00     0.124 S 
ATOM     92  O   UNL A   1      45.655  27.370  25.568  1.00  0.00    -0.237 OA
ATOM     93  O   UNL A   1      46.707  28.992  24.022  1.00  0.00    -0.237 OA
ATOM     94  O   UNL A   1      47.148  26.603  23.747  1.00  0.00    -0.744 OA
ENDBRANCH  87  91
ENDBRANCH  60  84
BRANCH  72  95
ATOM     95  C   UNL A   1      44.709  35.303  28.210  1.00  0.00     0.023 A 
ATOM     96  C   UNL A   1      45.428  36.467  27.914  1.00  0.00     0.031 A 
ATOM     97  C   UNL A   1      43.321  35.365  27.893  1.00  0.00     0.131 A 
ATOM     98  C   UNL A   1      44.822  37.559  27.257  1.00  0.00     0.055 A 
ATOM     99  C   UNL A   1      42.700  36.488  27.337  1.00  0.00     0.041 A 
ATOM    100  F   UNL A   1      42.498  34.327  28.089  1.00  0.00    -0.206 F 
ATOM    101  C   UNL A   1      43.457  37.587  26.984  1.00  0.00     0.022 A 
BRANCH  98 102
ATOM    102  S   UNL A   1      45.881  38.906  26.673  1.00  0.00     0.124 S 
ATOM    103  O   UNL A   1      44.911  39.825  26.088  1.00  0.00    -0.237 OA
ATOM    104  O   UNL A   1      46.513  39.357  27.911  1.00  0.00    -0.237 OA
ATOM    105  O   UNL A   1      46.782  38.252  25.728  1.00  0.00    -0.744 OA
ENDBRANCH  98 102
ENDBRANCH  72  95
ENDBRANCH  46  47
ENDBRANCH  39  41
ENDBRANCH  38  39
ENDBRANCH  37  38
ENDBRANCH  36  37
ENDBRANCH  35  36
ENDBRANCH  34  35
ENDBRANCH  33  34
ENDBRANCH   1  33
TORSDOF 26
ENDMDL
MODEL 3
REMARK VINA RESULT:     -10.2      7.593     11.515
REMARK SMILES COc1cc2ccccc2cc1C(=O)Nc1cc(C(=O)OCCOCCOCCOCCOC(=O)c2ccc(-c3c4nc(c(-c5cc(S(=O)(=O)[O-])ccc5F)c5ccc([nH]5)c(-c5cc(S(=O)(=O)[O-])ccc5F)c5nc(c(-c6cc(S(=O)(=O)[O-])ccc6F)c6ccc3[nH]6)C=C5)C=C4)cc2)ccc1C
REMARK SMILES IDX 27 1 26 2 25 3 24 4 23 5 22 6 21 7 19 8 20 9 18 10 16 11
REMARK SMILES IDX 17 12 101 13 100 14 102 15 99 16 15 17 13 18 14 19 12 21
REMARK SMILES IDX 3 22 4 23 5 24 11 25 6 26 10 27 7 28 9 29 8 30 2 31 1 32
REMARK SMILES IDX 28 33 29 34 30 35 31 36 32 37 33 38 34 39 35 40 36 41 37 42
REMARK SMILES IDX 98 43 38 44 97 45 39 46 40 47 41 48 91 49 42 50 96 51 90 52
REMARK SMILES IDX 92 53 43 54 95 55 89 56 88 57 44 59 76 60 56 61 75 62 57 63
REMARK SMILES IDX 60 64 74 65 93 66 58 67 59 68 73 70 94 71 61 72 45 73 46 74
REMARK SMILES IDX 54 75 47 76 53 77 55 78 52 79 48 80 49 81 50 82 51 83 77 84
REMARK SMILES IDX 78 85 86 86 79 87 85 88 87 89 84 90 80 91 81 92 82 93 83 94
REMARK SMILES IDX 62 95 63 96 71 97 64 98 70 99 72 100 69 101 65 102 66 103
REMARK SMILES IDX 67 104 68 105
REMARK H PARENT 15 20 92 58 60 69
REMARK Flexibility Score: inf
ROOT
ATOM      1  O   UNL A   1      40.382  28.924  30.279  1.00  0.00    -0.377 OA
ENDROOT
BRANCH   1   2
ATOM      2  C   UNL A   1      39.431  28.270  31.133  1.00  0.00     0.188 C 
BRANCH   2   3
ATOM      3  C   UNL A   1      38.999  28.556  32.716  1.00  0.00     0.188 C 
BRANCH   3   4
ATOM      4  O   UNL A   1      39.698  29.309  34.066  1.00  0.00    -0.376 OA
BRANCH   4   5
ATOM      5  C   UNL A   1      41.272  29.761  34.605  1.00  0.00     0.202 C 
BRANCH   5   6
ATOM      6  C   UNL A   1      41.934  31.366  35.354  1.00  0.00     0.261 C 
BRANCH   6   7
ATOM      7  O   UNL A   1      41.996  33.025  34.613  1.00  0.00    -0.460 OA
BRANCH   7   8
ATOM      8  C   UNL A   1      41.653  33.860  33.388  1.00  0.00     0.338 C 
ATOM      9  O   UNL A   1      42.024  35.033  33.250  1.00  0.00    -0.246 OA
BRANCH   8  10
ATOM     10  C   UNL A   1      40.765  33.501  32.099  1.00  0.00     0.062 A 
ATOM     11  C   UNL A   1      38.789  32.395  30.986  1.00  0.00     0.045 A 
ATOM     12  C   UNL A   1      39.745  32.530  32.005  1.00  0.00     0.042 A 
ATOM     13  C   UNL A   1      38.819  33.290  29.922  1.00  0.00    -0.027 A 
ATOM     14  C   UNL A   1      39.791  34.311  29.970  1.00  0.00     0.006 A 
ATOM     15  C   UNL A   1      37.730  33.353  28.884  1.00  0.00     0.046 C 
ATOM     16  C   UNL A   1      40.733  34.414  31.032  1.00  0.00     0.016 A 
BRANCH  11  17
ATOM     17  N   UNL A   1      37.763  31.425  31.090  1.00  0.00    -0.322 N 
ATOM     18  C   UNL A   1      36.494  31.444  31.646  1.00  0.00     0.259 C 
ATOM     19  O   UNL A   1      35.898  30.363  31.722  1.00  0.00    -0.269 OA
ATOM     20  H   UNL A   1      37.999  30.559  30.683  1.00  0.00     0.170 HD
BRANCH  18  21
ATOM     21  C   UNL A   1      35.750  32.671  32.084  1.00  0.00     0.082 A 
ATOM     22  C   UNL A   1      35.705  33.188  33.385  1.00  0.00     0.132 A 
ATOM     23  C   UNL A   1      34.839  34.237  33.701  1.00  0.00     0.056 A 
ATOM     24  C   UNL A   1      34.088  34.884  32.717  1.00  0.00    -0.015 A 
ATOM     25  C   UNL A   1      35.038  33.362  31.079  1.00  0.00     0.026 A 
ATOM     26  C   UNL A   1      33.222  35.937  33.050  1.00  0.00     0.009 A 
ATOM     27  C   UNL A   1      34.217  34.474  31.376  1.00  0.00    -0.017 A 
ATOM     28  C   UNL A   1      32.516  36.617  32.062  1.00  0.00     0.001 A 
ATOM     29  C   UNL A   1      33.504  35.178  30.388  1.00  0.00     0.009 A 
ATOM     30  C   UNL A   1      32.666  36.246  30.730  1.00  0.00     0.001 A 
BRANCH  22  31
ATOM     31  O   UNL A   1      36.323  32.649  34.476  1.00  0.00    -0.496 OA
ATOM     32  C   UNL A   1      37.441  33.389  34.926  1.00  0.00     0.278 C 
ENDBRANCH  22  31
ENDBRANCH  18  21
ENDBRANCH  11  17
ENDBRANCH   8  10
ENDBRANCH   7   8
ENDBRANCH   6   7
ENDBRANCH   5   6
ENDBRANCH   4   5
ENDBRANCH   3   4
ENDBRANCH   2   3
ENDBRANCH   1   2
BRANCH   1  33
ATOM     33  C   UNL A   1      41.707  28.495  29.973  1.00  0.00     0.188 C 
BRANCH  33  34
ATOM     34  C   UNL A   1      42.891  29.354  30.359  1.00  0.00     0.188 C 
BRANCH  34  35
ATOM     35  O   UNL A   1      42.437  30.674  30.635  1.00  0.00    -0.376 OA
BRANCH  35  36
ATOM     36  C   UNL A   1      43.418  31.675  30.437  1.00  0.00     0.202 C 
BRANCH  36  37
ATOM     37  C   UNL A   1      43.107  32.599  29.253  1.00  0.00     0.261 C 
BRANCH  37  38
ATOM     38  O   UNL A   1      43.830  33.840  29.390  1.00  0.00    -0.460 OA
BRANCH  38  39
ATOM     39  C   UNL A   1      44.312  34.349  28.219  1.00  0.00     0.338 C 
ATOM     40  O   UNL A   1      43.991  35.432  27.754  1.00  0.00    -0.246 OA
BRANCH  39  41
ATOM     41  C   UNL A   1      45.216  33.357  27.591  1.00  0.00     0.060 A 
ATOM     42  C   UNL A   1      44.936  32.683  26.424  1.00  0.00     0.016 A 
ATOM     43  C   UNL A   1      46.388  33.002  28.191  1.00  0.00     0.016 A 
ATOM     44  C   UNL A   1      45.586  31.441  26.132  1.00  0.00     0.010 A 
ATOM     45  C   UNL A   1      46.994  31.784  27.821  1.00  0.00     0.010 A 
ATOM     46  C   UNL A   1      46.391  30.731  27.044  1.00  0.00    -0.014 A 
BRANCH  46  47
ATOM     47  C   UNL A   1      46.524  28.885  27.110  1.00  0.00     0.031 A 
ATOM     48  C   UNL A   1      45.120  27.586  26.642  1.00  0.00     0.074 A 
ATOM     49  C   UNL A   1      47.702  28.617  27.888  1.00  0.00     0.049 A 
ATOM     50  N   UNL A   1      44.338  27.027  27.603  1.00  0.00    -0.248 NA
ATOM     51  C   UNL A   1      44.118  27.216  25.463  1.00  0.00     0.031 C 
ATOM     52  C   UNL A   1      48.258  27.437  28.553  1.00  0.00     0.029 A 
ATOM     53  N   UNL A   1      48.599  29.525  28.514  1.00  0.00    -0.354 N 
ATOM     54  C   UNL A   1      43.247  26.280  27.354  1.00  0.00     0.074 A 
ATOM     55  C   UNL A   1      43.022  26.602  25.994  1.00  0.00     0.031 C 
ATOM     56  C   UNL A   1      49.171  27.617  29.496  1.00  0.00     0.029 A 
ATOM     57  C   UNL A   1      49.137  28.988  29.702  1.00  0.00     0.049 A 
ATOM     58  H   UNL A   1      48.819  30.418  28.162  1.00  0.00     0.167 HD
ATOM     59  C   UNL A   1      42.674  25.466  28.301  1.00  0.00     0.034 A 
ATOM     60  C   UNL A   1      48.960  29.462  30.953  1.00  0.00     0.034 A 
ATOM     61  C   UNL A   1      43.532  25.116  29.462  1.00  0.00     0.049 A 
ATOM     62  C   UNL A   1      48.001  28.619  31.833  1.00  0.00     0.074 A 
ATOM     63  C   UNL A   1      44.361  24.021  29.664  1.00  0.00     0.029 A 
ATOM     64  N   UNL A   1      43.821  25.969  30.532  1.00  0.00    -0.354 N 
ATOM     65  N   UNL A   1      47.081  27.757  31.420  1.00  0.00    -0.248 NA
ATOM     66  C   UNL A   1      48.055  28.684  33.286  1.00  0.00     0.031 C 
ATOM     67  C   UNL A   1      45.290  24.331  30.692  1.00  0.00     0.029 A 
ATOM     68  C   UNL A   1      44.978  25.569  31.230  1.00  0.00     0.049 A 
ATOM     69  H   UNL A   1      43.279  26.756  30.769  1.00  0.00     0.167 HD
ATOM     70  C   UNL A   1      46.432  27.170  32.508  1.00  0.00     0.074 A 
ATOM     71  C   UNL A   1      47.080  27.829  33.644  1.00  0.00     0.031 C 
ATOM     72  C   UNL A   1      45.436  26.197  32.486  1.00  0.00     0.034 A 
BRANCH  59  73
ATOM     73  C   UNL A   1      41.460  24.666  27.901  1.00  0.00     0.023 A 
ATOM     74  C   UNL A   1      41.556  23.306  27.551  1.00  0.00     0.031 A 
ATOM     75  C   UNL A   1      40.192  25.265  27.774  1.00  0.00     0.131 A 
ATOM     76  C   UNL A   1      40.456  22.624  26.999  1.00  0.00     0.055 A 
ATOM     77  C   UNL A   1      39.100  24.591  27.210  1.00  0.00     0.041 A 
ATOM     78  F   UNL A   1      39.995  26.537  28.161  1.00  0.00    -0.206 F 
ATOM     79  C   UNL A   1      39.235  23.271  26.795  1.00  0.00     0.022 A 
BRANCH  76  80
ATOM     80  S   UNL A   1      40.648  20.889  26.492  1.00  0.00     0.124 S 
ATOM     81  O   UNL A   1      39.397  20.623  25.787  1.00  0.00    -0.237 OA
ATOM     82  O   UNL A   1      41.854  20.934  25.672  1.00  0.00    -0.237 OA
ATOM     83  O   UNL A   1      40.795  20.176  27.761  1.00  0.00    -0.744 OA
ENDBRANCH  76  80
ENDBRANCH  59  73
BRANCH  60  84
ATOM     84  C   UNL A   1      49.537  30.833  30.999  1.00  0.00     0.023 A 
ATOM     85  C   UNL A   1      50.714  31.013  30.203  1.00  0.00     0.031 A 
ATOM     86  C   UNL A   1      48.785  31.959  31.306  1.00  0.00     0.131 A 
ATOM     87  C   UNL A   1      50.893  32.190  29.473  1.00  0.00     0.055 A 
ATOM     88  C   UNL A   1      49.080  33.194  30.704  1.00  0.00     0.041 A 
ATOM     89  F   UNL A   1      47.672  31.854  32.045  1.00  0.00    -0.206 F 
ATOM     90  C   UNL A   1      50.093  33.296  29.739  1.00  0.00     0.022 A 
BRANCH  87  91
ATOM     91  S   UNL A   1      51.812  32.106  27.885  1.00  0.00     0.124 S 
ATOM     92  O   UNL A   1      53.024  31.393  28.266  1.00  0.00    -0.237 OA
ATOM     93  O   UNL A   1      50.893  31.390  27.005  1.00  0.00    -0.237 OA
ATOM     94  O   UNL A   1      51.979  33.516  27.534  1.00  0.00    -0.744 OA
ENDBRANCH  87  91
ENDBRANCH  60  84
BRANCH  72  95
ATOM     95  C   UNL A   1      44.815  25.548  33.742  1.00  0.00     0.023 A 
ATOM     96  C   UNL A   1      43.705  26.058  34.424  1.00  0.00     0.031 A 
ATOM     97  C   UNL A   1      45.436  24.430  34.368  1.00  0.00     0.131 A 
ATOM     98  C   UNL A   1      43.200  25.427  35.582  1.00  0.00     0.055 A 
ATOM     99  C   UNL A   1      44.996  23.869  35.571  1.00  0.00     0.041 A 
ATOM    100  F   UNL A   1      46.493  23.808  33.831  1.00  0.00    -0.206 F 
ATOM    101  C   UNL A   1      43.849  24.347  36.172  1.00  0.00     0.022 A 
BRANCH  98 102
ATOM    102  S   UNL A   1      41.610  25.989  36.242  1.00  0.00     0.124 S 
ATOM    103  O   UNL A   1      41.146  24.809  36.963  1.00  0.00    -0.237 OA
ATOM    104  O   UNL A   1      42.008  27.123  37.074  1.00  0.00    -0.237 OA
ATOM    105  O   UNL A   1      40.846  26.342  35.049  1.00  0.00    -0.744 OA
ENDBRANCH  98 102
ENDBRANCH  72  95
ENDBRANCH  46  47
ENDBRANCH  39  41
ENDBRANCH  38  39
ENDBRANCH  37  38
ENDBRANCH  36  37
ENDBRANCH  35  36
ENDBRANCH  34  35
ENDBRANCH  33  34
ENDBRANCH   1  33
TORSDOF 26
ENDMDL
