MODEL 1
REMARK VINA RESULT:     -10.1      0.000      0.000
REMARK SMILES CS(=O)(=O)c1ccc(N2N=C(C(=O)OCCOCCOCCOCCOC(=O)c3ccc(-c4c5nc(c(-c6cc(S(=O)(=O)[O-])ccc6F)c6ccc([nH]6)c(-c6cc(S(=O)(=O)[O-])ccc6F)c6nc(c(-c7cc(S(=O)(=O)[O-])ccc7F)c7ccc4[nH]7)C=C6)C=C5)cc3)C[C@H]2c2cccs2)cc1
REMARK SMILES IDX 21 1 20 2 19 3 18 4 17 5 16 6 15 7 14 8 12 9 13 10 11 11
REMARK SMILES IDX 9 12 10 13 93 14 92 15 8 16 5 17 6 18 100 19 7 20 99 21 2 22
REMARK SMILES IDX 1 23 3 24 4 25 94 26 95 27 98 28 96 29 97 30 22 31 23 32
REMARK SMILES IDX 24 33 25 34 26 35 27 36 28 37 29 38 30 39 91 40 31 41 90 42
REMARK SMILES IDX 32 43 33 44 34 45 84 46 35 47 89 48 83 49 85 50 36 51 88 52
REMARK SMILES IDX 82 53 81 54 37 56 69 57 49 58 68 59 50 60 53 61 67 62 86 63
REMARK SMILES IDX 51 64 52 65 66 67 87 68 54 69 38 70 39 71 47 72 40 73 46 74
REMARK SMILES IDX 48 75 45 76 41 77 42 78 43 79 44 80 70 81 71 82 79 83 72 84
REMARK SMILES IDX 78 85 80 86 77 87 73 88 74 89 75 90 76 91 55 92 56 93 64 94
REMARK SMILES IDX 57 95 63 96 65 97 62 98 58 99 59 100 60 101 61 102
REMARK H PARENT 85 55 53 66
REMARK Flexibility Score: inf
ROOT
ATOM      1  C   UNL A   1      38.763  21.797  25.734  1.00  0.00     0.188 C 
ENDROOT
BRANCH   1   2
ATOM      2  O   UNL A   1      37.406  21.627  25.320  1.00  0.00    -0.377 OA
BRANCH   2   3
ATOM      3  C   UNL A   1      36.917  22.463  24.285  1.00  0.00     0.188 C 
BRANCH   3   4
ATOM      4  C   UNL A   1      35.390  22.412  24.114  1.00  0.00     0.188 C 
BRANCH   4   5
ATOM      5  O   UNL A   1      34.644  22.100  25.273  1.00  0.00    -0.376 OA
BRANCH   5   6
ATOM      6  C   UNL A   1      33.256  21.801  25.248  1.00  0.00     0.202 C 
BRANCH   6   7
ATOM      7  C   UNL A   1      32.211  22.139  26.331  1.00  0.00     0.261 C 
BRANCH   7   8
ATOM      8  O   UNL A   1      32.328  23.401  26.974  1.00  0.00    -0.459 OA
BRANCH   8   9
ATOM      9  C   UNL A   1      31.459  24.352  26.608  1.00  0.00     0.354 C 
ATOM     10  O   UNL A   1      30.253  24.374  26.755  1.00  0.00    -0.245 OA
BRANCH   9  11
ATOM     11  C   UNL A   1      32.258  25.525  26.108  1.00  0.00     0.148 C 
ATOM     12  N   UNL A   1      33.220  27.406  26.052  1.00  0.00    -0.256 N 
ATOM     13  N   UNL A   1      32.517  26.557  26.855  1.00  0.00    -0.169 NA
ATOM     14  C   UNL A   1      33.082  27.043  24.624  1.00  0.00     0.154 C 
ATOM     15  C   UNL A   1      32.896  25.523  24.751  1.00  0.00     0.099 C 
BRANCH  12  16
ATOM     16  C   UNL A   1      33.499  28.673  26.539  1.00  0.00     0.060 A 
ATOM     17  C   UNL A   1      34.080  31.206  27.609  1.00  0.00     0.067 A 
ATOM     18  C   UNL A   1      35.109  30.279  27.427  1.00  0.00     0.022 A 
ATOM     19  C   UNL A   1      32.762  30.870  27.296  1.00  0.00     0.022 A 
ATOM     20  C   UNL A   1      34.810  29.020  26.894  1.00  0.00     0.029 A 
ATOM     21  C   UNL A   1      32.482  29.606  26.775  1.00  0.00     0.029 A 
BRANCH  17  22
ATOM     22  S   UNL A   1      34.434  32.816  28.265  1.00  0.00     0.175 S 
ATOM     23  C   UNL A   1      34.737  32.532  29.990  1.00  0.00     0.163 C 
ATOM     24  O   UNL A   1      33.224  33.612  28.173  1.00  0.00    -0.224 OA
ATOM     25  O   UNL A   1      35.671  33.266  27.658  1.00  0.00    -0.224 OA
ENDBRANCH  17  22
ENDBRANCH  12  16
BRANCH  14  26
ATOM     26  C   UNL A   1      31.952  27.725  23.854  1.00  0.00     0.030 A 
ATOM     27  C   UNL A   1      31.434  28.991  24.079  1.00  0.00     0.017 A 
ATOM     28  S   UNL A   1      31.125  26.969  22.545  1.00  0.00    -0.147 S 
ATOM     29  C   UNL A   1      30.368  29.320  23.192  1.00  0.00     0.012 A 
ATOM     30  C   UNL A   1      30.127  28.319  22.281  1.00  0.00     0.065 A 
ENDBRANCH  14  26
ENDBRANCH   9  11
ENDBRANCH   8   9
ENDBRANCH   7   8
ENDBRANCH   6   7
ENDBRANCH   5   6
ENDBRANCH   4   5
ENDBRANCH   3   4
ENDBRANCH   2   3
ENDBRANCH   1   2
BRANCH   1  31
ATOM     31  C   UNL A   1      39.651  20.583  26.091  1.00  0.00     0.188 C 
BRANCH  31  32
ATOM     32  O   UNL A   1      40.898  20.918  26.685  1.00  0.00    -0.376 OA
BRANCH  32  33
ATOM     33  C   UNL A   1      41.638  19.891  27.326  1.00  0.00     0.202 C 
BRANCH  33  34
ATOM     34  C   UNL A   1      42.438  18.947  26.416  1.00  0.00     0.261 C 
BRANCH  34  35
ATOM     35  O   UNL A   1      42.808  19.469  25.132  1.00  0.00    -0.460 OA
BRANCH  35  36
ATOM     36  C   UNL A   1      44.126  19.588  24.863  1.00  0.00     0.338 C 
ATOM     37  O   UNL A   1      44.868  18.720  24.438  1.00  0.00    -0.246 OA
BRANCH  36  38
ATOM     38  C   UNL A   1      44.476  21.018  24.995  1.00  0.00     0.060 A 
ATOM     39  C   UNL A   1      45.620  21.382  25.717  1.00  0.00     0.016 A 
ATOM     40  C   UNL A   1      43.674  21.992  24.397  1.00  0.00     0.016 A 
ATOM     41  C   UNL A   1      45.946  22.732  25.871  1.00  0.00     0.010 A 
ATOM     42  C   UNL A   1      43.992  23.340  24.568  1.00  0.00     0.010 A 
ATOM     43  C   UNL A   1      45.111  23.719  25.333  1.00  0.00    -0.014 A 
BRANCH  43  44
ATOM     44  C   UNL A   1      45.259  25.139  25.740  1.00  0.00     0.031 A 
ATOM     45  C   UNL A   1      46.637  25.741  25.697  1.00  0.00     0.074 A 
ATOM     46  C   UNL A   1      44.211  25.872  26.156  1.00  0.00     0.049 A 
ATOM     47  N   UNL A   1      47.055  26.899  26.134  1.00  0.00    -0.248 NA
ATOM     48  C   UNL A   1      47.687  24.910  25.088  1.00  0.00     0.031 C 
ATOM     49  C   UNL A   1      42.821  25.421  26.183  1.00  0.00     0.029 A 
ATOM     50  N   UNL A   1      44.161  27.150  26.653  1.00  0.00    -0.354 N 
ATOM     51  C   UNL A   1      48.419  26.934  25.863  1.00  0.00     0.074 A 
ATOM     52  C   UNL A   1      48.761  25.664  25.259  1.00  0.00     0.031 C 
ATOM     53  C   UNL A   1      42.055  26.405  26.688  1.00  0.00     0.029 A 
ATOM     54  C   UNL A   1      42.905  27.533  27.070  1.00  0.00     0.049 A 
ATOM     55  H   UNL A   1      44.947  27.740  26.707  1.00  0.00     0.167 HD
ATOM     56  C   UNL A   1      49.303  27.935  26.091  1.00  0.00     0.034 A 
ATOM     57  C   UNL A   1      42.502  28.646  27.718  1.00  0.00     0.034 A 
ATOM     58  C   UNL A   1      48.948  29.188  26.709  1.00  0.00     0.049 A 
ATOM     59  C   UNL A   1      43.525  29.705  28.067  1.00  0.00     0.074 A 
ATOM     60  C   UNL A   1      49.761  30.272  26.989  1.00  0.00     0.029 A 
ATOM     61  N   UNL A   1      47.675  29.522  27.157  1.00  0.00    -0.354 N 
ATOM     62  N   UNL A   1      44.816  29.724  27.818  1.00  0.00    -0.248 NA
ATOM     63  C   UNL A   1      43.038  30.892  28.784  1.00  0.00     0.031 C 
ATOM     64  C   UNL A   1      49.001  31.223  27.677  1.00  0.00     0.029 A 
ATOM     65  C   UNL A   1      47.691  30.778  27.741  1.00  0.00     0.049 A 
ATOM     66  H   UNL A   1      46.880  28.948  27.071  1.00  0.00     0.167 HD
ATOM     67  C   UNL A   1      45.281  30.944  28.308  1.00  0.00     0.074 A 
ATOM     68  C   UNL A   1      44.135  31.632  28.864  1.00  0.00     0.031 C 
ATOM     69  C   UNL A   1      46.538  31.455  28.288  1.00  0.00     0.034 A 
BRANCH  56  70
ATOM     70  C   UNL A   1      50.745  27.684  25.724  1.00  0.00     0.023 A 
ATOM     71  C   UNL A   1      51.212  27.841  24.407  1.00  0.00     0.031 A 
ATOM     72  C   UNL A   1      51.661  27.247  26.699  1.00  0.00     0.131 A 
ATOM     73  C   UNL A   1      52.533  27.491  24.087  1.00  0.00     0.055 A 
ATOM     74  C   UNL A   1      52.996  26.985  26.391  1.00  0.00     0.041 A 
ATOM     75  F   UNL A   1      51.267  27.051  27.967  1.00  0.00    -0.206 F 
ATOM     76  C   UNL A   1      53.436  27.091  25.075  1.00  0.00     0.022 A 
BRANCH  73  77
ATOM     77  S   UNL A   1      53.007  27.414  22.338  1.00  0.00     0.124 S 
ATOM     78  O   UNL A   1      54.292  26.724  22.412  1.00  0.00    -0.237 OA
ATOM     79  O   UNL A   1      51.909  26.657  21.747  1.00  0.00    -0.237 OA
ATOM     80  O   UNL A   1      53.083  28.819  21.942  1.00  0.00    -0.744 OA
ENDBRANCH  73  77
ENDBRANCH  56  70
BRANCH  57  81
ATOM     81  C   UNL A   1      41.076  28.810  28.132  1.00  0.00     0.023 A 
ATOM     82  C   UNL A   1      40.679  28.605  29.463  1.00  0.00     0.031 A 
ATOM     83  C   UNL A   1      40.077  29.105  27.186  1.00  0.00     0.131 A 
ATOM     84  C   UNL A   1      39.317  28.645  29.801  1.00  0.00     0.055 A 
ATOM     85  C   UNL A   1      38.730  29.205  27.540  1.00  0.00     0.041 A 
ATOM     86  F   UNL A   1      40.397  29.303  25.898  1.00  0.00    -0.206 F 
ATOM     87  C   UNL A   1      38.341  28.960  28.853  1.00  0.00     0.022 A 
BRANCH  84  88
ATOM     88  S   UNL A   1      38.827  28.174  31.483  1.00  0.00     0.124 S 
ATOM     89  O   UNL A   1      38.496  26.764  31.310  1.00  0.00    -0.237 OA
ATOM     90  O   UNL A   1      40.038  28.463  32.243  1.00  0.00    -0.237 OA
ATOM     91  O   UNL A   1      37.692  29.052  31.764  1.00  0.00    -0.744 OA
ENDBRANCH  84  88
ENDBRANCH  57  81
BRANCH  69  92
ATOM     92  C   UNL A   1      46.733  32.857  28.817  1.00  0.00     0.023 A 
ATOM     93  C   UNL A   1      46.599  33.993  28.000  1.00  0.00     0.031 A 
ATOM     94  C   UNL A   1      47.038  33.055  30.176  1.00  0.00     0.131 A 
ATOM     95  C   UNL A   1      46.811  35.272  28.541  1.00  0.00     0.055 A 
ATOM     96  C   UNL A   1      47.185  34.331  30.722  1.00  0.00     0.041 A 
ATOM     97  F   UNL A   1      47.182  32.007  31.004  1.00  0.00    -0.206 F 
ATOM     98  C   UNL A   1      47.083  35.448  29.900  1.00  0.00     0.022 A 
BRANCH  95  99
ATOM     99  S   UNL A   1      46.808  36.703  27.426  1.00  0.00     0.124 S 
ATOM    100  O   UNL A   1      46.047  36.199  26.287  1.00  0.00    -0.237 OA
ATOM    101  O   UNL A   1      46.149  37.725  28.231  1.00  0.00    -0.237 OA
ATOM    102  O   UNL A   1      48.227  36.938  27.166  1.00  0.00    -0.744 OA
ENDBRANCH  95  99
ENDBRANCH  69  92
ENDBRANCH  43  44
ENDBRANCH  36  38
ENDBRANCH  35  36
ENDBRANCH  34  35
ENDBRANCH  33  34
ENDBRANCH  32  33
ENDBRANCH  31  32
ENDBRANCH   1  31
TORSDOF 26
ENDMDL
MODEL 2
REMARK VINA RESULT:      -9.7      2.222      3.060
REMARK SMILES CS(=O)(=O)c1ccc(N2N=C(C(=O)OCCOCCOCCOCCOC(=O)c3ccc(-c4c5nc(c(-c6cc(S(=O)(=O)[O-])ccc6F)c6ccc([nH]6)c(-c6cc(S(=O)(=O)[O-])ccc6F)c6nc(c(-c7cc(S(=O)(=O)[O-])ccc7F)c7ccc4[nH]7)C=C6)C=C5)cc3)C[C@H]2c2cccs2)cc1
REMARK SMILES IDX 21 1 20 2 19 3 18 4 17 5 16 6 15 7 14 8 12 9 13 10 11 11
REMARK SMILES IDX 9 12 10 13 93 14 92 15 8 16 5 17 6 18 100 19 7 20 99 21 2 22
REMARK SMILES IDX 1 23 3 24 4 25 94 26 95 27 98 28 96 29 97 30 22 31 23 32
REMARK SMILES IDX 24 33 25 34 26 35 27 36 28 37 29 38 30 39 91 40 31 41 90 42
REMARK SMILES IDX 32 43 33 44 34 45 84 46 35 47 89 48 83 49 85 50 36 51 88 52
REMARK SMILES IDX 82 53 81 54 37 56 69 57 49 58 68 59 50 60 53 61 67 62 86 63
REMARK SMILES IDX 51 64 52 65 66 67 87 68 54 69 38 70 39 71 47 72 40 73 46 74
REMARK SMILES IDX 48 75 45 76 41 77 42 78 43 79 44 80 70 81 71 82 79 83 72 84
REMARK SMILES IDX 78 85 80 86 77 87 73 88 74 89 75 90 76 91 55 92 56 93 64 94
REMARK SMILES IDX 57 95 63 96 65 97 62 98 58 99 59 100 60 101 61 102
REMARK H PARENT 85 55 53 66
REMARK Flexibility Score: inf
ROOT
ATOM      1  C   UNL A   1      39.225  20.918  25.493  1.00  0.00     0.188 C 
ENDROOT
BRANCH   1   2
ATOM      2  O   UNL A   1      37.797  20.883  25.467  1.00  0.00    -0.377 OA
BRANCH   2   3
ATOM      3  C   UNL A   1      37.099  22.110  25.584  1.00  0.00     0.188 C 
BRANCH   3   4
ATOM      4  C   UNL A   1      35.571  21.953  25.647  1.00  0.00     0.188 C 
BRANCH   4   5
ATOM      5  O   UNL A   1      35.079  21.038  26.606  1.00  0.00    -0.376 OA
BRANCH   5   6
ATOM      6  C   UNL A   1      33.926  21.284  27.396  1.00  0.00     0.202 C 
BRANCH   6   7
ATOM      7  C   UNL A   1      33.322  22.656  27.762  1.00  0.00     0.261 C 
BRANCH   7   8
ATOM      8  O   UNL A   1      33.098  23.570  26.697  1.00  0.00    -0.459 OA
BRANCH   8   9
ATOM      9  C   UNL A   1      31.943  24.247  26.710  1.00  0.00     0.354 C 
ATOM     10  O   UNL A   1      30.921  23.988  27.313  1.00  0.00    -0.245 OA
BRANCH   9  11
ATOM     11  C   UNL A   1      32.165  25.531  25.958  1.00  0.00     0.148 C 
ATOM     12  N   UNL A   1      31.789  27.400  25.047  1.00  0.00    -0.256 N 
ATOM     13  N   UNL A   1      31.222  26.410  25.793  1.00  0.00    -0.169 NA
ATOM     14  C   UNL A   1      33.044  26.946  24.406  1.00  0.00     0.154 C 
ATOM     15  C   UNL A   1      33.519  25.920  25.446  1.00  0.00     0.099 C 
BRANCH  12  16
ATOM     16  C   UNL A   1      30.963  28.409  24.578  1.00  0.00     0.060 A 
ATOM     17  C   UNL A   1      29.328  30.448  23.543  1.00  0.00     0.067 A 
ATOM     18  C   UNL A   1      29.126  29.127  23.138  1.00  0.00     0.022 A 
ATOM     19  C   UNL A   1      30.358  30.765  24.430  1.00  0.00     0.022 A 
ATOM     20  C   UNL A   1      29.945  28.118  23.658  1.00  0.00     0.029 A 
ATOM     21  C   UNL A   1      31.171  29.747  24.930  1.00  0.00     0.029 A 
BRANCH  17  22
ATOM     22  S   UNL A   1      28.292  31.744  22.915  1.00  0.00     0.175 S 
ATOM     23  C   UNL A   1      28.080  31.345  21.199  1.00  0.00     0.163 C 
ATOM     24  O   UNL A   1      29.042  32.985  22.972  1.00  0.00    -0.224 OA
ATOM     25  O   UNL A   1      27.004  31.620  23.569  1.00  0.00    -0.224 OA
ENDBRANCH  17  22
ENDBRANCH  12  16
BRANCH  14  26
ATOM     26  C   UNL A   1      32.919  26.364  22.999  1.00  0.00     0.030 A 
ATOM     27  C   UNL A   1      32.466  25.100  22.655  1.00  0.00     0.017 A 
ATOM     28  S   UNL A   1      33.357  27.243  21.583  1.00  0.00    -0.147 S 
ATOM     29  C   UNL A   1      32.492  24.864  21.250  1.00  0.00     0.012 A 
ATOM     30  C   UNL A   1      32.920  25.966  20.550  1.00  0.00     0.065 A 
ENDBRANCH  14  26
ENDBRANCH   9  11
ENDBRANCH   8   9
ENDBRANCH   7   8
ENDBRANCH   6   7
ENDBRANCH   5   6
ENDBRANCH   4   5
ENDBRANCH   3   4
ENDBRANCH   2   3
ENDBRANCH   1   2
BRANCH   1  31
ATOM     31  C   UNL A   1      40.046  19.764  26.113  1.00  0.00     0.188 C 
BRANCH  31  32
ATOM     32  O   UNL A   1      41.278  20.164  26.698  1.00  0.00    -0.376 OA
BRANCH  32  33
ATOM     33  C   UNL A   1      42.271  19.175  26.922  1.00  0.00     0.202 C 
BRANCH  33  34
ATOM     34  C   UNL A   1      43.010  18.645  25.684  1.00  0.00     0.261 C 
BRANCH  34  35
ATOM     35  O   UNL A   1      43.406  19.626  24.717  1.00  0.00    -0.460 OA
BRANCH  35  36
ATOM     36  C   UNL A   1      44.637  20.169  24.847  1.00  0.00     0.338 C 
ATOM     37  O   UNL A   1      45.696  19.673  24.504  1.00  0.00    -0.246 OA
BRANCH  36  38
ATOM     38  C   UNL A   1      44.459  21.560  25.311  1.00  0.00     0.060 A 
ATOM     39  C   UNL A   1      44.031  22.539  24.405  1.00  0.00     0.016 A 
ATOM     40  C   UNL A   1      44.709  21.889  26.645  1.00  0.00     0.016 A 
ATOM     41  C   UNL A   1      43.885  23.863  24.826  1.00  0.00     0.010 A 
ATOM     42  C   UNL A   1      44.580  23.216  27.059  1.00  0.00     0.010 A 
ATOM     43  C   UNL A   1      44.200  24.216  26.144  1.00  0.00    -0.014 A 
BRANCH  43  44
ATOM     44  C   UNL A   1      44.351  25.641  26.529  1.00  0.00     0.031 A 
ATOM     45  C   UNL A   1      45.720  26.257  26.420  1.00  0.00     0.074 A 
ATOM     46  C   UNL A   1      43.316  26.369  26.982  1.00  0.00     0.049 A 
ATOM     47  N   UNL A   1      46.145  27.423  26.825  1.00  0.00    -0.248 NA
ATOM     48  C   UNL A   1      46.751  25.428  25.774  1.00  0.00     0.031 C 
ATOM     49  C   UNL A   1      41.932  25.906  27.075  1.00  0.00     0.029 A 
ATOM     50  N   UNL A   1      43.274  27.653  27.468  1.00  0.00    -0.354 N 
ATOM     51  C   UNL A   1      47.496  27.467  26.495  1.00  0.00     0.074 A 
ATOM     52  C   UNL A   1      47.824  26.194  25.891  1.00  0.00     0.031 C 
ATOM     53  C   UNL A   1      41.180  26.888  27.602  1.00  0.00     0.029 A 
ATOM     54  C   UNL A   1      42.034  28.028  27.934  1.00  0.00     0.049 A 
ATOM     55  H   UNL A   1      44.057  28.250  27.480  1.00  0.00     0.167 HD
ATOM     56  C   UNL A   1      48.379  28.480  26.674  1.00  0.00     0.034 A 
ATOM     57  C   UNL A   1      41.649  29.144  28.588  1.00  0.00     0.034 A 
ATOM     58  C   UNL A   1      48.039  29.736  27.293  1.00  0.00     0.049 A 
ATOM     59  C   UNL A   1      42.675  30.217  28.881  1.00  0.00     0.074 A 
ATOM     60  C   UNL A   1      48.853  30.830  27.525  1.00  0.00     0.029 A 
ATOM     61  N   UNL A   1      46.784  30.062  27.792  1.00  0.00    -0.354 N 
ATOM     62  N   UNL A   1      43.954  30.245  28.576  1.00  0.00    -0.248 NA
ATOM     63  C   UNL A   1      42.208  31.407  29.605  1.00  0.00     0.031 C 
ATOM     64  C   UNL A   1      48.114  31.781  28.236  1.00  0.00     0.029 A 
ATOM     65  C   UNL A   1      46.812  31.325  28.362  1.00  0.00     0.049 A 
ATOM     66  H   UNL A   1      45.991  29.480  27.747  1.00  0.00     0.167 HD
ATOM     67  C   UNL A   1      44.427  31.475  29.031  1.00  0.00     0.074 A 
ATOM     68  C   UNL A   1      43.300  32.158  29.629  1.00  0.00     0.031 C 
ATOM     69  C   UNL A   1      45.678  31.997  28.952  1.00  0.00     0.034 A 
BRANCH  56  70
ATOM     70  C   UNL A   1      49.807  28.238  26.247  1.00  0.00     0.023 A 
ATOM     71  C   UNL A   1      50.256  28.555  24.953  1.00  0.00     0.031 A 
ATOM     72  C   UNL A   1      50.724  27.649  27.136  1.00  0.00     0.131 A 
ATOM     73  C   UNL A   1      51.560  28.213  24.562  1.00  0.00     0.055 A 
ATOM     74  C   UNL A   1      52.045  27.391  26.768  1.00  0.00     0.041 A 
ATOM     75  F   UNL A   1      50.345  27.297  28.374  1.00  0.00    -0.206 F 
ATOM     76  C   UNL A   1      52.466  27.659  25.469  1.00  0.00     0.022 A 
BRANCH  73  77
ATOM     77  S   UNL A   1      52.002  28.356  22.809  1.00  0.00     0.124 S 
ATOM     78  O   UNL A   1      53.429  28.051  22.840  1.00  0.00    -0.237 OA
ATOM     79  O   UNL A   1      51.148  27.351  22.186  1.00  0.00    -0.237 OA
ATOM     80  O   UNL A   1      51.674  29.743  22.485  1.00  0.00    -0.744 OA
ENDBRANCH  73  77
ENDBRANCH  56  70
BRANCH  57  81
ATOM     81  C   UNL A   1      40.241  29.300  29.062  1.00  0.00     0.023 A 
ATOM     82  C   UNL A   1      39.917  29.192  30.424  1.00  0.00     0.031 A 
ATOM     83  C   UNL A   1      39.186  29.488  28.149  1.00  0.00     0.131 A 
ATOM     84  C   UNL A   1      38.573  29.219  30.829  1.00  0.00     0.055 A 
ATOM     85  C   UNL A   1      37.855  29.577  28.565  1.00  0.00     0.041 A 
ATOM     86  F   UNL A   1      39.435  29.590  26.834  1.00  0.00    -0.206 F 
ATOM     87  C   UNL A   1      37.542  29.428  29.911  1.00  0.00     0.022 A 
BRANCH  84  88
ATOM     88  S   UNL A   1      38.184  28.872  32.567  1.00  0.00     0.124 S 
ATOM     89  O   UNL A   1      39.039  29.831  33.257  1.00  0.00    -0.237 OA
ATOM     90  O   UNL A   1      36.750  29.136  32.614  1.00  0.00    -0.237 OA
ATOM     91  O   UNL A   1      38.565  27.469  32.726  1.00  0.00    -0.744 OA
ENDBRANCH  84  88
ENDBRANCH  57  81
BRANCH  69  92
ATOM     92  C   UNL A   1      45.882  33.407  29.456  1.00  0.00     0.023 A 
ATOM     93  C   UNL A   1      46.296  33.680  30.772  1.00  0.00     0.031 A 
ATOM     94  C   UNL A   1      45.678  34.496  28.589  1.00  0.00     0.131 A 
ATOM     95  C   UNL A   1      46.451  35.011  31.192  1.00  0.00     0.055 A 
ATOM     96  C   UNL A   1      45.895  35.814  28.995  1.00  0.00     0.041 A 
ATOM     97  F   UNL A   1      45.278  34.296  27.323  1.00  0.00    -0.206 F 
ATOM     98  C   UNL A   1      46.273  36.077  30.307  1.00  0.00     0.022 A 
BRANCH  95  99
ATOM     99  S   UNL A   1      46.811  35.338  32.940  1.00  0.00     0.124 S 
ATOM    100  O   UNL A   1      45.516  35.793  33.437  1.00  0.00    -0.237 OA
ATOM    101  O   UNL A   1      47.253  34.033  33.418  1.00  0.00    -0.237 OA
ATOM    102  O   UNL A   1      47.850  36.365  32.890  1.00  0.00    -0.744 OA
ENDBRANCH  95  99
ENDBRANCH  69  92
ENDBRANCH  43  44
ENDBRANCH  36  38
ENDBRANCH  35  36
ENDBRANCH  34  35
ENDBRANCH  33  34
ENDBRANCH  32  33
ENDBRANCH  31  32
ENDBRANCH   1  31
TORSDOF 26
ENDMDL
MODEL 3
REMARK VINA RESULT:      -9.6      2.151      3.286
REMARK SMILES CS(=O)(=O)c1ccc(N2N=C(C(=O)OCCOCCOCCOCCOC(=O)c3ccc(-c4c5nc(c(-c6cc(S(=O)(=O)[O-])ccc6F)c6ccc([nH]6)c(-c6cc(S(=O)(=O)[O-])ccc6F)c6nc(c(-c7cc(S(=O)(=O)[O-])ccc7F)c7ccc4[nH]7)C=C6)C=C5)cc3)C[C@H]2c2cccs2)cc1
REMARK SMILES IDX 21 1 20 2 19 3 18 4 17 5 16 6 15 7 14 8 12 9 13 10 11 11
REMARK SMILES IDX 9 12 10 13 93 14 92 15 8 16 5 17 6 18 100 19 7 20 99 21 2 22
REMARK SMILES IDX 1 23 3 24 4 25 94 26 95 27 98 28 96 29 97 30 22 31 23 32
REMARK SMILES IDX 24 33 25 34 26 35 27 36 28 37 29 38 30 39 91 40 31 41 90 42
REMARK SMILES IDX 32 43 33 44 34 45 84 46 35 47 89 48 83 49 85 50 36 51 88 52
REMARK SMILES IDX 82 53 81 54 37 56 69 57 49 58 68 59 50 60 53 61 67 62 86 63
REMARK SMILES IDX 51 64 52 65 66 67 87 68 54 69 38 70 39 71 47 72 40 73 46 74
REMARK SMILES IDX 48 75 45 76 41 77 42 78 43 79 44 80 70 81 71 82 79 83 72 84
REMARK SMILES IDX 78 85 80 86 77 87 73 88 74 89 75 90 76 91 55 92 56 93 64 94
REMARK SMILES IDX 57 95 63 96 65 97 62 98 58 99 59 100 60 101 61 102
REMARK H PARENT 85 55 53 66
REMARK Flexibility Score: inf
ROOT
ATOM      1  C   UNL A   1      39.501  20.674  25.584  1.00  0.00     0.188 C 
ENDROOT
BRANCH   1   2
ATOM      2  O   UNL A   1      38.128  20.487  25.232  1.00  0.00    -0.377 OA
BRANCH   2   3
ATOM      3  C   UNL A   1      37.259  21.602  25.330  1.00  0.00     0.188 C 
BRANCH   3   4
ATOM      4  C   UNL A   1      35.972  21.461  24.501  1.00  0.00     0.188 C 
BRANCH   4   5
ATOM      5  O   UNL A   1      35.103  20.412  24.875  1.00  0.00    -0.376 OA
BRANCH   5   6
ATOM      6  C   UNL A   1      33.742  20.348  24.476  1.00  0.00     0.202 C 
BRANCH   6   7
ATOM      7  C   UNL A   1      32.911  21.468  23.816  1.00  0.00     0.261 C 
BRANCH   7   8
ATOM      8  O   UNL A   1      32.934  22.745  24.439  1.00  0.00    -0.459 OA
BRANCH   8   9
ATOM      9  C   UNL A   1      32.936  23.814  23.634  1.00  0.00     0.354 C 
ATOM     10  O   UNL A   1      33.419  23.926  22.525  1.00  0.00    -0.245 OA
BRANCH   9  11
ATOM     11  C   UNL A   1      32.061  24.860  24.270  1.00  0.00     0.148 C 
ATOM     12  N   UNL A   1      30.808  26.547  24.495  1.00  0.00    -0.256 N 
ATOM     13  N   UNL A   1      31.468  25.784  23.576  1.00  0.00    -0.169 NA
ATOM     14  C   UNL A   1      31.309  26.300  25.866  1.00  0.00     0.154 C 
ATOM     15  C   UNL A   1      31.737  24.831  25.734  1.00  0.00     0.099 C 
BRANCH  12  16
ATOM     16  C   UNL A   1      30.208  27.715  24.054  1.00  0.00     0.060 A 
ATOM     17  C   UNL A   1      29.008  30.059  23.071  1.00  0.00     0.067 A 
ATOM     18  C   UNL A   1      28.376  28.828  22.883  1.00  0.00     0.022 A 
ATOM     19  C   UNL A   1      30.246  30.128  23.712  1.00  0.00     0.022 A 
ATOM     20  C   UNL A   1      28.981  27.665  23.376  1.00  0.00     0.029 A 
ATOM     21  C   UNL A   1      30.839  28.957  24.187  1.00  0.00     0.029 A 
BRANCH  17  22
ATOM     22  S   UNL A   1      28.254  31.551  22.475  1.00  0.00     0.175 S 
ATOM     23  C   UNL A   1      27.940  31.229  20.758  1.00  0.00     0.163 C 
ATOM     24  O   UNL A   1      29.246  32.608  22.534  1.00  0.00    -0.224 OA
ATOM     25  O   UNL A   1      26.977  31.687  23.149  1.00  0.00    -0.224 OA
ENDBRANCH  17  22
ENDBRANCH  12  16
BRANCH  14  26
ATOM     26  C   UNL A   1      32.433  27.213  26.354  1.00  0.00     0.030 A 
ATOM     27  C   UNL A   1      33.772  27.150  26.003  1.00  0.00     0.017 A 
ATOM     28  S   UNL A   1      32.172  28.498  27.472  1.00  0.00    -0.147 S 
ATOM     29  C   UNL A   1      34.565  28.140  26.655  1.00  0.00     0.012 A 
ATOM     30  C   UNL A   1      33.806  28.964  27.452  1.00  0.00     0.065 A 
ENDBRANCH  14  26
ENDBRANCH   9  11
ENDBRANCH   8   9
ENDBRANCH   7   8
ENDBRANCH   6   7
ENDBRANCH   5   6
ENDBRANCH   4   5
ENDBRANCH   3   4
ENDBRANCH   2   3
ENDBRANCH   1   2
BRANCH   1  31
ATOM     31  C   UNL A   1      40.379  19.489  26.049  1.00  0.00     0.188 C 
BRANCH  31  32
ATOM     32  O   UNL A   1      41.606  19.868  26.658  1.00  0.00    -0.376 OA
BRANCH  32  33
ATOM     33  C   UNL A   1      42.649  18.908  26.728  1.00  0.00     0.202 C 
BRANCH  33  34
ATOM     34  C   UNL A   1      43.248  18.441  25.393  1.00  0.00     0.261 C 
BRANCH  34  35
ATOM     35  O   UNL A   1      43.597  19.475  24.461  1.00  0.00    -0.460 OA
BRANCH  35  36
ATOM     36  C   UNL A   1      44.841  19.995  24.544  1.00  0.00     0.338 C 
ATOM     37  O   UNL A   1      45.872  19.496  24.130  1.00  0.00    -0.246 OA
BRANCH  36  38
ATOM     38  C   UNL A   1      44.709  21.374  25.059  1.00  0.00     0.060 A 
ATOM     39  C   UNL A   1      44.145  22.363  24.244  1.00  0.00     0.016 A 
ATOM     40  C   UNL A   1      45.138  21.680  26.353  1.00  0.00     0.016 A 
ATOM     41  C   UNL A   1      44.041  23.676  24.711  1.00  0.00     0.010 A 
ATOM     42  C   UNL A   1      45.049  22.995  26.810  1.00  0.00     0.010 A 
ATOM     43  C   UNL A   1      44.530  24.007  25.981  1.00  0.00    -0.014 A 
BRANCH  43  44
ATOM     44  C   UNL A   1      44.714  25.427  26.373  1.00  0.00     0.031 A 
ATOM     45  C   UNL A   1      46.084  26.028  26.214  1.00  0.00     0.074 A 
ATOM     46  C   UNL A   1      43.706  26.161  26.876  1.00  0.00     0.049 A 
ATOM     47  N   UNL A   1      46.538  27.186  26.613  1.00  0.00    -0.248 NA
ATOM     48  C   UNL A   1      47.078  25.195  25.517  1.00  0.00     0.031 C 
ATOM     49  C   UNL A   1      42.322  25.711  27.021  1.00  0.00     0.029 A 
ATOM     50  N   UNL A   1      43.698  27.439  27.376  1.00  0.00    -0.354 N 
ATOM     51  C   UNL A   1      47.875  27.219  26.227  1.00  0.00     0.074 A 
ATOM     52  C   UNL A   1      48.163  25.949  25.597  1.00  0.00     0.031 C 
ATOM     53  C   UNL A   1      41.603  26.696  27.589  1.00  0.00     0.029 A 
ATOM     54  C   UNL A   1      42.484  27.823  27.897  1.00  0.00     0.049 A 
ATOM     55  H   UNL A   1      44.488  28.028  27.362  1.00  0.00     0.167 HD
ATOM     56  C   UNL A   1      48.775  28.219  26.380  1.00  0.00     0.034 A 
ATOM     57  C   UNL A   1      42.138  28.936  28.577  1.00  0.00     0.034 A 
ATOM     58  C   UNL A   1      48.475  29.473  27.025  1.00  0.00     0.049 A 
ATOM     59  C   UNL A   1      43.187  29.995  28.838  1.00  0.00     0.074 A 
ATOM     60  C   UNL A   1      49.310  30.556  27.234  1.00  0.00     0.029 A 
ATOM     61  N   UNL A   1      47.245  29.808  27.578  1.00  0.00    -0.354 N 
ATOM     62  N   UNL A   1      44.452  30.013  28.480  1.00  0.00    -0.248 NA
ATOM     63  C   UNL A   1      42.764  31.183  29.593  1.00  0.00     0.031 C 
ATOM     64  C   UNL A   1      48.612  31.508  27.984  1.00  0.00     0.029 A 
ATOM     65  C   UNL A   1      47.312  31.064  28.159  1.00  0.00     0.049 A 
ATOM     66  H   UNL A   1      46.445  29.235  27.561  1.00  0.00     0.167 HD
ATOM     67  C   UNL A   1      44.958  31.233  28.928  1.00  0.00     0.074 A 
ATOM     68  C   UNL A   1      43.864  31.921  29.579  1.00  0.00     0.031 C 
ATOM     69  C   UNL A   1      46.210  31.742  28.802  1.00  0.00     0.034 A 
BRANCH  56  70
ATOM     70  C   UNL A   1      50.181  27.967  25.892  1.00  0.00     0.023 A 
ATOM     71  C   UNL A   1      51.257  27.809  26.783  1.00  0.00     0.031 A 
ATOM     72  C   UNL A   1      50.457  27.917  24.513  1.00  0.00     0.131 A 
ATOM     73  C   UNL A   1      52.564  27.687  26.287  1.00  0.00     0.055 A 
ATOM     74  C   UNL A   1      51.747  27.707  24.026  1.00  0.00     0.041 A 
ATOM     75  F   UNL A   1      49.475  28.090  23.614  1.00  0.00    -0.206 F 
ATOM     76  C   UNL A   1      52.814  27.606  24.914  1.00  0.00     0.022 A 
BRANCH  73  77
ATOM     77  S   UNL A   1      53.946  27.795  27.456  1.00  0.00     0.124 S 
ATOM     78  O   UNL A   1      54.540  29.079  27.091  1.00  0.00    -0.237 OA
ATOM     79  O   UNL A   1      53.271  27.748  28.747  1.00  0.00    -0.237 OA
ATOM     80  O   UNL A   1      54.761  26.625  27.132  1.00  0.00    -0.744 OA
ENDBRANCH  73  77
ENDBRANCH  56  70
BRANCH  57  81
ATOM     81  C   UNL A   1      40.752  29.103  29.110  1.00  0.00     0.023 A 
ATOM     82  C   UNL A   1      40.494  29.044  30.489  1.00  0.00     0.031 A 
ATOM     83  C   UNL A   1      39.655  29.250  28.241  1.00  0.00     0.131 A 
ATOM     84  C   UNL A   1      39.170  29.080  30.955  1.00  0.00     0.055 A 
ATOM     85  C   UNL A   1      38.345  29.348  28.715  1.00  0.00     0.041 A 
ATOM     86  F   UNL A   1      39.841  29.303  26.913  1.00  0.00    -0.206 F 
ATOM     87  C   UNL A   1      38.095  29.248  30.080  1.00  0.00     0.022 A 
BRANCH  84  88
ATOM     88  S   UNL A   1      38.865  28.796  32.721  1.00  0.00     0.124 S 
ATOM     89  O   UNL A   1      40.024  27.995  33.095  1.00  0.00    -0.237 OA
ATOM     90  O   UNL A   1      38.826  30.158  33.244  1.00  0.00    -0.237 OA
ATOM     91  O   UNL A   1      37.586  28.088  32.735  1.00  0.00    -0.744 OA
ENDBRANCH  84  88
ENDBRANCH  57  81
BRANCH  69  92
ATOM     92  C   UNL A   1      46.451  33.144  29.312  1.00  0.00     0.023 A 
ATOM     93  C   UNL A   1      46.250  34.280  28.508  1.00  0.00     0.031 A 
ATOM     94  C   UNL A   1      46.869  33.342  30.641  1.00  0.00     0.131 A 
ATOM     95  C   UNL A   1      46.508  35.558  29.029  1.00  0.00     0.055 A 
ATOM     96  C   UNL A   1      47.063  34.618  31.172  1.00  0.00     0.041 A 
ATOM     97  F   UNL A   1      47.081  32.295  31.454  1.00  0.00    -0.206 F 
ATOM     98  C   UNL A   1      46.893  35.735  30.360  1.00  0.00     0.022 A 
BRANCH  95  99
ATOM     99  S   UNL A   1      46.413  36.989  27.918  1.00  0.00     0.124 S 
ATOM    100  O   UNL A   1      46.584  38.105  28.844  1.00  0.00    -0.237 OA
ATOM    101  O   UNL A   1      47.522  36.747  27.000  1.00  0.00    -0.237 OA
ATOM    102  O   UNL A   1      45.082  36.876  27.325  1.00  0.00    -0.744 OA
ENDBRANCH  95  99
ENDBRANCH  69  92
ENDBRANCH  43  44
ENDBRANCH  36  38
ENDBRANCH  35  36
ENDBRANCH  34  35
ENDBRANCH  33  34
ENDBRANCH  32  33
ENDBRANCH  31  32
ENDBRANCH   1  31
TORSDOF 26
ENDMDL
