MODEL 1
REMARK VINA RESULT:     -10.3      0.000      0.000
REMARK SMILES CC(C)c1nc(N2C[C@H](C)OC(C)(C)C2)sc1C(=O)OCCOCCOCCOCCOC(=O)c1ccc(-c2c3nc(c(-c4cc(S(=O)(=O)[O-])ccc4F)c4ccc([nH]4)c(-c4cc(S(=O)(=O)[O-])ccc4F)c4nc(c(-c5cc(S(=O)(=O)[O-])ccc5F)c5ccc2[nH]5)C=C4)C=C3)cc1
REMARK SMILES IDX 27 1 26 2 25 3 24 4 23 5 22 6 21 7 20 8 18 9 19 10 17 11
REMARK SMILES IDX 4 12 5 13 6 14 16 15 2 16 1 17 3 18 7 19 8 20 15 21 9 22
REMARK SMILES IDX 12 23 11 24 10 25 13 26 14 27 28 28 29 29 30 30 31 31 32 32
REMARK SMILES IDX 33 33 34 34 35 35 36 36 97 37 37 38 96 39 38 40 39 41 40 42
REMARK SMILES IDX 90 43 41 44 95 45 89 46 91 47 42 48 94 49 88 50 87 51 43 53
REMARK SMILES IDX 75 54 55 55 74 56 56 57 59 58 73 59 92 60 57 61 58 62 72 64
REMARK SMILES IDX 93 65 60 66 44 67 45 68 53 69 46 70 52 71 54 72 51 73 47 74
REMARK SMILES IDX 48 75 49 76 50 77 76 78 77 79 85 80 78 81 84 82 86 83 83 84
REMARK SMILES IDX 79 85 80 86 81 87 82 88 61 89 62 90 70 91 63 92 69 93 71 94
REMARK SMILES IDX 68 95 64 96 65 97 66 98 67 99
REMARK H PARENT 91 52 59 63
REMARK Flexibility Score: inf
ROOT
ATOM      1  C   UNL A   1      29.096  32.958  23.069  1.00  0.00     0.188 C 
ENDROOT
BRANCH   1   2
ATOM      2  O   UNL A   1      27.764  32.702  22.630  1.00  0.00    -0.377 OA
BRANCH   2   3
ATOM      3  C   UNL A   1      27.642  32.307  21.270  1.00  0.00     0.188 C 
BRANCH   3   4
ATOM      4  C   UNL A   1      28.679  31.326  20.692  1.00  0.00     0.188 C 
BRANCH   4   5
ATOM      5  O   UNL A   1      28.541  30.003  21.219  1.00  0.00    -0.376 OA
BRANCH   5   6
ATOM      6  C   UNL A   1      29.664  29.477  21.918  1.00  0.00     0.202 C 
BRANCH   6   7
ATOM      7  C   UNL A   1      29.261  28.628  23.124  1.00  0.00     0.261 C 
BRANCH   7   8
ATOM      8  O   UNL A   1      30.337  27.805  23.597  1.00  0.00    -0.459 OA
BRANCH   8   9
ATOM      9  C   UNL A   1      30.036  26.703  24.318  1.00  0.00     0.350 C 
ATOM     10  O   UNL A   1      28.911  26.218  24.369  1.00  0.00    -0.245 OA
BRANCH   9  11
ATOM     11  C   UNL A   1      31.248  26.121  24.860  1.00  0.00     0.137 A 
ATOM     12  C   UNL A   1      32.330  26.597  25.602  1.00  0.00     0.071 A 
ATOM     13  N   UNL A   1      33.256  25.595  25.918  1.00  0.00    -0.224 NA
ATOM     14  C   UNL A   1      32.984  24.458  25.335  1.00  0.00     0.186 A 
ATOM     15  S   UNL A   1      31.524  24.459  24.449  1.00  0.00    -0.089 S 
BRANCH  12  16
ATOM     16  C   UNL A   1      32.695  27.951  26.198  1.00  0.00     0.034 C 
ATOM     17  C   UNL A   1      31.673  28.368  27.272  1.00  0.00     0.014 C 
ATOM     18  C   UNL A   1      34.092  28.141  26.772  1.00  0.00     0.014 C 
ENDBRANCH  12  16
BRANCH  14  19
ATOM     19  N   UNL A   1      33.739  23.353  25.485  1.00  0.00    -0.343 N 
ATOM     20  C   UNL A   1      33.182  22.009  25.495  1.00  0.00     0.150 C 
ATOM     21  C   UNL A   1      35.168  23.479  25.725  1.00  0.00     0.153 C 
ATOM     22  C   UNL A   1      34.024  21.097  24.573  1.00  0.00     0.135 C 
ATOM     23  C   UNL A   1      35.974  22.498  24.838  1.00  0.00     0.081 C 
ATOM     24  O   UNL A   1      35.428  21.160  24.902  1.00  0.00    -0.369 OA
ATOM     25  C   UNL A   1      33.601  19.639  24.705  1.00  0.00     0.040 C 
ATOM     26  C   UNL A   1      36.055  22.988  23.385  1.00  0.00     0.044 C 
ATOM     27  C   UNL A   1      37.400  22.389  25.397  1.00  0.00     0.044 C 
ENDBRANCH  14  19
ENDBRANCH   9  11
ENDBRANCH   8   9
ENDBRANCH   7   8
ENDBRANCH   6   7
ENDBRANCH   5   6
ENDBRANCH   4   5
ENDBRANCH   3   4
ENDBRANCH   2   3
ENDBRANCH   1   2
BRANCH   1  28
ATOM     28  C   UNL A   1      29.446  32.111  24.305  1.00  0.00     0.188 C 
BRANCH  28  29
ATOM     29  O   UNL A   1      30.407  32.748  25.148  1.00  0.00    -0.376 OA
BRANCH  29  30
ATOM     30  C   UNL A   1      31.076  31.916  26.092  1.00  0.00     0.202 C 
BRANCH  30  31
ATOM     31  C   UNL A   1      31.810  32.586  27.267  1.00  0.00     0.261 C 
BRANCH  31  32
ATOM     32  O   UNL A   1      33.182  32.956  27.036  1.00  0.00    -0.460 OA
BRANCH  32  33
ATOM     33  C   UNL A   1      33.825  33.643  28.006  1.00  0.00     0.338 C 
ATOM     34  O   UNL A   1      33.417  34.618  28.609  1.00  0.00    -0.246 OA
BRANCH  33  35
ATOM     35  C   UNL A   1      35.047  32.885  28.353  1.00  0.00     0.060 A 
ATOM     36  C   UNL A   1      34.967  31.493  28.487  1.00  0.00     0.016 A 
ATOM     37  C   UNL A   1      36.267  33.544  28.535  1.00  0.00     0.016 A 
ATOM     38  C   UNL A   1      36.102  30.759  28.840  1.00  0.00     0.010 A 
ATOM     39  C   UNL A   1      37.396  32.811  28.909  1.00  0.00     0.010 A 
ATOM     40  C   UNL A   1      37.313  31.420  29.093  1.00  0.00    -0.014 A 
BRANCH  40  41
ATOM     41  C   UNL A   1      38.422  30.697  29.761  1.00  0.00     0.031 A 
ATOM     42  C   UNL A   1      38.758  31.075  31.180  1.00  0.00     0.074 A 
ATOM     43  C   UNL A   1      39.112  29.728  29.134  1.00  0.00     0.049 A 
ATOM     44  N   UNL A   1      39.699  30.619  31.963  1.00  0.00    -0.248 NA
ATOM     45  C   UNL A   1      37.914  32.115  31.790  1.00  0.00     0.031 C 
ATOM     46  C   UNL A   1      38.858  29.250  27.777  1.00  0.00     0.029 A 
ATOM     47  N   UNL A   1      40.180  28.975  29.560  1.00  0.00    -0.354 N 
ATOM     48  C   UNL A   1      39.559  31.311  33.161  1.00  0.00     0.074 A 
ATOM     49  C   UNL A   1      38.466  32.242  32.986  1.00  0.00     0.031 C 
ATOM     50  C   UNL A   1      39.754  28.291  27.476  1.00  0.00     0.029 A 
ATOM     51  C   UNL A   1      40.663  28.109  28.607  1.00  0.00     0.049 A 
ATOM     52  H   UNL A   1      40.562  29.048  30.464  1.00  0.00     0.167 HD
ATOM     53  C   UNL A   1      40.273  31.179  34.306  1.00  0.00     0.034 A 
ATOM     54  C   UNL A   1      41.731  27.283  28.640  1.00  0.00     0.034 A 
ATOM     55  C   UNL A   1      41.378  30.267  34.461  1.00  0.00     0.049 A 
ATOM     56  C   UNL A   1      42.569  27.219  29.898  1.00  0.00     0.074 A 
ATOM     57  C   UNL A   1      42.165  30.045  35.577  1.00  0.00     0.029 A 
ATOM     58  N   UNL A   1      41.865  29.437  33.459  1.00  0.00    -0.354 N 
ATOM     59  N   UNL A   1      42.412  27.863  31.032  1.00  0.00    -0.248 NA
ATOM     60  C   UNL A   1      43.725  26.312  29.879  1.00  0.00     0.031 C 
ATOM     61  C   UNL A   1      43.166  29.132  35.231  1.00  0.00     0.029 A 
ATOM     62  C   UNL A   1      42.962  28.728  33.922  1.00  0.00     0.049 A 
ATOM     63  H   UNL A   1      41.487  29.363  32.554  1.00  0.00     0.167 HD
ATOM     64  C   UNL A   1      43.429  27.410  31.870  1.00  0.00     0.074 A 
ATOM     65  C   UNL A   1      44.186  26.434  31.115  1.00  0.00     0.031 C 
ATOM     66  C   UNL A   1      43.709  27.762  33.152  1.00  0.00     0.034 A 
BRANCH  53  67
ATOM     67  C   UNL A   1      39.906  32.087  35.453  1.00  0.00     0.023 A 
ATOM     68  C   UNL A   1      38.999  31.687  36.449  1.00  0.00     0.031 A 
ATOM     69  C   UNL A   1      40.442  33.383  35.527  1.00  0.00     0.131 A 
ATOM     70  C   UNL A   1      38.605  32.599  37.442  1.00  0.00     0.055 A 
ATOM     71  C   UNL A   1      40.101  34.261  36.558  1.00  0.00     0.041 A 
ATOM     72  F   UNL A   1      41.293  33.827  34.588  1.00  0.00    -0.206 F 
ATOM     73  C   UNL A   1      39.167  33.875  37.515  1.00  0.00     0.022 A 
BRANCH  70  74
ATOM     74  S   UNL A   1      37.251  32.138  38.557  1.00  0.00     0.124 S 
ATOM     75  O   UNL A   1      37.191  30.690  38.366  1.00  0.00    -0.237 OA
ATOM     76  O   UNL A   1      37.742  32.592  39.853  1.00  0.00    -0.237 OA
ATOM     77  O   UNL A   1      36.106  32.876  38.030  1.00  0.00    -0.744 OA
ENDBRANCH  70  74
ENDBRANCH  53  67
BRANCH  54  78
ATOM     78  C   UNL A   1      42.110  26.478  27.444  1.00  0.00     0.023 A 
ATOM     79  C   UNL A   1      41.840  25.100  27.378  1.00  0.00     0.031 A 
ATOM     80  C   UNL A   1      42.821  27.061  26.379  1.00  0.00     0.131 A 
ATOM     81  C   UNL A   1      42.322  24.343  26.297  1.00  0.00     0.055 A 
ATOM     82  C   UNL A   1      43.252  26.313  25.282  1.00  0.00     0.041 A 
ATOM     83  F   UNL A   1      43.107  28.372  26.391  1.00  0.00    -0.206 F 
ATOM     84  C   UNL A   1      43.016  24.943  25.243  1.00  0.00     0.022 A 
BRANCH  81  85
ATOM     85  S   UNL A   1      42.105  22.542  26.330  1.00  0.00     0.124 S 
ATOM     86  O   UNL A   1      42.854  22.131  25.148  1.00  0.00    -0.237 OA
ATOM     87  O   UNL A   1      42.694  22.191  27.618  1.00  0.00    -0.237 OA
ATOM     88  O   UNL A   1      40.656  22.372  26.244  1.00  0.00    -0.744 OA
ENDBRANCH  81  85
ENDBRANCH  54  78
BRANCH  66  89
ATOM     89  C   UNL A   1      44.852  27.045  33.829  1.00  0.00     0.023 A 
ATOM     90  C   UNL A   1      44.682  25.793  34.444  1.00  0.00     0.031 A 
ATOM     91  C   UNL A   1      46.131  27.629  33.857  1.00  0.00     0.131 A 
ATOM     92  C   UNL A   1      45.762  25.189  35.107  1.00  0.00     0.055 A 
ATOM     93  C   UNL A   1      47.214  26.999  34.468  1.00  0.00     0.041 A 
ATOM     94  F   UNL A   1      46.348  28.825  33.284  1.00  0.00    -0.206 F 
ATOM     95  C   UNL A   1      47.030  25.776  35.109  1.00  0.00     0.022 A 
BRANCH  92  96
ATOM     96  S   UNL A   1      45.470  23.659  36.036  1.00  0.00     0.124 S 
ATOM     97  O   UNL A   1      46.805  23.073  36.083  1.00  0.00    -0.237 OA
ATOM     98  O   UNL A   1      44.948  24.157  37.304  1.00  0.00    -0.237 OA
ATOM     99  O   UNL A   1      44.505  22.935  35.211  1.00  0.00    -0.744 OA
ENDBRANCH  92  96
ENDBRANCH  66  89
ENDBRANCH  40  41
ENDBRANCH  33  35
ENDBRANCH  32  33
ENDBRANCH  31  32
ENDBRANCH  30  31
ENDBRANCH  29  30
ENDBRANCH  28  29
ENDBRANCH   1  28
TORSDOF 25
ENDMDL
MODEL 2
REMARK VINA RESULT:      -9.8      1.734      2.249
REMARK SMILES CC(C)c1nc(N2C[C@H](C)OC(C)(C)C2)sc1C(=O)OCCOCCOCCOCCOC(=O)c1ccc(-c2c3nc(c(-c4cc(S(=O)(=O)[O-])ccc4F)c4ccc([nH]4)c(-c4cc(S(=O)(=O)[O-])ccc4F)c4nc(c(-c5cc(S(=O)(=O)[O-])ccc5F)c5ccc2[nH]5)C=C4)C=C3)cc1
REMARK SMILES IDX 27 1 26 2 25 3 24 4 23 5 22 6 21 7 20 8 18 9 19 10 17 11
REMARK SMILES IDX 4 12 5 13 6 14 16 15 2 16 1 17 3 18 7 19 8 20 15 21 9 22
REMARK SMILES IDX 12 23 11 24 10 25 13 26 14 27 28 28 29 29 30 30 31 31 32 32
REMARK SMILES IDX 33 33 34 34 35 35 36 36 97 37 37 38 96 39 38 40 39 41 40 42
REMARK SMILES IDX 90 43 41 44 95 45 89 46 91 47 42 48 94 49 88 50 87 51 43 53
REMARK SMILES IDX 75 54 55 55 74 56 56 57 59 58 73 59 92 60 57 61 58 62 72 64
REMARK SMILES IDX 93 65 60 66 44 67 45 68 53 69 46 70 52 71 54 72 51 73 47 74
REMARK SMILES IDX 48 75 49 76 50 77 76 78 77 79 85 80 78 81 84 82 86 83 83 84
REMARK SMILES IDX 79 85 80 86 81 87 82 88 61 89 62 90 70 91 63 92 69 93 71 94
REMARK SMILES IDX 68 95 64 96 65 97 66 98 67 99
REMARK H PARENT 91 52 59 63
REMARK Flexibility Score: inf
ROOT
ATOM      1  C   UNL A   1      29.410  32.806  23.345  1.00  0.00     0.188 C 
ENDROOT
BRANCH   1   2
ATOM      2  O   UNL A   1      28.098  33.029  22.836  1.00  0.00    -0.377 OA
BRANCH   2   3
ATOM      3  C   UNL A   1      27.826  32.427  21.578  1.00  0.00     0.188 C 
BRANCH   3   4
ATOM      4  C   UNL A   1      28.779  31.330  21.067  1.00  0.00     0.188 C 
BRANCH   4   5
ATOM      5  O   UNL A   1      28.231  30.016  21.201  1.00  0.00    -0.376 OA
BRANCH   5   6
ATOM      6  C   UNL A   1      28.434  29.367  22.451  1.00  0.00     0.202 C 
BRANCH   6   7
ATOM      7  C   UNL A   1      29.885  28.933  22.661  1.00  0.00     0.261 C 
BRANCH   7   8
ATOM      8  O   UNL A   1      30.068  27.524  22.461  1.00  0.00    -0.459 OA
BRANCH   8   9
ATOM      9  C   UNL A   1      29.886  26.696  23.512  1.00  0.00     0.350 C 
ATOM     10  O   UNL A   1      28.791  26.483  24.022  1.00  0.00    -0.245 OA
BRANCH   9  11
ATOM     11  C   UNL A   1      31.123  26.002  23.815  1.00  0.00     0.137 A 
ATOM     12  C   UNL A   1      32.341  26.358  24.397  1.00  0.00     0.071 A 
ATOM     13  N   UNL A   1      33.230  25.280  24.499  1.00  0.00    -0.224 NA
ATOM     14  C   UNL A   1      32.786  24.205  23.905  1.00  0.00     0.186 A 
ATOM     15  S   UNL A   1      31.207  24.359  23.271  1.00  0.00    -0.089 S 
BRANCH  12  16
ATOM     16  C   UNL A   1      32.895  27.642  25.002  1.00  0.00     0.034 C 
ATOM     17  C   UNL A   1      33.936  27.327  26.092  1.00  0.00     0.014 C 
ATOM     18  C   UNL A   1      33.483  28.692  24.070  1.00  0.00     0.014 C 
ENDBRANCH  12  16
BRANCH  14  19
ATOM     19  N   UNL A   1      33.473  23.047  23.866  1.00  0.00    -0.343 N 
ATOM     20  C   UNL A   1      34.897  22.982  23.579  1.00  0.00     0.150 C 
ATOM     21  C   UNL A   1      32.774  21.783  24.041  1.00  0.00     0.153 C 
ATOM     22  C   UNL A   1      35.587  22.057  24.608  1.00  0.00     0.135 C 
ATOM     23  C   UNL A   1      33.533  20.854  25.021  1.00  0.00     0.081 C 
ATOM     24  O   UNL A   1      34.938  20.770  24.686  1.00  0.00    -0.369 OA
ATOM     25  C   UNL A   1      37.041  21.799  24.230  1.00  0.00     0.040 C 
ATOM     26  C   UNL A   1      33.343  21.296  26.479  1.00  0.00     0.044 C 
ATOM     27  C   UNL A   1      32.986  19.428  24.868  1.00  0.00     0.044 C 
ENDBRANCH  14  19
ENDBRANCH   9  11
ENDBRANCH   8   9
ENDBRANCH   7   8
ENDBRANCH   6   7
ENDBRANCH   5   6
ENDBRANCH   4   5
ENDBRANCH   3   4
ENDBRANCH   2   3
ENDBRANCH   1   2
BRANCH   1  28
ATOM     28  C   UNL A   1      29.373  31.956  24.627  1.00  0.00     0.188 C 
BRANCH  28  29
ATOM     29  O   UNL A   1      30.663  31.470  24.997  1.00  0.00    -0.376 OA
BRANCH  29  30
ATOM     30  C   UNL A   1      31.057  31.675  26.351  1.00  0.00     0.202 C 
BRANCH  30  31
ATOM     31  C   UNL A   1      31.583  33.064  26.757  1.00  0.00     0.261 C 
BRANCH  31  32
ATOM     32  O   UNL A   1      32.952  33.125  27.198  1.00  0.00    -0.460 OA
BRANCH  32  33
ATOM     33  C   UNL A   1      33.271  34.027  28.152  1.00  0.00     0.338 C 
ATOM     34  O   UNL A   1      32.660  35.040  28.437  1.00  0.00    -0.246 OA
BRANCH  33  35
ATOM     35  C   UNL A   1      34.397  33.472  28.933  1.00  0.00     0.060 A 
ATOM     36  C   UNL A   1      35.702  33.877  28.623  1.00  0.00     0.016 A 
ATOM     37  C   UNL A   1      34.166  32.563  29.970  1.00  0.00     0.016 A 
ATOM     38  C   UNL A   1      36.784  33.346  29.329  1.00  0.00     0.010 A 
ATOM     39  C   UNL A   1      35.251  32.017  30.661  1.00  0.00     0.010 A 
ATOM     40  C   UNL A   1      36.566  32.382  30.324  1.00  0.00    -0.014 A 
BRANCH  40  41
ATOM     41  C   UNL A   1      37.708  31.596  30.853  1.00  0.00     0.031 A 
ATOM     42  C   UNL A   1      38.208  31.922  32.235  1.00  0.00     0.074 A 
ATOM     43  C   UNL A   1      38.285  30.617  30.133  1.00  0.00     0.049 A 
ATOM     44  N   UNL A   1      39.206  31.408  32.903  1.00  0.00    -0.248 NA
ATOM     45  C   UNL A   1      37.480  32.978  32.956  1.00  0.00     0.031 C 
ATOM     46  C   UNL A   1      37.868  30.187  28.801  1.00  0.00     0.029 A 
ATOM     47  N   UNL A   1      39.358  29.811  30.425  1.00  0.00    -0.354 N 
ATOM     48  C   UNL A   1      39.224  32.072  34.124  1.00  0.00     0.074 A 
ATOM     49  C   UNL A   1      38.160  33.050  34.089  1.00  0.00     0.031 C 
ATOM     50  C   UNL A   1      38.685  29.201  28.385  1.00  0.00     0.029 A 
ATOM     51  C   UNL A   1      39.700  28.952  29.407  1.00  0.00     0.049 A 
ATOM     52  H   UNL A   1      39.837  29.844  31.285  1.00  0.00     0.167 HD
ATOM     53  C   UNL A   1      40.049  31.880  35.182  1.00  0.00     0.034 A 
ATOM     54  C   UNL A   1      40.729  28.083  29.307  1.00  0.00     0.034 A 
ATOM     55  C   UNL A   1      41.124  30.920  35.198  1.00  0.00     0.049 A 
ATOM     56  C   UNL A   1      41.692  27.951  30.466  1.00  0.00     0.074 A 
ATOM     57  C   UNL A   1      42.014  30.637  36.218  1.00  0.00     0.029 A 
ATOM     58  N   UNL A   1      41.466  30.098  34.132  1.00  0.00    -0.354 N 
ATOM     59  N   UNL A   1      41.684  28.570  31.625  1.00  0.00    -0.248 NA
ATOM     60  C   UNL A   1      42.799  26.998  30.303  1.00  0.00     0.031 C 
ATOM     61  C   UNL A   1      42.933  29.693  35.747  1.00  0.00     0.029 A 
ATOM     62  C   UNL A   1      42.574  29.333  34.458  1.00  0.00     0.049 A 
ATOM     63  H   UNL A   1      40.991  30.064  33.270  1.00  0.00     0.167 HD
ATOM     64  C   UNL A   1      42.763  28.054  32.339  1.00  0.00     0.074 A 
ATOM     65  C   UNL A   1      43.393  27.068  31.485  1.00  0.00     0.031 C 
ATOM     66  C   UNL A   1      43.193  28.359  33.591  1.00  0.00     0.034 A 
BRANCH  53  67
ATOM     67  C   UNL A   1      39.845  32.771  36.383  1.00  0.00     0.023 A 
ATOM     68  C   UNL A   1      40.621  33.925  36.585  1.00  0.00     0.031 A 
ATOM     69  C   UNL A   1      38.888  32.437  37.356  1.00  0.00     0.131 A 
ATOM     70  C   UNL A   1      40.471  34.669  37.766  1.00  0.00     0.055 A 
ATOM     71  C   UNL A   1      38.693  33.222  38.493  1.00  0.00     0.041 A 
ATOM     72  F   UNL A   1      38.137  31.332  37.226  1.00  0.00    -0.206 F 
ATOM     73  C   UNL A   1      39.497  34.338  38.711  1.00  0.00     0.022 A 
BRANCH  70  74
ATOM     74  S   UNL A   1      41.654  35.999  38.112  1.00  0.00     0.124 S 
ATOM     75  O   UNL A   1      41.908  36.524  36.772  1.00  0.00    -0.237 OA
ATOM     76  O   UNL A   1      40.900  36.868  39.007  1.00  0.00    -0.237 OA
ATOM     77  O   UNL A   1      42.784  35.303  38.723  1.00  0.00    -0.744 OA
ENDBRANCH  70  74
ENDBRANCH  53  67
BRANCH  54  78
ATOM     78  C   UNL A   1      40.943  27.295  28.059  1.00  0.00     0.023 A 
ATOM     79  C   UNL A   1      40.724  25.908  28.026  1.00  0.00     0.031 A 
ATOM     80  C   UNL A   1      41.449  27.909  26.899  1.00  0.00     0.131 A 
ATOM     81  C   UNL A   1      41.056  25.173  26.877  1.00  0.00     0.055 A 
ATOM     82  C   UNL A   1      41.729  27.181  25.741  1.00  0.00     0.041 A 
ATOM     83  F   UNL A   1      41.679  29.231  26.875  1.00  0.00    -0.206 F 
ATOM     84  C   UNL A   1      41.547  25.802  25.730  1.00  0.00     0.022 A 
BRANCH  81  85
ATOM     85  S   UNL A   1      40.922  23.364  26.930  1.00  0.00     0.124 S 
ATOM     86  O   UNL A   1      41.882  22.965  25.907  1.00  0.00    -0.237 OA
ATOM     87  O   UNL A   1      41.297  23.075  28.310  1.00  0.00    -0.237 OA
ATOM     88  O   UNL A   1      39.519  23.117  26.603  1.00  0.00    -0.744 OA
ENDBRANCH  81  85
ENDBRANCH  54  78
BRANCH  66  89
ATOM     89  C   UNL A   1      44.369  27.579  34.125  1.00  0.00     0.023 A 
ATOM     90  C   UNL A   1      44.206  26.340  34.769  1.00  0.00     0.031 A 
ATOM     91  C   UNL A   1      45.672  28.087  33.985  1.00  0.00     0.131 A 
ATOM     92  C   UNL A   1      45.325  25.676  35.297  1.00  0.00     0.055 A 
ATOM     93  C   UNL A   1      46.786  27.396  34.461  1.00  0.00     0.041 A 
ATOM     94  F   UNL A   1      45.884  29.266  33.377  1.00  0.00    -0.206 F 
ATOM     95  C   UNL A   1      46.614  26.188  35.132  1.00  0.00     0.022 A 
BRANCH  92  96
ATOM     96  S   UNL A   1      45.065  24.168  36.271  1.00  0.00     0.124 S 
ATOM     97  O   UNL A   1      43.975  23.523  35.547  1.00  0.00    -0.237 OA
ATOM     98  O   UNL A   1      46.365  23.510  36.182  1.00  0.00    -0.237 OA
ATOM     99  O   UNL A   1      44.716  24.672  37.597  1.00  0.00    -0.744 OA
ENDBRANCH  92  96
ENDBRANCH  66  89
ENDBRANCH  40  41
ENDBRANCH  33  35
ENDBRANCH  32  33
ENDBRANCH  31  32
ENDBRANCH  30  31
ENDBRANCH  29  30
ENDBRANCH  28  29
ENDBRANCH   1  28
TORSDOF 25
ENDMDL
MODEL 3
REMARK VINA RESULT:      -9.8      1.773      2.078
REMARK SMILES CC(C)c1nc(N2C[C@H](C)OC(C)(C)C2)sc1C(=O)OCCOCCOCCOCCOC(=O)c1ccc(-c2c3nc(c(-c4cc(S(=O)(=O)[O-])ccc4F)c4ccc([nH]4)c(-c4cc(S(=O)(=O)[O-])ccc4F)c4nc(c(-c5cc(S(=O)(=O)[O-])ccc5F)c5ccc2[nH]5)C=C4)C=C3)cc1
REMARK SMILES IDX 27 1 26 2 25 3 24 4 23 5 22 6 21 7 20 8 18 9 19 10 17 11
REMARK SMILES IDX 4 12 5 13 6 14 16 15 2 16 1 17 3 18 7 19 8 20 15 21 9 22
REMARK SMILES IDX 12 23 11 24 10 25 13 26 14 27 28 28 29 29 30 30 31 31 32 32
REMARK SMILES IDX 33 33 34 34 35 35 36 36 97 37 37 38 96 39 38 40 39 41 40 42
REMARK SMILES IDX 90 43 41 44 95 45 89 46 91 47 42 48 94 49 88 50 87 51 43 53
REMARK SMILES IDX 75 54 55 55 74 56 56 57 59 58 73 59 92 60 57 61 58 62 72 64
REMARK SMILES IDX 93 65 60 66 44 67 45 68 53 69 46 70 52 71 54 72 51 73 47 74
REMARK SMILES IDX 48 75 49 76 50 77 76 78 77 79 85 80 78 81 84 82 86 83 83 84
REMARK SMILES IDX 79 85 80 86 81 87 82 88 61 89 62 90 70 91 63 92 69 93 71 94
REMARK SMILES IDX 68 95 64 96 65 97 66 98 67 99
REMARK H PARENT 91 52 59 63
REMARK Flexibility Score: inf
ROOT
ATOM      1  C   UNL A   1      29.050  33.073  23.071  1.00  0.00     0.188 C 
ENDROOT
BRANCH   1   2
ATOM      2  O   UNL A   1      27.809  32.674  22.494  1.00  0.00    -0.377 OA
BRANCH   2   3
ATOM      3  C   UNL A   1      27.849  32.407  21.098  1.00  0.00     0.188 C 
BRANCH   3   4
ATOM      4  C   UNL A   1      28.724  31.242  20.598  1.00  0.00     0.188 C 
BRANCH   4   5
ATOM      5  O   UNL A   1      28.439  30.010  21.266  1.00  0.00    -0.376 OA
BRANCH   5   6
ATOM      6  C   UNL A   1      29.504  29.430  22.011  1.00  0.00     0.202 C 
BRANCH   6   7
ATOM      7  C   UNL A   1      29.009  28.609  23.203  1.00  0.00     0.261 C 
BRANCH   7   8
ATOM      8  O   UNL A   1      30.067  27.879  23.841  1.00  0.00    -0.459 OA
BRANCH   8   9
ATOM      9  C   UNL A   1      29.779  26.682  24.396  1.00  0.00     0.350 C 
ATOM     10  O   UNL A   1      28.666  26.168  24.352  1.00  0.00    -0.245 OA
BRANCH   9  11
ATOM     11  C   UNL A   1      30.993  26.058  24.884  1.00  0.00     0.137 A 
ATOM     12  C   UNL A   1      32.133  26.501  25.557  1.00  0.00     0.071 A 
ATOM     13  N   UNL A   1      33.033  25.466  25.842  1.00  0.00    -0.224 NA
ATOM     14  C   UNL A   1      32.682  24.332  25.297  1.00  0.00     0.186 A 
ATOM     15  S   UNL A   1      31.177  24.380  24.491  1.00  0.00    -0.089 S 
BRANCH  12  16
ATOM     16  C   UNL A   1      32.586  27.848  26.106  1.00  0.00     0.034 C 
ATOM     17  C   UNL A   1      32.818  28.854  24.964  1.00  0.00     0.014 C 
ATOM     18  C   UNL A   1      31.734  28.525  27.171  1.00  0.00     0.014 C 
ENDBRANCH  12  16
BRANCH  14  19
ATOM     19  N   UNL A   1      33.399  23.198  25.428  1.00  0.00    -0.343 N 
ATOM     20  C   UNL A   1      32.815  21.873  25.290  1.00  0.00     0.150 C 
ATOM     21  C   UNL A   1      34.804  23.268  25.797  1.00  0.00     0.153 C 
ATOM     22  C   UNL A   1      33.715  21.008  24.377  1.00  0.00     0.135 C 
ATOM     23  C   UNL A   1      35.663  22.332  24.911  1.00  0.00     0.081 C 
ATOM     24  O   UNL A   1      35.086  21.008  24.827  1.00  0.00    -0.369 OA
ATOM     25  C   UNL A   1      33.252  19.557  24.363  1.00  0.00     0.040 C 
ATOM     26  C   UNL A   1      35.880  22.924  23.511  1.00  0.00     0.044 C 
ATOM     27  C   UNL A   1      37.032  22.144  25.579  1.00  0.00     0.044 C 
ENDBRANCH  14  19
ENDBRANCH   9  11
ENDBRANCH   8   9
ENDBRANCH   7   8
ENDBRANCH   6   7
ENDBRANCH   5   6
ENDBRANCH   4   5
ENDBRANCH   3   4
ENDBRANCH   2   3
ENDBRANCH   1   2
BRANCH   1  28
ATOM     28  C   UNL A   1      29.460  32.129  24.215  1.00  0.00     0.188 C 
BRANCH  28  29
ATOM     29  O   UNL A   1      30.317  32.762  25.164  1.00  0.00    -0.376 OA
BRANCH  29  30
ATOM     30  C   UNL A   1      31.006  31.906  26.071  1.00  0.00     0.202 C 
BRANCH  30  31
ATOM     31  C   UNL A   1      31.789  32.547  27.231  1.00  0.00     0.261 C 
BRANCH  31  32
ATOM     32  O   UNL A   1      33.164  32.883  26.966  1.00  0.00    -0.460 OA
BRANCH  32  33
ATOM     33  C   UNL A   1      33.825  33.619  27.885  1.00  0.00     0.338 C 
ATOM     34  O   UNL A   1      33.454  34.659  28.398  1.00  0.00    -0.246 OA
BRANCH  33  35
ATOM     35  C   UNL A   1      35.006  32.840  28.316  1.00  0.00     0.060 A 
ATOM     36  C   UNL A   1      34.828  31.513  28.730  1.00  0.00     0.016 A 
ATOM     37  C   UNL A   1      36.282  33.412  28.302  1.00  0.00     0.016 A 
ATOM     38  C   UNL A   1      35.926  30.766  29.166  1.00  0.00     0.010 A 
ATOM     39  C   UNL A   1      37.374  32.671  28.758  1.00  0.00     0.010 A 
ATOM     40  C   UNL A   1      37.197  31.355  29.221  1.00  0.00    -0.014 A 
BRANCH  40  41
ATOM     41  C   UNL A   1      38.290  30.681  29.964  1.00  0.00     0.031 A 
ATOM     42  C   UNL A   1      38.534  31.098  31.391  1.00  0.00     0.074 A 
ATOM     43  C   UNL A   1      39.044  29.723  29.397  1.00  0.00     0.049 A 
ATOM     44  N   UNL A   1      39.444  30.689  32.234  1.00  0.00    -0.248 NA
ATOM     45  C   UNL A   1      37.626  32.122  31.931  1.00  0.00     0.031 C 
ATOM     46  C   UNL A   1      38.881  29.211  28.038  1.00  0.00     0.029 A 
ATOM     47  N   UNL A   1      40.109  29.014  29.896  1.00  0.00    -0.354 N 
ATOM     48  C   UNL A   1      39.216  31.399  33.407  1.00  0.00     0.074 A 
ATOM     49  C   UNL A   1      38.106  32.290  33.153  1.00  0.00     0.031 C 
ATOM     50  C   UNL A   1      39.822  28.276  27.808  1.00  0.00     0.029 A 
ATOM     51  C   UNL A   1      40.672  28.146  28.990  1.00  0.00     0.049 A 
ATOM     52  H   UNL A   1      40.439  29.118  30.818  1.00  0.00     0.167 HD
ATOM     53  C   UNL A   1      39.870  31.313  34.592  1.00  0.00     0.034 A 
ATOM     54  C   UNL A   1      41.762  27.356  29.100  1.00  0.00     0.034 A 
ATOM     55  C   UNL A   1      40.992  30.441  34.827  1.00  0.00     0.049 A 
ATOM     56  C   UNL A   1      42.530  27.344  30.403  1.00  0.00     0.074 A 
ATOM     57  C   UNL A   1      41.722  30.267  35.989  1.00  0.00     0.029 A 
ATOM     58  N   UNL A   1      41.560  29.607  33.872  1.00  0.00    -0.354 N 
ATOM     59  N   UNL A   1      42.291  28.005  31.513  1.00  0.00    -0.248 NA
ATOM     60  C   UNL A   1      43.713  26.475  30.467  1.00  0.00     0.031 C 
ATOM     61  C   UNL A   1      42.770  29.380  35.719  1.00  0.00     0.029 A 
ATOM     62  C   UNL A   1      42.652  28.944  34.409  1.00  0.00     0.049 A 
ATOM     63  H   UNL A   1      41.236  29.503  32.949  1.00  0.00     0.167 HD
ATOM     64  C   UNL A   1      43.273  27.602  32.415  1.00  0.00     0.074 A 
ATOM     65  C   UNL A   1      44.101  26.637  31.724  1.00  0.00     0.031 C 
ATOM     66  C   UNL A   1      43.470  27.988  33.702  1.00  0.00     0.034 A 
BRANCH  53  67
ATOM     67  C   UNL A   1      39.411  32.231  35.698  1.00  0.00     0.023 A 
ATOM     68  C   UNL A   1      39.892  33.547  35.812  1.00  0.00     0.031 A 
ATOM     69  C   UNL A   1      38.510  31.769  36.672  1.00  0.00     0.131 A 
ATOM     70  C   UNL A   1      39.519  34.333  36.913  1.00  0.00     0.055 A 
ATOM     71  C   UNL A   1      38.087  32.580  37.725  1.00  0.00     0.041 A 
ATOM     72  F   UNL A   1      38.039  30.512  36.627  1.00  0.00    -0.206 F 
ATOM     73  C   UNL A   1      38.603  33.867  37.859  1.00  0.00     0.022 A 
BRANCH  70  74
ATOM     74  S   UNL A   1      40.350  35.926  37.163  1.00  0.00     0.124 S 
ATOM     75  O   UNL A   1      41.749  35.568  36.941  1.00  0.00    -0.237 OA
ATOM     76  O   UNL A   1      39.735  36.766  36.142  1.00  0.00    -0.237 OA
ATOM     77  O   UNL A   1      40.015  36.275  38.542  1.00  0.00    -0.744 OA
ENDBRANCH  70  74
ENDBRANCH  53  67
BRANCH  54  78
ATOM     78  C   UNL A   1      42.232  26.540  27.944  1.00  0.00     0.023 A 
ATOM     79  C   UNL A   1      41.968  25.162  27.870  1.00  0.00     0.031 A 
ATOM     80  C   UNL A   1      43.022  27.114  26.931  1.00  0.00     0.131 A 
ATOM     81  C   UNL A   1      42.532  24.395  26.837  1.00  0.00     0.055 A 
ATOM     82  C   UNL A   1      43.537  26.356  25.878  1.00  0.00     0.041 A 
ATOM     83  F   UNL A   1      43.306  28.426  26.954  1.00  0.00    -0.206 F 
ATOM     84  C   UNL A   1      43.305  24.986  25.834  1.00  0.00     0.022 A 
BRANCH  81  85
ATOM     85  S   UNL A   1      42.313  22.595  26.870  1.00  0.00     0.124 S 
ATOM     86  O   UNL A   1      41.141  22.422  26.019  1.00  0.00    -0.237 OA
ATOM     87  O   UNL A   1      43.581  22.127  26.319  1.00  0.00    -0.237 OA
ATOM     88  O   UNL A   1      42.106  22.303  28.287  1.00  0.00    -0.744 OA
ENDBRANCH  81  85
ENDBRANCH  54  78
BRANCH  66  89
ATOM     89  C   UNL A   1      44.596  27.323  34.456  1.00  0.00     0.023 A 
ATOM     90  C   UNL A   1      45.906  27.831  34.433  1.00  0.00     0.031 A 
ATOM     91  C   UNL A   1      44.349  26.160  35.207  1.00  0.00     0.131 A 
ATOM     92  C   UNL A   1      46.931  27.148  35.107  1.00  0.00     0.055 A 
ATOM     93  C   UNL A   1      45.360  25.517  35.921  1.00  0.00     0.041 A 
ATOM     94  F   UNL A   1      43.115  25.632  35.263  1.00  0.00    -0.206 F 
ATOM     95  C   UNL A   1      46.663  26.005  35.864  1.00  0.00     0.022 A 
BRANCH  92  96
ATOM     96  S   UNL A   1      48.638  27.731  34.919  1.00  0.00     0.124 S 
ATOM     97  O   UNL A   1      49.406  26.558  35.322  1.00  0.00    -0.237 OA
ATOM     98  O   UNL A   1      48.697  28.075  33.502  1.00  0.00    -0.237 OA
ATOM     99  O   UNL A   1      48.716  28.867  35.835  1.00  0.00    -0.744 OA
ENDBRANCH  92  96
ENDBRANCH  66  89
ENDBRANCH  40  41
ENDBRANCH  33  35
ENDBRANCH  32  33
ENDBRANCH  31  32
ENDBRANCH  30  31
ENDBRANCH  29  30
ENDBRANCH  28  29
ENDBRANCH   1  28
TORSDOF 25
ENDMDL
