MODEL 1
REMARK VINA RESULT:      -8.4      0.000      0.000
REMARK SMILES CC(C)[C@H](C[C@H]1Cc2ccccc21)C(=O)OCCOCCOCCOCCOC(=O)c1ccc(-c2c3nc(c(-c4cc(S(=O)(=O)[O-])ccc4F)c4ccc([nH]4)c(-c4cc(S(=O)(=O)[O-])ccc4F)c4nc(c(-c5cc(S(=O)(=O)[O-])ccc5F)c5ccc2[nH]5)C=C4)C=C3)cc1
REMARK SMILES IDX 23 1 22 2 21 3 20 4 19 5 18 6 17 7 16 8 14 9 15 10 4 11 2 12
REMARK SMILES IDX 1 13 3 14 5 15 6 16 7 17 13 18 8 19 12 20 9 21 11 22 10 23
REMARK SMILES IDX 24 24 25 25 26 26 27 27 28 28 29 29 30 30 31 31 32 32 93 33
REMARK SMILES IDX 33 34 92 35 34 36 35 37 36 38 86 39 37 40 91 41 85 42 87 43
REMARK SMILES IDX 38 44 90 45 84 46 83 47 39 49 71 50 51 51 70 52 52 53 55 54
REMARK SMILES IDX 69 55 88 56 53 57 54 58 68 60 89 61 56 62 40 63 41 64 49 65
REMARK SMILES IDX 42 66 48 67 50 68 47 69 43 70 44 71 45 72 46 73 72 74 73 75
REMARK SMILES IDX 81 76 74 77 80 78 82 79 79 80 75 81 76 82 77 83 78 84 57 85
REMARK SMILES IDX 58 86 66 87 59 88 65 89 67 90 64 91 60 92 61 93 62 94 63 95
REMARK H PARENT 87 48 55 59
REMARK Flexibility Score: inf
ROOT
ATOM      1  C   UNL A   1      38.194  20.201  24.838  1.00  0.00     0.188 C 
ENDROOT
BRANCH   1   2
ATOM      2  O   UNL A   1      36.831  19.876  24.987  1.00  0.00    -0.377 OA
BRANCH   2   3
ATOM      3  C   UNL A   1      35.969  20.977  24.839  1.00  0.00     0.188 C 
BRANCH   3   4
ATOM      4  C   UNL A   1      36.438  22.253  25.555  1.00  0.00     0.188 C 
BRANCH   4   5
ATOM      5  O   UNL A   1      35.581  22.947  26.455  1.00  0.00    -0.376 OA
BRANCH   5   6
ATOM      6  C   UNL A   1      34.703  22.206  27.279  1.00  0.00     0.202 C 
BRANCH   6   7
ATOM      7  C   UNL A   1      33.203  22.401  27.017  1.00  0.00     0.261 C 
BRANCH   7   8
ATOM      8  O   UNL A   1      32.767  23.702  26.556  1.00  0.00    -0.463 OA
BRANCH   8   9
ATOM      9  C   UNL A   1      31.844  23.748  25.555  1.00  0.00     0.309 C 
ATOM     10  O   UNL A   1      30.658  23.474  25.696  1.00  0.00    -0.252 OA
BRANCH   9  11
ATOM     11  C   UNL A   1      32.469  24.003  24.165  1.00  0.00     0.102 C 
BRANCH  11  12
ATOM     12  C   UNL A   1      31.498  24.961  23.387  1.00  0.00    -0.003 C 
ATOM     13  C   UNL A   1      30.979  26.132  24.221  1.00  0.00     0.008 C 
ATOM     14  C   UNL A   1      32.044  25.525  22.064  1.00  0.00     0.008 C 
ENDBRANCH  11  12
BRANCH  11  15
ATOM     15  C   UNL A   1      32.975  22.780  23.347  1.00  0.00     0.024 C 
BRANCH  15  16
ATOM     16  C   UNL A   1      31.991  21.595  23.267  1.00  0.00     0.025 C 
ATOM     17  C   UNL A   1      31.973  20.897  21.842  1.00  0.00     0.044 C 
ATOM     18  C   UNL A   1      32.418  20.230  23.781  1.00  0.00    -0.041 A 
ATOM     19  C   UNL A   1      32.259  19.618  22.559  1.00  0.00    -0.044 A 
ATOM     20  C   UNL A   1      32.713  19.489  24.903  1.00  0.00     0.004 A 
ATOM     21  C   UNL A   1      32.378  18.258  22.373  1.00  0.00     0.004 A 
ATOM     22  C   UNL A   1      32.850  18.100  24.751  1.00  0.00     0.000 A 
ATOM     23  C   UNL A   1      32.677  17.487  23.494  1.00  0.00     0.000 A 
ENDBRANCH  15  16
ENDBRANCH  11  15
ENDBRANCH   9  11
ENDBRANCH   8   9
ENDBRANCH   7   8
ENDBRANCH   6   7
ENDBRANCH   5   6
ENDBRANCH   4   5
ENDBRANCH   3   4
ENDBRANCH   2   3
ENDBRANCH   1   2
BRANCH   1  24
ATOM     24  C   UNL A   1      39.134  19.420  25.768  1.00  0.00     0.188 C 
BRANCH  24  25
ATOM     25  O   UNL A   1      40.475  19.153  25.388  1.00  0.00    -0.376 OA
BRANCH  25  26
ATOM     26  C   UNL A   1      41.627  19.501  26.134  1.00  0.00     0.202 C 
BRANCH  26  27
ATOM     27  C   UNL A   1      42.280  20.887  26.142  1.00  0.00     0.261 C 
BRANCH  27  28
ATOM     28  O   UNL A   1      41.882  21.758  27.202  1.00  0.00    -0.460 OA
BRANCH  28  29
ATOM     29  C   UNL A   1      41.003  22.722  26.831  1.00  0.00     0.338 C 
ATOM     30  O   UNL A   1      39.872  22.549  26.399  1.00  0.00    -0.246 OA
BRANCH  29  31
ATOM     31  C   UNL A   1      41.507  24.047  27.231  1.00  0.00     0.060 A 
ATOM     32  C   UNL A   1      41.935  24.194  28.556  1.00  0.00     0.016 A 
ATOM     33  C   UNL A   1      41.529  25.131  26.351  1.00  0.00     0.016 A 
ATOM     34  C   UNL A   1      42.368  25.428  29.018  1.00  0.00     0.010 A 
ATOM     35  C   UNL A   1      41.924  26.386  26.829  1.00  0.00     0.010 A 
ATOM     36  C   UNL A   1      42.312  26.542  28.173  1.00  0.00    -0.014 A 
BRANCH  36  37
ATOM     37  C   UNL A   1      42.456  27.880  28.788  1.00  0.00     0.031 A 
ATOM     38  C   UNL A   1      43.842  28.442  28.948  1.00  0.00     0.074 A 
ATOM     39  C   UNL A   1      41.375  28.617  29.094  1.00  0.00     0.049 A 
ATOM     40  N   UNL A   1      44.220  29.611  29.393  1.00  0.00    -0.248 NA
ATOM     41  C   UNL A   1      44.950  27.562  28.544  1.00  0.00     0.031 C 
ATOM     42  C   UNL A   1      39.989  28.192  28.919  1.00  0.00     0.029 A 
ATOM     43  N   UNL A   1      41.279  29.886  29.606  1.00  0.00    -0.354 N 
ATOM     44  C   UNL A   1      45.608  29.612  29.319  1.00  0.00     0.074 A 
ATOM     45  C   UNL A   1      46.005  28.309  28.827  1.00  0.00     0.031 C 
ATOM     46  C   UNL A   1      39.176  29.185  29.321  1.00  0.00     0.029 A 
ATOM     47  C   UNL A   1      39.984  30.300  29.811  1.00  0.00     0.049 A 
ATOM     48  H   UNL A   1      42.063  30.448  29.806  1.00  0.00     0.167 HD
ATOM     49  C   UNL A   1      46.471  30.611  29.628  1.00  0.00     0.034 A 
ATOM     50  C   UNL A   1      39.512  31.441  30.351  1.00  0.00     0.034 A 
ATOM     51  C   UNL A   1      46.053  31.893  30.140  1.00  0.00     0.049 A 
ATOM     52  C   UNL A   1      40.496  32.505  30.773  1.00  0.00     0.074 A 
ATOM     53  C   UNL A   1      46.835  32.981  30.485  1.00  0.00     0.029 A 
ATOM     54  N   UNL A   1      44.736  32.254  30.404  1.00  0.00    -0.354 N 
ATOM     55  N   UNL A   1      41.807  32.502  30.690  1.00  0.00    -0.248 NA
ATOM     56  C   UNL A   1      39.932  33.733  31.345  1.00  0.00     0.031 C 
ATOM     57  C   UNL A   1      46.003  33.961  31.038  1.00  0.00     0.029 A 
ATOM     58  C   UNL A   1      44.690  33.531  30.946  1.00  0.00     0.049 A 
ATOM     59  H   UNL A   1      43.950  31.687  30.231  1.00  0.00     0.167 HD
ATOM     60  C   UNL A   1      42.223  33.743  31.173  1.00  0.00     0.074 A 
ATOM     61  C   UNL A   1      41.019  34.470  31.520  1.00  0.00     0.031 C 
ATOM     62  C   UNL A   1      43.482  34.238  31.312  1.00  0.00     0.034 A 
BRANCH  49  63
ATOM     63  C   UNL A   1      47.948  30.320  29.484  1.00  0.00     0.023 A 
ATOM     64  C   UNL A   1      48.632  30.504  28.269  1.00  0.00     0.031 A 
ATOM     65  C   UNL A   1      48.672  29.802  30.572  1.00  0.00     0.131 A 
ATOM     66  C   UNL A   1      49.972  30.103  28.151  1.00  0.00     0.055 A 
ATOM     67  C   UNL A   1      50.029  29.488  30.474  1.00  0.00     0.041 A 
ATOM     68  F   UNL A   1      48.069  29.573  31.749  1.00  0.00    -0.206 F 
ATOM     69  C   UNL A   1      50.683  29.622  29.252  1.00  0.00     0.022 A 
BRANCH  66  70
ATOM     70  S   UNL A   1      50.725  30.066  26.501  1.00  0.00     0.124 S 
ATOM     71  O   UNL A   1      50.547  31.449  26.064  1.00  0.00    -0.237 OA
ATOM     72  O   UNL A   1      52.094  29.656  26.787  1.00  0.00    -0.237 OA
ATOM     73  O   UNL A   1      49.917  29.086  25.778  1.00  0.00    -0.744 OA
ENDBRANCH  66  70
ENDBRANCH  49  63
BRANCH  50  74
ATOM     74  C   UNL A   1      38.047  31.623  30.562  1.00  0.00     0.023 A 
ATOM     75  C   UNL A   1      37.251  32.316  29.636  1.00  0.00     0.031 A 
ATOM     76  C   UNL A   1      37.428  31.143  31.732  1.00  0.00     0.131 A 
ATOM     77  C   UNL A   1      35.893  32.545  29.914  1.00  0.00     0.055 A 
ATOM     78  C   UNL A   1      36.067  31.324  31.977  1.00  0.00     0.041 A 
ATOM     79  F   UNL A   1      38.143  30.478  32.653  1.00  0.00    -0.206 F 
ATOM     80  C   UNL A   1      35.293  32.040  31.070  1.00  0.00     0.022 A 
BRANCH  77  81
ATOM     81  S   UNL A   1      34.937  33.590  28.781  1.00  0.00     0.124 S 
ATOM     82  O   UNL A   1      33.672  33.721  29.494  1.00  0.00    -0.237 OA
ATOM     83  O   UNL A   1      35.762  34.791  28.708  1.00  0.00    -0.237 OA
ATOM     84  O   UNL A   1      34.883  32.799  27.554  1.00  0.00    -0.744 OA
ENDBRANCH  77  81
ENDBRANCH  50  74
BRANCH  62  85
ATOM     85  C   UNL A   1      43.607  35.655  31.828  1.00  0.00     0.023 A 
ATOM     86  C   UNL A   1      43.796  36.746  30.960  1.00  0.00     0.031 A 
ATOM     87  C   UNL A   1      43.577  35.911  33.210  1.00  0.00     0.131 A 
ATOM     88  C   UNL A   1      44.034  38.024  31.487  1.00  0.00     0.055 A 
ATOM     89  C   UNL A   1      43.731  37.200  33.724  1.00  0.00     0.041 A 
ATOM     90  F   UNL A   1      43.402  34.911  34.089  1.00  0.00    -0.206 F 
ATOM     91  C   UNL A   1      43.981  38.262  32.862  1.00  0.00     0.022 A 
BRANCH  88  92
ATOM     92  S   UNL A   1      44.556  39.344  30.357  1.00  0.00     0.124 S 
ATOM     93  O   UNL A   1      43.427  40.267  30.428  1.00  0.00    -0.237 OA
ATOM     94  O   UNL A   1      45.796  39.807  30.969  1.00  0.00    -0.237 OA
ATOM     95  O   UNL A   1      44.715  38.656  29.077  1.00  0.00    -0.744 OA
ENDBRANCH  88  92
ENDBRANCH  62  85
ENDBRANCH  36  37
ENDBRANCH  29  31
ENDBRANCH  28  29
ENDBRANCH  27  28
ENDBRANCH  26  27
ENDBRANCH  25  26
ENDBRANCH  24  25
ENDBRANCH   1  24
TORSDOF 26
ENDMDL
MODEL 2
REMARK VINA RESULT:      -8.2      6.361     10.097
REMARK SMILES CC(C)[C@H](C[C@H]1Cc2ccccc21)C(=O)OCCOCCOCCOCCOC(=O)c1ccc(-c2c3nc(c(-c4cc(S(=O)(=O)[O-])ccc4F)c4ccc([nH]4)c(-c4cc(S(=O)(=O)[O-])ccc4F)c4nc(c(-c5cc(S(=O)(=O)[O-])ccc5F)c5ccc2[nH]5)C=C4)C=C3)cc1
REMARK SMILES IDX 23 1 22 2 21 3 20 4 19 5 18 6 17 7 16 8 14 9 15 10 4 11 2 12
REMARK SMILES IDX 1 13 3 14 5 15 6 16 7 17 13 18 8 19 12 20 9 21 11 22 10 23
REMARK SMILES IDX 24 24 25 25 26 26 27 27 28 28 29 29 30 30 31 31 32 32 93 33
REMARK SMILES IDX 33 34 92 35 34 36 35 37 36 38 86 39 37 40 91 41 85 42 87 43
REMARK SMILES IDX 38 44 90 45 84 46 83 47 39 49 71 50 51 51 70 52 52 53 55 54
REMARK SMILES IDX 69 55 88 56 53 57 54 58 68 60 89 61 56 62 40 63 41 64 49 65
REMARK SMILES IDX 42 66 48 67 50 68 47 69 43 70 44 71 45 72 46 73 72 74 73 75
REMARK SMILES IDX 81 76 74 77 80 78 82 79 79 80 75 81 76 82 77 83 78 84 57 85
REMARK SMILES IDX 58 86 66 87 59 88 65 89 67 90 64 91 60 92 61 93 62 94 63 95
REMARK H PARENT 87 48 55 59
REMARK Flexibility Score: inf
ROOT
ATOM      1  C   UNL A   1      44.858  19.680  25.052  1.00  0.00     0.188 C 
ENDROOT
BRANCH   1   2
ATOM      2  O   UNL A   1      44.591  20.958  24.525  1.00  0.00    -0.377 OA
BRANCH   2   3
ATOM      3  C   UNL A   1      45.276  21.995  25.183  1.00  0.00     0.188 C 
BRANCH   3   4
ATOM      4  C   UNL A   1      45.605  23.204  24.295  1.00  0.00     0.188 C 
BRANCH   4   5
ATOM      5  O   UNL A   1      44.978  24.465  24.509  1.00  0.00    -0.376 OA
BRANCH   5   6
ATOM      6  C   UNL A   1      43.921  24.558  25.444  1.00  0.00     0.202 C 
BRANCH   6   7
ATOM      7  C   UNL A   1      42.770  25.503  25.073  1.00  0.00     0.261 C 
BRANCH   7   8
ATOM      8  O   UNL A   1      43.110  26.862  24.711  1.00  0.00    -0.463 OA
BRANCH   8   9
ATOM      9  C   UNL A   1      42.485  27.874  25.375  1.00  0.00     0.309 C 
ATOM     10  O   UNL A   1      41.867  28.781  24.829  1.00  0.00    -0.252 OA
BRANCH   9  11
ATOM     11  C   UNL A   1      42.782  27.878  26.891  1.00  0.00     0.102 C 
BRANCH  11  12
ATOM     12  C   UNL A   1      41.402  27.803  27.637  1.00  0.00    -0.003 C 
ATOM     13  C   UNL A   1      40.854  29.163  28.070  1.00  0.00     0.008 C 
ATOM     14  C   UNL A   1      40.284  27.058  26.887  1.00  0.00     0.008 C 
ENDBRANCH  11  12
BRANCH  11  15
ATOM     15  C   UNL A   1      43.767  28.947  27.448  1.00  0.00     0.024 C 
BRANCH  15  16
ATOM     16  C   UNL A   1      44.690  28.458  28.582  1.00  0.00     0.025 C 
ATOM     17  C   UNL A   1      46.065  29.248  28.648  1.00  0.00     0.044 C 
ATOM     18  C   UNL A   1      44.479  28.975  29.996  1.00  0.00    -0.041 A 
ATOM     19  C   UNL A   1      45.735  29.533  30.077  1.00  0.00    -0.044 A 
ATOM     20  C   UNL A   1      43.652  28.945  31.096  1.00  0.00     0.004 A 
ATOM     21  C   UNL A   1      46.242  30.086  31.233  1.00  0.00     0.004 A 
ATOM     22  C   UNL A   1      44.133  29.507  32.289  1.00  0.00     0.000 A 
ATOM     23  C   UNL A   1      45.424  30.068  32.359  1.00  0.00     0.000 A 
ENDBRANCH  15  16
ENDBRANCH  11  15
ENDBRANCH   9  11
ENDBRANCH   8   9
ENDBRANCH   7   8
ENDBRANCH   6   7
ENDBRANCH   5   6
ENDBRANCH   4   5
ENDBRANCH   3   4
ENDBRANCH   2   3
ENDBRANCH   1   2
BRANCH   1  24
ATOM     24  C   UNL A   1      43.619  18.781  25.189  1.00  0.00     0.188 C 
BRANCH  24  25
ATOM     25  O   UNL A   1      42.313  19.328  25.106  1.00  0.00    -0.376 OA
BRANCH  25  26
ATOM     26  C   UNL A   1      41.525  19.748  26.205  1.00  0.00     0.202 C 
BRANCH  26  27
ATOM     27  C   UNL A   1      42.069  20.450  27.454  1.00  0.00     0.261 C 
BRANCH  27  28
ATOM     28  O   UNL A   1      41.182  21.377  28.084  1.00  0.00    -0.460 OA
BRANCH  28  29
ATOM     29  C   UNL A   1      41.380  22.669  27.723  1.00  0.00     0.338 C 
ATOM     30  O   UNL A   1      40.703  23.316  26.936  1.00  0.00    -0.246 OA
BRANCH  29  31
ATOM     31  C   UNL A   1      42.404  23.284  28.585  1.00  0.00     0.060 A 
ATOM     32  C   UNL A   1      42.334  24.670  28.770  1.00  0.00     0.016 A 
ATOM     33  C   UNL A   1      43.429  22.538  29.170  1.00  0.00     0.016 A 
ATOM     34  C   UNL A   1      43.299  25.324  29.522  1.00  0.00     0.010 A 
ATOM     35  C   UNL A   1      44.426  23.203  29.892  1.00  0.00     0.010 A 
ATOM     36  C   UNL A   1      44.379  24.602  30.040  1.00  0.00    -0.014 A 
BRANCH  36  37
ATOM     37  C   UNL A   1      45.543  25.369  30.537  1.00  0.00     0.031 A 
ATOM     38  C   UNL A   1      46.635  25.714  29.562  1.00  0.00     0.074 A 
ATOM     39  C   UNL A   1      45.572  25.837  31.796  1.00  0.00     0.049 A 
ATOM     40  N   UNL A   1      47.714  26.430  29.739  1.00  0.00    -0.248 NA
ATOM     41  C   UNL A   1      46.480  25.181  28.199  1.00  0.00     0.031 C 
ATOM     42  C   UNL A   1      44.536  25.614  32.802  1.00  0.00     0.029 A 
ATOM     43  N   UNL A   1      46.507  26.610  32.438  1.00  0.00    -0.354 N 
ATOM     44  C   UNL A   1      48.366  26.438  28.511  1.00  0.00     0.074 A 
ATOM     45  C   UNL A   1      47.581  25.620  27.611  1.00  0.00     0.031 C 
ATOM     46  C   UNL A   1      44.895  26.235  33.939  1.00  0.00     0.029 A 
ATOM     47  C   UNL A   1      46.197  26.870  33.751  1.00  0.00     0.049 A 
ATOM     48  H   UNL A   1      47.321  26.947  31.998  1.00  0.00     0.167 HD
ATOM     49  C   UNL A   1      49.511  27.077  28.167  1.00  0.00     0.034 A 
ATOM     50  C   UNL A   1      46.899  27.530  34.695  1.00  0.00     0.034 A 
ATOM     51  C   UNL A   1      50.289  27.868  29.089  1.00  0.00     0.049 A 
ATOM     52  C   UNL A   1      48.218  28.156  34.312  1.00  0.00     0.074 A 
ATOM     53  C   UNL A   1      51.463  28.562  28.853  1.00  0.00     0.029 A 
ATOM     54  N   UNL A   1      49.985  28.053  30.433  1.00  0.00    -0.354 N 
ATOM     55  N   UNL A   1      48.823  28.169  33.146  1.00  0.00    -0.248 NA
ATOM     56  C   UNL A   1      48.938  28.873  35.371  1.00  0.00     0.031 C 
ATOM     57  C   UNL A   1      51.912  29.089  30.069  1.00  0.00     0.029 A 
ATOM     58  C   UNL A   1      50.970  28.814  31.046  1.00  0.00     0.049 A 
ATOM     59  H   UNL A   1      49.186  27.696  30.885  1.00  0.00     0.167 HD
ATOM     60  C   UNL A   1      49.983  28.922  33.326  1.00  0.00     0.074 A 
ATOM     61  C   UNL A   1      49.974  29.363  34.706  1.00  0.00     0.031 C 
ATOM     62  C   UNL A   1      50.962  29.227  32.433  1.00  0.00     0.034 A 
BRANCH  49  63
ATOM     63  C   UNL A   1      50.016  26.880  26.756  1.00  0.00     0.023 A 
ATOM     64  C   UNL A   1      49.341  27.405  25.639  1.00  0.00     0.031 A 
ATOM     65  C   UNL A   1      51.170  26.111  26.522  1.00  0.00     0.131 A 
ATOM     66  C   UNL A   1      49.779  27.091  24.343  1.00  0.00     0.055 A 
ATOM     67  C   UNL A   1      51.652  25.875  25.232  1.00  0.00     0.041 A 
ATOM     68  F   UNL A   1      51.841  25.556  27.543  1.00  0.00    -0.206 F 
ATOM     69  C   UNL A   1      50.945  26.354  24.133  1.00  0.00     0.022 A 
BRANCH  66  70
ATOM     70  S   UNL A   1      48.714  27.522  22.938  1.00  0.00     0.124 S 
ATOM     71  O   UNL A   1      48.337  26.201  22.438  1.00  0.00    -0.237 OA
ATOM     72  O   UNL A   1      47.652  28.293  23.571  1.00  0.00    -0.237 OA
ATOM     73  O   UNL A   1      49.600  28.281  22.057  1.00  0.00    -0.744 OA
ENDBRANCH  66  70
ENDBRANCH  49  63
BRANCH  50  74
ATOM     74  C   UNL A   1      46.394  27.598  36.096  1.00  0.00     0.023 A 
ATOM     75  C   UNL A   1      46.776  26.653  37.062  1.00  0.00     0.031 A 
ATOM     76  C   UNL A   1      45.474  28.593  36.477  1.00  0.00     0.131 A 
ATOM     77  C   UNL A   1      46.208  26.697  38.346  1.00  0.00     0.055 A 
ATOM     78  C   UNL A   1      44.957  28.667  37.770  1.00  0.00     0.041 A 
ATOM     79  F   UNL A   1      45.072  29.519  35.592  1.00  0.00    -0.206 F 
ATOM     80  C   UNL A   1      45.314  27.707  38.711  1.00  0.00     0.022 A 
BRANCH  77  81
ATOM     81  S   UNL A   1      46.590  25.362  39.514  1.00  0.00     0.124 S 
ATOM     82  O   UNL A   1      45.266  24.814  39.782  1.00  0.00    -0.237 OA
ATOM     83  O   UNL A   1      47.486  24.521  38.728  1.00  0.00    -0.237 OA
ATOM     84  O   UNL A   1      47.217  26.060  40.633  1.00  0.00    -0.744 OA
ENDBRANCH  77  81
ENDBRANCH  50  74
BRANCH  62  85
ATOM     85  C   UNL A   1      52.084  30.115  32.924  1.00  0.00     0.023 A 
ATOM     86  C   UNL A   1      51.911  31.499  33.103  1.00  0.00     0.031 A 
ATOM     87  C   UNL A   1      53.357  29.574  33.179  1.00  0.00     0.131 A 
ATOM     88  C   UNL A   1      53.010  32.304  33.438  1.00  0.00     0.055 A 
ATOM     89  C   UNL A   1      54.427  30.369  33.593  1.00  0.00     0.041 A 
ATOM     90  F   UNL A   1      53.587  28.260  33.023  1.00  0.00    -0.206 F 
ATOM     91  C   UNL A   1      54.262  31.745  33.704  1.00  0.00     0.022 A 
BRANCH  88  92
ATOM     92  S   UNL A   1      52.815  34.106  33.378  1.00  0.00     0.124 S 
ATOM     93  O   UNL A   1      51.510  34.290  34.007  1.00  0.00    -0.237 OA
ATOM     94  O   UNL A   1      53.963  34.570  34.149  1.00  0.00    -0.237 OA
ATOM     95  O   UNL A   1      52.863  34.410  31.949  1.00  0.00    -0.744 OA
ENDBRANCH  88  92
ENDBRANCH  62  85
ENDBRANCH  36  37
ENDBRANCH  29  31
ENDBRANCH  28  29
ENDBRANCH  27  28
ENDBRANCH  26  27
ENDBRANCH  25  26
ENDBRANCH  24  25
ENDBRANCH   1  24
TORSDOF 26
ENDMDL
MODEL 3
REMARK VINA RESULT:      -7.9      3.555      5.675
REMARK SMILES CC(C)[C@H](C[C@H]1Cc2ccccc21)C(=O)OCCOCCOCCOCCOC(=O)c1ccc(-c2c3nc(c(-c4cc(S(=O)(=O)[O-])ccc4F)c4ccc([nH]4)c(-c4cc(S(=O)(=O)[O-])ccc4F)c4nc(c(-c5cc(S(=O)(=O)[O-])ccc5F)c5ccc2[nH]5)C=C4)C=C3)cc1
REMARK SMILES IDX 23 1 22 2 21 3 20 4 19 5 18 6 17 7 16 8 14 9 15 10 4 11 2 12
REMARK SMILES IDX 1 13 3 14 5 15 6 16 7 17 13 18 8 19 12 20 9 21 11 22 10 23
REMARK SMILES IDX 24 24 25 25 26 26 27 27 28 28 29 29 30 30 31 31 32 32 93 33
REMARK SMILES IDX 33 34 92 35 34 36 35 37 36 38 86 39 37 40 91 41 85 42 87 43
REMARK SMILES IDX 38 44 90 45 84 46 83 47 39 49 71 50 51 51 70 52 52 53 55 54
REMARK SMILES IDX 69 55 88 56 53 57 54 58 68 60 89 61 56 62 40 63 41 64 49 65
REMARK SMILES IDX 42 66 48 67 50 68 47 69 43 70 44 71 45 72 46 73 72 74 73 75
REMARK SMILES IDX 81 76 74 77 80 78 82 79 79 80 75 81 76 82 77 83 78 84 57 85
REMARK SMILES IDX 58 86 66 87 59 88 65 89 67 90 64 91 60 92 61 93 62 94 63 95
REMARK H PARENT 87 48 55 59
REMARK Flexibility Score: inf
ROOT
ATOM      1  C   UNL A   1      35.297  22.656  25.391  1.00  0.00     0.188 C 
ENDROOT
BRANCH   1   2
ATOM      2  O   UNL A   1      34.862  21.922  24.270  1.00  0.00    -0.377 OA
BRANCH   2   3
ATOM      3  C   UNL A   1      33.560  22.248  23.852  1.00  0.00     0.188 C 
BRANCH   3   4
ATOM      4  C   UNL A   1      33.496  23.099  22.575  1.00  0.00     0.188 C 
BRANCH   4   5
ATOM      5  O   UNL A   1      34.359  24.218  22.395  1.00  0.00    -0.376 OA
BRANCH   5   6
ATOM      6  C   UNL A   1      33.822  25.523  22.491  1.00  0.00     0.202 C 
BRANCH   6   7
ATOM      7  C   UNL A   1      32.293  25.621  22.584  1.00  0.00     0.261 C 
BRANCH   7   8
ATOM      8  O   UNL A   1      31.729  26.866  23.060  1.00  0.00    -0.463 OA
BRANCH   8   9
ATOM      9  C   UNL A   1      31.089  26.856  24.263  1.00  0.00     0.309 C 
ATOM     10  O   UNL A   1      30.033  27.438  24.487  1.00  0.00    -0.252 OA
BRANCH   9  11
ATOM     11  C   UNL A   1      31.912  26.186  25.384  1.00  0.00     0.102 C 
BRANCH  11  12
ATOM     12  C   UNL A   1      31.085  24.953  25.897  1.00  0.00    -0.003 C 
ATOM     13  C   UNL A   1      30.508  24.084  24.779  1.00  0.00     0.008 C 
ATOM     14  C   UNL A   1      31.817  24.030  26.886  1.00  0.00     0.008 C 
ENDBRANCH  11  12
BRANCH  11  15
ATOM     15  C   UNL A   1      32.502  27.088  26.507  1.00  0.00     0.024 C 
BRANCH  15  16
ATOM     16  C   UNL A   1      33.062  28.444  26.030  1.00  0.00     0.025 C 
ATOM     17  C   UNL A   1      32.131  29.670  26.413  1.00  0.00     0.044 C 
ATOM     18  C   UNL A   1      34.115  29.156  26.864  1.00  0.00    -0.041 A 
ATOM     19  C   UNL A   1      33.333  30.271  27.064  1.00  0.00    -0.044 A 
ATOM     20  C   UNL A   1      35.424  29.131  27.287  1.00  0.00     0.004 A 
ATOM     21  C   UNL A   1      33.791  31.413  27.684  1.00  0.00     0.004 A 
ATOM     22  C   UNL A   1      35.923  30.275  27.930  1.00  0.00     0.000 A 
ATOM     23  C   UNL A   1      35.114  31.412  28.121  1.00  0.00     0.000 A 
ENDBRANCH  15  16
ENDBRANCH  11  15
ENDBRANCH   9  11
ENDBRANCH   8   9
ENDBRANCH   7   8
ENDBRANCH   6   7
ENDBRANCH   5   6
ENDBRANCH   4   5
ENDBRANCH   3   4
ENDBRANCH   2   3
ENDBRANCH   1   2
BRANCH   1  24
ATOM     24  C   UNL A   1      36.677  23.311  25.221  1.00  0.00     0.188 C 
BRANCH  24  25
ATOM     25  O   UNL A   1      37.817  22.784  25.882  1.00  0.00    -0.376 OA
BRANCH  25  26
ATOM     26  C   UNL A   1      38.564  23.445  26.886  1.00  0.00     0.202 C 
BRANCH  26  27
ATOM     27  C   UNL A   1      38.899  24.940  26.887  1.00  0.00     0.261 C 
BRANCH  27  28
ATOM     28  O   UNL A   1      40.115  25.306  27.543  1.00  0.00    -0.460 OA
BRANCH  28  29
ATOM     29  C   UNL A   1      40.729  26.392  27.010  1.00  0.00     0.338 C 
ATOM     30  O   UNL A   1      41.005  26.568  25.832  1.00  0.00    -0.246 OA
BRANCH  29  31
ATOM     31  C   UNL A   1      40.824  27.463  28.017  1.00  0.00     0.060 A 
ATOM     32  C   UNL A   1      40.367  28.732  27.646  1.00  0.00     0.016 A 
ATOM     33  C   UNL A   1      41.379  27.247  29.281  1.00  0.00     0.016 A 
ATOM     34  C   UNL A   1      40.479  29.801  28.523  1.00  0.00     0.010 A 
ATOM     35  C   UNL A   1      41.532  28.334  30.150  1.00  0.00     0.010 A 
ATOM     36  C   UNL A   1      41.112  29.619  29.757  1.00  0.00    -0.014 A 
BRANCH  36  37
ATOM     37  C   UNL A   1      41.511  30.829  30.511  1.00  0.00     0.031 A 
ATOM     38  C   UNL A   1      42.806  31.500  30.142  1.00  0.00     0.074 A 
ATOM     39  C   UNL A   1      40.688  31.375  31.422  1.00  0.00     0.049 A 
ATOM     40  N   UNL A   1      43.334  32.602  30.606  1.00  0.00    -0.248 NA
ATOM     41  C   UNL A   1      43.609  30.835  29.104  1.00  0.00     0.031 C 
ATOM     42  C   UNL A   1      39.384  30.840  31.806  1.00  0.00     0.029 A 
ATOM     43  N   UNL A   1      40.826  32.510  32.179  1.00  0.00    -0.354 N 
ATOM     44  C   UNL A   1      44.528  32.767  29.914  1.00  0.00     0.074 A 
ATOM     45  C   UNL A   1      44.665  31.628  29.031  1.00  0.00     0.031 C 
ATOM     46  C   UNL A   1      38.840  31.647  32.734  1.00  0.00     0.029 A 
ATOM     47  C   UNL A   1      39.770  32.735  33.030  1.00  0.00     0.049 A 
ATOM     48  H   UNL A   1      41.606  33.107  32.118  1.00  0.00     0.167 HD
ATOM     49  C   UNL A   1      45.424  33.781  30.005  1.00  0.00     0.034 A 
ATOM     50  C   UNL A   1      39.591  33.699  33.955  1.00  0.00     0.034 A 
ATOM     51  C   UNL A   1      45.277  34.893  30.912  1.00  0.00     0.049 A 
ATOM     52  C   UNL A   1      40.646  34.768  34.103  1.00  0.00     0.074 A 
ATOM     53  C   UNL A   1      46.118  35.978  31.088  1.00  0.00     0.029 A 
ATOM     54  N   UNL A   1      44.230  35.054  31.812  1.00  0.00    -0.354 N 
ATOM     55  N   UNL A   1      41.768  34.924  33.438  1.00  0.00    -0.248 NA
ATOM     56  C   UNL A   1      40.398  35.802  35.115  1.00  0.00     0.031 C 
ATOM     57  C   UNL A   1      45.627  36.743  32.152  1.00  0.00     0.029 A 
ATOM     58  C   UNL A   1      44.427  36.197  32.574  1.00  0.00     0.049 A 
ATOM     59  H   UNL A   1      43.461  34.446  31.896  1.00  0.00     0.167 HD
ATOM     60  C   UNL A   1      42.346  36.093  33.932  1.00  0.00     0.074 A 
ATOM     61  C   UNL A   1      41.433  36.608  34.932  1.00  0.00     0.031 C 
ATOM     62  C   UNL A   1      43.519  36.688  33.589  1.00  0.00     0.034 A 
BRANCH  49  63
ATOM     63  C   UNL A   1      46.667  33.684  29.151  1.00  0.00     0.023 A 
ATOM     64  C   UNL A   1      46.874  34.512  28.033  1.00  0.00     0.031 A 
ATOM     65  C   UNL A   1      47.642  32.711  29.434  1.00  0.00     0.131 A 
ATOM     66  C   UNL A   1      47.983  34.302  27.199  1.00  0.00     0.055 A 
ATOM     67  C   UNL A   1      48.789  32.564  28.651  1.00  0.00     0.041 A 
ATOM     68  F   UNL A   1      47.488  31.869  30.468  1.00  0.00    -0.206 F 
ATOM     69  C   UNL A   1      48.956  33.352  27.516  1.00  0.00     0.022 A 
BRANCH  66  70
ATOM     70  S   UNL A   1      48.052  35.173  25.609  1.00  0.00     0.124 S 
ATOM     71  O   UNL A   1      47.004  34.490  24.853  1.00  0.00    -0.237 OA
ATOM     72  O   UNL A   1      47.773  36.551  25.990  1.00  0.00    -0.237 OA
ATOM     73  O   UNL A   1      49.413  34.918  25.138  1.00  0.00    -0.744 OA
ENDBRANCH  66  70
ENDBRANCH  49  63
BRANCH  50  74
ATOM     74  C   UNL A   1      38.390  33.678  34.839  1.00  0.00     0.023 A 
ATOM     75  C   UNL A   1      38.411  33.046  36.093  1.00  0.00     0.031 A 
ATOM     76  C   UNL A   1      37.178  34.253  34.414  1.00  0.00     0.131 A 
ATOM     77  C   UNL A   1      37.234  32.968  36.857  1.00  0.00     0.055 A 
ATOM     78  C   UNL A   1      36.027  34.223  35.201  1.00  0.00     0.041 A 
ATOM     79  F   UNL A   1      37.101  34.866  33.221  1.00  0.00    -0.206 F 
ATOM     80  C   UNL A   1      36.047  33.566  36.426  1.00  0.00     0.022 A 
BRANCH  77  81
ATOM     81  S   UNL A   1      37.253  31.997  38.389  1.00  0.00     0.124 S 
ATOM     82  O   UNL A   1      35.866  32.103  38.825  1.00  0.00    -0.237 OA
ATOM     83  O   UNL A   1      37.678  30.686  37.910  1.00  0.00    -0.237 OA
ATOM     84  O   UNL A   1      38.226  32.698  39.223  1.00  0.00    -0.744 OA
ENDBRANCH  77  81
ENDBRANCH  50  74
BRANCH  62  85
ATOM     85  C   UNL A   1      43.854  37.991  34.281  1.00  0.00     0.023 A 
ATOM     86  C   UNL A   1      43.516  39.237  33.721  1.00  0.00     0.031 A 
ATOM     87  C   UNL A   1      44.556  37.987  35.499  1.00  0.00     0.131 A 
ATOM     88  C   UNL A   1      43.955  40.420  34.333  1.00  0.00     0.055 A 
ATOM     89  C   UNL A   1      44.918  39.170  36.146  1.00  0.00     0.041 A 
ATOM     90  F   UNL A   1      44.910  36.830  36.082  1.00  0.00    -0.206 F 
ATOM     91  C   UNL A   1      44.636  40.396  35.552  1.00  0.00     0.022 A 
BRANCH  88  92
ATOM     92  S   UNL A   1      43.752  41.986  33.439  1.00  0.00     0.124 S 
ATOM     93  O   UNL A   1      44.922  41.989  32.566  1.00  0.00    -0.237 OA
ATOM     94  O   UNL A   1      42.465  41.802  32.777  1.00  0.00    -0.237 OA
ATOM     95  O   UNL A   1      43.767  42.991  34.500  1.00  0.00    -0.744 OA
ENDBRANCH  88  92
ENDBRANCH  62  85
ENDBRANCH  36  37
ENDBRANCH  29  31
ENDBRANCH  28  29
ENDBRANCH  27  28
ENDBRANCH  26  27
ENDBRANCH  25  26
ENDBRANCH  24  25
ENDBRANCH   1  24
TORSDOF 26
ENDMDL
