MODEL 1
REMARK VINA RESULT:     -10.6      0.000      0.000
REMARK SMILES Cc1ccccc1OCCN1C(=O)CC[C@H](C(=O)OCCOCCOCCOCCOC(=O)c2ccc(-c3c4nc(c(-c5cc(S(=O)(=O)[O-])ccc5F)c5ccc([nH]5)c(-c5cc(S(=O)(=O)[O-])ccc5F)c5nc(c(-c6cc(S(=O)(=O)[O-])ccc6F)c6ccc3[nH]6)C=C5)C=C4)cc2)[C@@H]1c1ccco1
REMARK SMILES IDX 24 1 23 2 22 3 21 4 20 5 19 6 17 7 18 8 16 9 11 10 12 11
REMARK SMILES IDX 97 12 13 13 14 14 15 15 10 16 9 17 8 18 7 19 1 20 2 21 3 22
REMARK SMILES IDX 4 23 6 24 5 25 98 26 99 27 102 28 100 29 101 30 25 31 26 32
REMARK SMILES IDX 27 33 28 34 29 35 30 36 31 37 32 38 33 39 34 40 35 41 96 42
REMARK SMILES IDX 36 43 95 44 37 45 38 46 39 47 89 48 40 49 94 50 88 51 90 52
REMARK SMILES IDX 41 53 93 54 87 55 86 56 42 58 74 59 54 60 73 61 55 62 58 63
REMARK SMILES IDX 72 64 91 65 56 66 57 67 71 69 92 70 59 71 43 72 44 73 52 74
REMARK SMILES IDX 45 75 51 76 53 77 50 78 46 79 47 80 48 81 49 82 75 83 76 84
REMARK SMILES IDX 84 85 77 86 83 87 85 88 82 89 78 90 79 91 80 92 81 93 60 94
REMARK SMILES IDX 61 95 69 96 62 97 68 98 70 99 67 100 63 101 64 102 65 103
REMARK SMILES IDX 66 104
REMARK H PARENT 90 57 58 68
REMARK Flexibility Score: inf
ROOT
ATOM      1  C   UNL A   1      38.749  29.343  27.515  1.00  0.00     0.188 C 
ENDROOT
BRANCH   1   2
ATOM      2  C   UNL A   1      37.642  30.104  28.675  1.00  0.00     0.188 C 
BRANCH   2   3
ATOM      3  O   UNL A   1      36.707  31.213  28.552  1.00  0.00    -0.376 OA
BRANCH   3   4
ATOM      4  C   UNL A   1      35.559  31.500  27.688  1.00  0.00     0.202 C 
BRANCH   4   5
ATOM      5  C   UNL A   1      34.308  30.728  27.847  1.00  0.00     0.261 C 
BRANCH   5   6
ATOM      6  O   UNL A   1      33.678  30.408  26.656  1.00  0.00    -0.463 OA
BRANCH   6   7
ATOM      7  C   UNL A   1      33.828  29.122  26.315  1.00  0.00     0.311 C 
ATOM      8  O   UNL A   1      34.597  28.366  26.894  1.00  0.00    -0.252 OA
BRANCH   7   9
ATOM      9  C   UNL A   1      33.159  28.799  25.008  1.00  0.00     0.130 C 
ATOM     10  N   UNL A   1      31.452  27.427  24.055  1.00  0.00    -0.328 N 
ATOM     11  C   UNL A   1      31.744  27.657  22.725  1.00  0.00     0.223 C 
ATOM     12  C   UNL A   1      32.443  27.491  25.115  1.00  0.00     0.166 C 
ATOM     13  O   UNL A   1      31.038  27.243  21.805  1.00  0.00    -0.275 OA
ATOM     14  C   UNL A   1      32.960  28.479  22.428  1.00  0.00     0.101 C 
ATOM     15  C   UNL A   1      33.567  29.199  23.610  1.00  0.00     0.028 C 
BRANCH  10  16
ATOM     16  C   UNL A   1      30.127  27.019  24.425  1.00  0.00     0.162 C 
BRANCH  16  17
ATOM     17  C   UNL A   1      30.070  25.565  24.918  1.00  0.00     0.251 C 
BRANCH  17  18
ATOM     18  O   UNL A   1      30.276  24.548  23.934  1.00  0.00    -0.491 OA
BRANCH  18  19
ATOM     19  C   UNL A   1      30.986  23.404  24.180  1.00  0.00     0.122 A 
ATOM     20  C   UNL A   1      30.527  23.084  26.697  1.00  0.00     0.048 C 
ATOM     21  C   UNL A   1      31.121  22.681  25.374  1.00  0.00    -0.009 A 
ATOM     22  C   UNL A   1      31.900  21.494  25.360  1.00  0.00     0.007 A 
ATOM     23  C   UNL A   1      32.555  21.048  24.209  1.00  0.00     0.001 A 
ATOM     24  C   UNL A   1      31.704  22.971  23.046  1.00  0.00     0.047 A 
ATOM     25  C   UNL A   1      32.473  21.804  23.052  1.00  0.00     0.004 A 
ENDBRANCH  18  19
ENDBRANCH  17  18
ENDBRANCH  16  17
ENDBRANCH  10  16
BRANCH  12  26
ATOM     26  C   UNL A   1      33.216  26.195  25.143  1.00  0.00     0.127 A 
ATOM     27  C   UNL A   1      34.071  25.591  24.236  1.00  0.00     0.048 A 
ATOM     28  O   UNL A   1      33.247  25.485  26.312  1.00  0.00    -0.467 OA
ATOM     29  C   UNL A   1      34.631  24.461  24.869  1.00  0.00     0.042 A 
ATOM     30  C   UNL A   1      34.117  24.458  26.141  1.00  0.00     0.195 A 
ENDBRANCH  12  26
ENDBRANCH   7   9
ENDBRANCH   6   7
ENDBRANCH   5   6
ENDBRANCH   4   5
ENDBRANCH   3   4
ENDBRANCH   2   3
ENDBRANCH   1   2
BRANCH   1  31
ATOM     31  O   UNL A   1      40.494  28.745  27.686  1.00  0.00    -0.377 OA
BRANCH  31  32
ATOM     32  C   UNL A   1      42.033  29.629  28.644  1.00  0.00     0.188 C 
BRANCH  32  33
ATOM     33  C   UNL A   1      43.551  29.872  27.608  1.00  0.00     0.188 C 
BRANCH  33  34
ATOM     34  O   UNL A   1      44.134  31.103  27.181  1.00  0.00    -0.376 OA
BRANCH  34  35
ATOM     35  C   UNL A   1      45.347  30.818  26.528  1.00  0.00     0.202 C 
BRANCH  35  36
ATOM     36  C   UNL A   1      46.633  31.177  27.393  1.00  0.00     0.261 C 
BRANCH  36  37
ATOM     37  O   UNL A   1      48.138  31.509  26.635  1.00  0.00    -0.460 OA
BRANCH  37  38
ATOM     38  C   UNL A   1      49.588  31.438  26.965  1.00  0.00     0.338 C 
ATOM     39  O   UNL A   1      50.388  32.015  26.225  1.00  0.00    -0.246 OA
BRANCH  38  40
ATOM     40  C   UNL A   1      50.259  30.566  28.238  1.00  0.00     0.060 A 
ATOM     41  C   UNL A   1      50.997  29.362  28.050  1.00  0.00     0.016 A 
ATOM     42  C   UNL A   1      49.881  30.710  29.578  1.00  0.00     0.016 A 
ATOM     43  C   UNL A   1      51.063  28.262  29.061  1.00  0.00     0.010 A 
ATOM     44  C   UNL A   1      49.741  29.529  30.456  1.00  0.00     0.010 A 
ATOM     45  C   UNL A   1      50.135  28.201  30.112  1.00  0.00    -0.014 A 
BRANCH  45  46
ATOM     46  C   UNL A   1      49.240  26.844  30.717  1.00  0.00     0.031 A 
ATOM     47  C   UNL A   1      48.034  26.506  29.531  1.00  0.00     0.074 A 
ATOM     48  C   UNL A   1      49.541  26.050  31.977  1.00  0.00     0.049 A 
ATOM     49  N   UNL A   1      47.276  25.449  29.400  1.00  0.00    -0.248 NA
ATOM     50  C   UNL A   1      47.523  27.484  28.565  1.00  0.00     0.031 C 
ATOM     51  C   UNL A   1      49.513  24.579  32.839  1.00  0.00     0.029 A 
ATOM     52  N   UNL A   1      50.298  26.379  33.014  1.00  0.00    -0.354 N 
ATOM     53  C   UNL A   1      46.003  25.753  28.952  1.00  0.00     0.074 A 
ATOM     54  C   UNL A   1      46.334  26.956  28.191  1.00  0.00     0.031 C 
ATOM     55  C   UNL A   1      50.051  24.437  34.077  1.00  0.00     0.029 A 
ATOM     56  C   UNL A   1      50.555  25.710  34.194  1.00  0.00     0.049 A 
ATOM     57  H   UNL A   1      50.754  27.248  32.929  1.00  0.00     0.167 HD
ATOM     58  C   UNL A   1      44.760  25.371  29.518  1.00  0.00     0.034 A 
ATOM     59  C   UNL A   1      51.182  26.427  35.082  1.00  0.00     0.034 A 
ATOM     60  C   UNL A   1      44.572  24.960  31.023  1.00  0.00     0.049 A 
ATOM     61  C   UNL A   1      49.310  26.673  35.328  1.00  0.00     0.074 A 
ATOM     62  C   UNL A   1      44.293  23.749  31.678  1.00  0.00     0.029 A 
ATOM     63  N   UNL A   1      44.673  25.869  32.129  1.00  0.00    -0.354 N 
ATOM     64  N   UNL A   1      48.177  26.325  34.589  1.00  0.00    -0.248 NA
ATOM     65  C   UNL A   1      48.748  27.165  36.601  1.00  0.00     0.031 C 
ATOM     66  C   UNL A   1      44.327  23.933  33.132  1.00  0.00     0.029 A 
ATOM     67  C   UNL A   1      44.842  25.227  33.420  1.00  0.00     0.049 A 
ATOM     68  H   UNL A   1      44.634  26.847  32.020  1.00  0.00     0.167 HD
ATOM     69  C   UNL A   1      46.865  26.402  35.216  1.00  0.00     0.074 A 
ATOM     70  C   UNL A   1      47.389  27.030  36.488  1.00  0.00     0.031 C 
ATOM     71  C   UNL A   1      45.458  26.000  34.769  1.00  0.00     0.034 A 
BRANCH  58  72
ATOM     72  C   UNL A   1      43.646  24.899  28.514  1.00  0.00     0.023 A 
ATOM     73  C   UNL A   1      43.919  23.873  27.565  1.00  0.00     0.031 A 
ATOM     74  C   UNL A   1      42.345  25.423  28.410  1.00  0.00     0.131 A 
ATOM     75  C   UNL A   1      42.990  23.449  26.587  1.00  0.00     0.055 A 
ATOM     76  C   UNL A   1      41.411  25.003  27.438  1.00  0.00     0.041 A 
ATOM     77  F   UNL A   1      41.882  26.340  29.264  1.00  0.00    -0.206 F 
ATOM     78  C   UNL A   1      41.730  24.017  26.515  1.00  0.00     0.022 A 
BRANCH  75  79
ATOM     79  S   UNL A   1      43.466  22.144  25.407  1.00  0.00     0.124 S 
ATOM     80  O   UNL A   1      43.499  22.863  24.138  1.00  0.00    -0.237 OA
ATOM     81  O   UNL A   1      44.756  21.703  25.928  1.00  0.00    -0.237 OA
ATOM     82  O   UNL A   1      42.388  21.162  25.530  1.00  0.00    -0.744 OA
ENDBRANCH  75  79
ENDBRANCH  58  72
BRANCH  59  83
ATOM     83  C   UNL A   1      52.601  26.466  33.817  1.00  0.00     0.023 A 
ATOM     84  C   UNL A   1      53.173  27.996  33.151  1.00  0.00     0.031 A 
ATOM     85  C   UNL A   1      53.937  25.398  34.211  1.00  0.00     0.131 A 
ATOM     86  C   UNL A   1      54.866  28.600  33.190  1.00  0.00     0.055 A 
ATOM     87  C   UNL A   1      55.615  26.003  34.720  1.00  0.00     0.041 A 
ATOM     88  F   UNL A   1      53.405  24.205  34.437  1.00  0.00    -0.206 F 
ATOM     89  C   UNL A   1      56.170  27.637  33.966  1.00  0.00     0.022 A 
BRANCH  86  90
ATOM     90  S   UNL A   1      55.432  29.905  32.094  1.00  0.00     0.124 S 
ATOM     91  O   UNL A   1      55.287  29.315  30.769  1.00  0.00    -0.237 OA
ATOM     92  O   UNL A   1      54.520  30.989  32.433  1.00  0.00    -0.237 OA
ATOM     93  O   UNL A   1      56.816  30.095  32.539  1.00  0.00    -0.744 OA
ENDBRANCH  86  90
ENDBRANCH  59  83
BRANCH  71  94
ATOM     94  C   UNL A   1      44.215  26.353  35.594  1.00  0.00     0.023 A 
ATOM     95  C   UNL A   1      43.526  27.528  35.400  1.00  0.00     0.031 A 
ATOM     96  C   UNL A   1      43.658  25.479  36.580  1.00  0.00     0.131 A 
ATOM     97  C   UNL A   1      42.221  27.666  35.879  1.00  0.00     0.055 A 
ATOM     98  C   UNL A   1      42.423  25.692  37.185  1.00  0.00     0.041 A 
ATOM     99  F   UNL A   1      44.254  24.353  36.996  1.00  0.00    -0.206 F 
ATOM    100  C   UNL A   1      41.656  26.761  36.775  1.00  0.00     0.022 A 
BRANCH  97 101
ATOM    101  S   UNL A   1      41.268  29.000  35.147  1.00  0.00     0.124 S 
ATOM    102  O   UNL A   1      40.647  28.334  34.006  1.00  0.00    -0.237 OA
ATOM    103  O   UNL A   1      40.363  29.343  36.243  1.00  0.00    -0.237 OA
ATOM    104  O   UNL A   1      42.276  30.003  34.826  1.00  0.00    -0.744 OA
ENDBRANCH  97 101
ENDBRANCH  71  94
ENDBRANCH  45  46
ENDBRANCH  38  40
ENDBRANCH  37  38
ENDBRANCH  36  37
ENDBRANCH  35  36
ENDBRANCH  34  35
ENDBRANCH  33  34
ENDBRANCH  32  33
ENDBRANCH  31  32
ENDBRANCH   1  31
TORSDOF 28
ENDMDL
MODEL 2
REMARK VINA RESULT:     -10.1      5.908     12.985
REMARK SMILES Cc1ccccc1OCCN1C(=O)CC[C@H](C(=O)OCCOCCOCCOCCOC(=O)c2ccc(-c3c4nc(c(-c5cc(S(=O)(=O)[O-])ccc5F)c5ccc([nH]5)c(-c5cc(S(=O)(=O)[O-])ccc5F)c5nc(c(-c6cc(S(=O)(=O)[O-])ccc6F)c6ccc3[nH]6)C=C5)C=C4)cc2)[C@@H]1c1ccco1
REMARK SMILES IDX 24 1 23 2 22 3 21 4 20 5 19 6 17 7 18 8 16 9 11 10 12 11
REMARK SMILES IDX 97 12 13 13 14 14 15 15 10 16 9 17 8 18 7 19 1 20 2 21 3 22
REMARK SMILES IDX 4 23 6 24 5 25 98 26 99 27 102 28 100 29 101 30 25 31 26 32
REMARK SMILES IDX 27 33 28 34 29 35 30 36 31 37 32 38 33 39 34 40 35 41 96 42
REMARK SMILES IDX 36 43 95 44 37 45 38 46 39 47 89 48 40 49 94 50 88 51 90 52
REMARK SMILES IDX 41 53 93 54 87 55 86 56 42 58 74 59 54 60 73 61 55 62 58 63
REMARK SMILES IDX 72 64 91 65 56 66 57 67 71 69 92 70 59 71 43 72 44 73 52 74
REMARK SMILES IDX 45 75 51 76 53 77 50 78 46 79 47 80 48 81 49 82 75 83 76 84
REMARK SMILES IDX 84 85 77 86 83 87 85 88 82 89 78 90 79 91 80 92 81 93 60 94
REMARK SMILES IDX 61 95 69 96 62 97 68 98 70 99 67 100 63 101 64 102 65 103
REMARK SMILES IDX 66 104
REMARK H PARENT 90 57 58 68
REMARK Flexibility Score: inf
ROOT
ATOM      1  C   UNL A   1      40.789  27.734  26.534  1.00  0.00     0.188 C 
ENDROOT
BRANCH   1   2
ATOM      2  C   UNL A   1      41.074  26.156  25.773  1.00  0.00     0.188 C 
BRANCH   2   3
ATOM      3  O   UNL A   1      42.223  25.601  25.072  1.00  0.00    -0.376 OA
BRANCH   3   4
ATOM      4  C   UNL A   1      43.658  25.516  25.355  1.00  0.00     0.202 C 
BRANCH   4   5
ATOM      5  C   UNL A   1      44.419  24.318  24.939  1.00  0.00     0.261 C 
BRANCH   5   6
ATOM      6  O   UNL A   1      45.627  24.152  25.596  1.00  0.00    -0.463 OA
BRANCH   6   7
ATOM      7  C   UNL A   1      46.671  24.614  24.894  1.00  0.00     0.311 C 
ATOM      8  O   UNL A   1      47.068  24.083  23.866  1.00  0.00    -0.252 OA
BRANCH   7   9
ATOM      9  C   UNL A   1      47.436  25.669  25.642  1.00  0.00     0.130 C 
ATOM     10  N   UNL A   1      47.518  28.027  26.015  1.00  0.00    -0.328 N 
ATOM     11  C   UNL A   1      48.733  28.074  26.669  1.00  0.00     0.223 C 
ATOM     12  C   UNL A   1      47.174  27.011  25.036  1.00  0.00     0.166 C 
ATOM     13  O   UNL A   1      49.175  29.101  27.185  1.00  0.00    -0.275 OA
ATOM     14  C   UNL A   1      49.504  26.793  26.766  1.00  0.00     0.101 C 
ATOM     15  C   UNL A   1      48.742  25.543  26.391  1.00  0.00     0.028 C 
BRANCH  10  16
ATOM     16  C   UNL A   1      46.560  29.073  26.231  1.00  0.00     0.162 C 
BRANCH  16  17
ATOM     17  C   UNL A   1      45.452  28.670  27.217  1.00  0.00     0.251 C 
BRANCH  17  18
ATOM     18  O   UNL A   1      45.403  29.390  28.451  1.00  0.00    -0.491 OA
BRANCH  18  19
ATOM     19  C   UNL A   1      44.315  29.371  29.283  1.00  0.00     0.122 A 
ATOM     20  C   UNL A   1      44.544  27.021  30.321  1.00  0.00     0.048 C 
ATOM     21  C   UNL A   1      43.887  28.367  30.163  1.00  0.00    -0.009 A 
ATOM     22  C   UNL A   1      42.728  28.607  30.948  1.00  0.00     0.007 A 
ATOM     23  C   UNL A   1      41.994  29.791  30.847  1.00  0.00     0.001 A 
ATOM     24  C   UNL A   1      43.526  30.532  29.151  1.00  0.00     0.047 A 
ATOM     25  C   UNL A   1      42.384  30.749  29.926  1.00  0.00     0.004 A 
ENDBRANCH  18  19
ENDBRANCH  17  18
ENDBRANCH  16  17
ENDBRANCH  10  16
BRANCH  12  26
ATOM     26  C   UNL A   1      47.785  27.382  23.707  1.00  0.00     0.127 A 
ATOM     27  C   UNL A   1      48.913  26.939  23.035  1.00  0.00     0.048 A 
ATOM     28  O   UNL A   1      47.076  28.204  22.875  1.00  0.00    -0.467 OA
ATOM     29  C   UNL A   1      48.900  27.527  21.752  1.00  0.00     0.042 A 
ATOM     30  C   UNL A   1      47.746  28.266  21.697  1.00  0.00     0.195 A 
ENDBRANCH  12  26
ENDBRANCH   7   9
ENDBRANCH   6   7
ENDBRANCH   5   6
ENDBRANCH   4   5
ENDBRANCH   3   4
ENDBRANCH   2   3
ENDBRANCH   1   2
BRANCH   1  31
ATOM     31  O   UNL A   1      40.416  28.210  28.285  1.00  0.00    -0.377 OA
BRANCH  31  32
ATOM     32  C   UNL A   1      38.614  28.450  29.160  1.00  0.00     0.188 C 
BRANCH  32  33
ATOM     33  C   UNL A   1      37.393  29.423  28.161  1.00  0.00     0.188 C 
BRANCH  33  34
ATOM     34  O   UNL A   1      37.228  30.839  28.114  1.00  0.00    -0.376 OA
BRANCH  34  35
ATOM     35  C   UNL A   1      35.851  31.128  28.112  1.00  0.00     0.202 C 
BRANCH  35  36
ATOM     36  C   UNL A   1      35.418  32.162  29.239  1.00  0.00     0.261 C 
BRANCH  36  37
ATOM     37  O   UNL A   1      35.375  31.695  30.891  1.00  0.00    -0.460 OA
BRANCH  37  38
ATOM     38  C   UNL A   1      36.149  30.826  31.820  1.00  0.00     0.338 C 
ATOM     39  O   UNL A   1      36.277  29.631  31.538  1.00  0.00    -0.246 OA
BRANCH  38  40
ATOM     40  C   UNL A   1      36.819  31.312  33.286  1.00  0.00     0.060 A 
ATOM     41  C   UNL A   1      36.638  32.618  33.826  1.00  0.00     0.016 A 
ATOM     42  C   UNL A   1      37.873  30.653  33.928  1.00  0.00     0.016 A 
ATOM     43  C   UNL A   1      37.636  33.298  34.707  1.00  0.00     0.010 A 
ATOM     44  C   UNL A   1      38.957  31.417  34.581  1.00  0.00     0.010 A 
ATOM     45  C   UNL A   1      38.957  32.830  34.784  1.00  0.00    -0.014 A 
BRANCH  45  46
ATOM     46  C   UNL A   1      40.447  33.716  34.732  1.00  0.00     0.031 A 
ATOM     47  C   UNL A   1      40.683  34.150  33.079  1.00  0.00     0.074 A 
ATOM     48  C   UNL A   1      41.299  34.124  35.921  1.00  0.00     0.049 A 
ATOM     49  N   UNL A   1      41.515  35.015  32.562  1.00  0.00    -0.248 NA
ATOM     50  C   UNL A   1      40.091  33.437  31.942  1.00  0.00     0.031 C 
ATOM     51  C   UNL A   1      42.383  35.215  36.660  1.00  0.00     0.029 A 
ATOM     52  N   UNL A   1      41.290  33.652  37.160  1.00  0.00    -0.354 N 
ATOM     53  C   UNL A   1      42.020  34.609  31.339  1.00  0.00     0.074 A 
ATOM     54  C   UNL A   1      40.884  33.798  30.906  1.00  0.00     0.031 C 
ATOM     55  C   UNL A   1      42.820  35.073  37.936  1.00  0.00     0.029 A 
ATOM     56  C   UNL A   1      42.079  33.960  38.251  1.00  0.00     0.049 A 
ATOM     57  H   UNL A   1      40.604  32.967  37.332  1.00  0.00     0.167 HD
ATOM     58  C   UNL A   1      43.376  34.531  30.934  1.00  0.00     0.034 A 
ATOM     59  C   UNL A   1      41.928  33.147  39.258  1.00  0.00     0.034 A 
ATOM     60  C   UNL A   1      44.584  34.407  31.932  1.00  0.00     0.049 A 
ATOM     61  C   UNL A   1      43.300  32.457  38.134  1.00  0.00     0.074 A 
ATOM     62  C   UNL A   1      45.621  35.269  32.324  1.00  0.00     0.029 A 
ATOM     63  N   UNL A   1      44.865  33.240  32.719  1.00  0.00    -0.354 N 
ATOM     64  N   UNL A   1      43.764  32.775  36.855  1.00  0.00    -0.248 NA
ATOM     65  C   UNL A   1      44.300  31.489  38.626  1.00  0.00     0.031 C 
ATOM     66  C   UNL A   1      46.426  34.653  33.383  1.00  0.00     0.029 A 
ATOM     67  C   UNL A   1      45.775  33.469  33.827  1.00  0.00     0.049 A 
ATOM     68  H   UNL A   1      44.472  32.358  32.525  1.00  0.00     0.167 HD
ATOM     69  C   UNL A   1      45.041  32.239  36.405  1.00  0.00     0.074 A 
ATOM     70  C   UNL A   1      45.230  31.369  37.627  1.00  0.00     0.031 C 
ATOM     71  C   UNL A   1      45.895  32.460  35.155  1.00  0.00     0.034 A 
BRANCH  58  72
ATOM     72  C   UNL A   1      43.709  35.051  29.487  1.00  0.00     0.023 A 
ATOM     73  C   UNL A   1      44.145  34.147  28.478  1.00  0.00     0.031 A 
ATOM     74  C   UNL A   1      43.657  36.389  29.053  1.00  0.00     0.131 A 
ATOM     75  C   UNL A   1      44.529  34.555  27.180  1.00  0.00     0.055 A 
ATOM     76  C   UNL A   1      44.036  36.802  27.758  1.00  0.00     0.041 A 
ATOM     77  F   UNL A   1      43.200  37.369  29.837  1.00  0.00    -0.206 F 
ATOM     78  C   UNL A   1      44.481  35.889  26.814  1.00  0.00     0.022 A 
BRANCH  75  79
ATOM     79  S   UNL A   1      45.098  33.304  25.981  1.00  0.00     0.124 S 
ATOM     80  O   UNL A   1      45.691  32.288  26.843  1.00  0.00    -0.237 OA
ATOM     81  O   UNL A   1      43.860  32.930  25.305  1.00  0.00    -0.237 OA
ATOM     82  O   UNL A   1      46.052  34.038  25.149  1.00  0.00    -0.744 OA
ENDBRANCH  75  79
ENDBRANCH  58  72
BRANCH  59  83
ATOM     83  C   UNL A   1      40.141  33.798  39.309  1.00  0.00     0.023 A 
ATOM     84  C   UNL A   1      38.776  32.696  39.118  1.00  0.00     0.031 A 
ATOM     85  C   UNL A   1      39.846  34.972  40.580  1.00  0.00     0.131 A 
ATOM     86  C   UNL A   1      37.406  32.500  40.266  1.00  0.00     0.055 A 
ATOM     87  C   UNL A   1      38.779  34.633  42.058  1.00  0.00     0.041 A 
ATOM     88  F   UNL A   1      40.787  35.897  40.457  1.00  0.00    -0.206 F 
ATOM     89  C   UNL A   1      37.333  33.457  41.785  1.00  0.00     0.022 A 
BRANCH  86  90
ATOM     90  S   UNL A   1      35.860  31.733  39.774  1.00  0.00     0.124 S 
ATOM     91  O   UNL A   1      36.290  30.515  39.099  1.00  0.00    -0.237 OA
ATOM     92  O   UNL A   1      35.190  31.572  41.057  1.00  0.00    -0.237 OA
ATOM     93  O   UNL A   1      35.282  32.755  38.896  1.00  0.00    -0.744 OA
ENDBRANCH  86  90
ENDBRANCH  59  83
BRANCH  71  94
ATOM     94  C   UNL A   1      47.144  31.620  34.871  1.00  0.00     0.023 A 
ATOM     95  C   UNL A   1      47.067  30.384  34.268  1.00  0.00     0.031 A 
ATOM     96  C   UNL A   1      48.472  32.070  35.161  1.00  0.00     0.131 A 
ATOM     97  C   UNL A   1      48.202  29.811  33.691  1.00  0.00     0.055 A 
ATOM     98  C   UNL A   1      49.618  31.413  34.724  1.00  0.00     0.041 A 
ATOM     99  F   UNL A   1      48.742  33.184  35.856  1.00  0.00    -0.206 F 
ATOM    100  C   UNL A   1      49.484  30.308  33.912  1.00  0.00     0.022 A 
BRANCH  97 101
ATOM    101  S   UNL A   1      47.885  28.482  32.525  1.00  0.00     0.124 S 
ATOM    102  O   UNL A   1      47.120  27.543  33.340  1.00  0.00    -0.237 OA
ATOM    103  O   UNL A   1      47.122  29.182  31.492  1.00  0.00    -0.237 OA
ATOM    104  O   UNL A   1      49.219  28.045  32.134  1.00  0.00    -0.744 OA
ENDBRANCH  97 101
ENDBRANCH  71  94
ENDBRANCH  45  46
ENDBRANCH  38  40
ENDBRANCH  37  38
ENDBRANCH  36  37
ENDBRANCH  35  36
ENDBRANCH  34  35
ENDBRANCH  33  34
ENDBRANCH  32  33
ENDBRANCH  31  32
ENDBRANCH   1  31
TORSDOF 28
ENDMDL
MODEL 3
REMARK VINA RESULT:      -9.5      7.047     12.519
REMARK SMILES Cc1ccccc1OCCN1C(=O)CC[C@H](C(=O)OCCOCCOCCOCCOC(=O)c2ccc(-c3c4nc(c(-c5cc(S(=O)(=O)[O-])ccc5F)c5ccc([nH]5)c(-c5cc(S(=O)(=O)[O-])ccc5F)c5nc(c(-c6cc(S(=O)(=O)[O-])ccc6F)c6ccc3[nH]6)C=C5)C=C4)cc2)[C@@H]1c1ccco1
REMARK SMILES IDX 24 1 23 2 22 3 21 4 20 5 19 6 17 7 18 8 16 9 11 10 12 11
REMARK SMILES IDX 97 12 13 13 14 14 15 15 10 16 9 17 8 18 7 19 1 20 2 21 3 22
REMARK SMILES IDX 4 23 6 24 5 25 98 26 99 27 102 28 100 29 101 30 25 31 26 32
REMARK SMILES IDX 27 33 28 34 29 35 30 36 31 37 32 38 33 39 34 40 35 41 96 42
REMARK SMILES IDX 36 43 95 44 37 45 38 46 39 47 89 48 40 49 94 50 88 51 90 52
REMARK SMILES IDX 41 53 93 54 87 55 86 56 42 58 74 59 54 60 73 61 55 62 58 63
REMARK SMILES IDX 72 64 91 65 56 66 57 67 71 69 92 70 59 71 43 72 44 73 52 74
REMARK SMILES IDX 45 75 51 76 53 77 50 78 46 79 47 80 48 81 49 82 75 83 76 84
REMARK SMILES IDX 84 85 77 86 83 87 85 88 82 89 78 90 79 91 80 92 81 93 60 94
REMARK SMILES IDX 61 95 69 96 62 97 68 98 70 99 67 100 63 101 64 102 65 103
REMARK SMILES IDX 66 104
REMARK H PARENT 90 57 58 68
REMARK Flexibility Score: inf
ROOT
ATOM      1  C   UNL A   1      48.283  37.231  26.351  1.00  0.00     0.188 C 
ENDROOT
BRANCH   1   2
ATOM      2  C   UNL A   1      47.949  38.374  25.035  1.00  0.00     0.188 C 
BRANCH   2   3
ATOM      3  O   UNL A   1      46.902  39.367  24.845  1.00  0.00    -0.376 OA
BRANCH   3   4
ATOM      4  C   UNL A   1      46.875  40.829  24.750  1.00  0.00     0.202 C 
BRANCH   4   5
ATOM      5  C   UNL A   1      46.776  41.645  25.979  1.00  0.00     0.261 C 
BRANCH   5   6
ATOM      6  O   UNL A   1      47.331  41.056  27.103  1.00  0.00    -0.463 OA
BRANCH   6   7
ATOM      7  C   UNL A   1      46.460  40.936  28.113  1.00  0.00     0.311 C 
ATOM      8  O   UNL A   1      46.687  41.354  29.240  1.00  0.00    -0.252 OA
BRANCH   7   9
ATOM      9  C   UNL A   1      45.320  40.017  27.774  1.00  0.00     0.130 C 
ATOM     10  N   UNL A   1      43.010  40.028  27.166  1.00  0.00    -0.328 N 
ATOM     11  C   UNL A   1      42.771  38.674  27.305  1.00  0.00     0.223 C 
ATOM     12  C   UNL A   1      44.022  40.744  27.924  1.00  0.00     0.166 C 
ATOM     13  O   UNL A   1      41.707  38.147  26.979  1.00  0.00    -0.275 OA
ATOM     14  C   UNL A   1      43.889  37.838  27.847  1.00  0.00     0.101 C 
ATOM     15  C   UNL A   1      45.238  38.515  27.912  1.00  0.00     0.028 C 
BRANCH  10  16
ATOM     16  C   UNL A   1      42.173  40.806  26.300  1.00  0.00     0.162 C 
BRANCH  16  17
ATOM     17  C   UNL A   1      42.930  41.359  25.082  1.00  0.00     0.251 C 
BRANCH  17  18
ATOM     18  O   UNL A   1      42.305  42.434  24.375  1.00  0.00    -0.491 OA
BRANCH  18  19
ATOM     19  C   UNL A   1      42.751  42.890  23.164  1.00  0.00     0.122 A 
ATOM     20  C   UNL A   1      44.428  44.698  23.918  1.00  0.00     0.048 C 
ATOM     21  C   UNL A   1      43.712  43.872  22.883  1.00  0.00    -0.009 A 
ATOM     22  C   UNL A   1      44.021  44.144  21.524  1.00  0.00     0.007 A 
ATOM     23  C   UNL A   1      43.379  43.489  20.470  1.00  0.00     0.001 A 
ATOM     24  C   UNL A   1      42.071  42.285  22.087  1.00  0.00     0.047 A 
ATOM     25  C   UNL A   1      42.383  42.571  20.754  1.00  0.00     0.004 A 
ENDBRANCH  18  19
ENDBRANCH  17  18
ENDBRANCH  16  17
ENDBRANCH  10  16
BRANCH  12  26
ATOM     26  C   UNL A   1      43.476  41.061  29.294  1.00  0.00     0.127 A 
ATOM     27  C   UNL A   1      42.887  40.281  30.276  1.00  0.00     0.048 A 
ATOM     28  O   UNL A   1      43.694  42.312  29.805  1.00  0.00    -0.467 OA
ATOM     29  C   UNL A   1      42.724  41.089  31.420  1.00  0.00     0.042 A 
ATOM     30  C   UNL A   1      43.257  42.309  31.089  1.00  0.00     0.195 A 
ENDBRANCH  12  26
ENDBRANCH   7   9
ENDBRANCH   6   7
ENDBRANCH   5   6
ENDBRANCH   4   5
ENDBRANCH   3   4
ENDBRANCH   2   3
ENDBRANCH   1   2
BRANCH   1  31
ATOM     31  O   UNL A   1      47.959  35.414  26.520  1.00  0.00    -0.377 OA
BRANCH  31  32
ATOM     32  C   UNL A   1      47.549  34.366  28.193  1.00  0.00     0.188 C 
BRANCH  32  33
ATOM     33  C   UNL A   1      45.908  33.501  28.182  1.00  0.00     0.188 C 
BRANCH  33  34
ATOM     34  O   UNL A   1      45.336  32.721  27.134  1.00  0.00    -0.376 OA
BRANCH  34  35
ATOM     35  C   UNL A   1      44.174  32.099  27.626  1.00  0.00     0.202 C 
BRANCH  35  36
ATOM     36  C   UNL A   1      43.808  30.748  26.870  1.00  0.00     0.261 C 
BRANCH  36  37
ATOM     37  O   UNL A   1      45.037  29.647  26.394  1.00  0.00    -0.460 OA
BRANCH  37  38
ATOM     38  C   UNL A   1      45.979  28.688  27.036  1.00  0.00     0.338 C 
ATOM     39  O   UNL A   1      46.866  28.183  26.344  1.00  0.00    -0.246 OA
BRANCH  38  40
ATOM     40  C   UNL A   1      45.900  28.160  28.632  1.00  0.00     0.060 A 
ATOM     41  C   UNL A   1      45.364  26.894  29.005  1.00  0.00     0.016 A 
ATOM     42  C   UNL A   1      46.002  29.002  29.746  1.00  0.00     0.016 A 
ATOM     43  C   UNL A   1      44.703  26.627  30.319  1.00  0.00     0.010 A 
ATOM     44  C   UNL A   1      45.133  28.805  30.925  1.00  0.00     0.010 A 
ATOM     45  C   UNL A   1      44.269  27.687  31.130  1.00  0.00    -0.014 A 
BRANCH  45  46
ATOM     46  C   UNL A   1      42.766  27.892  31.971  1.00  0.00     0.031 A 
ATOM     47  C   UNL A   1      41.585  28.217  30.756  1.00  0.00     0.074 A 
ATOM     48  C   UNL A   1      42.529  27.703  33.459  1.00  0.00     0.049 A 
ATOM     49  N   UNL A   1      40.281  28.204  30.847  1.00  0.00    -0.248 NA
ATOM     50  C   UNL A   1      41.888  28.770  29.432  1.00  0.00     0.031 C 
ATOM     51  C   UNL A   1      41.500  27.271  34.749  1.00  0.00     0.029 A 
ATOM     52  N   UNL A   1      43.408  27.666  34.450  1.00  0.00    -0.354 N 
ATOM     53  C   UNL A   1      39.680  29.184  30.076  1.00  0.00     0.074 A 
ATOM     54  C   UNL A   1      40.698  29.278  29.032  1.00  0.00     0.031 C 
ATOM     55  C   UNL A   1      41.911  27.231  36.042  1.00  0.00     0.029 A 
ATOM     56  C   UNL A   1      43.229  27.547  35.814  1.00  0.00     0.049 A 
ATOM     57  H   UNL A   1      44.349  27.735  34.166  1.00  0.00     0.167 HD
ATOM     58  C   UNL A   1      38.724  30.151  30.478  1.00  0.00     0.034 A 
ATOM     59  C   UNL A   1      44.309  27.759  36.510  1.00  0.00     0.034 A 
ATOM     60  C   UNL A   1      38.530  30.628  31.963  1.00  0.00     0.049 A 
ATOM     61  C   UNL A   1      43.414  29.422  36.276  1.00  0.00     0.074 A 
ATOM     62  C   UNL A   1      37.520  30.450  32.922  1.00  0.00     0.029 A 
ATOM     63  N   UNL A   1      39.479  31.424  32.686  1.00  0.00    -0.354 N 
ATOM     64  N   UNL A   1      42.340  29.848  35.490  1.00  0.00    -0.248 NA
ATOM     65  C   UNL A   1      43.663  30.575  37.164  1.00  0.00     0.031 C 
ATOM     66  C   UNL A   1      37.917  31.048  34.201  1.00  0.00     0.029 A 
ATOM     67  C   UNL A   1      39.285  31.429  34.125  1.00  0.00     0.049 A 
ATOM     68  H   UNL A   1      40.202  31.925  32.244  1.00  0.00     0.167 HD
ATOM     69  C   UNL A   1      41.710  31.130  35.777  1.00  0.00     0.074 A 
ATOM     70  C   UNL A   1      42.721  31.514  36.834  1.00  0.00     0.031 C 
ATOM     71  C   UNL A   1      40.477  31.845  35.221  1.00  0.00     0.034 A 
BRANCH  58  72
ATOM     72  C   UNL A   1      37.522  30.401  29.494  1.00  0.00     0.023 A 
ATOM     73  C   UNL A   1      36.738  31.585  29.600  1.00  0.00     0.031 A 
ATOM     74  C   UNL A   1      37.079  29.527  28.484  1.00  0.00     0.131 A 
ATOM     75  C   UNL A   1      35.602  31.841  28.799  1.00  0.00     0.055 A 
ATOM     76  C   UNL A   1      35.947  29.778  27.679  1.00  0.00     0.041 A 
ATOM     77  F   UNL A   1      37.734  28.401  28.186  1.00  0.00    -0.206 F 
ATOM     78  C   UNL A   1      35.197  30.934  27.835  1.00  0.00     0.022 A 
BRANCH  75  79
ATOM     79  S   UNL A   1      34.661  33.383  29.048  1.00  0.00     0.124 S 
ATOM     80  O   UNL A   1      34.170  33.235  30.413  1.00  0.00    -0.237 OA
ATOM     81  O   UNL A   1      35.677  34.409  28.838  1.00  0.00    -0.237 OA
ATOM     82  O   UNL A   1      33.629  33.324  28.012  1.00  0.00    -0.744 OA
ENDBRANCH  75  79
ENDBRANCH  58  72
BRANCH  59  83
ATOM     83  C   UNL A   1      44.992  26.223  35.619  1.00  0.00     0.023 A 
ATOM     84  C   UNL A   1      46.458  26.325  34.643  1.00  0.00     0.031 A 
ATOM     85  C   UNL A   1      44.971  24.764  36.595  1.00  0.00     0.131 A 
ATOM     86  C   UNL A   1      47.934  25.317  34.841  1.00  0.00     0.055 A 
ATOM     87  C   UNL A   1      46.505  23.934  37.226  1.00  0.00     0.041 A 
ATOM     88  F   UNL A   1      43.738  24.651  37.066  1.00  0.00    -0.206 F 
ATOM     89  C   UNL A   1      48.031  24.071  36.132  1.00  0.00     0.022 A 
BRANCH  86  90
ATOM     90  S   UNL A   1      49.156  25.159  33.536  1.00  0.00     0.124 S 
ATOM     91  O   UNL A   1      48.409  25.510  32.334  1.00  0.00    -0.237 OA
ATOM     92  O   UNL A   1      50.177  26.102  33.972  1.00  0.00    -0.237 OA
ATOM     93  O   UNL A   1      49.530  23.745  33.641  1.00  0.00    -0.744 OA
ENDBRANCH  86  90
ENDBRANCH  59  83
BRANCH  71  94
ATOM     94  C   UNL A   1      40.137  33.288  35.609  1.00  0.00     0.023 A 
ATOM     95  C   UNL A   1      39.597  33.602  36.835  1.00  0.00     0.031 A 
ATOM     96  C   UNL A   1      40.397  34.408  34.757  1.00  0.00     0.131 A 
ATOM     97  C   UNL A   1      39.639  34.916  37.308  1.00  0.00     0.055 A 
ATOM     98  C   UNL A   1      40.286  35.731  35.173  1.00  0.00     0.041 A 
ATOM     99  F   UNL A   1      40.802  34.295  33.484  1.00  0.00    -0.206 F 
ATOM    100  C   UNL A   1      39.976  35.992  36.491  1.00  0.00     0.022 A 
BRANCH  97 101
ATOM    101  S   UNL A   1      39.378  35.108  39.074  1.00  0.00     0.124 S 
ATOM    102  O   UNL A   1      38.390  34.068  39.346  1.00  0.00    -0.237 OA
ATOM    103  O   UNL A   1      40.720  34.849  39.593  1.00  0.00    -0.237 OA
ATOM    104  O   UNL A   1      38.908  36.482  39.202  1.00  0.00    -0.744 OA
ENDBRANCH  97 101
ENDBRANCH  71  94
ENDBRANCH  45  46
ENDBRANCH  38  40
ENDBRANCH  37  38
ENDBRANCH  36  37
ENDBRANCH  35  36
ENDBRANCH  34  35
ENDBRANCH  33  34
ENDBRANCH  32  33
ENDBRANCH  31  32
ENDBRANCH   1  31
TORSDOF 28
ENDMDL
