MODEL 1
REMARK VINA RESULT:      -8.2      0.000      0.000
REMARK SMILES Cn1c(=O)c(=O)n(C)c2cc(S(=O)(=O)N3CCC[C@H]3C(=O)OCCOCCOCCOCCOC(=O)c3ccc(-c4c5nc(c(-c6cc(S(=O)(=O)[O-])ccc6F)c6ccc([nH]6)c(-c6cc(S(=O)(=O)[O-])ccc6F)c6nc(c(-c7cc(S(=O)(=O)[O-])ccc7F)c7ccc4[nH]7)C=C6)C=C5)cc3)ccc21
REMARK SMILES IDX 29 1 28 2 27 3 26 4 25 5 24 6 23 7 22 8 20 9 21 10 19 11
REMARK SMILES IDX 15 12 16 13 17 14 18 15 12 16 13 17 14 18 11 19 1 20 2 21
REMARK SMILES IDX 3 22 102 23 4 24 5 25 9 26 101 27 6 28 7 29 10 30 100 31
REMARK SMILES IDX 8 32 30 33 31 34 32 35 33 36 34 37 35 38 36 39 37 40 38 41
REMARK SMILES IDX 99 42 39 43 98 44 40 45 41 46 42 47 92 48 43 49 97 50 91 51
REMARK SMILES IDX 93 52 44 53 96 54 90 55 89 56 45 58 77 59 57 60 76 61 58 62
REMARK SMILES IDX 61 63 75 64 94 65 59 66 60 67 74 69 95 70 62 71 46 72 47 73
REMARK SMILES IDX 55 74 48 75 54 76 56 77 53 78 49 79 50 80 51 81 52 82 78 83
REMARK SMILES IDX 79 84 87 85 80 86 86 87 88 88 85 89 81 90 82 91 83 92 84 93
REMARK SMILES IDX 63 94 64 95 72 96 65 97 71 98 73 99 70 100 66 101 67 102
REMARK SMILES IDX 68 103 69 104
REMARK H PARENT 93 57 61 68
REMARK Flexibility Score: inf
ROOT
ATOM      1  C   UNL A   1      48.191  26.517  32.297  1.00  0.00     0.188 C 
ENDROOT
BRANCH   1   2
ATOM      2  O   UNL A   1      49.098  25.957  31.362  1.00  0.00    -0.377 OA
BRANCH   2   3
ATOM      3  C   UNL A   1      49.420  26.783  30.266  1.00  0.00     0.188 C 
BRANCH   3   4
ATOM      4  C   UNL A   1      50.219  26.047  29.169  1.00  0.00     0.188 C 
BRANCH   4   5
ATOM      5  O   UNL A   1      50.121  26.391  27.790  1.00  0.00    -0.376 OA
BRANCH   5   6
ATOM      6  C   UNL A   1      50.037  27.744  27.351  1.00  0.00     0.202 C 
BRANCH   6   7
ATOM      7  C   UNL A   1      48.837  28.256  26.533  1.00  0.00     0.261 C 
BRANCH   7   8
ATOM      8  O   UNL A   1      48.406  27.337  25.530  1.00  0.00    -0.462 OA
BRANCH   8   9
ATOM      9  C   UNL A   1      47.244  27.608  24.894  1.00  0.00     0.324 C 
ATOM     10  O   UNL A   1      47.118  28.355  23.931  1.00  0.00    -0.250 OA
BRANCH   9  11
ATOM     11  C   UNL A   1      46.138  26.726  25.452  1.00  0.00     0.183 C 
ATOM     12  N   UNL A   1      46.234  26.420  26.882  1.00  0.00    -0.184 NA
ATOM     13  C   UNL A   1      45.359  27.321  27.624  1.00  0.00     0.103 C 
ATOM     14  C   UNL A   1      44.212  27.603  26.668  1.00  0.00     0.019 C 
ATOM     15  C   UNL A   1      44.782  27.426  25.268  1.00  0.00     0.034 C 
BRANCH  12  16
ATOM     16  S   UNL A   1      46.679  24.900  27.436  1.00  0.00     0.243 S 
ATOM     17  O   UNL A   1      46.748  24.977  28.881  1.00  0.00    -0.207 OA
ATOM     18  O   UNL A   1      47.790  24.436  26.642  1.00  0.00    -0.207 OA
BRANCH  16  19
ATOM     19  C   UNL A   1      45.349  23.747  27.089  1.00  0.00     0.084 A 
ATOM     20  C   UNL A   1      41.037  20.953  27.043  1.00  0.00     0.154 C 
ATOM     21  N   UNL A   1      42.357  20.808  26.448  1.00  0.00    -0.305 N 
ATOM     22  C   UNL A   1      42.599  19.640  25.730  1.00  0.00     0.316 A 
ATOM     23  C   UNL A   1      43.351  21.812  26.594  1.00  0.00     0.068 A 
ATOM     24  O   UNL A   1      41.753  18.763  25.569  1.00  0.00    -0.263 OA
ATOM     25  C   UNL A   1      43.986  19.455  25.108  1.00  0.00     0.316 A 
ATOM     26  C   UNL A   1      44.653  21.611  26.100  1.00  0.00     0.069 A 
ATOM     27  C   UNL A   1      43.055  23.019  27.244  1.00  0.00     0.030 A 
ATOM     28  O   UNL A   1      44.190  18.443  24.442  1.00  0.00    -0.263 OA
ATOM     29  N   UNL A   1      44.945  20.442  25.341  1.00  0.00    -0.305 N 
ATOM     30  C   UNL A   1      45.647  22.580  26.367  1.00  0.00     0.050 A 
ATOM     31  C   UNL A   1      44.042  23.974  27.487  1.00  0.00     0.024 A 
ATOM     32  C   UNL A   1      46.254  20.266  24.729  1.00  0.00     0.154 C 
ENDBRANCH  16  19
ENDBRANCH  12  16
ENDBRANCH   9  11
ENDBRANCH   8   9
ENDBRANCH   7   8
ENDBRANCH   6   7
ENDBRANCH   5   6
ENDBRANCH   4   5
ENDBRANCH   3   4
ENDBRANCH   2   3
ENDBRANCH   1   2
BRANCH   1  33
ATOM     33  C   UNL A   1      48.021  25.751  33.625  1.00  0.00     0.188 C 
BRANCH  33  34
ATOM     34  O   UNL A   1      48.563  24.429  33.594  1.00  0.00    -0.376 OA
BRANCH  34  35
ATOM     35  C   UNL A   1      47.913  23.448  34.394  1.00  0.00     0.202 C 
BRANCH  35  36
ATOM     36  C   UNL A   1      46.400  23.637  34.585  1.00  0.00     0.261 C 
BRANCH  36  37
ATOM     37  O   UNL A   1      45.571  23.328  33.455  1.00  0.00    -0.460 OA
BRANCH  37  38
ATOM     38  C   UNL A   1      44.285  23.752  33.464  1.00  0.00     0.338 C 
ATOM     39  O   UNL A   1      43.349  23.216  34.025  1.00  0.00    -0.246 OA
BRANCH  38  40
ATOM     40  C   UNL A   1      44.265  25.109  32.865  1.00  0.00     0.060 A 
ATOM     41  C   UNL A   1      44.239  25.273  31.477  1.00  0.00     0.016 A 
ATOM     42  C   UNL A   1      44.335  26.228  33.705  1.00  0.00     0.016 A 
ATOM     43  C   UNL A   1      44.252  26.560  30.933  1.00  0.00     0.010 A 
ATOM     44  C   UNL A   1      44.360  27.516  33.158  1.00  0.00     0.010 A 
ATOM     45  C   UNL A   1      44.292  27.693  31.768  1.00  0.00    -0.014 A 
BRANCH  45  46
ATOM     46  C   UNL A   1      44.028  29.038  31.192  1.00  0.00     0.031 A 
ATOM     47  C   UNL A   1      42.654  29.629  31.102  1.00  0.00     0.074 A 
ATOM     48  C   UNL A   1      45.090  29.724  30.724  1.00  0.00     0.049 A 
ATOM     49  N   UNL A   1      42.308  30.821  30.688  1.00  0.00    -0.248 NA
ATOM     50  C   UNL A   1      41.524  28.785  31.517  1.00  0.00     0.031 C 
ATOM     51  C   UNL A   1      46.464  29.219  30.717  1.00  0.00     0.029 A 
ATOM     52  N   UNL A   1      45.191  30.975  30.170  1.00  0.00    -0.354 N 
ATOM     53  C   UNL A   1      40.925  30.885  30.808  1.00  0.00     0.074 A 
ATOM     54  C   UNL A   1      40.490  29.591  31.294  1.00  0.00     0.031 C 
ATOM     55  C   UNL A   1      47.270  30.152  30.195  1.00  0.00     0.029 A 
ATOM     56  C   UNL A   1      46.474  31.311  29.801  1.00  0.00     0.049 A 
ATOM     57  H   UNL A   1      44.420  31.575  30.046  1.00  0.00     0.167 HD
ATOM     58  C   UNL A   1      40.108  31.935  30.550  1.00  0.00     0.034 A 
ATOM     59  C   UNL A   1      46.962  32.420  29.208  1.00  0.00     0.034 A 
ATOM     60  C   UNL A   1      40.567  33.218  30.069  1.00  0.00     0.049 A 
ATOM     61  C   UNL A   1      46.029  33.571  28.938  1.00  0.00     0.074 A 
ATOM     62  C   UNL A   1      39.815  34.362  29.850  1.00  0.00     0.029 A 
ATOM     63  N   UNL A   1      41.873  33.534  29.724  1.00  0.00    -0.354 N 
ATOM     64  N   UNL A   1      44.743  33.661  29.184  1.00  0.00    -0.248 NA
ATOM     65  C   UNL A   1      46.607  34.781  28.336  1.00  0.00     0.031 C 
ATOM     66  C   UNL A   1      40.646  35.336  29.300  1.00  0.00     0.029 A 
ATOM     67  C   UNL A   1      41.938  34.839  29.260  1.00  0.00     0.049 A 
ATOM     68  H   UNL A   1      42.640  32.921  29.799  1.00  0.00     0.167 HD
ATOM     69  C   UNL A   1      44.366  34.942  28.791  1.00  0.00     0.074 A 
ATOM     70  C   UNL A   1      45.566  35.602  28.322  1.00  0.00     0.031 C 
ATOM     71  C   UNL A   1      43.135  35.512  28.812  1.00  0.00     0.034 A 
BRANCH  58  72
ATOM     72  C   UNL A   1      38.626  31.810  30.814  1.00  0.00     0.023 A 
ATOM     73  C   UNL A   1      37.717  31.824  29.739  1.00  0.00     0.031 A 
ATOM     74  C   UNL A   1      38.115  31.913  32.120  1.00  0.00     0.131 A 
ATOM     75  C   UNL A   1      36.349  32.009  29.986  1.00  0.00     0.055 A 
ATOM     76  C   UNL A   1      36.748  32.050  32.363  1.00  0.00     0.041 A 
ATOM     77  F   UNL A   1      38.944  31.916  33.177  1.00  0.00    -0.206 F 
ATOM     78  C   UNL A   1      35.860  32.118  31.293  1.00  0.00     0.022 A 
BRANCH  75  79
ATOM     79  S   UNL A   1      35.169  32.214  28.623  1.00  0.00     0.124 S 
ATOM     80  O   UNL A   1      34.869  30.827  28.273  1.00  0.00    -0.237 OA
ATOM     81  O   UNL A   1      34.081  32.943  29.269  1.00  0.00    -0.237 OA
ATOM     82  O   UNL A   1      35.920  32.957  27.617  1.00  0.00    -0.744 OA
ENDBRANCH  75  79
ENDBRANCH  58  72
BRANCH  59  83
ATOM     83  C   UNL A   1      48.419  32.489  28.890  1.00  0.00     0.023 A 
ATOM     84  C   UNL A   1      49.332  33.006  29.826  1.00  0.00     0.031 A 
ATOM     85  C   UNL A   1      48.903  32.138  27.619  1.00  0.00     0.131 A 
ATOM     86  C   UNL A   1      50.666  33.220  29.457  1.00  0.00     0.055 A 
ATOM     87  C   UNL A   1      50.251  32.279  27.282  1.00  0.00     0.041 A 
ATOM     88  F   UNL A   1      48.069  31.662  26.683  1.00  0.00    -0.206 F 
ATOM     89  C   UNL A   1      51.136  32.840  28.197  1.00  0.00     0.022 A 
BRANCH  86  90
ATOM     90  S   UNL A   1      51.792  34.137  30.545  1.00  0.00     0.124 S 
ATOM     91  O   UNL A   1      53.028  34.137  29.771  1.00  0.00    -0.237 OA
ATOM     92  O   UNL A   1      51.116  35.428  30.655  1.00  0.00    -0.237 OA
ATOM     93  O   UNL A   1      51.809  33.344  31.769  1.00  0.00    -0.744 OA
ENDBRANCH  86  90
ENDBRANCH  59  83
BRANCH  71  94
ATOM     94  C   UNL A   1      42.978  36.934  28.322  1.00  0.00     0.023 A 
ATOM     95  C   UNL A   1      43.115  38.008  29.223  1.00  0.00     0.031 A 
ATOM     96  C   UNL A   1      42.534  37.216  27.018  1.00  0.00     0.131 A 
ATOM     97  C   UNL A   1      42.763  39.304  28.824  1.00  0.00     0.055 A 
ATOM     98  C   UNL A   1      42.239  38.517  26.609  1.00  0.00     0.041 A 
ATOM     99  F   UNL A   1      42.375  36.228  26.123  1.00  0.00    -0.206 F 
ATOM    100  C   UNL A   1      42.335  39.565  27.520  1.00  0.00     0.022 A 
BRANCH  97 101
ATOM    101  S   UNL A   1      42.749  40.679  30.009  1.00  0.00     0.124 S 
ATOM    102  O   UNL A   1      43.734  41.588  29.429  1.00  0.00    -0.237 OA
ATOM    103  O   UNL A   1      41.363  41.133  29.936  1.00  0.00    -0.237 OA
ATOM    104  O   UNL A   1      43.142  40.061  31.271  1.00  0.00    -0.744 OA
ENDBRANCH  97 101
ENDBRANCH  71  94
ENDBRANCH  45  46
ENDBRANCH  38  40
ENDBRANCH  37  38
ENDBRANCH  36  37
ENDBRANCH  35  36
ENDBRANCH  34  35
ENDBRANCH  33  34
ENDBRANCH   1  33
TORSDOF 25
ENDMDL
MODEL 2
REMARK VINA RESULT:      -7.7      7.115     13.679
REMARK SMILES Cn1c(=O)c(=O)n(C)c2cc(S(=O)(=O)N3CCC[C@H]3C(=O)OCCOCCOCCOCCOC(=O)c3ccc(-c4c5nc(c(-c6cc(S(=O)(=O)[O-])ccc6F)c6ccc([nH]6)c(-c6cc(S(=O)(=O)[O-])ccc6F)c6nc(c(-c7cc(S(=O)(=O)[O-])ccc7F)c7ccc4[nH]7)C=C6)C=C5)cc3)ccc21
REMARK SMILES IDX 29 1 28 2 27 3 26 4 25 5 24 6 23 7 22 8 20 9 21 10 19 11
REMARK SMILES IDX 15 12 16 13 17 14 18 15 12 16 13 17 14 18 11 19 1 20 2 21
REMARK SMILES IDX 3 22 102 23 4 24 5 25 9 26 101 27 6 28 7 29 10 30 100 31
REMARK SMILES IDX 8 32 30 33 31 34 32 35 33 36 34 37 35 38 36 39 37 40 38 41
REMARK SMILES IDX 99 42 39 43 98 44 40 45 41 46 42 47 92 48 43 49 97 50 91 51
REMARK SMILES IDX 93 52 44 53 96 54 90 55 89 56 45 58 77 59 57 60 76 61 58 62
REMARK SMILES IDX 61 63 75 64 94 65 59 66 60 67 74 69 95 70 62 71 46 72 47 73
REMARK SMILES IDX 55 74 48 75 54 76 56 77 53 78 49 79 50 80 51 81 52 82 78 83
REMARK SMILES IDX 79 84 87 85 80 86 86 87 88 88 85 89 81 90 82 91 83 92 84 93
REMARK SMILES IDX 63 94 64 95 72 96 65 97 71 98 73 99 70 100 66 101 67 102
REMARK SMILES IDX 68 103 69 104
REMARK H PARENT 93 57 61 68
REMARK Flexibility Score: inf
ROOT
ATOM      1  C   UNL A   1      47.840  38.098  28.137  1.00  0.00     0.188 C 
ENDROOT
BRANCH   1   2
ATOM      2  O   UNL A   1      46.923  38.163  27.057  1.00  0.00    -0.377 OA
BRANCH   2   3
ATOM      3  C   UNL A   1      46.456  39.454  26.738  1.00  0.00     0.188 C 
BRANCH   3   4
ATOM      4  C   UNL A   1      45.077  39.768  27.357  1.00  0.00     0.188 C 
BRANCH   4   5
ATOM      5  O   UNL A   1      43.873  39.751  26.594  1.00  0.00    -0.376 OA
BRANCH   5   6
ATOM      6  C   UNL A   1      43.078  40.919  26.409  1.00  0.00     0.202 C 
BRANCH   6   7
ATOM      7  C   UNL A   1      42.977  41.619  25.040  1.00  0.00     0.261 C 
BRANCH   7   8
ATOM      8  O   UNL A   1      44.248  41.950  24.482  1.00  0.00    -0.462 OA
BRANCH   8   9
ATOM      9  C   UNL A   1      44.961  42.924  25.092  1.00  0.00     0.324 C 
ATOM     10  O   UNL A   1      44.500  43.788  25.828  1.00  0.00    -0.250 OA
BRANCH   9  11
ATOM     11  C   UNL A   1      46.446  42.694  24.857  1.00  0.00     0.183 C 
ATOM     12  N   UNL A   1      47.048  43.497  23.789  1.00  0.00    -0.184 NA
ATOM     13  C   UNL A   1      47.716  44.653  24.378  1.00  0.00     0.103 C 
ATOM     14  C   UNL A   1      48.183  44.164  25.739  1.00  0.00     0.019 C 
ATOM     15  C   UNL A   1      47.227  43.047  26.133  1.00  0.00     0.034 C 
BRANCH  12  16
ATOM     16  S   UNL A   1      47.491  42.826  22.316  1.00  0.00     0.243 S 
ATOM     17  O   UNL A   1      47.258  41.399  22.411  1.00  0.00    -0.207 OA
ATOM     18  O   UNL A   1      48.773  43.367  21.940  1.00  0.00    -0.207 OA
BRANCH  16  19
ATOM     19  C   UNL A   1      46.354  43.405  21.055  1.00  0.00     0.084 A 
ATOM     20  C   UNL A   1      43.937  45.884  17.258  1.00  0.00     0.154 C 
ATOM     21  N   UNL A   1      43.526  44.954  18.299  1.00  0.00    -0.305 N 
ATOM     22  C   UNL A   1      42.166  44.663  18.379  1.00  0.00     0.316 A 
ATOM     23  C   UNL A   1      44.467  44.372  19.189  1.00  0.00     0.068 A 
ATOM     24  O   UNL A   1      41.331  45.135  17.611  1.00  0.00    -0.263 OA
ATOM     25  C   UNL A   1      41.703  43.701  19.478  1.00  0.00     0.316 A 
ATOM     26  C   UNL A   1      44.040  43.556  20.253  1.00  0.00     0.069 A 
ATOM     27  C   UNL A   1      45.840  44.610  19.030  1.00  0.00     0.030 A 
ATOM     28  O   UNL A   1      40.510  43.412  19.527  1.00  0.00    -0.263 OA
ATOM     29  N   UNL A   1      42.662  43.212  20.366  1.00  0.00    -0.305 N 
ATOM     30  C   UNL A   1      44.992  43.090  21.188  1.00  0.00     0.050 A 
ATOM     31  C   UNL A   1      46.770  44.131  19.951  1.00  0.00     0.024 A 
ATOM     32  C   UNL A   1      42.215  42.283  21.394  1.00  0.00     0.154 C 
ENDBRANCH  16  19
ENDBRANCH  12  16
ENDBRANCH   9  11
ENDBRANCH   8   9
ENDBRANCH   7   8
ENDBRANCH   6   7
ENDBRANCH   5   6
ENDBRANCH   4   5
ENDBRANCH   3   4
ENDBRANCH   2   3
ENDBRANCH   1   2
BRANCH   1  33
ATOM     33  C   UNL A   1      49.162  37.352  27.865  1.00  0.00     0.188 C 
BRANCH  33  34
ATOM     34  O   UNL A   1      49.083  35.946  28.106  1.00  0.00    -0.376 OA
BRANCH  34  35
ATOM     35  C   UNL A   1      49.155  35.094  26.969  1.00  0.00     0.202 C 
BRANCH  35  36
ATOM     36  C   UNL A   1      47.893  34.268  26.671  1.00  0.00     0.261 C 
BRANCH  36  37
ATOM     37  O   UNL A   1      46.638  34.953  26.797  1.00  0.00    -0.460 OA
BRANCH  37  38
ATOM     38  C   UNL A   1      45.516  34.325  26.375  1.00  0.00     0.338 C 
ATOM     39  O   UNL A   1      45.353  33.773  25.303  1.00  0.00    -0.246 OA
BRANCH  38  40
ATOM     40  C   UNL A   1      44.602  34.226  27.539  1.00  0.00     0.060 A 
ATOM     41  C   UNL A   1      44.215  32.978  28.035  1.00  0.00     0.016 A 
ATOM     42  C   UNL A   1      44.080  35.399  28.100  1.00  0.00     0.016 A 
ATOM     43  C   UNL A   1      43.328  32.907  29.112  1.00  0.00     0.010 A 
ATOM     44  C   UNL A   1      43.184  35.325  29.172  1.00  0.00     0.010 A 
ATOM     45  C   UNL A   1      42.821  34.080  29.704  1.00  0.00    -0.014 A 
BRANCH  45  46
ATOM     46  C   UNL A   1      42.109  33.995  31.006  1.00  0.00     0.031 A 
ATOM     47  C   UNL A   1      40.625  34.166  31.134  1.00  0.00     0.074 A 
ATOM     48  C   UNL A   1      42.859  33.768  32.103  1.00  0.00     0.049 A 
ATOM     49  N   UNL A   1      39.882  34.040  32.203  1.00  0.00    -0.248 NA
ATOM     50  C   UNL A   1      39.878  34.530  29.921  1.00  0.00     0.031 C 
ATOM     51  C   UNL A   1      44.317  33.637  32.095  1.00  0.00     0.029 A 
ATOM     52  N   UNL A   1      42.516  33.610  33.422  1.00  0.00    -0.354 N 
ATOM     53  C   UNL A   1      38.577  34.289  31.798  1.00  0.00     0.074 A 
ATOM     54  C   UNL A   1      38.636  34.617  30.388  1.00  0.00     0.031 C 
ATOM     55  C   UNL A   1      44.742  33.409  33.345  1.00  0.00     0.029 A 
ATOM     56  C   UNL A   1      43.596  33.406  34.250  1.00  0.00     0.049 A 
ATOM     57  H   UNL A   1      41.587  33.640  33.745  1.00  0.00     0.167 HD
ATOM     58  C   UNL A   1      37.443  34.230  32.538  1.00  0.00     0.034 A 
ATOM     59  C   UNL A   1      43.666  33.240  35.587  1.00  0.00     0.034 A 
ATOM     60  C   UNL A   1      37.410  33.896  33.943  1.00  0.00     0.049 A 
ATOM     61  C   UNL A   1      42.387  33.175  36.380  1.00  0.00     0.074 A 
ATOM     62  C   UNL A   1      36.297  33.742  34.754  1.00  0.00     0.029 A 
ATOM     63  N   UNL A   1      38.518  33.676  34.749  1.00  0.00    -0.354 N 
ATOM     64  N   UNL A   1      41.151  33.280  35.955  1.00  0.00    -0.248 NA
ATOM     65  C   UNL A   1      42.503  32.945  37.828  1.00  0.00     0.031 C 
ATOM     66  C   UNL A   1      36.730  33.511  36.058  1.00  0.00     0.029 A 
ATOM     67  C   UNL A   1      38.113  33.426  36.052  1.00  0.00     0.049 A 
ATOM     68  H   UNL A   1      39.452  33.694  34.441  1.00  0.00     0.167 HD
ATOM     69  C   UNL A   1      40.343  33.103  37.075  1.00  0.00     0.074 A 
ATOM     70  C   UNL A   1      41.230  32.852  38.191  1.00  0.00     0.031 C 
ATOM     71  C   UNL A   1      38.991  33.153  37.166  1.00  0.00     0.034 A 
BRANCH  58  72
ATOM     72  C   UNL A   1      36.107  34.475  31.876  1.00  0.00     0.023 A 
ATOM     73  C   UNL A   1      35.346  35.607  32.228  1.00  0.00     0.031 A 
ATOM     74  C   UNL A   1      35.499  33.482  31.089  1.00  0.00     0.131 A 
ATOM     75  C   UNL A   1      33.998  35.683  31.851  1.00  0.00     0.055 A 
ATOM     76  C   UNL A   1      34.169  33.585  30.677  1.00  0.00     0.041 A 
ATOM     77  F   UNL A   1      36.180  32.379  30.738  1.00  0.00    -0.206 F 
ATOM     78  C   UNL A   1      33.407  34.680  31.075  1.00  0.00     0.022 A 
BRANCH  75  79
ATOM     79  S   UNL A   1      32.935  37.034  32.436  1.00  0.00     0.124 S 
ATOM     80  O   UNL A   1      33.670  37.510  33.606  1.00  0.00    -0.237 OA
ATOM     81  O   UNL A   1      32.934  37.939  31.291  1.00  0.00    -0.237 OA
ATOM     82  O   UNL A   1      31.665  36.379  32.728  1.00  0.00    -0.744 OA
ENDBRANCH  75  79
ENDBRANCH  58  72
BRANCH  59  83
ATOM     83  C   UNL A   1      45.005  33.074  36.226  1.00  0.00     0.023 A 
ATOM     84  C   UNL A   1      45.557  31.793  36.409  1.00  0.00     0.031 A 
ATOM     85  C   UNL A   1      45.702  34.174  36.752  1.00  0.00     0.131 A 
ATOM     86  C   UNL A   1      46.731  31.638  37.155  1.00  0.00     0.055 A 
ATOM     87  C   UNL A   1      46.915  34.022  37.427  1.00  0.00     0.041 A 
ATOM     88  F   UNL A   1      45.207  35.414  36.624  1.00  0.00    -0.206 F 
ATOM     89  C   UNL A   1      47.425  32.746  37.648  1.00  0.00     0.022 A 
BRANCH  86  90
ATOM     90  S   UNL A   1      47.308  29.987  37.640  1.00  0.00     0.124 S 
ATOM     91  O   UNL A   1      46.324  29.121  37.000  1.00  0.00    -0.237 OA
ATOM     92  O   UNL A   1      48.648  29.957  37.059  1.00  0.00    -0.237 OA
ATOM     93  O   UNL A   1      47.268  30.023  39.097  1.00  0.00    -0.744 OA
ENDBRANCH  86  90
ENDBRANCH  59  83
BRANCH  71  94
ATOM     94  C   UNL A   1      38.339  32.930  38.512  1.00  0.00     0.023 A 
ATOM     95  C   UNL A   1      38.599  33.816  39.576  1.00  0.00     0.031 A 
ATOM     96  C   UNL A   1      37.604  31.763  38.788  1.00  0.00     0.131 A 
ATOM     97  C   UNL A   1      38.173  33.498  40.872  1.00  0.00     0.055 A 
ATOM     98  C   UNL A   1      37.133  31.479  40.070  1.00  0.00     0.041 A 
ATOM     99  F   UNL A   1      37.339  30.878  37.813  1.00  0.00    -0.206 F 
ATOM    100  C   UNL A   1      37.433  32.339  41.122  1.00  0.00     0.022 A 
BRANCH  97 101
ATOM    101  S   UNL A   1      38.649  34.520  42.294  1.00  0.00     0.124 S 
ATOM    102  O   UNL A   1      38.351  33.634  43.416  1.00  0.00    -0.237 OA
ATOM    103  O   UNL A   1      40.068  34.753  42.043  1.00  0.00    -0.237 OA
ATOM    104  O   UNL A   1      37.790  35.695  42.187  1.00  0.00    -0.744 OA
ENDBRANCH  97 101
ENDBRANCH  71  94
ENDBRANCH  45  46
ENDBRANCH  38  40
ENDBRANCH  37  38
ENDBRANCH  36  37
ENDBRANCH  35  36
ENDBRANCH  34  35
ENDBRANCH  33  34
ENDBRANCH   1  33
TORSDOF 25
ENDMDL
MODEL 3
REMARK VINA RESULT:      -7.3      5.292     14.220
REMARK SMILES Cn1c(=O)c(=O)n(C)c2cc(S(=O)(=O)N3CCC[C@H]3C(=O)OCCOCCOCCOCCOC(=O)c3ccc(-c4c5nc(c(-c6cc(S(=O)(=O)[O-])ccc6F)c6ccc([nH]6)c(-c6cc(S(=O)(=O)[O-])ccc6F)c6nc(c(-c7cc(S(=O)(=O)[O-])ccc7F)c7ccc4[nH]7)C=C6)C=C5)cc3)ccc21
REMARK SMILES IDX 29 1 28 2 27 3 26 4 25 5 24 6 23 7 22 8 20 9 21 10 19 11
REMARK SMILES IDX 15 12 16 13 17 14 18 15 12 16 13 17 14 18 11 19 1 20 2 21
REMARK SMILES IDX 3 22 102 23 4 24 5 25 9 26 101 27 6 28 7 29 10 30 100 31
REMARK SMILES IDX 8 32 30 33 31 34 32 35 33 36 34 37 35 38 36 39 37 40 38 41
REMARK SMILES IDX 99 42 39 43 98 44 40 45 41 46 42 47 92 48 43 49 97 50 91 51
REMARK SMILES IDX 93 52 44 53 96 54 90 55 89 56 45 58 77 59 57 60 76 61 58 62
REMARK SMILES IDX 61 63 75 64 94 65 59 66 60 67 74 69 95 70 62 71 46 72 47 73
REMARK SMILES IDX 55 74 48 75 54 76 56 77 53 78 49 79 50 80 51 81 52 82 78 83
REMARK SMILES IDX 79 84 87 85 80 86 86 87 88 88 85 89 81 90 82 91 83 92 84 93
REMARK SMILES IDX 63 94 64 95 72 96 65 97 71 98 73 99 70 100 66 101 67 102
REMARK SMILES IDX 68 103 69 104
REMARK H PARENT 93 57 61 68
REMARK Flexibility Score: inf
ROOT
ATOM      1  C   UNL A   1      46.271  22.054  24.397  1.00  0.00     0.188 C 
ENDROOT
BRANCH   1   2
ATOM      2  O   UNL A   1      45.808  21.058  25.294  1.00  0.00    -0.377 OA
BRANCH   2   3
ATOM      3  C   UNL A   1      44.608  20.420  24.921  1.00  0.00     0.188 C 
BRANCH   3   4
ATOM      4  C   UNL A   1      43.445  20.702  25.895  1.00  0.00     0.188 C 
BRANCH   4   5
ATOM      5  O   UNL A   1      42.291  21.447  25.515  1.00  0.00    -0.376 OA
BRANCH   5   6
ATOM      6  C   UNL A   1      41.221  21.701  26.422  1.00  0.00     0.202 C 
BRANCH   6   7
ATOM      7  C   UNL A   1      40.628  23.112  26.597  1.00  0.00     0.261 C 
BRANCH   7   8
ATOM      8  O   UNL A   1      41.611  24.145  26.552  1.00  0.00    -0.462 OA
BRANCH   8   9
ATOM      9  C   UNL A   1      41.765  24.908  27.659  1.00  0.00     0.324 C 
ATOM     10  O   UNL A   1      42.576  24.706  28.554  1.00  0.00    -0.250 OA
BRANCH   9  11
ATOM     11  C   UNL A   1      40.887  26.145  27.552  1.00  0.00     0.183 C 
ATOM     12  N   UNL A   1      41.185  27.216  28.506  1.00  0.00    -0.184 NA
ATOM     13  C   UNL A   1      42.014  28.222  27.852  1.00  0.00     0.103 C 
ATOM     14  C   UNL A   1      41.578  28.180  26.397  1.00  0.00     0.019 C 
ATOM     15  C   UNL A   1      41.054  26.772  26.158  1.00  0.00     0.034 C 
BRANCH  12  16
ATOM     16  S   UNL A   1      40.179  27.551  29.807  1.00  0.00     0.243 S 
ATOM     17  O   UNL A   1      41.028  27.723  30.968  1.00  0.00    -0.207 OA
ATOM     18  O   UNL A   1      39.089  26.607  29.790  1.00  0.00    -0.207 OA
BRANCH  16  19
ATOM     19  C   UNL A   1      39.410  29.151  29.543  1.00  0.00     0.084 A 
ATOM     20  C   UNL A   1      37.896  34.058  29.699  1.00  0.00     0.154 C 
ATOM     21  N   UNL A   1      37.357  32.838  29.117  1.00  0.00    -0.305 N 
ATOM     22  C   UNL A   1      36.120  32.937  28.485  1.00  0.00     0.316 A 
ATOM     23  C   UNL A   1      38.061  31.607  29.190  1.00  0.00     0.068 A 
ATOM     24  O   UNL A   1      35.497  33.992  28.388  1.00  0.00    -0.263 OA
ATOM     25  C   UNL A   1      35.521  31.664  27.879  1.00  0.00     0.316 A 
ATOM     26  C   UNL A   1      37.479  30.418  28.712  1.00  0.00     0.069 A 
ATOM     27  C   UNL A   1      39.345  31.553  29.751  1.00  0.00     0.030 A 
ATOM     28  O   UNL A   1      34.448  31.755  27.288  1.00  0.00    -0.263 OA
ATOM     29  N   UNL A   1      36.225  30.469  28.040  1.00  0.00    -0.305 N 
ATOM     30  C   UNL A   1      38.158  29.194  28.908  1.00  0.00     0.050 A 
ATOM     31  C   UNL A   1      40.010  30.340  29.924  1.00  0.00     0.024 A 
ATOM     32  C   UNL A   1      35.657  29.269  27.444  1.00  0.00     0.154 C 
ENDBRANCH  16  19
ENDBRANCH  12  16
ENDBRANCH   9  11
ENDBRANCH   8   9
ENDBRANCH   7   8
ENDBRANCH   6   7
ENDBRANCH   5   6
ENDBRANCH   4   5
ENDBRANCH   3   4
ENDBRANCH   2   3
ENDBRANCH   1   2
BRANCH   1  33
ATOM     33  C   UNL A   1      45.324  23.247  24.155  1.00  0.00     0.188 C 
BRANCH  33  34
ATOM     34  O   UNL A   1      45.929  24.516  24.413  1.00  0.00    -0.376 OA
BRANCH  34  35
ATOM     35  C   UNL A   1      45.276  25.359  25.355  1.00  0.00     0.202 C 
BRANCH  35  36
ATOM     36  C   UNL A   1      45.056  26.814  24.911  1.00  0.00     0.261 C 
BRANCH  36  37
ATOM     37  O   UNL A   1      45.532  27.832  25.804  1.00  0.00    -0.460 OA
BRANCH  37  38
ATOM     38  C   UNL A   1      46.857  28.111  25.815  1.00  0.00     0.338 C 
ATOM     39  O   UNL A   1      47.452  28.834  25.039  1.00  0.00    -0.246 OA
BRANCH  38  40
ATOM     40  C   UNL A   1      47.410  27.567  27.079  1.00  0.00     0.060 A 
ATOM     41  C   UNL A   1      47.465  28.358  28.230  1.00  0.00     0.016 A 
ATOM     42  C   UNL A   1      47.937  26.269  27.091  1.00  0.00     0.016 A 
ATOM     43  C   UNL A   1      48.019  27.836  29.402  1.00  0.00     0.010 A 
ATOM     44  C   UNL A   1      48.502  25.752  28.263  1.00  0.00     0.010 A 
ATOM     45  C   UNL A   1      48.523  26.522  29.434  1.00  0.00    -0.014 A 
BRANCH  45  46
ATOM     46  C   UNL A   1      48.851  25.895  30.742  1.00  0.00     0.031 A 
ATOM     47  C   UNL A   1      50.250  25.538  31.144  1.00  0.00     0.074 A 
ATOM     48  C   UNL A   1      47.822  25.635  31.574  1.00  0.00     0.049 A 
ATOM     49  N   UNL A   1      50.669  25.056  32.286  1.00  0.00    -0.248 NA
ATOM     50  C   UNL A   1      51.313  25.734  30.148  1.00  0.00     0.031 C 
ATOM     51  C   UNL A   1      46.417  25.896  31.258  1.00  0.00     0.029 A 
ATOM     52  N   UNL A   1      47.788  25.100  32.837  1.00  0.00    -0.354 N 
ATOM     53  C   UNL A   1      52.044  24.906  32.161  1.00  0.00     0.074 A 
ATOM     54  C   UNL A   1      52.385  25.310  30.812  1.00  0.00     0.031 C 
ATOM     55  C   UNL A   1      45.660  25.532  32.301  1.00  0.00     0.029 A 
ATOM     56  C   UNL A   1      46.516  24.983  33.349  1.00  0.00     0.049 A 
ATOM     57  H   UNL A   1      48.594  24.826  33.329  1.00  0.00     0.167 HD
ATOM     58  C   UNL A   1      52.931  24.488  33.097  1.00  0.00     0.034 A 
ATOM     59  C   UNL A   1      46.078  24.487  34.525  1.00  0.00     0.034 A 
ATOM     60  C   UNL A   1      52.568  24.094  34.439  1.00  0.00     0.049 A 
ATOM     61  C   UNL A   1      47.089  24.033  35.544  1.00  0.00     0.074 A 
ATOM     62  C   UNL A   1      53.411  23.726  35.475  1.00  0.00     0.029 A 
ATOM     63  N   UNL A   1      51.274  24.005  34.933  1.00  0.00    -0.354 N 
ATOM     64  N   UNL A   1      48.398  24.026  35.456  1.00  0.00    -0.248 NA
ATOM     65  C   UNL A   1      46.576  23.544  36.832  1.00  0.00     0.031 C 
ATOM     66  C   UNL A   1      52.630  23.338  36.562  1.00  0.00     0.029 A 
ATOM     67  C   UNL A   1      51.299  23.552  36.244  1.00  0.00     0.049 A 
ATOM     68  H   UNL A   1      50.460  24.231  34.429  1.00  0.00     0.167 HD
ATOM     69  C   UNL A   1      48.863  23.557  36.682  1.00  0.00     0.074 A 
ATOM     70  C   UNL A   1      47.697  23.324  37.506  1.00  0.00     0.031 C 
ATOM     71  C   UNL A   1      50.141  23.337  37.080  1.00  0.00     0.034 A 
BRANCH  58  72
ATOM     72  C   UNL A   1      54.406  24.463  32.768  1.00  0.00     0.023 A 
ATOM     73  C   UNL A   1      55.139  25.665  32.733  1.00  0.00     0.031 A 
ATOM     74  C   UNL A   1      55.013  23.298  32.268  1.00  0.00     0.131 A 
ATOM     75  C   UNL A   1      56.412  25.687  32.146  1.00  0.00     0.055 A 
ATOM     76  C   UNL A   1      56.299  23.316  31.726  1.00  0.00     0.041 A 
ATOM     77  F   UNL A   1      54.349  22.130  32.268  1.00  0.00    -0.206 F 
ATOM     78  C   UNL A   1      56.996  24.518  31.646  1.00  0.00     0.022 A 
BRANCH  75  79
ATOM     79  S   UNL A   1      57.313  27.246  31.918  1.00  0.00     0.124 S 
ATOM     80  O   UNL A   1      56.536  27.891  30.861  1.00  0.00    -0.237 OA
ATOM     81  O   UNL A   1      57.199  27.860  33.238  1.00  0.00    -0.237 OA
ATOM     82  O   UNL A   1      58.653  26.823  31.530  1.00  0.00    -0.744 OA
ENDBRANCH  75  79
ENDBRANCH  58  72
BRANCH  59  83
ATOM     83  C   UNL A   1      44.610  24.454  34.794  1.00  0.00     0.023 A 
ATOM     84  C   UNL A   1      43.985  25.510  35.483  1.00  0.00     0.031 A 
ATOM     85  C   UNL A   1      43.834  23.332  34.463  1.00  0.00     0.131 A 
ATOM     86  C   UNL A   1      42.647  25.393  35.876  1.00  0.00     0.055 A 
ATOM     87  C   UNL A   1      42.478  23.254  34.787  1.00  0.00     0.041 A 
ATOM     88  F   UNL A   1      44.387  22.289  33.826  1.00  0.00    -0.206 F 
ATOM     89  C   UNL A   1      41.883  24.280  35.514  1.00  0.00     0.022 A 
BRANCH  86  90
ATOM     90  S   UNL A   1      41.902  26.609  36.999  1.00  0.00     0.124 S 
ATOM     91  O   UNL A   1      41.307  27.559  36.066  1.00  0.00    -0.237 OA
ATOM     92  O   UNL A   1      40.957  25.784  37.749  1.00  0.00    -0.237 OA
ATOM     93  O   UNL A   1      43.036  27.104  37.771  1.00  0.00    -0.744 OA
ENDBRANCH  86  90
ENDBRANCH  59  83
BRANCH  71  94
ATOM     94  C   UNL A   1      50.392  22.815  38.476  1.00  0.00     0.023 A 
ATOM     95  C   UNL A   1      50.396  21.427  38.720  1.00  0.00     0.031 A 
ATOM     96  C   UNL A   1      50.462  23.680  39.583  1.00  0.00     0.131 A 
ATOM     97  C   UNL A   1      50.414  20.948  40.036  1.00  0.00     0.055 A 
ATOM     98  C   UNL A   1      50.537  23.197  40.889  1.00  0.00     0.041 A 
ATOM     99  F   UNL A   1      50.450  25.012  39.408  1.00  0.00    -0.206 F 
ATOM    100  C   UNL A   1      50.496  21.825  41.121  1.00  0.00     0.022 A 
BRANCH  97 101
ATOM    101  S   UNL A   1      50.232  19.178  40.392  1.00  0.00     0.124 S 
ATOM    102  O   UNL A   1      48.895  18.901  39.874  1.00  0.00    -0.237 OA
ATOM    103  O   UNL A   1      51.330  18.595  39.626  1.00  0.00    -0.237 OA
ATOM    104  O   UNL A   1      50.364  19.094  41.843  1.00  0.00    -0.744 OA
ENDBRANCH  97 101
ENDBRANCH  71  94
ENDBRANCH  45  46
ENDBRANCH  38  40
ENDBRANCH  37  38
ENDBRANCH  36  37
ENDBRANCH  35  36
ENDBRANCH  34  35
ENDBRANCH  33  34
ENDBRANCH   1  33
TORSDOF 25
ENDMDL
