MODEL 1
REMARK VINA RESULT:     -10.2      0.000      0.000
REMARK SMILES Cc1ccc(Cl)c(Nc2ccccc2C(=O)OCCOCCOCCOCCOC(=O)c2ccc(-c3c4nc(c(-c5cc(S(=O)(=O)[O-])ccc5F)c5ccc([nH]5)c(-c5cc(S(=O)(=O)[O-])ccc5F)c5nc(c(-c6cc(S(=O)(=O)[O-])ccc6F)c6ccc3[nH]6)C=C5)C=C4)cc2)c1Cl
REMARK SMILES IDX 24 1 23 2 22 3 21 4 20 5 19 6 18 7 17 8 15 9 16 10 14 11
REMARK SMILES IDX 9 12 10 13 11 14 13 15 12 16 8 17 7 19 1 20 2 21 3 22 95 23
REMARK SMILES IDX 4 24 96 25 5 26 6 27 25 28 26 29 27 30 28 31 29 32 30 33
REMARK SMILES IDX 31 34 32 35 33 36 94 37 34 38 93 39 35 40 36 41 37 42 87 43
REMARK SMILES IDX 38 44 92 45 86 46 88 47 39 48 91 49 85 50 84 51 40 53 72 54
REMARK SMILES IDX 52 55 71 56 53 57 56 58 70 59 89 60 54 61 55 62 69 64 90 65
REMARK SMILES IDX 57 66 41 67 42 68 50 69 43 70 49 71 51 72 48 73 44 74 45 75
REMARK SMILES IDX 46 76 47 77 73 78 74 79 82 80 75 81 81 82 83 83 80 84 76 85
REMARK SMILES IDX 77 86 78 87 79 88 58 89 59 90 67 91 60 92 66 93 68 94 65 95
REMARK SMILES IDX 61 96 62 97 63 98 64 99
REMARK H PARENT 8 18 88 52 56 63
REMARK Flexibility Score: inf
ROOT
ATOM      1  C   UNL A   1      36.650  22.817  23.498  1.00  0.00     0.188 C 
ENDROOT
BRANCH   1   2
ATOM      2  O   UNL A   1      35.406  23.348  23.055  1.00  0.00    -0.377 OA
BRANCH   2   3
ATOM      3  C   UNL A   1      34.232  22.564  23.152  1.00  0.00     0.188 C 
BRANCH   3   4
ATOM      4  C   UNL A   1      32.991  23.104  22.412  1.00  0.00     0.188 C 
BRANCH   4   5
ATOM      5  O   UNL A   1      33.222  24.124  21.464  1.00  0.00    -0.376 OA
BRANCH   5   6
ATOM      6  C   UNL A   1      32.507  25.347  21.484  1.00  0.00     0.202 C 
BRANCH   6   7
ATOM      7  C   UNL A   1      33.119  26.746  21.647  1.00  0.00     0.261 C 
BRANCH   7   8
ATOM      8  O   UNL A   1      32.577  27.589  22.657  1.00  0.00    -0.460 OA
BRANCH   8   9
ATOM      9  C   UNL A   1      33.443  28.320  23.389  1.00  0.00     0.340 C 
ATOM     10  O   UNL A   1      34.397  28.948  22.958  1.00  0.00    -0.246 OA
BRANCH   9  11
ATOM     11  C   UNL A   1      32.932  28.428  24.782  1.00  0.00     0.083 A 
ATOM     12  C   UNL A   1      32.330  27.385  25.522  1.00  0.00     0.053 A 
ATOM     13  C   UNL A   1      31.817  27.713  26.794  1.00  0.00     0.027 A 
ATOM     14  C   UNL A   1      31.888  29.011  27.311  1.00  0.00     0.002 A 
ATOM     15  C   UNL A   1      33.008  29.732  25.314  1.00  0.00     0.018 A 
ATOM     16  C   UNL A   1      32.483  30.022  26.570  1.00  0.00     0.001 A 
BRANCH  12  17
ATOM     17  N   UNL A   1      32.257  26.019  25.162  1.00  0.00    -0.352 N 
ATOM     18  H   UNL A   1      32.422  25.845  24.207  1.00  0.00     0.167 HD
BRANCH  17  19
ATOM     19  C   UNL A   1      31.988  24.852  25.924  1.00  0.00     0.077 A 
ATOM     20  C   UNL A   1      33.667  21.512  26.702  1.00  0.00     0.046 C 
ATOM     21  C   UNL A   1      32.644  22.615  26.685  1.00  0.00    -0.030 A 
ATOM     22  C   UNL A   1      31.297  22.301  26.910  1.00  0.00     0.006 A 
ATOM     23  C   UNL A   1      32.985  23.924  26.293  1.00  0.00     0.069 A 
ATOM     24  C   UNL A   1      30.305  23.260  26.715  1.00  0.00     0.023 A 
ATOM     25  Cl  UNL A   1      34.662  24.402  26.325  1.00  0.00    -0.082 Cl
ATOM     26  C   UNL A   1      30.645  24.508  26.193  1.00  0.00     0.066 A 
ATOM     27  Cl  UNL A   1      29.359  25.613  25.837  1.00  0.00    -0.082 Cl
ENDBRANCH  17  19
ENDBRANCH  12  17
ENDBRANCH   9  11
ENDBRANCH   8   9
ENDBRANCH   7   8
ENDBRANCH   6   7
ENDBRANCH   5   6
ENDBRANCH   4   5
ENDBRANCH   3   4
ENDBRANCH   2   3
ENDBRANCH   1   2
BRANCH   1  28
ATOM     28  C   UNL A   1      36.779  21.951  24.772  1.00  0.00     0.188 C 
BRANCH  28  29
ATOM     29  O   UNL A   1      38.044  21.330  24.954  1.00  0.00    -0.376 OA
BRANCH  29  30
ATOM     30  C   UNL A   1      38.096  19.914  24.974  1.00  0.00     0.202 C 
BRANCH  30  31
ATOM     31  C   UNL A   1      39.331  19.296  25.641  1.00  0.00     0.261 C 
BRANCH  31  32
ATOM     32  O   UNL A   1      39.824  19.985  26.798  1.00  0.00    -0.460 OA
BRANCH  32  33
ATOM     33  C   UNL A   1      41.141  20.302  26.807  1.00  0.00     0.338 C 
ATOM     34  O   UNL A   1      42.063  19.603  26.443  1.00  0.00    -0.246 OA
BRANCH  33  35
ATOM     35  C   UNL A   1      41.245  21.732  27.161  1.00  0.00     0.060 A 
ATOM     36  C   UNL A   1      40.677  22.687  26.309  1.00  0.00     0.016 A 
ATOM     37  C   UNL A   1      41.890  22.119  28.338  1.00  0.00     0.016 A 
ATOM     38  C   UNL A   1      40.782  24.043  26.620  1.00  0.00     0.010 A 
ATOM     39  C   UNL A   1      42.011  23.476  28.636  1.00  0.00     0.010 A 
ATOM     40  C   UNL A   1      41.486  24.445  27.762  1.00  0.00    -0.014 A 
BRANCH  40  41
ATOM     41  C   UNL A   1      41.849  25.872  27.940  1.00  0.00     0.031 A 
ATOM     42  C   UNL A   1      43.186  26.332  27.428  1.00  0.00     0.074 A 
ATOM     43  C   UNL A   1      41.011  26.739  28.535  1.00  0.00     0.049 A 
ATOM     44  N   UNL A   1      43.758  27.503  27.523  1.00  0.00    -0.248 NA
ATOM     45  C   UNL A   1      43.990  25.321  26.724  1.00  0.00     0.031 C 
ATOM     46  C   UNL A   1      39.676  26.416  29.034  1.00  0.00     0.029 A 
ATOM     47  N   UNL A   1      41.171  28.070  28.829  1.00  0.00    -0.354 N 
ATOM     48  C   UNL A   1      44.994  27.370  26.898  1.00  0.00     0.074 A 
ATOM     49  C   UNL A   1      45.100  25.993  26.465  1.00  0.00     0.031 C 
ATOM     50  C   UNL A   1      39.143  27.519  29.589  1.00  0.00     0.029 A 
ATOM     51  C   UNL A   1      40.114  28.610  29.523  1.00  0.00     0.049 A 
ATOM     52  H   UNL A   1      41.966  28.588  28.568  1.00  0.00     0.167 HD
ATOM     53  C   UNL A   1      45.948  28.312  26.700  1.00  0.00     0.034 A 
ATOM     54  C   UNL A   1      39.965  29.834  30.070  1.00  0.00     0.034 A 
ATOM     55  C   UNL A   1      45.829  29.676  27.158  1.00  0.00     0.049 A 
ATOM     56  C   UNL A   1      41.077  30.846  29.918  1.00  0.00     0.074 A 
ATOM     57  C   UNL A   1      46.719  30.721  26.991  1.00  0.00     0.029 A 
ATOM     58  N   UNL A   1      44.763  30.177  27.895  1.00  0.00    -0.354 N 
ATOM     59  N   UNL A   1      42.234  30.720  29.306  1.00  0.00    -0.248 NA
ATOM     60  C   UNL A   1      40.860  32.165  30.524  1.00  0.00     0.031 C 
ATOM     61  C   UNL A   1      46.235  31.826  27.701  1.00  0.00     0.029 A 
ATOM     62  C   UNL A   1      44.996  31.503  28.230  1.00  0.00     0.049 A 
ATOM     63  H   UNL A   1      43.959  29.666  28.143  1.00  0.00     0.167 HD
ATOM     64  C   UNL A   1      42.870  31.954  29.434  1.00  0.00     0.074 A 
ATOM     65  C   UNL A   1      41.961  32.813  30.167  1.00  0.00     0.031 C 
ATOM     66  C   UNL A   1      44.090  32.344  28.981  1.00  0.00     0.034 A 
BRANCH  53  67
ATOM     67  C   UNL A   1      47.224  27.872  26.022  1.00  0.00     0.023 A 
ATOM     68  C   UNL A   1      47.444  28.069  24.646  1.00  0.00     0.031 A 
ATOM     69  C   UNL A   1      48.215  27.193  26.754  1.00  0.00     0.131 A 
ATOM     70  C   UNL A   1      48.578  27.516  24.032  1.00  0.00     0.055 A 
ATOM     71  C   UNL A   1      49.386  26.726  26.153  1.00  0.00     0.041 A 
ATOM     72  F   UNL A   1      48.053  26.950  28.063  1.00  0.00    -0.206 F 
ATOM     73  C   UNL A   1      49.564  26.871  24.781  1.00  0.00     0.022 A 
BRANCH  70  74
ATOM     74  S   UNL A   1      48.660  27.501  22.219  1.00  0.00     0.124 S 
ATOM     75  O   UNL A   1      48.725  26.067  21.940  1.00  0.00    -0.237 OA
ATOM     76  O   UNL A   1      47.421  28.169  21.842  1.00  0.00    -0.237 OA
ATOM     77  O   UNL A   1      49.886  28.241  21.925  1.00  0.00    -0.744 OA
ENDBRANCH  70  74
ENDBRANCH  53  67
BRANCH  54  78
ATOM     78  C   UNL A   1      38.741  30.158  30.858  1.00  0.00     0.023 A 
ATOM     79  C   UNL A   1      37.692  30.910  30.307  1.00  0.00     0.031 A 
ATOM     80  C   UNL A   1      38.619  29.739  32.196  1.00  0.00     0.131 A 
ATOM     81  C   UNL A   1      36.582  31.247  31.099  1.00  0.00     0.055 A 
ATOM     82  C   UNL A   1      37.490  30.032  32.963  1.00  0.00     0.041 A 
ATOM     83  F   UNL A   1      39.594  29.020  32.774  1.00  0.00    -0.206 F 
ATOM     84  C   UNL A   1      36.467  30.801  32.417  1.00  0.00     0.022 A 
BRANCH  81  85
ATOM     85  S   UNL A   1      35.311  32.337  30.400  1.00  0.00     0.124 S 
ATOM     86  O   UNL A   1      34.867  31.569  29.241  1.00  0.00    -0.237 OA
ATOM     87  O   UNL A   1      34.363  32.442  31.503  1.00  0.00    -0.237 OA
ATOM     88  O   UNL A   1      36.045  33.562  30.094  1.00  0.00    -0.744 OA
ENDBRANCH  81  85
ENDBRANCH  54  78
BRANCH  66  89
ATOM     89  C   UNL A   1      44.495  33.780  29.232  1.00  0.00     0.023 A 
ATOM     90  C   UNL A   1      44.104  34.824  28.376  1.00  0.00     0.031 A 
ATOM     91  C   UNL A   1      45.286  34.105  30.349  1.00  0.00     0.131 A 
ATOM     92  C   UNL A   1      44.552  36.132  28.618  1.00  0.00     0.055 A 
ATOM     93  C   UNL A   1      45.671  35.419  30.623  1.00  0.00     0.041 A 
ATOM     94  F   UNL A   1      45.695  33.150  31.200  1.00  0.00    -0.206 F 
ATOM     95  C   UNL A   1      45.315  36.439  29.747  1.00  0.00     0.022 A 
BRANCH  92  96
ATOM     96  S   UNL A   1      44.212  37.414  27.380  1.00  0.00     0.124 S 
ATOM     97  O   UNL A   1      44.036  38.599  28.213  1.00  0.00    -0.237 OA
ATOM     98  O   UNL A   1      45.417  37.383  26.558  1.00  0.00    -0.237 OA
ATOM     99  O   UNL A   1      42.998  36.937  26.717  1.00  0.00    -0.744 OA
ENDBRANCH  92  96
ENDBRANCH  66  89
ENDBRANCH  40  41
ENDBRANCH  33  35
ENDBRANCH  32  33
ENDBRANCH  31  32
ENDBRANCH  30  31
ENDBRANCH  29  30
ENDBRANCH  28  29
ENDBRANCH   1  28
TORSDOF 25
ENDMDL
MODEL 2
REMARK VINA RESULT:     -10.0      1.853      2.603
REMARK SMILES Cc1ccc(Cl)c(Nc2ccccc2C(=O)OCCOCCOCCOCCOC(=O)c2ccc(-c3c4nc(c(-c5cc(S(=O)(=O)[O-])ccc5F)c5ccc([nH]5)c(-c5cc(S(=O)(=O)[O-])ccc5F)c5nc(c(-c6cc(S(=O)(=O)[O-])ccc6F)c6ccc3[nH]6)C=C5)C=C4)cc2)c1Cl
REMARK SMILES IDX 24 1 23 2 22 3 21 4 20 5 19 6 18 7 17 8 15 9 16 10 14 11
REMARK SMILES IDX 9 12 10 13 11 14 13 15 12 16 8 17 7 19 1 20 2 21 3 22 95 23
REMARK SMILES IDX 4 24 96 25 5 26 6 27 25 28 26 29 27 30 28 31 29 32 30 33
REMARK SMILES IDX 31 34 32 35 33 36 94 37 34 38 93 39 35 40 36 41 37 42 87 43
REMARK SMILES IDX 38 44 92 45 86 46 88 47 39 48 91 49 85 50 84 51 40 53 72 54
REMARK SMILES IDX 52 55 71 56 53 57 56 58 70 59 89 60 54 61 55 62 69 64 90 65
REMARK SMILES IDX 57 66 41 67 42 68 50 69 43 70 49 71 51 72 48 73 44 74 45 75
REMARK SMILES IDX 46 76 47 77 73 78 74 79 82 80 75 81 81 82 83 83 80 84 76 85
REMARK SMILES IDX 77 86 78 87 79 88 58 89 59 90 67 91 60 92 66 93 68 94 65 95
REMARK SMILES IDX 61 96 62 97 63 98 64 99
REMARK H PARENT 8 18 88 52 56 63
REMARK Flexibility Score: inf
ROOT
ATOM      1  C   UNL A   1      35.732  23.284  25.278  1.00  0.00     0.188 C 
ENDROOT
BRANCH   1   2
ATOM      2  O   UNL A   1      34.424  22.991  25.758  1.00  0.00    -0.377 OA
BRANCH   2   3
ATOM      3  C   UNL A   1      33.687  21.929  25.184  1.00  0.00     0.188 C 
BRANCH   3   4
ATOM      4  C   UNL A   1      32.155  22.112  25.138  1.00  0.00     0.188 C 
BRANCH   4   5
ATOM      5  O   UNL A   1      31.688  23.432  24.956  1.00  0.00    -0.376 OA
BRANCH   5   6
ATOM      6  C   UNL A   1      31.767  24.093  23.705  1.00  0.00     0.202 C 
BRANCH   6   7
ATOM      7  C   UNL A   1      30.630  24.864  23.021  1.00  0.00     0.261 C 
BRANCH   7   8
ATOM      8  O   UNL A   1      30.668  26.285  23.081  1.00  0.00    -0.460 OA
BRANCH   8   9
ATOM      9  C   UNL A   1      30.032  26.882  24.110  1.00  0.00     0.340 C 
ATOM     10  O   UNL A   1      30.125  26.574  25.288  1.00  0.00    -0.246 OA
BRANCH   9  11
ATOM     11  C   UNL A   1      29.370  28.120  23.621  1.00  0.00     0.083 A 
ATOM     12  C   UNL A   1      29.970  29.397  23.539  1.00  0.00     0.053 A 
ATOM     13  C   UNL A   1      29.144  30.471  23.144  1.00  0.00     0.027 A 
ATOM     14  C   UNL A   1      27.788  30.295  22.849  1.00  0.00     0.002 A 
ATOM     15  C   UNL A   1      28.004  27.950  23.313  1.00  0.00     0.018 A 
ATOM     16  C   UNL A   1      27.217  29.033  22.934  1.00  0.00     0.001 A 
BRANCH  12  17
ATOM     17  N   UNL A   1      31.336  29.710  23.730  1.00  0.00    -0.352 N 
ATOM     18  H   UNL A   1      31.739  30.221  22.991  1.00  0.00     0.167 HD
BRANCH  17  19
ATOM     19  C   UNL A   1      32.233  29.424  24.792  1.00  0.00     0.077 A 
ATOM     20  C   UNL A   1      34.319  26.478  26.039  1.00  0.00     0.046 C 
ATOM     21  C   UNL A   1      33.696  27.846  25.968  1.00  0.00    -0.030 A 
ATOM     22  C   UNL A   1      33.540  28.587  27.148  1.00  0.00     0.006 A 
ATOM     23  C   UNL A   1      33.125  28.330  24.776  1.00  0.00     0.069 A 
ATOM     24  C   UNL A   1      32.802  29.769  27.149  1.00  0.00     0.023 A 
ATOM     25  Cl  UNL A   1      33.581  27.591  23.263  1.00  0.00    -0.082 Cl
ATOM     26  C   UNL A   1      32.126  30.161  25.992  1.00  0.00     0.066 A 
ATOM     27  Cl  UNL A   1      31.108  31.560  26.085  1.00  0.00    -0.082 Cl
ENDBRANCH  17  19
ENDBRANCH  12  17
ENDBRANCH   9  11
ENDBRANCH   8   9
ENDBRANCH   7   8
ENDBRANCH   6   7
ENDBRANCH   5   6
ENDBRANCH   4   5
ENDBRANCH   3   4
ENDBRANCH   2   3
ENDBRANCH   1   2
BRANCH   1  28
ATOM     28  C   UNL A   1      36.938  22.349  25.522  1.00  0.00     0.188 C 
BRANCH  28  29
ATOM     29  O   UNL A   1      37.002  21.212  24.673  1.00  0.00    -0.376 OA
BRANCH  29  30
ATOM     30  C   UNL A   1      37.890  20.165  25.025  1.00  0.00     0.202 C 
BRANCH  30  31
ATOM     31  C   UNL A   1      39.309  20.592  25.422  1.00  0.00     0.261 C 
BRANCH  31  32
ATOM     32  O   UNL A   1      39.551  20.714  26.830  1.00  0.00    -0.460 OA
BRANCH  32  33
ATOM     33  C   UNL A   1      40.839  20.864  27.219  1.00  0.00     0.338 C 
ATOM     34  O   UNL A   1      41.731  20.048  27.125  1.00  0.00    -0.246 OA
BRANCH  33  35
ATOM     35  C   UNL A   1      41.016  22.278  27.610  1.00  0.00     0.060 A 
ATOM     36  C   UNL A   1      40.180  23.249  27.046  1.00  0.00     0.016 A 
ATOM     37  C   UNL A   1      41.997  22.633  28.539  1.00  0.00     0.016 A 
ATOM     38  C   UNL A   1      40.345  24.591  27.390  1.00  0.00     0.010 A 
ATOM     39  C   UNL A   1      42.174  23.977  28.866  1.00  0.00     0.010 A 
ATOM     40  C   UNL A   1      41.370  24.965  28.269  1.00  0.00    -0.014 A 
BRANCH  40  41
ATOM     41  C   UNL A   1      41.735  26.395  28.409  1.00  0.00     0.031 A 
ATOM     42  C   UNL A   1      43.080  26.836  27.901  1.00  0.00     0.074 A 
ATOM     43  C   UNL A   1      40.892  27.282  28.967  1.00  0.00     0.049 A 
ATOM     44  N   UNL A   1      43.654  28.008  27.968  1.00  0.00    -0.248 NA
ATOM     45  C   UNL A   1      43.889  25.803  27.237  1.00  0.00     0.031 C 
ATOM     46  C   UNL A   1      39.550  26.978  29.458  1.00  0.00     0.029 A 
ATOM     47  N   UNL A   1      41.052  28.621  29.224  1.00  0.00    -0.354 N 
ATOM     48  C   UNL A   1      44.897  27.854  27.364  1.00  0.00     0.074 A 
ATOM     49  C   UNL A   1      45.005  26.464  26.973  1.00  0.00     0.031 C 
ATOM     50  C   UNL A   1      39.013  28.098  29.972  1.00  0.00     0.029 A 
ATOM     51  C   UNL A   1      39.988  29.184  29.886  1.00  0.00     0.049 A 
ATOM     52  H   UNL A   1      41.852  29.129  28.958  1.00  0.00     0.167 HD
ATOM     53  C   UNL A   1      45.857  28.787  27.150  1.00  0.00     0.034 A 
ATOM     54  C   UNL A   1      39.836  30.424  30.395  1.00  0.00     0.034 A 
ATOM     55  C   UNL A   1      45.736  30.164  27.566  1.00  0.00     0.049 A 
ATOM     56  C   UNL A   1      40.952  31.428  30.227  1.00  0.00     0.074 A 
ATOM     57  C   UNL A   1      46.632  31.201  27.379  1.00  0.00     0.029 A 
ATOM     58  N   UNL A   1      44.662  30.690  28.274  1.00  0.00    -0.354 N 
ATOM     59  N   UNL A   1      42.117  31.281  29.635  1.00  0.00    -0.248 NA
ATOM     60  C   UNL A   1      40.731  32.766  30.792  1.00  0.00     0.031 C 
ATOM     61  C   UNL A   1      46.142  32.328  28.050  1.00  0.00     0.029 A 
ATOM     62  C   UNL A   1      44.894  32.024  28.572  1.00  0.00     0.049 A 
ATOM     63  H   UNL A   1      43.853  30.189  28.526  1.00  0.00     0.167 HD
ATOM     64  C   UNL A   1      42.755  32.517  29.734  1.00  0.00     0.074 A 
ATOM     65  C   UNL A   1      41.839  33.399  30.430  1.00  0.00     0.031 C 
ATOM     66  C   UNL A   1      43.982  32.890  29.286  1.00  0.00     0.034 A 
BRANCH  53  67
ATOM     67  C   UNL A   1      47.140  28.323  26.502  1.00  0.00     0.023 A 
ATOM     68  C   UNL A   1      47.309  28.312  25.105  1.00  0.00     0.031 A 
ATOM     69  C   UNL A   1      48.194  27.831  27.293  1.00  0.00     0.131 A 
ATOM     70  C   UNL A   1      48.460  27.739  24.543  1.00  0.00     0.055 A 
ATOM     71  C   UNL A   1      49.376  27.347  26.730  1.00  0.00     0.041 A 
ATOM     72  F   UNL A   1      48.084  27.790  28.630  1.00  0.00    -0.206 F 
ATOM     73  C   UNL A   1      49.507  27.282  25.346  1.00  0.00     0.022 A 
BRANCH  70  74
ATOM     74  S   UNL A   1      48.493  27.441  22.753  1.00  0.00     0.124 S 
ATOM     75  O   UNL A   1      49.817  27.947  22.395  1.00  0.00    -0.237 OA
ATOM     76  O   UNL A   1      48.320  25.995  22.672  1.00  0.00    -0.237 OA
ATOM     77  O   UNL A   1      47.374  28.235  22.252  1.00  0.00    -0.744 OA
ENDBRANCH  70  74
ENDBRANCH  53  67
BRANCH  54  78
ATOM     78  C   UNL A   1      38.602  30.774  31.157  1.00  0.00     0.023 A 
ATOM     79  C   UNL A   1      37.522  31.429  30.544  1.00  0.00     0.031 A 
ATOM     80  C   UNL A   1      38.501  30.482  32.530  1.00  0.00     0.131 A 
ATOM     81  C   UNL A   1      36.403  31.797  31.308  1.00  0.00     0.055 A 
ATOM     82  C   UNL A   1      37.365  30.804  33.274  1.00  0.00     0.041 A 
ATOM     83  F   UNL A   1      39.506  29.861  33.168  1.00  0.00    -0.206 F 
ATOM     84  C   UNL A   1      36.310  31.476  32.664  1.00  0.00     0.022 A 
BRANCH  81  85
ATOM     85  S   UNL A   1      35.088  32.764  30.516  1.00  0.00     0.124 S 
ATOM     86  O   UNL A   1      34.851  31.999  29.297  1.00  0.00    -0.237 OA
ATOM     87  O   UNL A   1      34.031  32.716  31.521  1.00  0.00    -0.237 OA
ATOM     88  O   UNL A   1      35.700  34.076  30.322  1.00  0.00    -0.744 OA
ENDBRANCH  81  85
ENDBRANCH  54  78
BRANCH  66  89
ATOM     89  C   UNL A   1      44.388  34.331  29.499  1.00  0.00     0.023 A 
ATOM     90  C   UNL A   1      44.014  35.350  28.606  1.00  0.00     0.031 A 
ATOM     91  C   UNL A   1      45.162  34.688  30.618  1.00  0.00     0.131 A 
ATOM     92  C   UNL A   1      44.464  36.663  28.814  1.00  0.00     0.055 A 
ATOM     93  C   UNL A   1      45.547  36.009  30.858  1.00  0.00     0.041 A 
ATOM     94  F   UNL A   1      45.554  33.759  31.504  1.00  0.00    -0.206 F 
ATOM     95  C   UNL A   1      45.209  37.003  29.946  1.00  0.00     0.022 A 
BRANCH  92  96
ATOM     96  S   UNL A   1      44.147  37.908  27.532  1.00  0.00     0.124 S 
ATOM     97  O   UNL A   1      43.080  37.281  26.760  1.00  0.00    -0.237 OA
ATOM     98  O   UNL A   1      43.766  39.077  28.318  1.00  0.00    -0.237 OA
ATOM     99  O   UNL A   1      45.430  38.020  26.839  1.00  0.00    -0.744 OA
ENDBRANCH  92  96
ENDBRANCH  66  89
ENDBRANCH  40  41
ENDBRANCH  33  35
ENDBRANCH  32  33
ENDBRANCH  31  32
ENDBRANCH  30  31
ENDBRANCH  29  30
ENDBRANCH  28  29
ENDBRANCH   1  28
TORSDOF 25
ENDMDL
MODEL 3
REMARK VINA RESULT:      -9.9      2.182      3.230
REMARK SMILES Cc1ccc(Cl)c(Nc2ccccc2C(=O)OCCOCCOCCOCCOC(=O)c2ccc(-c3c4nc(c(-c5cc(S(=O)(=O)[O-])ccc5F)c5ccc([nH]5)c(-c5cc(S(=O)(=O)[O-])ccc5F)c5nc(c(-c6cc(S(=O)(=O)[O-])ccc6F)c6ccc3[nH]6)C=C5)C=C4)cc2)c1Cl
REMARK SMILES IDX 24 1 23 2 22 3 21 4 20 5 19 6 18 7 17 8 15 9 16 10 14 11
REMARK SMILES IDX 9 12 10 13 11 14 13 15 12 16 8 17 7 19 1 20 2 21 3 22 95 23
REMARK SMILES IDX 4 24 96 25 5 26 6 27 25 28 26 29 27 30 28 31 29 32 30 33
REMARK SMILES IDX 31 34 32 35 33 36 94 37 34 38 93 39 35 40 36 41 37 42 87 43
REMARK SMILES IDX 38 44 92 45 86 46 88 47 39 48 91 49 85 50 84 51 40 53 72 54
REMARK SMILES IDX 52 55 71 56 53 57 56 58 70 59 89 60 54 61 55 62 69 64 90 65
REMARK SMILES IDX 57 66 41 67 42 68 50 69 43 70 49 71 51 72 48 73 44 74 45 75
REMARK SMILES IDX 46 76 47 77 73 78 74 79 82 80 75 81 81 82 83 83 80 84 76 85
REMARK SMILES IDX 77 86 78 87 79 88 58 89 59 90 67 91 60 92 66 93 68 94 65 95
REMARK SMILES IDX 61 96 62 97 63 98 64 99
REMARK H PARENT 8 18 88 52 56 63
REMARK Flexibility Score: inf
ROOT
ATOM      1  C   UNL A   1      35.514  23.083  25.625  1.00  0.00     0.188 C 
ENDROOT
BRANCH   1   2
ATOM      2  O   UNL A   1      34.227  22.959  26.220  1.00  0.00    -0.377 OA
BRANCH   2   3
ATOM      3  C   UNL A   1      33.403  21.858  25.890  1.00  0.00     0.188 C 
BRANCH   3   4
ATOM      4  C   UNL A   1      31.882  22.114  25.922  1.00  0.00     0.188 C 
BRANCH   4   5
ATOM      5  O   UNL A   1      31.453  23.387  25.487  1.00  0.00    -0.376 OA
BRANCH   5   6
ATOM      6  C   UNL A   1      31.530  23.786  24.130  1.00  0.00     0.202 C 
BRANCH   6   7
ATOM      7  C   UNL A   1      30.413  24.468  23.327  1.00  0.00     0.261 C 
BRANCH   7   8
ATOM      8  O   UNL A   1      30.478  25.882  23.179  1.00  0.00    -0.460 OA
BRANCH   8   9
ATOM      9  C   UNL A   1      29.984  26.636  24.182  1.00  0.00     0.340 C 
ATOM     10  O   UNL A   1      30.062  26.386  25.375  1.00  0.00    -0.246 OA
BRANCH   9  11
ATOM     11  C   UNL A   1      29.521  27.938  23.631  1.00  0.00     0.083 A 
ATOM     12  C   UNL A   1      30.289  29.123  23.564  1.00  0.00     0.053 A 
ATOM     13  C   UNL A   1      29.638  30.285  23.100  1.00  0.00     0.027 A 
ATOM     14  C   UNL A   1      28.291  30.280  22.723  1.00  0.00     0.002 A 
ATOM     15  C   UNL A   1      28.166  27.940  23.241  1.00  0.00     0.018 A 
ATOM     16  C   UNL A   1      27.554  29.107  22.794  1.00  0.00     0.001 A 
BRANCH  12  17
ATOM     17  N   UNL A   1      31.671  29.259  23.836  1.00  0.00    -0.352 N 
ATOM     18  H   UNL A   1      32.225  29.409  23.036  1.00  0.00     0.167 HD
BRANCH  17  19
ATOM     19  C   UNL A   1      32.406  29.218  25.049  1.00  0.00     0.077 A 
ATOM     20  C   UNL A   1      33.617  31.657  27.726  1.00  0.00     0.046 C 
ATOM     21  C   UNL A   1      33.398  30.375  26.971  1.00  0.00    -0.030 A 
ATOM     22  C   UNL A   1      34.320  29.329  27.120  1.00  0.00     0.006 A 
ATOM     23  C   UNL A   1      32.384  30.260  26.001  1.00  0.00     0.069 A 
ATOM     24  C   UNL A   1      34.253  28.206  26.297  1.00  0.00     0.023 A 
ATOM     25  Cl  UNL A   1      31.059  31.395  26.030  1.00  0.00    -0.082 Cl
ATOM     26  C   UNL A   1      33.330  28.169  25.251  1.00  0.00     0.066 A 
ATOM     27  Cl  UNL A   1      33.384  26.815  24.172  1.00  0.00    -0.082 Cl
ENDBRANCH  17  19
ENDBRANCH  12  17
ENDBRANCH   9  11
ENDBRANCH   8   9
ENDBRANCH   7   8
ENDBRANCH   6   7
ENDBRANCH   5   6
ENDBRANCH   4   5
ENDBRANCH   3   4
ENDBRANCH   2   3
ENDBRANCH   1   2
BRANCH   1  28
ATOM     28  C   UNL A   1      36.568  21.953  25.676  1.00  0.00     0.188 C 
BRANCH  28  29
ATOM     29  O   UNL A   1      36.289  20.829  24.854  1.00  0.00    -0.376 OA
BRANCH  29  30
ATOM     30  C   UNL A   1      37.180  19.728  24.904  1.00  0.00     0.202 C 
BRANCH  30  31
ATOM     31  C   UNL A   1      38.668  20.073  25.047  1.00  0.00     0.261 C 
BRANCH  31  32
ATOM     32  O   UNL A   1      39.206  19.963  26.372  1.00  0.00    -0.460 OA
BRANCH  32  33
ATOM     33  C   UNL A   1      40.543  20.133  26.504  1.00  0.00     0.338 C 
ATOM     34  O   UNL A   1      41.414  19.345  26.200  1.00  0.00    -0.246 OA
BRANCH  33  35
ATOM     35  C   UNL A   1      40.768  21.534  26.912  1.00  0.00     0.060 A 
ATOM     36  C   UNL A   1      40.163  22.562  26.179  1.00  0.00     0.016 A 
ATOM     37  C   UNL A   1      41.563  21.824  28.024  1.00  0.00     0.016 A 
ATOM     38  C   UNL A   1      40.378  23.892  26.539  1.00  0.00     0.010 A 
ATOM     39  C   UNL A   1      41.794  23.155  28.370  1.00  0.00     0.010 A 
ATOM     40  C   UNL A   1      41.229  24.196  27.611  1.00  0.00    -0.014 A 
BRANCH  40  41
ATOM     41  C   UNL A   1      41.691  25.590  27.814  1.00  0.00     0.031 A 
ATOM     42  C   UNL A   1      43.048  25.970  27.291  1.00  0.00     0.074 A 
ATOM     43  C   UNL A   1      40.922  26.498  28.440  1.00  0.00     0.049 A 
ATOM     44  N   UNL A   1      43.699  27.098  27.401  1.00  0.00    -0.248 NA
ATOM     45  C   UNL A   1      43.771  24.924  26.552  1.00  0.00     0.031 C 
ATOM     46  C   UNL A   1      39.575  26.255  28.953  1.00  0.00     0.029 A 
ATOM     47  N   UNL A   1      41.176  27.809  28.760  1.00  0.00    -0.354 N 
ATOM     48  C   UNL A   1      44.914  26.896  26.754  1.00  0.00     0.074 A 
ATOM     49  C   UNL A   1      44.921  25.525  26.290  1.00  0.00     0.031 C 
ATOM     50  C   UNL A   1      39.126  27.378  29.539  1.00  0.00     0.029 A 
ATOM     51  C   UNL A   1      40.168  28.403  29.481  1.00  0.00     0.049 A 
ATOM     52  H   UNL A   1      42.000  28.278  28.498  1.00  0.00     0.167 HD
ATOM     53  C   UNL A   1      45.927  27.776  26.561  1.00  0.00     0.034 A 
ATOM     54  C   UNL A   1      40.110  29.622  30.057  1.00  0.00     0.034 A 
ATOM     55  C   UNL A   1      45.907  29.134  27.050  1.00  0.00     0.049 A 
ATOM     56  C   UNL A   1      41.285  30.560  29.909  1.00  0.00     0.074 A 
ATOM     57  C   UNL A   1      46.864  30.120  26.891  1.00  0.00     0.029 A 
ATOM     58  N   UNL A   1      44.888  29.689  27.814  1.00  0.00    -0.354 N 
ATOM     59  N   UNL A   1      42.422  30.370  29.277  1.00  0.00    -0.248 NA
ATOM     60  C   UNL A   1      41.167  31.876  30.547  1.00  0.00     0.031 C 
ATOM     61  C   UNL A   1      46.466  31.239  27.632  1.00  0.00     0.029 A 
ATOM     62  C   UNL A   1      45.215  30.988  28.174  1.00  0.00     0.049 A 
ATOM     63  H   UNL A   1      44.055  29.228  28.064  1.00  0.00     0.167 HD
ATOM     64  C   UNL A   1      43.142  31.555  29.421  1.00  0.00     0.074 A 
ATOM     65  C   UNL A   1      42.304  32.456  30.187  1.00  0.00     0.031 C 
ATOM     66  C   UNL A   1      44.379  31.872  28.957  1.00  0.00     0.034 A 
BRANCH  53  67
ATOM     67  C   UNL A   1      47.160  27.266  25.854  1.00  0.00     0.023 A 
ATOM     68  C   UNL A   1      48.151  26.524  26.522  1.00  0.00     0.031 A 
ATOM     69  C   UNL A   1      47.375  27.574  24.498  1.00  0.00     0.131 A 
ATOM     70  C   UNL A   1      49.344  26.194  25.862  1.00  0.00     0.055 A 
ATOM     71  C   UNL A   1      48.525  27.163  23.822  1.00  0.00     0.041 A 
ATOM     72  F   UNL A   1      46.481  28.301  23.812  1.00  0.00    -0.206 F 
ATOM     73  C   UNL A   1      49.527  26.484  24.509  1.00  0.00     0.022 A 
BRANCH  70  74
ATOM     74  S   UNL A   1      50.723  25.538  26.843  1.00  0.00     0.124 S 
ATOM     75  O   UNL A   1      51.677  25.167  25.798  1.00  0.00    -0.237 OA
ATOM     76  O   UNL A   1      51.094  26.680  27.669  1.00  0.00    -0.237 OA
ATOM     77  O   UNL A   1      50.129  24.412  27.561  1.00  0.00    -0.744 OA
ENDBRANCH  70  74
ENDBRANCH  53  67
BRANCH  54  78
ATOM     78  C   UNL A   1      38.921  30.009  30.871  1.00  0.00     0.023 A 
ATOM     79  C   UNL A   1      38.035  31.009  30.444  1.00  0.00     0.031 A 
ATOM     80  C   UNL A   1      38.674  29.397  32.114  1.00  0.00     0.131 A 
ATOM     81  C   UNL A   1      36.962  31.390  31.266  1.00  0.00     0.055 A 
ATOM     82  C   UNL A   1      37.577  29.742  32.904  1.00  0.00     0.041 A 
ATOM     83  F   UNL A   1      39.493  28.437  32.573  1.00  0.00    -0.206 F 
ATOM     84  C   UNL A   1      36.718  30.753  32.485  1.00  0.00     0.022 A 
BRANCH  81  85
ATOM     85  S   UNL A   1      35.918  32.781  30.748  1.00  0.00     0.124 S 
ATOM     86  O   UNL A   1      36.496  33.884  31.507  1.00  0.00    -0.237 OA
ATOM     87  O   UNL A   1      36.141  32.806  29.307  1.00  0.00    -0.237 OA
ATOM     88  O   UNL A   1      34.578  32.372  31.162  1.00  0.00    -0.744 OA
ENDBRANCH  81  85
ENDBRANCH  54  78
BRANCH  66  89
ATOM     89  C   UNL A   1      44.884  33.271  29.232  1.00  0.00     0.023 A 
ATOM     90  C   UNL A   1      44.582  34.351  28.386  1.00  0.00     0.031 A 
ATOM     91  C   UNL A   1      45.682  33.524  30.363  1.00  0.00     0.131 A 
ATOM     92  C   UNL A   1      45.121  35.620  28.651  1.00  0.00     0.055 A 
ATOM     93  C   UNL A   1      46.157  34.802  30.660  1.00  0.00     0.041 A 
ATOM     94  F   UNL A   1      46.008  32.531  31.207  1.00  0.00    -0.206 F 
ATOM     95  C   UNL A   1      45.888  35.857  29.793  1.00  0.00     0.022 A 
BRANCH  92  96
ATOM     96  S   UNL A   1      44.891  36.939  27.426  1.00  0.00     0.124 S 
ATOM     97  O   UNL A   1      46.088  36.799  26.603  1.00  0.00    -0.237 OA
ATOM     98  O   UNL A   1      43.632  36.561  26.792  1.00  0.00    -0.237 OA
ATOM     99  O   UNL A   1      44.835  38.154  28.237  1.00  0.00    -0.744 OA
ENDBRANCH  92  96
ENDBRANCH  66  89
ENDBRANCH  40  41
ENDBRANCH  33  35
ENDBRANCH  32  33
ENDBRANCH  31  32
ENDBRANCH  30  31
ENDBRANCH  29  30
ENDBRANCH  28  29
ENDBRANCH   1  28
TORSDOF 25
ENDMDL
