MODEL 1
REMARK VINA RESULT:      -8.4      0.000      0.000
REMARK SMILES NC(=O)CC[N@@H+]1[C@@H](C(=O)OCCOCCOCCOCCOC(=O)c2ccc(-c3c4nc(c(-c5cc(S(=O)(=O)[O-])ccc5F)c5ccc([nH]5)c(-c5cc(S(=O)(=O)[O-])ccc5F)c5nc(c(-c6cc(S(=O)(=O)[O-])ccc6F)c6ccc3[nH]6)C=C5)C=C4)cc2)CC[C@@H]2CCCC[C@H]21
REMARK SMILES IDX 16 1 15 2 14 3 13 4 12 5 11 6 10 7 8 8 9 9 7 10 6 11 95 12
REMARK SMILES IDX 88 14 90 15 94 16 89 17 91 18 93 19 92 20 5 21 4 22 2 23
REMARK SMILES IDX 1 24 3 27 17 28 18 29 19 30 20 31 21 32 22 33 23 34 24 35
REMARK SMILES IDX 25 36 26 37 87 38 27 39 86 40 28 41 29 42 30 43 80 44 31 45
REMARK SMILES IDX 85 46 79 47 81 48 32 49 84 50 78 51 77 52 33 54 65 55 45 56
REMARK SMILES IDX 64 57 46 58 49 59 63 60 82 61 47 62 48 63 62 65 83 66 50 67
REMARK SMILES IDX 34 68 35 69 43 70 36 71 42 72 44 73 41 74 37 75 38 76 39 77
REMARK SMILES IDX 40 78 66 79 67 80 75 81 68 82 74 83 76 84 73 85 69 86 70 87
REMARK SMILES IDX 71 88 72 89 51 90 52 91 60 92 53 93 59 94 61 95 58 96 54 97
REMARK SMILES IDX 55 98 56 99 57 100
REMARK H PARENT 6 13 1 25 1 26 81 53 49 64
REMARK Flexibility Score: inf
ROOT
ATOM      1  O   UNL A   1      46.241  43.465  27.709  1.00  0.00    -0.377 OA
ENDROOT
BRANCH   1   2
ATOM      2  C   UNL A   1      45.899  43.649  26.348  1.00  0.00     0.188 C 
BRANCH   2   3
ATOM      3  C   UNL A   1      46.244  42.520  25.368  1.00  0.00     0.188 C 
BRANCH   3   4
ATOM      4  O   UNL A   1      46.889  42.958  24.197  1.00  0.00    -0.376 OA
BRANCH   4   5
ATOM      5  C   UNL A   1      46.167  43.304  23.027  1.00  0.00     0.202 C 
BRANCH   5   6
ATOM      6  C   UNL A   1      45.154  42.401  22.287  1.00  0.00     0.261 C 
BRANCH   6   7
ATOM      7  O   UNL A   1      44.755  42.767  20.963  1.00  0.00    -0.459 OA
BRANCH   7   8
ATOM      8  C   UNL A   1      43.709  43.624  20.902  1.00  0.00     0.364 C 
ATOM      9  O   UNL A   1      43.146  44.030  21.917  1.00  0.00    -0.245 OA
BRANCH   8  10
ATOM     10  C   UNL A   1      43.454  44.201  19.474  1.00  0.00     0.295 C 
ATOM     11  N   UNL A   1      44.053  45.560  19.349  1.00  0.00    -0.320 N 
ATOM     12  C   UNL A   1      43.677  46.354  18.167  1.00  0.00     0.187 C 
ATOM     13  H   UNL A   1      43.595  46.043  20.122  1.00  0.00     0.349 HD
ATOM     14  C   UNL A   1      41.995  44.143  18.990  1.00  0.00     0.078 C 
ATOM     15  C   UNL A   1      42.250  46.131  17.613  1.00  0.00     0.048 C 
ATOM     16  C   UNL A   1      43.764  47.865  18.486  1.00  0.00     0.065 C 
ATOM     17  C   UNL A   1      41.904  44.659  17.553  1.00  0.00     0.016 C 
ATOM     18  C   UNL A   1      42.121  46.844  16.262  1.00  0.00     0.010 C 
ATOM     19  C   UNL A   1      43.575  48.699  17.218  1.00  0.00     0.006 C 
ATOM     20  C   UNL A   1      42.295  48.351  16.460  1.00  0.00     0.001 C 
BRANCH  11  21
ATOM     21  C   UNL A   1      45.525  45.597  19.594  1.00  0.00     0.273 C 
BRANCH  21  22
ATOM     22  C   UNL A   1      46.490  44.855  18.653  1.00  0.00     0.161 C 
BRANCH  22  23
ATOM     23  C   UNL A   1      47.470  43.974  19.385  1.00  0.00     0.223 C 
ATOM     24  N   UNL A   1      48.556  44.601  19.920  1.00  0.00    -0.369 N 
ATOM     25  H   UNL A   1      49.233  44.081  20.410  1.00  0.00     0.159 HD
ATOM     26  H   UNL A   1      48.663  45.574  19.817  1.00  0.00     0.159 HD
ATOM     27  O   UNL A   1      47.335  42.761  19.497  1.00  0.00    -0.275 OA
ENDBRANCH  22  23
ENDBRANCH  21  22
ENDBRANCH  11  21
ENDBRANCH   8  10
ENDBRANCH   7   8
ENDBRANCH   6   7
ENDBRANCH   5   6
ENDBRANCH   4   5
ENDBRANCH   3   4
ENDBRANCH   2   3
ENDBRANCH   1   2
BRANCH   1  28
ATOM     28  C   UNL A   1      46.152  42.180  28.317  1.00  0.00     0.188 C 
BRANCH  28  29
ATOM     29  C   UNL A   1      45.370  41.971  29.629  1.00  0.00     0.188 C 
BRANCH  29  30
ATOM     30  O   UNL A   1      44.944  40.639  29.857  1.00  0.00    -0.376 OA
BRANCH  30  31
ATOM     31  C   UNL A   1      44.121  40.035  28.871  1.00  0.00     0.202 C 
BRANCH  31  32
ATOM     32  C   UNL A   1      44.251  38.517  28.667  1.00  0.00     0.261 C 
BRANCH  32  33
ATOM     33  O   UNL A   1      45.072  37.801  29.608  1.00  0.00    -0.460 OA
BRANCH  33  34
ATOM     34  C   UNL A   1      46.177  37.177  29.148  1.00  0.00     0.338 C 
ATOM     35  O   UNL A   1      47.295  37.657  29.038  1.00  0.00    -0.246 OA
BRANCH  34  36
ATOM     36  C   UNL A   1      45.859  35.742  28.991  1.00  0.00     0.060 A 
ATOM     37  C   UNL A   1      45.591  35.235  27.712  1.00  0.00     0.016 A 
ATOM     38  C   UNL A   1      45.823  34.899  30.104  1.00  0.00     0.016 A 
ATOM     39  C   UNL A   1      45.245  33.894  27.547  1.00  0.00     0.010 A 
ATOM     40  C   UNL A   1      45.453  33.559  29.939  1.00  0.00     0.010 A 
ATOM     41  C   UNL A   1      45.125  33.060  28.666  1.00  0.00    -0.014 A 
BRANCH  41  42
ATOM     42  C   UNL A   1      44.448  31.745  28.535  1.00  0.00     0.031 A 
ATOM     43  C   UNL A   1      45.179  30.641  27.818  1.00  0.00     0.074 A 
ATOM     44  C   UNL A   1      43.230  31.519  29.060  1.00  0.00     0.049 A 
ATOM     45  N   UNL A   1      44.779  29.433  27.514  1.00  0.00    -0.248 NA
ATOM     46  C   UNL A   1      46.550  30.948  27.381  1.00  0.00     0.031 C 
ATOM     47  C   UNL A   1      42.448  32.486  29.828  1.00  0.00     0.029 A 
ATOM     48  N   UNL A   1      42.434  30.400  29.018  1.00  0.00    -0.354 N 
ATOM     49  C   UNL A   1      45.843  28.840  26.843  1.00  0.00     0.074 A 
ATOM     50  C   UNL A   1      46.890  29.835  26.751  1.00  0.00     0.031 C 
ATOM     51  C   UNL A   1      41.278  31.920  30.177  1.00  0.00     0.029 A 
ATOM     52  C   UNL A   1      41.208  30.570  29.618  1.00  0.00     0.049 A 
ATOM     53  H   UNL A   1      42.714  29.555  28.599  1.00  0.00     0.167 HD
ATOM     54  C   UNL A   1      45.942  27.579  26.356  1.00  0.00     0.034 A 
ATOM     55  C   UNL A   1      40.142  29.744  29.680  1.00  0.00     0.034 A 
ATOM     56  C   UNL A   1      44.882  26.603  26.444  1.00  0.00     0.049 A 
ATOM     57  C   UNL A   1      40.234  28.379  29.035  1.00  0.00     0.074 A 
ATOM     58  C   UNL A   1      44.879  25.295  25.992  1.00  0.00     0.029 A 
ATOM     59  N   UNL A   1      43.634  26.831  27.009  1.00  0.00    -0.354 N 
ATOM     60  N   UNL A   1      41.245  27.827  28.402  1.00  0.00    -0.248 NA
ATOM     61  C   UNL A   1      39.042  27.523  29.118  1.00  0.00     0.031 C 
ATOM     62  C   UNL A   1      43.603  24.762  26.203  1.00  0.00     0.029 A 
ATOM     63  C   UNL A   1      42.840  25.702  26.880  1.00  0.00     0.049 A 
ATOM     64  H   UNL A   1      43.355  27.671  27.439  1.00  0.00     0.167 HD
ATOM     65  C   UNL A   1      40.821  26.548  28.047  1.00  0.00     0.074 A 
ATOM     66  C   UNL A   1      39.469  26.406  28.548  1.00  0.00     0.031 C 
ATOM     67  C   UNL A   1      41.489  25.574  27.377  1.00  0.00     0.034 A 
BRANCH  54  68
ATOM     68  C   UNL A   1      47.214  27.211  25.632  1.00  0.00     0.023 A 
ATOM     69  C   UNL A   1      48.283  26.573  26.284  1.00  0.00     0.031 A 
ATOM     70  C   UNL A   1      47.372  27.533  24.272  1.00  0.00     0.131 A 
ATOM     71  C   UNL A   1      49.486  26.344  25.598  1.00  0.00     0.055 A 
ATOM     72  C   UNL A   1      48.539  27.222  23.571  1.00  0.00     0.041 A 
ATOM     73  F   UNL A   1      46.398  28.168  23.601  1.00  0.00    -0.206 F 
ATOM     74  C   UNL A   1      49.612  26.637  24.238  1.00  0.00     0.022 A 
BRANCH  71  75
ATOM     75  S   UNL A   1      50.934  25.800  26.545  1.00  0.00     0.124 S 
ATOM     76  O   UNL A   1      50.456  24.546  27.122  1.00  0.00    -0.237 OA
ATOM     77  O   UNL A   1      51.959  25.680  25.514  1.00  0.00    -0.237 OA
ATOM     78  O   UNL A   1      51.140  26.881  27.508  1.00  0.00    -0.744 OA
ENDBRANCH  71  75
ENDBRANCH  54  68
BRANCH  55  79
ATOM     79  C   UNL A   1      38.873  30.187  30.331  1.00  0.00     0.023 A 
ATOM     80  C   UNL A   1      37.891  30.888  29.612  1.00  0.00     0.031 A 
ATOM     81  C   UNL A   1      38.654  29.975  31.704  1.00  0.00     0.131 A 
ATOM     82  C   UNL A   1      36.763  31.394  30.278  1.00  0.00     0.055 A 
ATOM     83  C   UNL A   1      37.501  30.427  32.349  1.00  0.00     0.041 A 
ATOM     84  F   UNL A   1      39.563  29.319  32.444  1.00  0.00    -0.206 F 
ATOM     85  C   UNL A   1      36.554  31.154  31.638  1.00  0.00     0.022 A 
BRANCH  82  86
ATOM     86  S   UNL A   1      35.620  32.465  29.361  1.00  0.00     0.124 S 
ATOM     87  O   UNL A   1      35.501  31.753  28.094  1.00  0.00    -0.237 OA
ATOM     88  O   UNL A   1      34.440  32.450  30.219  1.00  0.00    -0.237 OA
ATOM     89  O   UNL A   1      36.327  33.741  29.297  1.00  0.00    -0.744 OA
ENDBRANCH  82  86
ENDBRANCH  55  79
BRANCH  67  90
ATOM     90  C   UNL A   1      40.788  24.245  27.195  1.00  0.00     0.023 A 
ATOM     91  C   UNL A   1      39.636  24.113  26.400  1.00  0.00     0.031 A 
ATOM     92  C   UNL A   1      41.285  23.093  27.832  1.00  0.00     0.131 A 
ATOM     93  C   UNL A   1      38.987  22.870  26.312  1.00  0.00     0.055 A 
ATOM     94  C   UNL A   1      40.677  21.847  27.682  1.00  0.00     0.041 A 
ATOM     95  F   UNL A   1      42.380  23.160  28.607  1.00  0.00    -0.206 F 
ATOM     96  C   UNL A   1      39.512  21.733  26.930  1.00  0.00     0.022 A 
BRANCH  93  97
ATOM     97  S   UNL A   1      37.387  22.781  25.462  1.00  0.00     0.124 S 
ATOM     98  O   UNL A   1      37.315  21.368  25.101  1.00  0.00    -0.237 OA
ATOM     99  O   UNL A   1      36.458  23.222  26.497  1.00  0.00    -0.237 OA
ATOM    100  O   UNL A   1      37.544  23.701  24.337  1.00  0.00    -0.744 OA
ENDBRANCH  93  97
ENDBRANCH  67  90
ENDBRANCH  41  42
ENDBRANCH  34  36
ENDBRANCH  33  34
ENDBRANCH  32  33
ENDBRANCH  31  32
ENDBRANCH  30  31
ENDBRANCH  29  30
ENDBRANCH  28  29
ENDBRANCH   1  28
TORSDOF 26
ENDMDL
MODEL 2
REMARK VINA RESULT:      -8.4      7.819     12.594
REMARK SMILES NC(=O)CC[N@@H+]1[C@@H](C(=O)OCCOCCOCCOCCOC(=O)c2ccc(-c3c4nc(c(-c5cc(S(=O)(=O)[O-])ccc5F)c5ccc([nH]5)c(-c5cc(S(=O)(=O)[O-])ccc5F)c5nc(c(-c6cc(S(=O)(=O)[O-])ccc6F)c6ccc3[nH]6)C=C5)C=C4)cc2)CC[C@@H]2CCCC[C@H]21
REMARK SMILES IDX 16 1 15 2 14 3 13 4 12 5 11 6 10 7 8 8 9 9 7 10 6 11 95 12
REMARK SMILES IDX 88 14 90 15 94 16 89 17 91 18 93 19 92 20 5 21 4 22 2 23
REMARK SMILES IDX 1 24 3 27 17 28 18 29 19 30 20 31 21 32 22 33 23 34 24 35
REMARK SMILES IDX 25 36 26 37 87 38 27 39 86 40 28 41 29 42 30 43 80 44 31 45
REMARK SMILES IDX 85 46 79 47 81 48 32 49 84 50 78 51 77 52 33 54 65 55 45 56
REMARK SMILES IDX 64 57 46 58 49 59 63 60 82 61 47 62 48 63 62 65 83 66 50 67
REMARK SMILES IDX 34 68 35 69 43 70 36 71 42 72 44 73 41 74 37 75 38 76 39 77
REMARK SMILES IDX 40 78 66 79 67 80 75 81 68 82 74 83 76 84 73 85 69 86 70 87
REMARK SMILES IDX 71 88 72 89 51 90 52 91 60 92 53 93 59 94 61 95 58 96 54 97
REMARK SMILES IDX 55 98 56 99 57 100
REMARK H PARENT 6 13 1 25 1 26 81 53 49 64
REMARK Flexibility Score: inf
ROOT
ATOM      1  O   UNL A   1      41.782  39.162  27.317  1.00  0.00    -0.377 OA
ENDROOT
BRANCH   1   2
ATOM      2  C   UNL A   1      42.180  40.414  26.791  1.00  0.00     0.188 C 
BRANCH   2   3
ATOM      3  C   UNL A   1      41.326  41.019  25.670  1.00  0.00     0.188 C 
BRANCH   3   4
ATOM      4  O   UNL A   1      41.953  41.017  24.410  1.00  0.00    -0.376 OA
BRANCH   4   5
ATOM      5  C   UNL A   1      42.432  42.207  23.807  1.00  0.00     0.202 C 
BRANCH   5   6
ATOM      6  C   UNL A   1      41.641  43.113  22.835  1.00  0.00     0.261 C 
BRANCH   6   7
ATOM      7  O   UNL A   1      42.349  43.749  21.768  1.00  0.00    -0.459 OA
BRANCH   7   8
ATOM      8  C   UNL A   1      42.616  42.950  20.709  1.00  0.00     0.364 C 
ATOM      9  O   UNL A   1      42.820  41.744  20.842  1.00  0.00    -0.245 OA
BRANCH   8  10
ATOM     10  C   UNL A   1      42.415  43.651  19.328  1.00  0.00     0.295 C 
ATOM     11  N   UNL A   1      43.526  44.608  19.065  1.00  0.00    -0.320 N 
ATOM     12  C   UNL A   1      43.355  45.545  17.941  1.00  0.00     0.187 C 
ATOM     13  H   UNL A   1      43.464  45.205  19.889  1.00  0.00     0.349 HD
ATOM     14  C   UNL A   1      41.025  44.269  19.098  1.00  0.00     0.078 C 
ATOM     15  C   UNL A   1      41.908  46.005  17.642  1.00  0.00     0.048 C 
ATOM     16  C   UNL A   1      44.155  46.843  18.197  1.00  0.00     0.065 C 
ATOM     17  C   UNL A   1      40.939  44.842  17.683  1.00  0.00     0.016 C 
ATOM     18  C   UNL A   1      41.890  46.767  16.312  1.00  0.00     0.010 C 
ATOM     19  C   UNL A   1      44.153  47.736  16.957  1.00  0.00     0.006 C 
ATOM     20  C   UNL A   1      42.747  48.029  16.435  1.00  0.00     0.001 C 
BRANCH  11  21
ATOM     21  C   UNL A   1      44.879  43.978  19.058  1.00  0.00     0.273 C 
BRANCH  21  22
ATOM     22  C   UNL A   1      45.948  44.416  20.075  1.00  0.00     0.161 C 
BRANCH  22  23
ATOM     23  C   UNL A   1      46.069  43.477  21.248  1.00  0.00     0.223 C 
ATOM     24  N   UNL A   1      46.088  42.147  20.952  1.00  0.00    -0.369 N 
ATOM     25  H   UNL A   1      46.165  41.483  21.674  1.00  0.00     0.159 HD
ATOM     26  H   UNL A   1      46.025  41.850  20.015  1.00  0.00     0.159 HD
ATOM     27  O   UNL A   1      46.134  43.856  22.412  1.00  0.00    -0.275 OA
ENDBRANCH  22  23
ENDBRANCH  21  22
ENDBRANCH  11  21
ENDBRANCH   8  10
ENDBRANCH   7   8
ENDBRANCH   6   7
ENDBRANCH   5   6
ENDBRANCH   4   5
ENDBRANCH   3   4
ENDBRANCH   2   3
ENDBRANCH   1   2
BRANCH   1  28
ATOM     28  C   UNL A   1      42.506  37.975  27.007  1.00  0.00     0.188 C 
BRANCH  28  29
ATOM     29  C   UNL A   1      43.598  37.436  27.953  1.00  0.00     0.188 C 
BRANCH  29  30
ATOM     30  O   UNL A   1      44.924  37.621  27.489  1.00  0.00    -0.376 OA
BRANCH  30  31
ATOM     31  C   UNL A   1      45.699  38.638  28.105  1.00  0.00     0.202 C 
BRANCH  31  32
ATOM     32  C   UNL A   1      45.235  39.154  29.478  1.00  0.00     0.261 C 
BRANCH  32  33
ATOM     33  O   UNL A   1      45.910  38.625  30.633  1.00  0.00    -0.460 OA
BRANCH  33  34
ATOM     34  C   UNL A   1      45.783  39.284  31.805  1.00  0.00     0.338 C 
ATOM     35  O   UNL A   1      46.204  40.401  32.064  1.00  0.00    -0.246 OA
BRANCH  34  36
ATOM     36  C   UNL A   1      44.863  38.511  32.666  1.00  0.00     0.060 A 
ATOM     37  C   UNL A   1      43.743  39.149  33.217  1.00  0.00     0.016 A 
ATOM     38  C   UNL A   1      45.106  37.161  32.931  1.00  0.00     0.016 A 
ATOM     39  C   UNL A   1      42.886  38.450  34.068  1.00  0.00     0.010 A 
ATOM     40  C   UNL A   1      44.259  36.469  33.804  1.00  0.00     0.010 A 
ATOM     41  C   UNL A   1      43.167  37.121  34.406  1.00  0.00    -0.014 A 
BRANCH  41  42
ATOM     42  C   UNL A   1      42.461  36.486  35.548  1.00  0.00     0.031 A 
ATOM     43  C   UNL A   1      41.269  35.617  35.248  1.00  0.00     0.074 A 
ATOM     44  C   UNL A   1      42.878  36.647  36.817  1.00  0.00     0.049 A 
ATOM     45  N   UNL A   1      40.448  35.014  36.068  1.00  0.00    -0.248 NA
ATOM     46  C   UNL A   1      40.960  35.408  33.825  1.00  0.00     0.031 C 
ATOM     47  C   UNL A   1      44.054  37.412  37.230  1.00  0.00     0.029 A 
ATOM     48  N   UNL A   1      42.350  36.179  37.996  1.00  0.00    -0.354 N 
ATOM     49  C   UNL A   1      39.521  34.361  35.262  1.00  0.00     0.074 A 
ATOM     50  C   UNL A   1      39.860  34.676  33.891  1.00  0.00     0.031 C 
ATOM     51  C   UNL A   1      44.151  37.369  38.571  1.00  0.00     0.029 A 
ATOM     52  C   UNL A   1      43.021  36.614  39.115  1.00  0.00     0.049 A 
ATOM     53  H   UNL A   1      41.565  35.587  38.037  1.00  0.00     0.167 HD
ATOM     54  C   UNL A   1      38.488  33.564  35.631  1.00  0.00     0.034 A 
ATOM     55  C   UNL A   1      42.738  36.451  40.425  1.00  0.00     0.034 A 
ATOM     56  C   UNL A   1      38.156  33.270  37.004  1.00  0.00     0.049 A 
ATOM     57  C   UNL A   1      41.517  35.647  40.815  1.00  0.00     0.074 A 
ATOM     58  C   UNL A   1      37.136  32.470  37.490  1.00  0.00     0.029 A 
ATOM     59  N   UNL A   1      38.825  33.776  38.111  1.00  0.00    -0.354 N 
ATOM     60  N   UNL A   1      40.646  35.035  40.045  1.00  0.00    -0.248 NA
ATOM     61  C   UNL A   1      41.244  35.510  42.253  1.00  0.00     0.031 C 
ATOM     62  C   UNL A   1      37.134  32.563  38.885  1.00  0.00     0.029 A 
ATOM     63  C   UNL A   1      38.215  33.338  39.277  1.00  0.00     0.049 A 
ATOM     64  H   UNL A   1      39.617  34.359  38.074  1.00  0.00     0.167 HD
ATOM     65  C   UNL A   1      39.747  34.409  40.908  1.00  0.00     0.074 A 
ATOM     66  C   UNL A   1      40.190  34.708  42.254  1.00  0.00     0.031 C 
ATOM     67  C   UNL A   1      38.661  33.649  40.616  1.00  0.00     0.034 A 
BRANCH  54  68
ATOM     68  C   UNL A   1      37.611  33.010  34.534  1.00  0.00     0.023 A 
ATOM     69  C   UNL A   1      36.502  33.718  34.039  1.00  0.00     0.031 A 
ATOM     70  C   UNL A   1      37.873  31.738  33.994  1.00  0.00     0.131 A 
ATOM     71  C   UNL A   1      35.654  33.120  33.093  1.00  0.00     0.055 A 
ATOM     72  C   UNL A   1      37.077  31.185  32.988  1.00  0.00     0.041 A 
ATOM     73  F   UNL A   1      38.901  31.002  34.445  1.00  0.00    -0.206 F 
ATOM     74  C   UNL A   1      35.951  31.870  32.543  1.00  0.00     0.022 A 
BRANCH  71  75
ATOM     75  S   UNL A   1      34.078  33.930  32.707  1.00  0.00     0.124 S 
ATOM     76  O   UNL A   1      34.225  35.207  33.400  1.00  0.00    -0.237 OA
ATOM     77  O   UNL A   1      34.102  33.988  31.249  1.00  0.00    -0.237 OA
ATOM     78  O   UNL A   1      33.080  33.029  33.280  1.00  0.00    -0.744 OA
ENDBRANCH  71  75
ENDBRANCH  54  68
BRANCH  55  79
ATOM     79  C   UNL A   1      43.586  37.093  41.473  1.00  0.00     0.023 A 
ATOM     80  C   UNL A   1      43.210  38.306  42.073  1.00  0.00     0.031 A 
ATOM     81  C   UNL A   1      44.823  36.534  41.841  1.00  0.00     0.131 A 
ATOM     82  C   UNL A   1      44.083  38.945  42.968  1.00  0.00     0.055 A 
ATOM     83  C   UNL A   1      45.660  37.142  42.779  1.00  0.00     0.041 A 
ATOM     84  F   UNL A   1      45.239  35.381  41.293  1.00  0.00    -0.206 F 
ATOM     85  C   UNL A   1      45.298  38.363  43.337  1.00  0.00     0.022 A 
BRANCH  82  86
ATOM     86  S   UNL A   1      43.656  40.604  43.565  1.00  0.00     0.124 S 
ATOM     87  O   UNL A   1      44.018  41.432  42.420  1.00  0.00    -0.237 OA
ATOM     88  O   UNL A   1      42.228  40.469  43.834  1.00  0.00    -0.237 OA
ATOM     89  O   UNL A   1      44.499  40.768  44.746  1.00  0.00    -0.744 OA
ENDBRANCH  82  86
ENDBRANCH  55  79
BRANCH  67  90
ATOM     90  C   UNL A   1      37.905  33.038  41.776  1.00  0.00     0.023 A 
ATOM     91  C   UNL A   1      36.759  33.643  42.320  1.00  0.00     0.031 A 
ATOM     92  C   UNL A   1      38.345  31.827  42.344  1.00  0.00     0.131 A 
ATOM     93  C   UNL A   1      36.128  33.068  43.436  1.00  0.00     0.055 A 
ATOM     94  C   UNL A   1      37.671  31.223  43.406  1.00  0.00     0.041 A 
ATOM     95  F   UNL A   1      39.436  31.206  41.867  1.00  0.00    -0.206 F 
ATOM     96  C   UNL A   1      36.564  31.852  43.968  1.00  0.00     0.022 A 
BRANCH  93  97
ATOM     97  S   UNL A   1      34.791  33.984  44.250  1.00  0.00     0.124 S 
ATOM     98  O   UNL A   1      33.973  34.398  43.113  1.00  0.00    -0.237 OA
ATOM     99  O   UNL A   1      34.204  32.971  45.122  1.00  0.00    -0.237 OA
ATOM    100  O   UNL A   1      35.488  35.068  44.940  1.00  0.00    -0.744 OA
ENDBRANCH  93  97
ENDBRANCH  67  90
ENDBRANCH  41  42
ENDBRANCH  34  36
ENDBRANCH  33  34
ENDBRANCH  32  33
ENDBRANCH  31  32
ENDBRANCH  30  31
ENDBRANCH  29  30
ENDBRANCH  28  29
ENDBRANCH   1  28
TORSDOF 26
ENDMDL
MODEL 3
REMARK VINA RESULT:      -8.3      7.489     11.623
REMARK SMILES NC(=O)CC[N@@H+]1[C@@H](C(=O)OCCOCCOCCOCCOC(=O)c2ccc(-c3c4nc(c(-c5cc(S(=O)(=O)[O-])ccc5F)c5ccc([nH]5)c(-c5cc(S(=O)(=O)[O-])ccc5F)c5nc(c(-c6cc(S(=O)(=O)[O-])ccc6F)c6ccc3[nH]6)C=C5)C=C4)cc2)CC[C@@H]2CCCC[C@H]21
REMARK SMILES IDX 16 1 15 2 14 3 13 4 12 5 11 6 10 7 8 8 9 9 7 10 6 11 95 12
REMARK SMILES IDX 88 14 90 15 94 16 89 17 91 18 93 19 92 20 5 21 4 22 2 23
REMARK SMILES IDX 1 24 3 27 17 28 18 29 19 30 20 31 21 32 22 33 23 34 24 35
REMARK SMILES IDX 25 36 26 37 87 38 27 39 86 40 28 41 29 42 30 43 80 44 31 45
REMARK SMILES IDX 85 46 79 47 81 48 32 49 84 50 78 51 77 52 33 54 65 55 45 56
REMARK SMILES IDX 64 57 46 58 49 59 63 60 82 61 47 62 48 63 62 65 83 66 50 67
REMARK SMILES IDX 34 68 35 69 43 70 36 71 42 72 44 73 41 74 37 75 38 76 39 77
REMARK SMILES IDX 40 78 66 79 67 80 75 81 68 82 74 83 76 84 73 85 69 86 70 87
REMARK SMILES IDX 71 88 72 89 51 90 52 91 60 92 53 93 59 94 61 95 58 96 54 97
REMARK SMILES IDX 55 98 56 99 57 100
REMARK H PARENT 6 13 1 25 1 26 81 53 49 64
REMARK Flexibility Score: inf
ROOT
ATOM      1  O   UNL A   1      41.884  38.970  27.341  1.00  0.00    -0.377 OA
ENDROOT
BRANCH   1   2
ATOM      2  C   UNL A   1      42.219  40.273  26.903  1.00  0.00     0.188 C 
BRANCH   2   3
ATOM      3  C   UNL A   1      41.327  40.915  25.832  1.00  0.00     0.188 C 
BRANCH   3   4
ATOM      4  O   UNL A   1      41.916  40.968  24.556  1.00  0.00    -0.376 OA
BRANCH   4   5
ATOM      5  C   UNL A   1      42.237  42.197  23.926  1.00  0.00     0.202 C 
BRANCH   5   6
ATOM      6  C   UNL A   1      41.371  42.930  22.875  1.00  0.00     0.261 C 
BRANCH   6   7
ATOM      7  O   UNL A   1      42.031  43.650  21.831  1.00  0.00    -0.459 OA
BRANCH   7   8
ATOM      8  C   UNL A   1      42.466  42.886  20.803  1.00  0.00     0.364 C 
ATOM      9  O   UNL A   1      42.761  41.702  20.955  1.00  0.00    -0.245 OA
BRANCH   8  10
ATOM     10  C   UNL A   1      42.335  43.577  19.409  1.00  0.00     0.295 C 
ATOM     11  N   UNL A   1      43.421  44.581  19.223  1.00  0.00    -0.320 N 
ATOM     12  C   UNL A   1      43.292  45.508  18.086  1.00  0.00     0.187 C 
ATOM     13  H   UNL A   1      43.274  45.175  20.039  1.00  0.00     0.349 HD
ATOM     14  C   UNL A   1      40.941  44.135  19.077  1.00  0.00     0.078 C 
ATOM     15  C   UNL A   1      41.852  45.906  17.682  1.00  0.00     0.048 C 
ATOM     16  C   UNL A   1      44.016  46.840  18.395  1.00  0.00     0.065 C 
ATOM     17  C   UNL A   1      40.933  44.703  17.657  1.00  0.00     0.016 C 
ATOM     18  C   UNL A   1      41.898  46.666  16.352  1.00  0.00     0.010 C 
ATOM     19  C   UNL A   1      44.065  47.732  17.154  1.00  0.00     0.006 C 
ATOM     20  C   UNL A   1      42.689  47.964  16.531  1.00  0.00     0.001 C 
BRANCH  11  21
ATOM     21  C   UNL A   1      44.796  44.009  19.316  1.00  0.00     0.273 C 
BRANCH  21  22
ATOM     22  C   UNL A   1      45.627  44.183  20.600  1.00  0.00     0.161 C 
BRANCH  22  23
ATOM     23  C   UNL A   1      46.417  42.952  20.965  1.00  0.00     0.223 C 
ATOM     24  N   UNL A   1      45.836  42.112  21.867  1.00  0.00    -0.369 N 
ATOM     25  H   UNL A   1      46.302  41.292  22.147  1.00  0.00     0.159 HD
ATOM     26  H   UNL A   1      44.949  42.326  22.239  1.00  0.00     0.159 HD
ATOM     27  O   UNL A   1      47.526  42.702  20.506  1.00  0.00    -0.275 OA
ENDBRANCH  22  23
ENDBRANCH  21  22
ENDBRANCH  11  21
ENDBRANCH   8  10
ENDBRANCH   7   8
ENDBRANCH   6   7
ENDBRANCH   5   6
ENDBRANCH   4   5
ENDBRANCH   3   4
ENDBRANCH   2   3
ENDBRANCH   1   2
BRANCH   1  28
ATOM     28  C   UNL A   1      42.639  37.840  26.913  1.00  0.00     0.188 C 
BRANCH  28  29
ATOM     29  C   UNL A   1      43.896  37.383  27.680  1.00  0.00     0.188 C 
BRANCH  29  30
ATOM     30  O   UNL A   1      45.120  37.850  27.140  1.00  0.00    -0.376 OA
BRANCH  30  31
ATOM     31  C   UNL A   1      45.762  38.926  27.804  1.00  0.00     0.202 C 
BRANCH  31  32
ATOM     32  C   UNL A   1      45.323  39.238  29.244  1.00  0.00     0.261 C 
BRANCH  32  33
ATOM     33  O   UNL A   1      46.140  38.708  30.304  1.00  0.00    -0.460 OA
BRANCH  33  34
ATOM     34  C   UNL A   1      46.061  39.285  31.522  1.00  0.00     0.338 C 
ATOM     35  O   UNL A   1      46.545  40.356  31.857  1.00  0.00    -0.246 OA
BRANCH  34  36
ATOM     36  C   UNL A   1      45.108  38.502  32.336  1.00  0.00     0.060 A 
ATOM     37  C   UNL A   1      43.924  39.110  32.778  1.00  0.00     0.016 A 
ATOM     38  C   UNL A   1      45.382  37.172  32.665  1.00  0.00     0.016 A 
ATOM     39  C   UNL A   1      43.031  38.403  33.585  1.00  0.00     0.010 A 
ATOM     40  C   UNL A   1      44.497  36.473  33.494  1.00  0.00     0.010 A 
ATOM     41  C   UNL A   1      43.338  37.097  33.989  1.00  0.00    -0.014 A 
BRANCH  41  42
ATOM     42  C   UNL A   1      42.570  36.470  35.095  1.00  0.00     0.031 A 
ATOM     43  C   UNL A   1      41.612  35.360  34.751  1.00  0.00     0.074 A 
ATOM     44  C   UNL A   1      42.735  36.849  36.376  1.00  0.00     0.049 A 
ATOM     45  N   UNL A   1      40.782  34.705  35.521  1.00  0.00    -0.248 NA
ATOM     46  C   UNL A   1      41.587  34.939  33.342  1.00  0.00     0.031 C 
ATOM     47  C   UNL A   1      43.675  37.866  36.842  1.00  0.00     0.029 A 
ATOM     48  N   UNL A   1      42.105  36.422  37.520  1.00  0.00    -0.354 N 
ATOM     49  C   UNL A   1      40.130  33.801  34.690  1.00  0.00     0.074 A 
ATOM     50  C   UNL A   1      40.634  34.021  33.351  1.00  0.00     0.031 C 
ATOM     51  C   UNL A   1      43.553  37.992  38.176  1.00  0.00     0.029 A 
ATOM     52  C   UNL A   1      42.495  37.100  38.651  1.00  0.00     0.049 A 
ATOM     53  H   UNL A   1      41.439  35.698  37.530  1.00  0.00     0.167 HD
ATOM     54  C   UNL A   1      39.203  32.867  35.014  1.00  0.00     0.034 A 
ATOM     55  C   UNL A   1      42.029  37.032  39.917  1.00  0.00     0.034 A 
ATOM     56  C   UNL A   1      38.701  32.669  36.352  1.00  0.00     0.049 A 
ATOM     57  C   UNL A   1      40.917  36.057  40.236  1.00  0.00     0.074 A 
ATOM     58  C   UNL A   1      37.768  31.748  36.793  1.00  0.00     0.029 A 
ATOM     59  N   UNL A   1      39.078  33.414  37.462  1.00  0.00    -0.354 N 
ATOM     60  N   UNL A   1      40.306  35.207  39.442  1.00  0.00    -0.248 NA
ATOM     61  C   UNL A   1      40.435  36.031  41.625  1.00  0.00     0.031 C 
ATOM     62  C   UNL A   1      37.516  31.993  38.147  1.00  0.00     0.029 A 
ATOM     63  C   UNL A   1      38.366  33.000  38.577  1.00  0.00     0.049 A 
ATOM     64  H   UNL A   1      39.753  34.131  37.458  1.00  0.00     0.167 HD
ATOM     65  C   UNL A   1      39.397  34.520  40.246  1.00  0.00     0.074 A 
ATOM     66  C   UNL A   1      39.549  35.047  41.586  1.00  0.00     0.031 C 
ATOM     67  C   UNL A   1      38.521  33.538  39.910  1.00  0.00     0.034 A 
BRANCH  54  68
ATOM     68  C   UNL A   1      38.630  32.036  33.890  1.00  0.00     0.023 A 
ATOM     69  C   UNL A   1      39.276  30.882  33.414  1.00  0.00     0.031 A 
ATOM     70  C   UNL A   1      37.432  32.424  33.264  1.00  0.00     0.131 A 
ATOM     71  C   UNL A   1      38.763  30.201  32.300  1.00  0.00     0.055 A 
ATOM     72  C   UNL A   1      36.878  31.690  32.213  1.00  0.00     0.041 A 
ATOM     73  F   UNL A   1      36.783  33.532  33.654  1.00  0.00    -0.206 F 
ATOM     74  C   UNL A   1      37.552  30.579  31.714  1.00  0.00     0.022 A 
BRANCH  71  75
ATOM     75  S   UNL A   1      39.776  28.907  31.532  1.00  0.00     0.124 S 
ATOM     76  O   UNL A   1      40.667  29.696  30.684  1.00  0.00    -0.237 OA
ATOM     77  O   UNL A   1      40.395  28.264  32.685  1.00  0.00    -0.237 OA
ATOM     78  O   UNL A   1      38.801  28.092  30.810  1.00  0.00    -0.744 OA
ENDBRANCH  71  75
ENDBRANCH  54  68
BRANCH  55  79
ATOM     79  C   UNL A   1      42.566  37.937  40.976  1.00  0.00     0.023 A 
ATOM     80  C   UNL A   1      42.031  39.220  41.178  1.00  0.00     0.031 A 
ATOM     81  C   UNL A   1      43.672  37.557  41.757  1.00  0.00     0.131 A 
ATOM     82  C   UNL A   1      42.633  40.092  42.100  1.00  0.00     0.055 A 
ATOM     83  C   UNL A   1      44.228  38.405  42.717  1.00  0.00     0.041 A 
ATOM     84  F   UNL A   1      44.231  36.345  41.601  1.00  0.00    -0.206 F 
ATOM     85  C   UNL A   1      43.717  39.687  42.882  1.00  0.00     0.022 A 
BRANCH  82  86
ATOM     86  S   UNL A   1      42.043  41.806  42.188  1.00  0.00     0.124 S 
ATOM     87  O   UNL A   1      40.794  41.727  41.439  1.00  0.00    -0.237 OA
ATOM     88  O   UNL A   1      41.917  42.008  43.627  1.00  0.00    -0.237 OA
ATOM     89  O   UNL A   1      43.111  42.567  41.544  1.00  0.00    -0.744 OA
ENDBRANCH  82  86
ENDBRANCH  55  79
BRANCH  67  90
ATOM     90  C   UNL A   1      37.699  32.926  41.023  1.00  0.00     0.023 A 
ATOM     91  C   UNL A   1      36.420  33.405  41.354  1.00  0.00     0.031 A 
ATOM     92  C   UNL A   1      38.210  31.844  41.763  1.00  0.00     0.131 A 
ATOM     93  C   UNL A   1      35.721  32.843  42.435  1.00  0.00     0.055 A 
ATOM     94  C   UNL A   1      37.481  31.242  42.790  1.00  0.00     0.041 A 
ATOM     95  F   UNL A   1      39.428  31.346  41.494  1.00  0.00    -0.206 F 
ATOM     96  C   UNL A   1      36.234  31.751  43.141  1.00  0.00     0.022 A 
BRANCH  93  97
ATOM     97  S   UNL A   1      34.176  33.624  42.976  1.00  0.00     0.124 S 
ATOM     98  O   UNL A   1      34.650  34.560  43.992  1.00  0.00    -0.237 OA
ATOM     99  O   UNL A   1      33.679  34.221  41.741  1.00  0.00    -0.237 OA
ATOM    100  O   UNL A   1      33.386  32.504  43.486  1.00  0.00    -0.744 OA
ENDBRANCH  93  97
ENDBRANCH  67  90
ENDBRANCH  41  42
ENDBRANCH  34  36
ENDBRANCH  33  34
ENDBRANCH  32  33
ENDBRANCH  31  32
ENDBRANCH  30  31
ENDBRANCH  29  30
ENDBRANCH  28  29
ENDBRANCH   1  28
TORSDOF 26
ENDMDL
