MODEL 1
REMARK VINA RESULT:      -7.6      0.000      0.000
REMARK SMILES COc1ccccc1[C@@H]1C[N@@H+](Cc2cn3cc(C)ccc3n2)C[C@H]1C(=O)OCCOCCOCCOCCOC(=O)c1ccc(-c2c3nc(c(-c4cc(S(=O)(=O)[O-])ccc4F)c4ccc([nH]4)c(-c4cc(S(=O)(=O)[O-])ccc4F)c4nc(c(-c5cc(S(=O)(=O)[O-])ccc5F)c5ccc2[nH]5)C=C4)C=C3)cc1
REMARK SMILES IDX 34 1 33 2 32 3 31 4 30 5 29 6 28 7 27 8 25 9 26 10 24 11
REMARK SMILES IDX 9 12 10 13 11 14 23 15 8 17 3 18 4 19 5 20 7 21 6 22 2 23
REMARK SMILES IDX 1 24 12 25 13 26 14 27 22 28 15 29 21 30 16 31 20 32 17 33
REMARK SMILES IDX 19 34 18 35 35 36 36 37 37 38 38 39 39 40 40 41 41 42 42 43
REMARK SMILES IDX 43 44 104 45 44 46 103 47 45 48 46 49 47 50 97 51 48 52
REMARK SMILES IDX 102 53 96 54 98 55 49 56 101 57 95 58 94 59 50 61 82 62
REMARK SMILES IDX 62 63 81 64 63 65 66 66 80 67 99 68 64 69 65 70 79 72 100 73
REMARK SMILES IDX 67 74 51 75 52 76 60 77 53 78 59 79 61 80 58 81 54 82 55 83
REMARK SMILES IDX 56 84 57 85 83 86 84 87 92 88 85 89 91 90 93 91 90 92 86 93
REMARK SMILES IDX 87 94 88 95 89 96 68 97 69 98 77 99 70 100 76 101 78 102
REMARK SMILES IDX 75 103 71 104 72 105 73 106 74 107
REMARK H PARENT 11 16 98 60 66 71
REMARK Flexibility Score: inf
ROOT
ATOM      1  C   UNL A   1      44.017  24.381  36.589  1.00  0.00     0.188 C 
ENDROOT
BRANCH   1   2
ATOM      2  O   UNL A   1      42.923  24.601  35.714  1.00  0.00    -0.377 OA
BRANCH   2   3
ATOM      3  C   UNL A   1      41.704  25.075  36.246  1.00  0.00     0.188 C 
BRANCH   3   4
ATOM      4  C   UNL A   1      41.736  26.302  37.173  1.00  0.00     0.188 C 
BRANCH   4   5
ATOM      5  O   UNL A   1      42.247  27.533  36.686  1.00  0.00    -0.376 OA
BRANCH   5   6
ATOM      6  C   UNL A   1      41.414  28.347  35.874  1.00  0.00     0.202 C 
BRANCH   6   7
ATOM      7  C   UNL A   1      41.390  29.861  36.105  1.00  0.00     0.261 C 
BRANCH   7   8
ATOM      8  O   UNL A   1      40.097  30.412  36.450  1.00  0.00    -0.463 OA
BRANCH   8   9
ATOM      9  C   UNL A   1      39.344  30.798  35.402  1.00  0.00     0.315 C 
ATOM     10  O   UNL A   1      38.740  29.994  34.685  1.00  0.00    -0.252 OA
BRANCH   9  11
ATOM     11  C   UNL A   1      39.218  32.281  35.090  1.00  0.00     0.167 C 
ATOM     12  C   UNL A   1      40.131  33.474  35.445  1.00  0.00     0.098 C 
ATOM     13  C   UNL A   1      39.974  34.391  34.223  1.00  0.00     0.272 C 
ATOM     14  N   UNL A   1      39.790  33.515  33.070  1.00  0.00    -0.329 N 
ATOM     15  C   UNL A   1      39.068  32.342  33.565  1.00  0.00     0.278 C 
ATOM     16  H   UNL A   1      39.250  33.996  32.350  1.00  0.00     0.348 HD
BRANCH  12  17
ATOM     17  C   UNL A   1      39.906  34.335  36.699  1.00  0.00     0.004 A 
ATOM     18  C   UNL A   1      40.537  35.556  36.992  1.00  0.00     0.122 A 
ATOM     19  C   UNL A   1      40.144  36.318  38.105  1.00  0.00     0.047 A 
ATOM     20  C   UNL A   1      39.207  35.815  39.012  1.00  0.00     0.004 A 
ATOM     21  C   UNL A   1      39.033  33.812  37.681  1.00  0.00     0.008 A 
ATOM     22  C   UNL A   1      38.702  34.533  38.831  1.00  0.00     0.001 A 
BRANCH  18  23
ATOM     23  O   UNL A   1      41.751  35.847  36.422  1.00  0.00    -0.496 OA
ATOM     24  C   UNL A   1      42.885  35.294  37.076  1.00  0.00     0.278 C 
ENDBRANCH  18  23
ENDBRANCH  12  17
BRANCH  14  25
ATOM     25  C   UNL A   1      41.024  33.193  32.338  1.00  0.00     0.321 C 
BRANCH  25  26
ATOM     26  C   UNL A   1      41.491  34.214  31.342  1.00  0.00     0.114 A 
ATOM     27  C   UNL A   1      40.922  34.539  30.124  1.00  0.00     0.122 A 
ATOM     28  N   UNL A   1      42.636  34.959  31.547  1.00  0.00    -0.228 NA
ATOM     29  N   UNL A   1      41.738  35.489  29.565  1.00  0.00    -0.306 N 
ATOM     30  C   UNL A   1      42.763  35.718  30.474  1.00  0.00     0.137 A 
ATOM     31  C   UNL A   1      41.648  36.113  28.322  1.00  0.00     0.096 A 
ATOM     32  C   UNL A   1      43.750  36.673  30.098  1.00  0.00     0.048 A 
ATOM     33  C   UNL A   1      42.602  36.988  27.946  1.00  0.00    -0.034 A 
ATOM     34  C   UNL A   1      43.680  37.275  28.894  1.00  0.00     0.009 A 
ATOM     35  C   UNL A   1      42.623  37.676  26.616  1.00  0.00     0.046 C 
ENDBRANCH  25  26
ENDBRANCH  14  25
ENDBRANCH   9  11
ENDBRANCH   8   9
ENDBRANCH   7   8
ENDBRANCH   6   7
ENDBRANCH   5   6
ENDBRANCH   4   5
ENDBRANCH   3   4
ENDBRANCH   2   3
ENDBRANCH   1   2
BRANCH   1  36
ATOM     36  C   UNL A   1      44.994  23.205  36.359  1.00  0.00     0.188 C 
BRANCH  36  37
ATOM     37  O   UNL A   1      45.206  22.825  35.004  1.00  0.00    -0.376 OA
BRANCH  37  38
ATOM     38  C   UNL A   1      46.249  23.410  34.239  1.00  0.00     0.202 C 
BRANCH  38  39
ATOM     39  C   UNL A   1      47.605  23.585  34.913  1.00  0.00     0.261 C 
BRANCH  39  40
ATOM     40  O   UNL A   1      48.106  24.904  34.870  1.00  0.00    -0.460 OA
BRANCH  40  41
ATOM     41  C   UNL A   1      47.701  25.714  35.861  1.00  0.00     0.338 C 
ATOM     42  O   UNL A   1      47.731  25.480  37.066  1.00  0.00    -0.246 OA
BRANCH  41  43
ATOM     43  C   UNL A   1      47.102  26.904  35.259  1.00  0.00     0.060 A 
ATOM     44  C   UNL A   1      45.747  27.087  35.527  1.00  0.00     0.016 A 
ATOM     45  C   UNL A   1      47.731  27.416  34.114  1.00  0.00     0.016 A 
ATOM     46  C   UNL A   1      44.950  27.442  34.472  1.00  0.00     0.010 A 
ATOM     47  C   UNL A   1      46.932  27.710  33.049  1.00  0.00     0.010 A 
ATOM     48  C   UNL A   1      45.556  27.605  33.223  1.00  0.00    -0.014 A 
BRANCH  48  49
ATOM     49  C   UNL A   1      44.714  27.723  32.063  1.00  0.00     0.031 A 
ATOM     50  C   UNL A   1      44.917  26.596  31.141  1.00  0.00     0.074 A 
ATOM     51  C   UNL A   1      43.786  28.688  31.943  1.00  0.00     0.049 A 
ATOM     52  N   UNL A   1      45.686  26.570  30.107  1.00  0.00    -0.248 NA
ATOM     53  C   UNL A   1      44.470  25.268  31.593  1.00  0.00     0.031 C 
ATOM     54  C   UNL A   1      43.326  29.660  32.938  1.00  0.00     0.029 A 
ATOM     55  N   UNL A   1      42.987  28.939  30.880  1.00  0.00    -0.354 N 
ATOM     56  C   UNL A   1      45.579  25.275  29.622  1.00  0.00     0.074 A 
ATOM     57  C   UNL A   1      45.121  24.490  30.730  1.00  0.00     0.031 C 
ATOM     58  C   UNL A   1      42.183  30.242  32.495  1.00  0.00     0.029 A 
ATOM     59  C   UNL A   1      41.917  29.787  31.138  1.00  0.00     0.049 A 
ATOM     60  H   UNL A   1      43.151  28.550  29.991  1.00  0.00     0.167 HD
ATOM     61  C   UNL A   1      45.539  25.033  28.283  1.00  0.00     0.034 A 
ATOM     62  C   UNL A   1      40.871  30.022  30.300  1.00  0.00     0.034 A 
ATOM     63  C   UNL A   1      45.972  26.210  27.550  1.00  0.00     0.049 A 
ATOM     64  C   UNL A   1      41.329  29.635  28.936  1.00  0.00     0.074 A 
ATOM     65  C   UNL A   1      47.143  26.939  27.487  1.00  0.00     0.029 A 
ATOM     66  N   UNL A   1      44.990  27.035  27.039  1.00  0.00    -0.354 N 
ATOM     67  N   UNL A   1      42.289  30.256  28.305  1.00  0.00    -0.248 NA
ATOM     68  C   UNL A   1      41.091  28.268  28.490  1.00  0.00     0.031 C 
ATOM     69  C   UNL A   1      46.731  28.300  27.374  1.00  0.00     0.029 A 
ATOM     70  C   UNL A   1      45.337  28.339  27.294  1.00  0.00     0.049 A 
ATOM     71  H   UNL A   1      44.177  26.738  26.570  1.00  0.00     0.167 HD
ATOM     72  C   UNL A   1      43.042  29.257  27.704  1.00  0.00     0.074 A 
ATOM     73  C   UNL A   1      42.199  28.064  27.766  1.00  0.00     0.031 C 
ATOM     74  C   UNL A   1      44.383  29.421  27.490  1.00  0.00     0.034 A 
BRANCH  61  75
ATOM     75  C   UNL A   1      44.712  23.937  27.636  1.00  0.00     0.023 A 
ATOM     76  C   UNL A   1      45.404  23.079  26.762  1.00  0.00     0.031 A 
ATOM     77  C   UNL A   1      43.302  23.831  27.595  1.00  0.00     0.131 A 
ATOM     78  C   UNL A   1      44.719  22.302  25.815  1.00  0.00     0.055 A 
ATOM     79  C   UNL A   1      42.624  23.015  26.686  1.00  0.00     0.041 A 
ATOM     80  F   UNL A   1      42.480  24.544  28.369  1.00  0.00    -0.206 F 
ATOM     81  C   UNL A   1      43.331  22.272  25.761  1.00  0.00     0.022 A 
BRANCH  78  82
ATOM     82  S   UNL A   1      45.692  21.472  24.538  1.00  0.00     0.124 S 
ATOM     83  O   UNL A   1      44.649  21.033  23.618  1.00  0.00    -0.237 OA
ATOM     84  O   UNL A   1      46.552  22.555  24.073  1.00  0.00    -0.237 OA
ATOM     85  O   UNL A   1      46.369  20.407  25.273  1.00  0.00    -0.744 OA
ENDBRANCH  78  82
ENDBRANCH  61  75
BRANCH  62  86
ATOM     86  C   UNL A   1      39.436  30.154  30.678  1.00  0.00     0.023 A 
ATOM     87  C   UNL A   1      38.640  31.265  30.320  1.00  0.00     0.031 A 
ATOM     88  C   UNL A   1      38.755  29.033  31.203  1.00  0.00     0.131 A 
ATOM     89  C   UNL A   1      37.235  31.221  30.492  1.00  0.00     0.055 A 
ATOM     90  C   UNL A   1      37.368  28.994  31.369  1.00  0.00     0.041 A 
ATOM     91  F   UNL A   1      39.409  27.898  31.495  1.00  0.00    -0.206 F 
ATOM     92  C   UNL A   1      36.600  30.087  31.004  1.00  0.00     0.022 A 
BRANCH  89  93
ATOM     93  S   UNL A   1      36.190  32.626  29.977  1.00  0.00     0.124 S 
ATOM     94  O   UNL A   1      36.665  33.700  30.841  1.00  0.00    -0.237 OA
ATOM     95  O   UNL A   1      36.503  32.745  28.558  1.00  0.00    -0.237 OA
ATOM     96  O   UNL A   1      34.830  32.164  30.264  1.00  0.00    -0.744 OA
ENDBRANCH  89  93
ENDBRANCH  62  86
BRANCH  74  97
ATOM     97  C   UNL A   1      44.957  30.817  27.644  1.00  0.00     0.023 A 
ATOM     98  C   UNL A   1      44.806  31.869  26.709  1.00  0.00     0.031 A 
ATOM     99  C   UNL A   1      45.587  31.116  28.864  1.00  0.00     0.131 A 
ATOM    100  C   UNL A   1      45.287  33.159  27.016  1.00  0.00     0.055 A 
ATOM    101  C   UNL A   1      46.042  32.397  29.172  1.00  0.00     0.041 A 
ATOM    102  F   UNL A   1      45.735  30.166  29.802  1.00  0.00    -0.206 F 
ATOM    103  C   UNL A   1      45.898  33.424  28.246  1.00  0.00     0.022 A 
BRANCH 100 104
ATOM    104  S   UNL A   1      45.136  34.524  25.816  1.00  0.00     0.124 S 
ATOM    105  O   UNL A   1      46.072  34.155  24.760  1.00  0.00    -0.237 OA
ATOM    106  O   UNL A   1      43.720  34.475  25.461  1.00  0.00    -0.237 OA
ATOM    107  O   UNL A   1      45.526  35.704  26.590  1.00  0.00    -0.744 OA
ENDBRANCH 100 104
ENDBRANCH  74  97
ENDBRANCH  48  49
ENDBRANCH  41  43
ENDBRANCH  40  41
ENDBRANCH  39  40
ENDBRANCH  38  39
ENDBRANCH  37  38
ENDBRANCH  36  37
ENDBRANCH   1  36
TORSDOF 27
ENDMDL
MODEL 2
REMARK VINA RESULT:      -7.2      3.438      9.017
REMARK SMILES COc1ccccc1[C@@H]1C[N@@H+](Cc2cn3cc(C)ccc3n2)C[C@H]1C(=O)OCCOCCOCCOCCOC(=O)c1ccc(-c2c3nc(c(-c4cc(S(=O)(=O)[O-])ccc4F)c4ccc([nH]4)c(-c4cc(S(=O)(=O)[O-])ccc4F)c4nc(c(-c5cc(S(=O)(=O)[O-])ccc5F)c5ccc2[nH]5)C=C4)C=C3)cc1
REMARK SMILES IDX 34 1 33 2 32 3 31 4 30 5 29 6 28 7 27 8 25 9 26 10 24 11
REMARK SMILES IDX 9 12 10 13 11 14 23 15 8 17 3 18 4 19 5 20 7 21 6 22 2 23
REMARK SMILES IDX 1 24 12 25 13 26 14 27 22 28 15 29 21 30 16 31 20 32 17 33
REMARK SMILES IDX 19 34 18 35 35 36 36 37 37 38 38 39 39 40 40 41 41 42 42 43
REMARK SMILES IDX 43 44 104 45 44 46 103 47 45 48 46 49 47 50 97 51 48 52
REMARK SMILES IDX 102 53 96 54 98 55 49 56 101 57 95 58 94 59 50 61 82 62
REMARK SMILES IDX 62 63 81 64 63 65 66 66 80 67 99 68 64 69 65 70 79 72 100 73
REMARK SMILES IDX 67 74 51 75 52 76 60 77 53 78 59 79 61 80 58 81 54 82 55 83
REMARK SMILES IDX 56 84 57 85 83 86 84 87 92 88 85 89 91 90 93 91 90 92 86 93
REMARK SMILES IDX 87 94 88 95 89 96 68 97 69 98 77 99 70 100 76 101 78 102
REMARK SMILES IDX 75 103 71 104 72 105 73 106 74 107
REMARK H PARENT 11 16 98 60 66 71
REMARK Flexibility Score: inf
ROOT
ATOM      1  C   UNL A   1      42.483  33.853  29.906  1.00  0.00     0.188 C 
ENDROOT
BRANCH   1   2
ATOM      2  O   UNL A   1      42.724  33.374  31.220  1.00  0.00    -0.377 OA
BRANCH   2   3
ATOM      3  C   UNL A   1      42.018  33.946  32.299  1.00  0.00     0.188 C 
BRANCH   3   4
ATOM      4  C   UNL A   1      42.822  34.543  33.467  1.00  0.00     0.188 C 
BRANCH   4   5
ATOM      5  O   UNL A   1      42.186  34.755  34.717  1.00  0.00    -0.376 OA
BRANCH   5   6
ATOM      6  C   UNL A   1      41.110  35.679  34.791  1.00  0.00     0.202 C 
BRANCH   6   7
ATOM      7  C   UNL A   1      39.779  35.234  35.405  1.00  0.00     0.261 C 
BRANCH   7   8
ATOM      8  O   UNL A   1      39.765  33.888  35.936  1.00  0.00    -0.463 OA
BRANCH   8   9
ATOM      9  C   UNL A   1      38.565  33.462  36.376  1.00  0.00     0.315 C 
ATOM     10  O   UNL A   1      38.119  33.763  37.488  1.00  0.00    -0.252 OA
BRANCH   9  11
ATOM     11  C   UNL A   1      37.713  32.587  35.469  1.00  0.00     0.167 C 
ATOM     12  C   UNL A   1      37.525  32.594  33.937  1.00  0.00     0.098 C 
ATOM     13  C   UNL A   1      37.329  31.104  33.617  1.00  0.00     0.272 C 
ATOM     14  N   UNL A   1      38.148  30.365  34.573  1.00  0.00    -0.329 N 
ATOM     15  C   UNL A   1      38.142  31.154  35.806  1.00  0.00     0.278 C 
ATOM     16  H   UNL A   1      37.748  29.440  34.732  1.00  0.00     0.348 HD
BRANCH  12  17
ATOM     17  C   UNL A   1      36.387  33.367  33.253  1.00  0.00     0.004 A 
ATOM     18  C   UNL A   1      36.116  33.399  31.873  1.00  0.00     0.122 A 
ATOM     19  C   UNL A   1      34.960  34.031  31.384  1.00  0.00     0.047 A 
ATOM     20  C   UNL A   1      34.126  34.746  32.247  1.00  0.00     0.004 A 
ATOM     21  C   UNL A   1      35.577  34.174  34.084  1.00  0.00     0.008 A 
ATOM     22  C   UNL A   1      34.473  34.871  33.586  1.00  0.00     0.001 A 
BRANCH  18  23
ATOM     23  O   UNL A   1      37.122  33.137  30.978  1.00  0.00    -0.496 OA
ATOM     24  C   UNL A   1      36.706  32.648  29.711  1.00  0.00     0.278 C 
ENDBRANCH  18  23
ENDBRANCH  12  17
BRANCH  14  25
ATOM     25  C   UNL A   1      39.493  30.018  34.091  1.00  0.00     0.321 C 
BRANCH  25  26
ATOM     26  C   UNL A   1      39.591  29.562  32.665  1.00  0.00     0.114 A 
ATOM     27  C   UNL A   1      40.071  30.266  31.575  1.00  0.00     0.122 A 
ATOM     28  N   UNL A   1      39.146  28.316  32.268  1.00  0.00    -0.228 NA
ATOM     29  N   UNL A   1      39.907  29.445  30.490  1.00  0.00    -0.306 N 
ATOM     30  C   UNL A   1      39.348  28.265  30.964  1.00  0.00     0.137 A 
ATOM     31  C   UNL A   1      40.180  29.690  29.145  1.00  0.00     0.096 A 
ATOM     32  C   UNL A   1      39.075  27.254  29.999  1.00  0.00     0.048 A 
ATOM     33  C   UNL A   1      39.886  28.751  28.225  1.00  0.00    -0.034 A 
ATOM     34  C   UNL A   1      39.325  27.483  28.694  1.00  0.00     0.009 A 
ATOM     35  C   UNL A   1      40.096  28.933  26.753  1.00  0.00     0.046 C 
ENDBRANCH  25  26
ENDBRANCH  14  25
ENDBRANCH   9  11
ENDBRANCH   8   9
ENDBRANCH   7   8
ENDBRANCH   6   7
ENDBRANCH   5   6
ENDBRANCH   4   5
ENDBRANCH   3   4
ENDBRANCH   2   3
ENDBRANCH   1   2
BRANCH   1  36
ATOM     36  C   UNL A   1      41.628  35.117  29.666  1.00  0.00     0.188 C 
BRANCH  36  37
ATOM     37  O   UNL A   1      41.772  35.736  28.393  1.00  0.00    -0.376 OA
BRANCH  37  38
ATOM     38  C   UNL A   1      42.896  36.553  28.102  1.00  0.00     0.202 C 
BRANCH  38  39
ATOM     39  C   UNL A   1      43.746  36.179  26.894  1.00  0.00     0.261 C 
BRANCH  39  40
ATOM     40  O   UNL A   1      44.987  35.590  27.219  1.00  0.00    -0.460 OA
BRANCH  40  41
ATOM     41  C   UNL A   1      45.351  34.543  26.461  1.00  0.00     0.338 C 
ATOM     42  O   UNL A   1      45.935  34.579  25.382  1.00  0.00    -0.246 OA
BRANCH  41  43
ATOM     43  C   UNL A   1      44.830  33.327  27.086  1.00  0.00     0.060 A 
ATOM     44  C   UNL A   1      45.386  33.011  28.323  1.00  0.00     0.016 A 
ATOM     45  C   UNL A   1      44.277  32.365  26.228  1.00  0.00     0.016 A 
ATOM     46  C   UNL A   1      45.736  31.703  28.528  1.00  0.00     0.010 A 
ATOM     47  C   UNL A   1      44.679  31.075  26.404  1.00  0.00     0.010 A 
ATOM     48  C   UNL A   1      45.497  30.795  27.494  1.00  0.00    -0.014 A 
BRANCH  48  49
ATOM     49  C   UNL A   1      46.083  29.485  27.584  1.00  0.00     0.031 A 
ATOM     50  C   UNL A   1      45.048  28.442  27.650  1.00  0.00     0.074 A 
ATOM     51  C   UNL A   1      47.408  29.281  27.487  1.00  0.00     0.049 A 
ATOM     52  N   UNL A   1      44.576  27.885  28.713  1.00  0.00    -0.248 NA
ATOM     53  C   UNL A   1      44.231  28.228  26.444  1.00  0.00     0.031 C 
ATOM     54  C   UNL A   1      48.467  30.226  27.128  1.00  0.00     0.029 A 
ATOM     55  N   UNL A   1      48.076  28.112  27.621  1.00  0.00    -0.354 N 
ATOM     56  C   UNL A   1      43.586  27.031  28.251  1.00  0.00     0.074 A 
ATOM     57  C   UNL A   1      43.218  27.534  26.961  1.00  0.00     0.031 C 
ATOM     58  C   UNL A   1      49.606  29.538  26.863  1.00  0.00     0.029 A 
ATOM     59  C   UNL A   1      49.390  28.132  27.169  1.00  0.00     0.049 A 
ATOM     60  H   UNL A   1      47.663  27.306  28.010  1.00  0.00     0.167 HD
ATOM     61  C   UNL A   1      43.411  25.801  28.809  1.00  0.00     0.034 A 
ATOM     62  C   UNL A   1      50.190  27.043  27.006  1.00  0.00     0.034 A 
ATOM     63  C   UNL A   1      44.112  25.725  30.078  1.00  0.00     0.049 A 
ATOM     64  C   UNL A   1      49.606  25.962  27.849  1.00  0.00     0.074 A 
ATOM     65  C   UNL A   1      44.020  26.397  31.281  1.00  0.00     0.029 A 
ATOM     66  N   UNL A   1      45.355  25.122  30.081  1.00  0.00    -0.354 N 
ATOM     67  N   UNL A   1      49.549  26.028  29.152  1.00  0.00    -0.248 NA
ATOM     68  C   UNL A   1      48.634  25.061  27.241  1.00  0.00     0.031 C 
ATOM     69  C   UNL A   1      45.366  26.542  31.733  1.00  0.00     0.029 A 
ATOM     70  C   UNL A   1      46.211  25.888  30.834  1.00  0.00     0.049 A 
ATOM     71  H   UNL A   1      45.588  24.285  29.620  1.00  0.00     0.167 HD
ATOM     72  C   UNL A   1      48.296  25.534  29.491  1.00  0.00     0.074 A 
ATOM     73  C   UNL A   1      47.821  24.859  28.285  1.00  0.00     0.031 C 
ATOM     74  C   UNL A   1      47.647  25.977  30.610  1.00  0.00     0.034 A 
BRANCH  61  75
ATOM     75  C   UNL A   1      43.003  24.561  28.036  1.00  0.00     0.023 A 
ATOM     76  C   UNL A   1      44.002  23.974  27.239  1.00  0.00     0.031 A 
ATOM     77  C   UNL A   1      41.692  24.079  27.809  1.00  0.00     0.131 A 
ATOM     78  C   UNL A   1      43.676  23.097  26.194  1.00  0.00     0.055 A 
ATOM     79  C   UNL A   1      41.378  23.164  26.801  1.00  0.00     0.041 A 
ATOM     80  F   UNL A   1      40.619  24.497  28.487  1.00  0.00    -0.206 F 
ATOM     81  C   UNL A   1      42.367  22.695  25.959  1.00  0.00     0.022 A 
BRANCH  78  82
ATOM     82  S   UNL A   1      44.985  22.637  25.036  1.00  0.00     0.124 S 
ATOM     83  O   UNL A   1      44.337  21.575  24.274  1.00  0.00    -0.237 OA
ATOM     84  O   UNL A   1      45.209  23.895  24.331  1.00  0.00    -0.237 OA
ATOM     85  O   UNL A   1      46.072  22.208  25.912  1.00  0.00    -0.744 OA
ENDBRANCH  78  82
ENDBRANCH  61  75
BRANCH  62  86
ATOM     86  C   UNL A   1      51.135  26.789  25.883  1.00  0.00     0.023 A 
ATOM     87  C   UNL A   1      50.783  26.947  24.525  1.00  0.00     0.031 A 
ATOM     88  C   UNL A   1      52.510  26.618  26.163  1.00  0.00     0.131 A 
ATOM     89  C   UNL A   1      51.784  26.930  23.522  1.00  0.00     0.055 A 
ATOM     90  C   UNL A   1      53.492  26.605  25.170  1.00  0.00     0.041 A 
ATOM     91  F   UNL A   1      52.957  26.543  27.427  1.00  0.00    -0.206 F 
ATOM     92  C   UNL A   1      53.133  26.771  23.843  1.00  0.00     0.022 A 
BRANCH  89  93
ATOM     93  S   UNL A   1      51.349  27.195  21.769  1.00  0.00     0.124 S 
ATOM     94  O   UNL A   1      49.959  26.757  21.725  1.00  0.00    -0.237 OA
ATOM     95  O   UNL A   1      51.586  28.623  21.600  1.00  0.00    -0.237 OA
ATOM     96  O   UNL A   1      52.287  26.331  21.050  1.00  0.00    -0.744 OA
ENDBRANCH  89  93
ENDBRANCH  62  86
BRANCH  74  97
ATOM     97  C   UNL A   1      48.446  26.783  31.618  1.00  0.00     0.023 A 
ATOM     98  C   UNL A   1      48.611  28.188  31.593  1.00  0.00     0.031 A 
ATOM     99  C   UNL A   1      48.963  26.086  32.724  1.00  0.00     0.131 A 
ATOM    100  C   UNL A   1      49.280  28.838  32.650  1.00  0.00     0.055 A 
ATOM    101  C   UNL A   1      49.606  26.735  33.777  1.00  0.00     0.041 A 
ATOM    102  F   UNL A   1      48.814  24.755  32.819  1.00  0.00    -0.206 F 
ATOM    103  C   UNL A   1      49.772  28.115  33.742  1.00  0.00     0.022 A 
BRANCH 100 104
ATOM    104  S   UNL A   1      49.537  30.644  32.625  1.00  0.00     0.124 S 
ATOM    105  O   UNL A   1      49.676  30.949  31.206  1.00  0.00    -0.237 OA
ATOM    106  O   UNL A   1      48.325  31.143  33.271  1.00  0.00    -0.237 OA
ATOM    107  O   UNL A   1      50.760  30.826  33.409  1.00  0.00    -0.744 OA
ENDBRANCH 100 104
ENDBRANCH  74  97
ENDBRANCH  48  49
ENDBRANCH  41  43
ENDBRANCH  40  41
ENDBRANCH  39  40
ENDBRANCH  38  39
ENDBRANCH  37  38
ENDBRANCH  36  37
ENDBRANCH   1  36
TORSDOF 27
ENDMDL
MODEL 3
REMARK VINA RESULT:      -7.2      5.198     10.339
REMARK SMILES COc1ccccc1[C@@H]1C[N@@H+](Cc2cn3cc(C)ccc3n2)C[C@H]1C(=O)OCCOCCOCCOCCOC(=O)c1ccc(-c2c3nc(c(-c4cc(S(=O)(=O)[O-])ccc4F)c4ccc([nH]4)c(-c4cc(S(=O)(=O)[O-])ccc4F)c4nc(c(-c5cc(S(=O)(=O)[O-])ccc5F)c5ccc2[nH]5)C=C4)C=C3)cc1
REMARK SMILES IDX 34 1 33 2 32 3 31 4 30 5 29 6 28 7 27 8 25 9 26 10 24 11
REMARK SMILES IDX 9 12 10 13 11 14 23 15 8 17 3 18 4 19 5 20 7 21 6 22 2 23
REMARK SMILES IDX 1 24 12 25 13 26 14 27 22 28 15 29 21 30 16 31 20 32 17 33
REMARK SMILES IDX 19 34 18 35 35 36 36 37 37 38 38 39 39 40 40 41 41 42 42 43
REMARK SMILES IDX 43 44 104 45 44 46 103 47 45 48 46 49 47 50 97 51 48 52
REMARK SMILES IDX 102 53 96 54 98 55 49 56 101 57 95 58 94 59 50 61 82 62
REMARK SMILES IDX 62 63 81 64 63 65 66 66 80 67 99 68 64 69 65 70 79 72 100 73
REMARK SMILES IDX 67 74 51 75 52 76 60 77 53 78 59 79 61 80 58 81 54 82 55 83
REMARK SMILES IDX 56 84 57 85 83 86 84 87 92 88 85 89 91 90 93 91 90 92 86 93
REMARK SMILES IDX 87 94 88 95 89 96 68 97 69 98 77 99 70 100 76 101 78 102
REMARK SMILES IDX 75 103 71 104 72 105 73 106 74 107
REMARK H PARENT 11 16 98 60 66 71
REMARK Flexibility Score: inf
ROOT
ATOM      1  C   UNL A   1      56.085  24.624  34.363  1.00  0.00     0.188 C 
ENDROOT
BRANCH   1   2
ATOM      2  O   UNL A   1      55.969  24.250  35.726  1.00  0.00    -0.377 OA
BRANCH   2   3
ATOM      3  C   UNL A   1      55.774  22.891  36.051  1.00  0.00     0.188 C 
BRANCH   3   4
ATOM      4  C   UNL A   1      54.564  22.159  35.447  1.00  0.00     0.188 C 
BRANCH   4   5
ATOM      5  O   UNL A   1      54.653  21.625  34.135  1.00  0.00    -0.376 OA
BRANCH   5   6
ATOM      6  C   UNL A   1      53.681  22.008  33.173  1.00  0.00     0.202 C 
BRANCH   6   7
ATOM      7  C   UNL A   1      52.418  21.158  33.002  1.00  0.00     0.261 C 
BRANCH   7   8
ATOM      8  O   UNL A   1      51.453  21.267  34.074  1.00  0.00    -0.463 OA
BRANCH   8   9
ATOM      9  C   UNL A   1      51.259  20.138  34.784  1.00  0.00     0.315 C 
ATOM     10  O   UNL A   1      52.127  19.266  34.894  1.00  0.00    -0.252 OA
BRANCH   9  11
ATOM     11  C   UNL A   1      49.928  19.928  35.489  1.00  0.00     0.167 C 
ATOM     12  C   UNL A   1      49.333  20.587  36.751  1.00  0.00     0.098 C 
ATOM     13  C   UNL A   1      47.832  20.633  36.429  1.00  0.00     0.272 C 
ATOM     14  N   UNL A   1      47.725  20.836  34.987  1.00  0.00    -0.329 N 
ATOM     15  C   UNL A   1      48.875  20.150  34.396  1.00  0.00     0.278 C 
ATOM     16  H   UNL A   1      46.850  20.438  34.644  1.00  0.00     0.348 HD
BRANCH  12  17
ATOM     17  C   UNL A   1      49.486  19.968  38.150  1.00  0.00     0.004 A 
ATOM     18  C   UNL A   1      48.713  20.275  39.283  1.00  0.00     0.122 A 
ATOM     19  C   UNL A   1      48.858  19.539  40.472  1.00  0.00     0.047 A 
ATOM     20  C   UNL A   1      49.860  18.573  40.587  1.00  0.00     0.004 A 
ATOM     21  C   UNL A   1      50.549  19.052  38.328  1.00  0.00     0.008 A 
ATOM     22  C   UNL A   1      50.747  18.378  39.535  1.00  0.00     0.001 A 
BRANCH  18  23
ATOM     23  O   UNL A   1      48.079  21.489  39.363  1.00  0.00    -0.496 OA
ATOM     24  C   UNL A   1      46.712  21.445  39.746  1.00  0.00     0.278 C 
ENDBRANCH  18  23
ENDBRANCH  12  17
BRANCH  14  25
ATOM     25  C   UNL A   1      47.587  22.239  34.572  1.00  0.00     0.321 C 
BRANCH  25  26
ATOM     26  C   UNL A   1      46.297  22.915  34.934  1.00  0.00     0.114 A 
ATOM     27  C   UNL A   1      46.077  23.864  35.916  1.00  0.00     0.122 A 
ATOM     28  N   UNL A   1      45.111  22.606  34.296  1.00  0.00    -0.228 NA
ATOM     29  N   UNL A   1      44.733  24.133  35.890  1.00  0.00    -0.306 N 
ATOM     30  C   UNL A   1      44.189  23.349  34.880  1.00  0.00     0.137 A 
ATOM     31  C   UNL A   1      43.983  24.976  36.708  1.00  0.00     0.096 A 
ATOM     32  C   UNL A   1      42.784  23.456  34.674  1.00  0.00     0.048 A 
ATOM     33  C   UNL A   1      42.648  25.050  36.542  1.00  0.00    -0.034 A 
ATOM     34  C   UNL A   1      42.046  24.260  35.466  1.00  0.00     0.009 A 
ATOM     35  C   UNL A   1      41.747  25.887  37.397  1.00  0.00     0.046 C 
ENDBRANCH  25  26
ENDBRANCH  14  25
ENDBRANCH   9  11
ENDBRANCH   8   9
ENDBRANCH   7   8
ENDBRANCH   6   7
ENDBRANCH   5   6
ENDBRANCH   4   5
ENDBRANCH   3   4
ENDBRANCH   2   3
ENDBRANCH   1   2
BRANCH   1  36
ATOM     36  C   UNL A   1      55.765  26.065  33.904  1.00  0.00     0.188 C 
BRANCH  36  37
ATOM     37  O   UNL A   1      55.356  26.213  32.550  1.00  0.00    -0.376 OA
BRANCH  37  38
ATOM     38  C   UNL A   1      54.621  27.353  32.132  1.00  0.00     0.202 C 
BRANCH  38  39
ATOM     39  C   UNL A   1      53.353  27.696  32.904  1.00  0.00     0.261 C 
BRANCH  39  40
ATOM     40  O   UNL A   1      52.191  27.053  32.424  1.00  0.00    -0.460 OA
BRANCH  40  41
ATOM     41  C   UNL A   1      51.802  25.966  33.110  1.00  0.00     0.338 C 
ATOM     42  O   UNL A   1      52.348  25.481  34.098  1.00  0.00    -0.246 OA
BRANCH  41  43
ATOM     43  C   UNL A   1      50.663  25.372  32.412  1.00  0.00     0.060 A 
ATOM     44  C   UNL A   1      50.914  24.967  31.104  1.00  0.00     0.016 A 
ATOM     45  C   UNL A   1      49.386  25.732  32.870  1.00  0.00     0.016 A 
ATOM     46  C   UNL A   1      49.972  25.292  30.164  1.00  0.00     0.010 A 
ATOM     47  C   UNL A   1      48.476  26.111  31.929  1.00  0.00     0.010 A 
ATOM     48  C   UNL A   1      48.838  25.986  30.592  1.00  0.00    -0.014 A 
BRANCH  48  49
ATOM     49  C   UNL A   1      47.969  26.558  29.598  1.00  0.00     0.031 A 
ATOM     50  C   UNL A   1      46.790  25.708  29.370  1.00  0.00     0.074 A 
ATOM     51  C   UNL A   1      48.183  27.774  29.068  1.00  0.00     0.049 A 
ATOM     52  N   UNL A   1      46.639  24.825  28.442  1.00  0.00    -0.248 NA
ATOM     53  C   UNL A   1      45.815  25.601  30.468  1.00  0.00     0.031 C 
ATOM     54  C   UNL A   1      49.160  28.795  29.457  1.00  0.00     0.029 A 
ATOM     55  N   UNL A   1      47.479  28.384  28.087  1.00  0.00    -0.354 N 
ATOM     56  C   UNL A   1      45.400  24.257  28.697  1.00  0.00     0.074 A 
ATOM     57  C   UNL A   1      45.135  24.523  30.080  1.00  0.00     0.031 C 
ATOM     58  C   UNL A   1      48.834  29.970  28.862  1.00  0.00     0.029 A 
ATOM     59  C   UNL A   1      47.721  29.746  27.951  1.00  0.00     0.049 A 
ATOM     60  H   UNL A   1      46.842  27.901  27.513  1.00  0.00     0.167 HD
ATOM     61  C   UNL A   1      44.560  23.933  27.676  1.00  0.00     0.034 A 
ATOM     62  C   UNL A   1      46.996  30.609  27.188  1.00  0.00     0.034 A 
ATOM     63  C   UNL A   1      45.281  23.932  26.416  1.00  0.00     0.049 A 
ATOM     64  C   UNL A   1      46.273  29.778  26.186  1.00  0.00     0.074 A 
ATOM     65  C   UNL A   1      46.344  23.214  25.906  1.00  0.00     0.029 A 
ATOM     66  N   UNL A   1      45.179  25.060  25.627  1.00  0.00    -0.354 N 
ATOM     67  N   UNL A   1      46.884  29.090  25.258  1.00  0.00    -0.248 NA
ATOM     68  C   UNL A   1      44.937  29.300  26.519  1.00  0.00     0.031 C 
ATOM     69  C   UNL A   1      47.099  24.153  25.142  1.00  0.00     0.029 A 
ATOM     70  C   UNL A   1      46.429  25.378  25.154  1.00  0.00     0.049 A 
ATOM     71  H   UNL A   1      44.350  25.554  25.436  1.00  0.00     0.167 HD
ATOM     72  C   UNL A   1      46.215  27.874  25.201  1.00  0.00     0.074 A 
ATOM     73  C   UNL A   1      44.964  28.101  25.923  1.00  0.00     0.031 C 
ATOM     74  C   UNL A   1      46.868  26.729  24.837  1.00  0.00     0.034 A 
BRANCH  61  75
ATOM     75  C   UNL A   1      43.048  24.052  27.742  1.00  0.00     0.023 A 
ATOM     76  C   UNL A   1      42.326  22.867  27.514  1.00  0.00     0.031 A 
ATOM     77  C   UNL A   1      42.276  25.238  27.742  1.00  0.00     0.131 A 
ATOM     78  C   UNL A   1      40.970  22.901  27.154  1.00  0.00     0.055 A 
ATOM     79  C   UNL A   1      40.913  25.262  27.435  1.00  0.00     0.041 A 
ATOM     80  F   UNL A   1      42.781  26.453  27.967  1.00  0.00    -0.206 F 
ATOM     81  C   UNL A   1      40.258  24.093  27.101  1.00  0.00     0.022 A 
BRANCH  78  82
ATOM     82  S   UNL A   1      40.207  21.366  26.582  1.00  0.00     0.124 S 
ATOM     83  O   UNL A   1      38.867  21.821  26.231  1.00  0.00    -0.237 OA
ATOM     84  O   UNL A   1      41.079  21.001  25.470  1.00  0.00    -0.237 OA
ATOM     85  O   UNL A   1      40.288  20.496  27.753  1.00  0.00    -0.744 OA
ENDBRANCH  78  82
ENDBRANCH  61  75
BRANCH  62  86
ATOM     86  C   UNL A   1      46.594  31.997  27.548  1.00  0.00     0.023 A 
ATOM     87  C   UNL A   1      45.534  32.292  28.433  1.00  0.00     0.031 A 
ATOM     88  C   UNL A   1      47.440  33.074  27.196  1.00  0.00     0.131 A 
ATOM     89  C   UNL A   1      45.359  33.609  28.924  1.00  0.00     0.055 A 
ATOM     90  C   UNL A   1      47.264  34.370  27.685  1.00  0.00     0.041 A 
ATOM     91  F   UNL A   1      48.524  32.882  26.428  1.00  0.00    -0.206 F 
ATOM     92  C   UNL A   1      46.226  34.642  28.560  1.00  0.00     0.022 A 
BRANCH  89  93
ATOM     93  S   UNL A   1      44.031  33.989  30.117  1.00  0.00     0.124 S 
ATOM     94  O   UNL A   1      44.415  33.190  31.274  1.00  0.00    -0.237 OA
ATOM     95  O   UNL A   1      44.143  35.435  30.259  1.00  0.00    -0.237 OA
ATOM     96  O   UNL A   1      42.818  33.535  29.434  1.00  0.00    -0.744 OA
ENDBRANCH  89  93
ENDBRANCH  62  86
BRANCH  74  97
ATOM     97  C   UNL A   1      48.245  26.870  24.214  1.00  0.00     0.023 A 
ATOM     98  C   UNL A   1      48.506  27.372  22.917  1.00  0.00     0.031 A 
ATOM     99  C   UNL A   1      49.349  26.588  25.037  1.00  0.00     0.131 A 
ATOM    100  C   UNL A   1      49.836  27.565  22.490  1.00  0.00     0.055 A 
ATOM    101  C   UNL A   1      50.662  26.799  24.619  1.00  0.00     0.041 A 
ATOM    102  F   UNL A   1      49.165  26.135  26.288  1.00  0.00    -0.206 F 
ATOM    103  C   UNL A   1      50.911  27.284  23.341  1.00  0.00     0.022 A 
BRANCH 100 104
ATOM    104  S   UNL A   1      50.201  28.178  20.811  1.00  0.00     0.124 S 
ATOM    105  O   UNL A   1      51.636  27.961  20.673  1.00  0.00    -0.237 OA
ATOM    106  O   UNL A   1      49.344  27.339  19.977  1.00  0.00    -0.237 OA
ATOM    107  O   UNL A   1      49.801  29.585  20.867  1.00  0.00    -0.744 OA
ENDBRANCH 100 104
ENDBRANCH  74  97
ENDBRANCH  48  49
ENDBRANCH  41  43
ENDBRANCH  40  41
ENDBRANCH  39  40
ENDBRANCH  38  39
ENDBRANCH  37  38
ENDBRANCH  36  37
ENDBRANCH   1  36
TORSDOF 27
ENDMDL
