MODEL 1
REMARK VINA RESULT:     -10.3      0.000      0.000
REMARK SMILES O=C(OCCOCCOCCOCCOC(=O)[C@@H]1CC2(CC[NH+](C(=O)C3(c4ccccc4F)CC3)CC2)C[NH2+]1)c1ccc(-c2c3nc(c(-c4cc(S(=O)(=O)[O-])ccc4F)c4ccc([nH]4)c(-c4cc(S(=O)(=O)[O-])ccc4F)c4nc(c(-c5cc(S(=O)(=O)[O-])ccc5F)c5ccc2[nH]5)C=C4)C=C3)cc1
REMARK SMILES IDX 9 1 8 2 7 3 6 4 5 5 4 6 3 7 2 8 1 9 40 10 41 11 102 12 42 13
REMARK SMILES IDX 101 14 43 15 44 16 45 17 95 18 46 19 100 20 94 21 96 22
REMARK SMILES IDX 47 23 99 24 93 25 92 26 48 28 80 29 60 30 79 31 61 32 64 33
REMARK SMILES IDX 78 34 97 35 62 36 63 37 77 39 98 40 65 41 49 42 50 43 58 44
REMARK SMILES IDX 51 45 57 46 59 47 56 48 52 49 53 50 54 51 55 52 81 53 82 54
REMARK SMILES IDX 90 55 83 56 89 57 91 58 88 59 84 60 85 61 86 62 87 63 66 64
REMARK SMILES IDX 67 65 75 66 68 67 74 68 76 69 73 70 69 71 70 72 71 73 72 74
REMARK SMILES IDX 10 75 11 76 12 77 13 78 14 79 15 80 16 81 17 82 18 83 19 84
REMARK SMILES IDX 39 85 20 86 38 87 21 90 37 91 22 92 36 93 23 94 24 96 25 97
REMARK SMILES IDX 26 98 34 99 35 100 27 101 28 102 32 103 29 104 31 105 33 106
REMARK SMILES IDX 30 107
REMARK H PARENT 96 27 64 38 39 88 39 89 23 95
REMARK Flexibility Score: inf
ROOT
ATOM      1  O   UNL A   1      34.314  30.413  26.753  1.00  0.00    -0.377 OA
ENDROOT
BRANCH   1   2
ATOM      2  C   UNL A   1      34.841  30.821  28.008  1.00  0.00     0.188 C 
BRANCH   2   3
ATOM      3  C   UNL A   1      35.171  32.309  28.109  1.00  0.00     0.188 C 
BRANCH   3   4
ATOM      4  O   UNL A   1      33.989  33.095  28.099  1.00  0.00    -0.376 OA
BRANCH   4   5
ATOM      5  C   UNL A   1      34.065  34.497  27.872  1.00  0.00     0.202 C 
BRANCH   5   6
ATOM      6  C   UNL A   1      33.205  35.398  28.761  1.00  0.00     0.261 C 
BRANCH   6   7
ATOM      7  O   UNL A   1      32.811  34.824  30.022  1.00  0.00    -0.460 OA
BRANCH   7   8
ATOM      8  C   UNL A   1      33.475  34.814  31.207  1.00  0.00     0.338 C 
ATOM      9  O   UNL A   1      33.059  35.514  32.127  1.00  0.00    -0.246 OA
BRANCH   8  10
ATOM     10  C   UNL A   1      34.696  33.998  31.441  1.00  0.00     0.060 A 
ATOM     11  C   UNL A   1      34.671  32.698  31.922  1.00  0.00     0.016 A 
ATOM     12  C   UNL A   1      35.939  34.530  31.082  1.00  0.00     0.016 A 
ATOM     13  C   UNL A   1      35.812  32.018  32.265  1.00  0.00     0.010 A 
ATOM     14  C   UNL A   1      37.112  33.799  31.303  1.00  0.00     0.010 A 
ATOM     15  C   UNL A   1      37.046  32.560  31.956  1.00  0.00    -0.014 A 
BRANCH  15  16
ATOM     16  C   UNL A   1      38.212  31.855  32.505  1.00  0.00     0.031 A 
ATOM     17  C   UNL A   1      38.910  30.881  31.608  1.00  0.00     0.074 A 
ATOM     18  C   UNL A   1      38.752  32.273  33.667  1.00  0.00     0.049 A 
ATOM     19  N   UNL A   1      39.942  30.127  31.855  1.00  0.00    -0.248 NA
ATOM     20  C   UNL A   1      38.382  30.752  30.236  1.00  0.00     0.031 C 
ATOM     21  C   UNL A   1      38.232  33.373  34.492  1.00  0.00     0.029 A 
ATOM     22  N   UNL A   1      39.888  31.885  34.320  1.00  0.00    -0.354 N 
ATOM     23  C   UNL A   1      40.156  29.401  30.690  1.00  0.00     0.074 A 
ATOM     24  C   UNL A   1      39.148  29.797  29.736  1.00  0.00     0.031 C 
ATOM     25  C   UNL A   1      39.083  33.608  35.501  1.00  0.00     0.029 A 
ATOM     26  C   UNL A   1      40.139  32.606  35.464  1.00  0.00     0.049 A 
ATOM     27  H   UNL A   1      40.472  31.159  34.001  1.00  0.00     0.167 HD
ATOM     28  C   UNL A   1      41.113  28.476  30.459  1.00  0.00     0.034 A 
ATOM     29  C   UNL A   1      41.090  32.435  36.402  1.00  0.00     0.034 A 
ATOM     30  C   UNL A   1      42.100  28.132  31.446  1.00  0.00     0.049 A 
ATOM     31  C   UNL A   1      42.051  31.297  36.196  1.00  0.00     0.074 A 
ATOM     32  C   UNL A   1      43.071  27.153  31.394  1.00  0.00     0.029 A 
ATOM     33  N   UNL A   1      42.233  28.773  32.675  1.00  0.00    -0.354 N 
ATOM     34  N   UNL A   1      42.156  30.493  35.161  1.00  0.00    -0.248 NA
ATOM     35  C   UNL A   1      42.996  31.015  37.281  1.00  0.00     0.031 C 
ATOM     36  C   UNL A   1      43.742  27.153  32.620  1.00  0.00     0.029 A 
ATOM     37  C   UNL A   1      43.248  28.188  33.405  1.00  0.00     0.049 A 
ATOM     38  H   UNL A   1      41.684  29.531  32.978  1.00  0.00     0.167 HD
ATOM     39  C   UNL A   1      43.187  29.615  35.461  1.00  0.00     0.074 A 
ATOM     40  C   UNL A   1      43.672  29.989  36.778  1.00  0.00     0.031 C 
ATOM     41  C   UNL A   1      43.691  28.598  34.718  1.00  0.00     0.034 A 
BRANCH  28  42
ATOM     42  C   UNL A   1      41.034  27.719  29.161  1.00  0.00     0.023 A 
ATOM     43  C   UNL A   1      41.909  27.969  28.090  1.00  0.00     0.031 A 
ATOM     44  C   UNL A   1      39.993  26.794  28.964  1.00  0.00     0.131 A 
ATOM     45  C   UNL A   1      41.686  27.351  26.850  1.00  0.00     0.055 A 
ATOM     46  C   UNL A   1      39.821  26.127  27.750  1.00  0.00     0.041 A 
ATOM     47  F   UNL A   1      39.104  26.549  29.939  1.00  0.00    -0.206 F 
ATOM     48  C   UNL A   1      40.662  26.414  26.680  1.00  0.00     0.022 A 
BRANCH  45  49
ATOM     49  S   UNL A   1      42.665  27.886  25.419  1.00  0.00     0.124 S 
ATOM     50  O   UNL A   1      42.620  26.696  24.570  1.00  0.00    -0.237 OA
ATOM     51  O   UNL A   1      41.919  29.042  24.936  1.00  0.00    -0.237 OA
ATOM     52  O   UNL A   1      43.976  28.186  25.992  1.00  0.00    -0.744 OA
ENDBRANCH  45  49
ENDBRANCH  28  42
BRANCH  29  53
ATOM     53  C   UNL A   1      41.092  33.284  37.626  1.00  0.00     0.023 A 
ATOM     54  C   UNL A   1      40.360  32.935  38.770  1.00  0.00     0.031 A 
ATOM     55  C   UNL A   1      41.879  34.453  37.679  1.00  0.00     0.131 A 
ATOM     56  C   UNL A   1      40.430  33.745  39.918  1.00  0.00     0.055 A 
ATOM     57  C   UNL A   1      41.976  35.231  38.833  1.00  0.00     0.041 A 
ATOM     58  F   UNL A   1      42.603  34.834  36.614  1.00  0.00    -0.206 F 
ATOM     59  C   UNL A   1      41.245  34.881  39.962  1.00  0.00     0.022 A 
BRANCH  56  60
ATOM     60  S   UNL A   1      39.428  33.309  41.367  1.00  0.00     0.124 S 
ATOM     61  O   UNL A   1      38.097  33.726  40.942  1.00  0.00    -0.237 OA
ATOM     62  O   UNL A   1      39.651  31.871  41.471  1.00  0.00    -0.237 OA
ATOM     63  O   UNL A   1      40.017  34.106  42.441  1.00  0.00    -0.744 OA
ENDBRANCH  56  60
ENDBRANCH  29  53
BRANCH  41  64
ATOM     64  C   UNL A   1      44.853  27.840  35.291  1.00  0.00     0.023 A 
ATOM     65  C   UNL A   1      44.670  26.624  35.966  1.00  0.00     0.031 A 
ATOM     66  C   UNL A   1      46.162  28.288  35.045  1.00  0.00     0.131 A 
ATOM     67  C   UNL A   1      45.790  25.893  36.380  1.00  0.00     0.055 A 
ATOM     68  C   UNL A   1      47.272  27.534  35.419  1.00  0.00     0.041 A 
ATOM     69  F   UNL A   1      46.377  29.443  34.394  1.00  0.00    -0.206 F 
ATOM     70  C   UNL A   1      47.088  26.328  36.090  1.00  0.00     0.022 A 
BRANCH  67  71
ATOM     71  S   UNL A   1      45.532  24.357  37.306  1.00  0.00     0.124 S 
ATOM     72  O   UNL A   1      45.109  24.860  38.610  1.00  0.00    -0.237 OA
ATOM     73  O   UNL A   1      44.505  23.681  36.521  1.00  0.00    -0.237 OA
ATOM     74  O   UNL A   1      46.847  23.719  37.284  1.00  0.00    -0.744 OA
ENDBRANCH  67  71
ENDBRANCH  41  64
ENDBRANCH  15  16
ENDBRANCH   8  10
ENDBRANCH   7   8
ENDBRANCH   6   7
ENDBRANCH   5   6
ENDBRANCH   4   5
ENDBRANCH   3   4
ENDBRANCH   2   3
ENDBRANCH   1   2
BRANCH   1  75
ATOM     75  C   UNL A   1      33.425  29.301  26.788  1.00  0.00     0.188 C 
BRANCH  75  76
ATOM     76  C   UNL A   1      31.972  29.461  26.243  1.00  0.00     0.188 C 
BRANCH  76  77
ATOM     77  O   UNL A   1      31.885  29.625  24.837  1.00  0.00    -0.376 OA
BRANCH  77  78
ATOM     78  C   UNL A   1      30.562  29.779  24.329  1.00  0.00     0.202 C 
BRANCH  78  79
ATOM     79  C   UNL A   1      30.428  29.841  22.797  1.00  0.00     0.261 C 
BRANCH  79  80
ATOM     80  O   UNL A   1      29.839  28.667  22.193  1.00  0.00    -0.459 OA
BRANCH  80  81
ATOM     81  C   UNL A   1      30.255  27.438  22.586  1.00  0.00     0.364 C 
ATOM     82  O   UNL A   1      29.712  26.784  23.471  1.00  0.00    -0.245 OA
BRANCH  81  83
ATOM     83  C   UNL A   1      31.505  26.993  21.764  1.00  0.00     0.294 C 
ATOM     84  C   UNL A   1      31.921  25.519  21.836  1.00  0.00     0.090 C 
ATOM     85  N   UNL A   1      32.740  27.630  22.270  1.00  0.00    -0.334 N 
ATOM     86  C   UNL A   1      32.760  25.370  23.112  1.00  0.00     0.036 C 
ATOM     87  C   UNL A   1      33.146  26.827  23.434  1.00  0.00     0.268 C 
ATOM     88  H   UNL A   1      32.555  28.594  22.548  1.00  0.00     0.347 HD
ATOM     89  H   UNL A   1      33.469  27.660  21.558  1.00  0.00     0.347 HD
ATOM     90  C   UNL A   1      34.013  24.500  22.865  1.00  0.00     0.075 C 
ATOM     91  C   UNL A   1      31.927  24.739  24.254  1.00  0.00     0.075 C 
ATOM     92  C   UNL A   1      33.713  23.003  22.737  1.00  0.00     0.271 C 
ATOM     93  C   UNL A   1      31.666  23.246  24.037  1.00  0.00     0.271 C 
ATOM     94  N   UNL A   1      32.933  22.528  23.867  1.00  0.00    -0.271 N 
ATOM     95  H   UNL A   1      32.789  23.147  23.116  1.00  0.00     0.356 HD
BRANCH  94  96
ATOM     96  C   UNL A   1      33.239  21.575  24.848  1.00  0.00     0.322 C 
ATOM     97  O   UNL A   1      32.918  20.402  24.641  1.00  0.00    -0.230 OA
BRANCH  96  98
ATOM     98  C   UNL A   1      33.942  21.842  26.186  1.00  0.00     0.113 C 
ATOM     99  C   UNL A   1      33.354  22.399  27.476  1.00  0.00     0.028 C 
ATOM    100  C   UNL A   1      33.553  20.922  27.343  1.00  0.00     0.028 C 
BRANCH  98 101
ATOM    101  C   UNL A   1      35.436  22.206  25.992  1.00  0.00     0.007 A 
ATOM    102  C   UNL A   1      35.901  23.516  26.214  1.00  0.00     0.008 A 
ATOM    103  C   UNL A   1      36.351  21.286  25.452  1.00  0.00     0.127 A 
ATOM    104  C   UNL A   1      37.202  23.894  25.867  1.00  0.00     0.001 A 
ATOM    105  C   UNL A   1      37.642  21.659  25.083  1.00  0.00     0.039 A 
ATOM    106  F   UNL A   1      35.969  20.016  25.247  1.00  0.00    -0.207 F 
ATOM    107  C   UNL A   1      38.065  22.970  25.283  1.00  0.00     0.003 A 
ENDBRANCH  98 101
ENDBRANCH  96  98
ENDBRANCH  94  96
ENDBRANCH  81  83
ENDBRANCH  80  81
ENDBRANCH  79  80
ENDBRANCH  78  79
ENDBRANCH  77  78
ENDBRANCH  76  77
ENDBRANCH  75  76
ENDBRANCH   1  75
TORSDOF 26
ENDMDL
MODEL 2
REMARK VINA RESULT:      -8.6      1.884      2.437
REMARK SMILES O=C(OCCOCCOCCOCCOC(=O)[C@@H]1CC2(CC[NH+](C(=O)C3(c4ccccc4F)CC3)CC2)C[NH2+]1)c1ccc(-c2c3nc(c(-c4cc(S(=O)(=O)[O-])ccc4F)c4ccc([nH]4)c(-c4cc(S(=O)(=O)[O-])ccc4F)c4nc(c(-c5cc(S(=O)(=O)[O-])ccc5F)c5ccc2[nH]5)C=C4)C=C3)cc1
REMARK SMILES IDX 9 1 8 2 7 3 6 4 5 5 4 6 3 7 2 8 1 9 40 10 41 11 102 12 42 13
REMARK SMILES IDX 101 14 43 15 44 16 45 17 95 18 46 19 100 20 94 21 96 22
REMARK SMILES IDX 47 23 99 24 93 25 92 26 48 28 80 29 60 30 79 31 61 32 64 33
REMARK SMILES IDX 78 34 97 35 62 36 63 37 77 39 98 40 65 41 49 42 50 43 58 44
REMARK SMILES IDX 51 45 57 46 59 47 56 48 52 49 53 50 54 51 55 52 81 53 82 54
REMARK SMILES IDX 90 55 83 56 89 57 91 58 88 59 84 60 85 61 86 62 87 63 66 64
REMARK SMILES IDX 67 65 75 66 68 67 74 68 76 69 73 70 69 71 70 72 71 73 72 74
REMARK SMILES IDX 10 75 11 76 12 77 13 78 14 79 15 80 16 81 17 82 18 83 19 84
REMARK SMILES IDX 39 85 20 86 38 87 21 90 37 91 22 92 36 93 23 94 24 96 25 97
REMARK SMILES IDX 26 98 34 99 35 100 27 101 28 102 32 103 29 104 31 105 33 106
REMARK SMILES IDX 30 107
REMARK H PARENT 96 27 64 38 39 88 39 89 23 95
REMARK Flexibility Score: inf
ROOT
ATOM      1  O   UNL A   1      35.530  31.629  27.282  1.00  0.00    -0.377 OA
ENDROOT
BRANCH   1   2
ATOM      2  C   UNL A   1      36.251  32.100  28.412  1.00  0.00     0.188 C 
BRANCH   2   3
ATOM      3  C   UNL A   1      35.896  33.518  28.852  1.00  0.00     0.188 C 
BRANCH   3   4
ATOM      4  O   UNL A   1      34.750  33.994  28.164  1.00  0.00    -0.376 OA
BRANCH   4   5
ATOM      5  C   UNL A   1      34.359  35.356  28.282  1.00  0.00     0.202 C 
BRANCH   5   6
ATOM      6  C   UNL A   1      33.115  35.658  29.121  1.00  0.00     0.261 C 
BRANCH   6   7
ATOM      7  O   UNL A   1      32.843  34.717  30.178  1.00  0.00    -0.460 OA
BRANCH   7   8
ATOM      8  C   UNL A   1      33.281  34.717  31.464  1.00  0.00     0.338 C 
ATOM      9  O   UNL A   1      32.563  35.201  32.336  1.00  0.00    -0.246 OA
BRANCH   8  10
ATOM     10  C   UNL A   1      34.602  34.164  31.866  1.00  0.00     0.060 A 
ATOM     11  C   UNL A   1      34.813  32.832  32.185  1.00  0.00     0.016 A 
ATOM     12  C   UNL A   1      35.718  35.008  31.845  1.00  0.00     0.016 A 
ATOM     13  C   UNL A   1      36.003  32.375  32.691  1.00  0.00     0.010 A 
ATOM     14  C   UNL A   1      36.974  34.529  32.234  1.00  0.00     0.010 A 
ATOM     15  C   UNL A   1      37.099  33.219  32.717  1.00  0.00    -0.014 A 
BRANCH  15  16
ATOM     16  C   UNL A   1      38.282  32.712  33.426  1.00  0.00     0.031 A 
ATOM     17  C   UNL A   1      39.329  32.024  32.607  1.00  0.00     0.074 A 
ATOM     18  C   UNL A   1      38.501  33.086  34.702  1.00  0.00     0.049 A 
ATOM     19  N   UNL A   1      40.447  31.478  32.989  1.00  0.00    -0.248 NA
ATOM     20  C   UNL A   1      39.091  31.958  31.152  1.00  0.00     0.031 C 
ATOM     21  C   UNL A   1      37.608  33.942  35.496  1.00  0.00     0.029 A 
ATOM     22  N   UNL A   1      39.564  32.867  35.532  1.00  0.00    -0.354 N 
ATOM     23  C   UNL A   1      41.021  30.963  31.834  1.00  0.00     0.074 A 
ATOM     24  C   UNL A   1      40.131  31.254  30.736  1.00  0.00     0.031 C 
ATOM     25  C   UNL A   1      38.193  34.223  36.669  1.00  0.00     0.029 A 
ATOM     26  C   UNL A   1      39.440  33.477  36.758  1.00  0.00     0.049 A 
ATOM     27  H   UNL A   1      40.345  32.324  35.275  1.00  0.00     0.167 HD
ATOM     28  C   UNL A   1      42.190  30.295  31.721  1.00  0.00     0.034 A 
ATOM     29  C   UNL A   1      40.227  33.394  37.847  1.00  0.00     0.034 A 
ATOM     30  C   UNL A   1      43.042  30.046  32.851  1.00  0.00     0.049 A 
ATOM     31  C   UNL A   1      41.444  32.518  37.742  1.00  0.00     0.074 A 
ATOM     32  C   UNL A   1      44.205  29.306  32.911  1.00  0.00     0.029 A 
ATOM     33  N   UNL A   1      42.809  30.543  34.131  1.00  0.00    -0.354 N 
ATOM     34  N   UNL A   1      41.909  31.888  36.686  1.00  0.00    -0.248 NA
ATOM     35  C   UNL A   1      42.225  32.308  38.965  1.00  0.00     0.031 C 
ATOM     36  C   UNL A   1      44.635  29.295  34.242  1.00  0.00     0.029 A 
ATOM     37  C   UNL A   1      43.788  30.098  34.997  1.00  0.00     0.049 A 
ATOM     38  H   UNL A   1      42.057  31.126  34.381  1.00  0.00     0.167 HD
ATOM     39  C   UNL A   1      43.045  31.215  37.110  1.00  0.00     0.074 A 
ATOM     40  C   UNL A   1      43.196  31.516  38.523  1.00  0.00     0.031 C 
ATOM     41  C   UNL A   1      43.890  30.426  36.400  1.00  0.00     0.034 A 
BRANCH  28  42
ATOM     42  C   UNL A   1      42.513  29.705  30.376  1.00  0.00     0.023 A 
ATOM     43  C   UNL A   1      42.082  28.422  29.995  1.00  0.00     0.031 A 
ATOM     44  C   UNL A   1      43.353  30.409  29.495  1.00  0.00     0.131 A 
ATOM     45  C   UNL A   1      42.549  27.857  28.797  1.00  0.00     0.055 A 
ATOM     46  C   UNL A   1      43.754  29.872  28.271  1.00  0.00     0.041 A 
ATOM     47  F   UNL A   1      43.827  31.621  29.827  1.00  0.00    -0.206 F 
ATOM     48  C   UNL A   1      43.362  28.583  27.922  1.00  0.00     0.022 A 
BRANCH  45  49
ATOM     49  S   UNL A   1      42.191  26.112  28.457  1.00  0.00     0.124 S 
ATOM     50  O   UNL A   1      40.848  25.971  29.018  1.00  0.00    -0.237 OA
ATOM     51  O   UNL A   1      42.283  26.045  27.003  1.00  0.00    -0.237 OA
ATOM     52  O   UNL A   1      43.240  25.397  29.181  1.00  0.00    -0.744 OA
ENDBRANCH  45  49
ENDBRANCH  28  42
BRANCH  29  53
ATOM     53  C   UNL A   1      39.822  34.067  39.113  1.00  0.00     0.023 A 
ATOM     54  C   UNL A   1      38.865  33.509  39.975  1.00  0.00     0.031 A 
ATOM     55  C   UNL A   1      40.433  35.276  39.504  1.00  0.00     0.131 A 
ATOM     56  C   UNL A   1      38.549  34.159  41.181  1.00  0.00     0.055 A 
ATOM     57  C   UNL A   1      40.145  35.896  40.720  1.00  0.00     0.041 A 
ATOM     58  F   UNL A   1      41.358  35.854  38.720  1.00  0.00    -0.206 F 
ATOM     59  C   UNL A   1      39.194  35.338  41.566  1.00  0.00     0.022 A 
BRANCH  56  60
ATOM     60  S   UNL A   1      37.266  33.452  42.252  1.00  0.00     0.124 S 
ATOM     61  O   UNL A   1      36.368  32.845  41.276  1.00  0.00    -0.237 OA
ATOM     62  O   UNL A   1      38.033  32.531  43.082  1.00  0.00    -0.237 OA
ATOM     63  O   UNL A   1      36.728  34.616  42.954  1.00  0.00    -0.744 OA
ENDBRANCH  56  60
ENDBRANCH  29  53
BRANCH  41  64
ATOM     64  C   UNL A   1      45.077  29.864  37.127  1.00  0.00     0.023 A 
ATOM     65  C   UNL A   1      45.014  28.623  37.777  1.00  0.00     0.031 A 
ATOM     66  C   UNL A   1      46.313  30.529  37.055  1.00  0.00     0.131 A 
ATOM     67  C   UNL A   1      46.176  28.082  38.340  1.00  0.00     0.055 A 
ATOM     68  C   UNL A   1      47.474  29.965  37.577  1.00  0.00     0.041 A 
ATOM     69  F   UNL A   1      46.415  31.715  36.432  1.00  0.00    -0.206 F 
ATOM     70  C   UNL A   1      47.409  28.733  38.224  1.00  0.00     0.022 A 
BRANCH  67  71
ATOM     71  S   UNL A   1      46.060  26.509  39.231  1.00  0.00     0.124 S 
ATOM     72  O   UNL A   1      46.575  26.871  40.548  1.00  0.00    -0.237 OA
ATOM     73  O   UNL A   1      44.634  26.210  39.165  1.00  0.00    -0.237 OA
ATOM     74  O   UNL A   1      46.916  25.613  38.455  1.00  0.00    -0.744 OA
ENDBRANCH  67  71
ENDBRANCH  41  64
ENDBRANCH  15  16
ENDBRANCH   8  10
ENDBRANCH   7   8
ENDBRANCH   6   7
ENDBRANCH   5   6
ENDBRANCH   4   5
ENDBRANCH   3   4
ENDBRANCH   2   3
ENDBRANCH   1   2
BRANCH   1  75
ATOM     75  C   UNL A   1      34.726  30.474  27.498  1.00  0.00     0.188 C 
BRANCH  75  76
ATOM     76  C   UNL A   1      33.175  30.621  27.571  1.00  0.00     0.188 C 
BRANCH  76  77
ATOM     77  O   UNL A   1      32.532  30.720  26.310  1.00  0.00    -0.376 OA
BRANCH  77  78
ATOM     78  C   UNL A   1      31.465  29.799  26.103  1.00  0.00     0.202 C 
BRANCH  78  79
ATOM     79  C   UNL A   1      30.853  29.775  24.692  1.00  0.00     0.261 C 
BRANCH  79  80
ATOM     80  O   UNL A   1      31.050  28.541  23.966  1.00  0.00    -0.459 OA
BRANCH  80  81
ATOM     81  C   UNL A   1      32.083  28.442  23.092  1.00  0.00     0.364 C 
ATOM     82  O   UNL A   1      33.096  29.132  23.151  1.00  0.00    -0.245 OA
BRANCH  81  83
ATOM     83  C   UNL A   1      31.791  27.346  22.020  1.00  0.00     0.294 C 
ATOM     84  C   UNL A   1      31.356  25.961  22.515  1.00  0.00     0.090 C 
ATOM     85  N   UNL A   1      33.014  26.977  21.276  1.00  0.00    -0.334 N 
ATOM     86  C   UNL A   1      32.645  25.207  22.873  1.00  0.00     0.036 C 
ATOM     87  C   UNL A   1      33.728  26.025  22.142  1.00  0.00     0.268 C 
ATOM     88  H   UNL A   1      33.588  27.802  21.103  1.00  0.00     0.347 HD
ATOM     89  H   UNL A   1      32.795  26.571  20.367  1.00  0.00     0.347 HD
ATOM     90  C   UNL A   1      32.606  23.749  22.364  1.00  0.00     0.075 C 
ATOM     91  C   UNL A   1      32.877  25.200  24.403  1.00  0.00     0.075 C 
ATOM     92  C   UNL A   1      31.692  22.831  23.183  1.00  0.00     0.271 C 
ATOM     93  C   UNL A   1      31.914  24.266  25.141  1.00  0.00     0.271 C 
ATOM     94  N   UNL A   1      32.010  22.907  24.600  1.00  0.00    -0.271 N 
ATOM     95  H   UNL A   1      31.647  23.519  23.920  1.00  0.00     0.356 HD
BRANCH  94  96
ATOM     96  C   UNL A   1      32.469  21.921  25.483  1.00  0.00     0.322 C 
ATOM     97  O   UNL A   1      31.874  20.841  25.512  1.00  0.00    -0.230 OA
BRANCH  96  98
ATOM     98  C   UNL A   1      33.657  22.047  26.447  1.00  0.00     0.113 C 
ATOM     99  C   UNL A   1      33.737  22.800  27.769  1.00  0.00     0.028 C 
ATOM    100  C   UNL A   1      33.516  21.320  27.784  1.00  0.00     0.028 C 
BRANCH  98 101
ATOM    101  C   UNL A   1      35.015  21.981  25.703  1.00  0.00     0.007 A 
ATOM    102  C   UNL A   1      35.505  20.766  25.185  1.00  0.00     0.008 A 
ATOM    103  C   UNL A   1      35.873  23.093  25.642  1.00  0.00     0.127 A 
ATOM    104  C   UNL A   1      36.803  20.663  24.678  1.00  0.00     0.001 A 
ATOM    105  C   UNL A   1      37.176  22.994  25.159  1.00  0.00     0.039 A 
ATOM    106  F   UNL A   1      35.447  24.283  26.094  1.00  0.00    -0.207 F 
ATOM    107  C   UNL A   1      37.646  21.772  24.684  1.00  0.00     0.003 A 
ENDBRANCH  98 101
ENDBRANCH  96  98
ENDBRANCH  94  96
ENDBRANCH  81  83
ENDBRANCH  80  81
ENDBRANCH  79  80
ENDBRANCH  78  79
ENDBRANCH  77  78
ENDBRANCH  76  77
ENDBRANCH  75  76
ENDBRANCH   1  75
TORSDOF 26
ENDMDL
MODEL 3
REMARK VINA RESULT:      -8.3      6.554     12.420
REMARK SMILES O=C(OCCOCCOCCOCCOC(=O)[C@@H]1CC2(CC[NH+](C(=O)C3(c4ccccc4F)CC3)CC2)C[NH2+]1)c1ccc(-c2c3nc(c(-c4cc(S(=O)(=O)[O-])ccc4F)c4ccc([nH]4)c(-c4cc(S(=O)(=O)[O-])ccc4F)c4nc(c(-c5cc(S(=O)(=O)[O-])ccc5F)c5ccc2[nH]5)C=C4)C=C3)cc1
REMARK SMILES IDX 9 1 8 2 7 3 6 4 5 5 4 6 3 7 2 8 1 9 40 10 41 11 102 12 42 13
REMARK SMILES IDX 101 14 43 15 44 16 45 17 95 18 46 19 100 20 94 21 96 22
REMARK SMILES IDX 47 23 99 24 93 25 92 26 48 28 80 29 60 30 79 31 61 32 64 33
REMARK SMILES IDX 78 34 97 35 62 36 63 37 77 39 98 40 65 41 49 42 50 43 58 44
REMARK SMILES IDX 51 45 57 46 59 47 56 48 52 49 53 50 54 51 55 52 81 53 82 54
REMARK SMILES IDX 90 55 83 56 89 57 91 58 88 59 84 60 85 61 86 62 87 63 66 64
REMARK SMILES IDX 67 65 75 66 68 67 74 68 76 69 73 70 69 71 70 72 71 73 72 74
REMARK SMILES IDX 10 75 11 76 12 77 13 78 14 79 15 80 16 81 17 82 18 83 19 84
REMARK SMILES IDX 39 85 20 86 38 87 21 90 37 91 22 92 36 93 23 94 24 96 25 97
REMARK SMILES IDX 26 98 34 99 35 100 27 101 28 102 32 103 29 104 31 105 33 106
REMARK SMILES IDX 30 107
REMARK H PARENT 96 27 64 38 39 88 39 89 23 95
REMARK Flexibility Score: inf
ROOT
ATOM      1  O   UNL A   1      34.527  22.554  25.484  1.00  0.00    -0.377 OA
ENDROOT
BRANCH   1   2
ATOM      2  C   UNL A   1      35.866  23.027  25.527  1.00  0.00     0.188 C 
BRANCH   2   3
ATOM      3  C   UNL A   1      36.914  21.955  25.814  1.00  0.00     0.188 C 
BRANCH   3   4
ATOM      4  O   UNL A   1      38.215  22.408  25.471  1.00  0.00    -0.376 OA
BRANCH   4   5
ATOM      5  C   UNL A   1      39.071  22.949  26.469  1.00  0.00     0.202 C 
BRANCH   5   6
ATOM      6  C   UNL A   1      40.283  22.110  26.882  1.00  0.00     0.261 C 
BRANCH   6   7
ATOM      7  O   UNL A   1      41.182  21.761  25.812  1.00  0.00    -0.460 OA
BRANCH   7   8
ATOM      8  C   UNL A   1      42.525  21.943  25.723  1.00  0.00     0.338 C 
ATOM      9  O   UNL A   1      43.227  21.013  25.332  1.00  0.00    -0.246 OA
BRANCH   8  10
ATOM     10  C   UNL A   1      43.192  23.221  26.090  1.00  0.00     0.060 A 
ATOM     11  C   UNL A   1      43.031  24.403  25.382  1.00  0.00     0.016 A 
ATOM     12  C   UNL A   1      43.959  23.268  27.258  1.00  0.00     0.016 A 
ATOM     13  C   UNL A   1      43.766  25.529  25.653  1.00  0.00     0.010 A 
ATOM     14  C   UNL A   1      44.616  24.448  27.627  1.00  0.00     0.010 A 
ATOM     15  C   UNL A   1      44.564  25.564  26.781  1.00  0.00    -0.014 A 
BRANCH  15  16
ATOM     16  C   UNL A   1      45.444  26.735  26.907  1.00  0.00     0.031 A 
ATOM     17  C   UNL A   1      45.006  27.825  27.835  1.00  0.00     0.074 A 
ATOM     18  C   UNL A   1      46.691  26.684  26.399  1.00  0.00     0.049 A 
ATOM     19  N   UNL A   1      45.588  28.957  28.109  1.00  0.00    -0.248 NA
ATOM     20  C   UNL A   1      43.746  27.600  28.569  1.00  0.00     0.031 C 
ATOM     21  C   UNL A   1      47.255  25.547  25.658  1.00  0.00     0.029 A 
ATOM     22  N   UNL A   1      47.733  27.564  26.488  1.00  0.00    -0.354 N 
ATOM     23  C   UNL A   1      44.744  29.598  29.007  1.00  0.00     0.074 A 
ATOM     24  C   UNL A   1      43.608  28.737  29.231  1.00  0.00     0.031 C 
ATOM     25  C   UNL A   1      48.554  25.777  25.419  1.00  0.00     0.029 A 
ATOM     26  C   UNL A   1      48.884  27.117  25.880  1.00  0.00     0.049 A 
ATOM     27  H   UNL A   1      47.666  28.434  26.943  1.00  0.00     0.167 HD
ATOM     28  C   UNL A   1      44.915  30.811  29.577  1.00  0.00     0.034 A 
ATOM     29  C   UNL A   1      50.055  27.750  25.679  1.00  0.00     0.034 A 
ATOM     30  C   UNL A   1      46.076  31.619  29.325  1.00  0.00     0.049 A 
ATOM     31  C   UNL A   1      50.164  29.159  26.191  1.00  0.00     0.074 A 
ATOM     32  C   UNL A   1      46.346  32.902  29.752  1.00  0.00     0.029 A 
ATOM     33  N   UNL A   1      47.167  31.204  28.566  1.00  0.00    -0.354 N 
ATOM     34  N   UNL A   1      49.296  29.838  26.908  1.00  0.00    -0.248 NA
ATOM     35  C   UNL A   1      51.380  29.903  25.848  1.00  0.00     0.031 C 
ATOM     36  C   UNL A   1      47.567  33.291  29.192  1.00  0.00     0.029 A 
ATOM     37  C   UNL A   1      48.100  32.220  28.484  1.00  0.00     0.049 A 
ATOM     38  H   UNL A   1      47.260  30.318  28.149  1.00  0.00     0.167 HD
ATOM     39  C   UNL A   1      49.863  31.086  27.115  1.00  0.00     0.074 A 
ATOM     40  C   UNL A   1      51.151  31.067  26.445  1.00  0.00     0.031 C 
ATOM     41  C   UNL A   1      49.370  32.149  27.799  1.00  0.00     0.034 A 
BRANCH  28  42
ATOM     42  C   UNL A   1      43.775  31.347  30.399  1.00  0.00     0.023 A 
ATOM     43  C   UNL A   1      43.613  31.029  31.759  1.00  0.00     0.031 A 
ATOM     44  C   UNL A   1      42.776  32.117  29.776  1.00  0.00     0.131 A 
ATOM     45  C   UNL A   1      42.446  31.421  32.432  1.00  0.00     0.055 A 
ATOM     46  C   UNL A   1      41.653  32.567  30.470  1.00  0.00     0.041 A 
ATOM     47  F   UNL A   1      42.859  32.414  28.470  1.00  0.00    -0.206 F 
ATOM     48  C   UNL A   1      41.476  32.209  31.803  1.00  0.00     0.022 A 
BRANCH  45  49
ATOM     49  S   UNL A   1      42.142  30.779  34.101  1.00  0.00     0.124 S 
ATOM     50  O   UNL A   1      41.685  31.979  34.800  1.00  0.00    -0.237 OA
ATOM     51  O   UNL A   1      41.132  29.753  33.870  1.00  0.00    -0.237 OA
ATOM     52  O   UNL A   1      43.450  30.280  34.522  1.00  0.00    -0.744 OA
ENDBRANCH  45  49
ENDBRANCH  28  42
BRANCH  29  53
ATOM     53  C   UNL A   1      51.131  27.091  24.886  1.00  0.00     0.023 A 
ATOM     54  C   UNL A   1      51.294  27.334  23.514  1.00  0.00     0.031 A 
ATOM     55  C   UNL A   1      52.053  26.231  25.516  1.00  0.00     0.131 A 
ATOM     56  C   UNL A   1      52.354  26.724  22.819  1.00  0.00     0.055 A 
ATOM     57  C   UNL A   1      53.126  25.660  24.830  1.00  0.00     0.041 A 
ATOM     58  F   UNL A   1      51.947  25.965  26.828  1.00  0.00    -0.206 F 
ATOM     59  C   UNL A   1      53.279  25.903  23.471  1.00  0.00     0.022 A 
BRANCH  56  60
ATOM     60  S   UNL A   1      52.511  27.004  21.033  1.00  0.00     0.124 S 
ATOM     61  O   UNL A   1      52.233  28.432  20.932  1.00  0.00    -0.237 OA
ATOM     62  O   UNL A   1      53.889  26.597  20.779  1.00  0.00    -0.237 OA
ATOM     63  O   UNL A   1      51.491  26.129  20.459  1.00  0.00    -0.744 OA
ENDBRANCH  56  60
ENDBRANCH  29  53
BRANCH  41  64
ATOM     64  C   UNL A   1      50.241  33.368  27.894  1.00  0.00     0.023 A 
ATOM     65  C   UNL A   1      50.122  34.424  26.979  1.00  0.00     0.031 A 
ATOM     66  C   UNL A   1      51.111  33.514  28.988  1.00  0.00     0.131 A 
ATOM     67  C   UNL A   1      50.871  35.590  27.175  1.00  0.00     0.055 A 
ATOM     68  C   UNL A   1      51.818  34.695  29.202  1.00  0.00     0.041 A 
ATOM     69  F   UNL A   1      51.245  32.528  29.890  1.00  0.00    -0.206 F 
ATOM     70  C   UNL A   1      51.699  35.742  28.292  1.00  0.00     0.022 A 
BRANCH  67  71
ATOM     71  S   UNL A   1      50.749  36.918  25.947  1.00  0.00     0.124 S 
ATOM     72  O   UNL A   1      49.768  37.807  26.562  1.00  0.00    -0.237 OA
ATOM     73  O   UNL A   1      52.117  37.423  25.889  1.00  0.00    -0.237 OA
ATOM     74  O   UNL A   1      50.293  36.228  24.742  1.00  0.00    -0.744 OA
ENDBRANCH  67  71
ENDBRANCH  41  64
ENDBRANCH  15  16
ENDBRANCH   8  10
ENDBRANCH   7   8
ENDBRANCH   6   7
ENDBRANCH   5   6
ENDBRANCH   4   5
ENDBRANCH   3   4
ENDBRANCH   2   3
ENDBRANCH   1   2
BRANCH   1  75
ATOM     75  C   UNL A   1      33.643  23.110  26.453  1.00  0.00     0.188 C 
BRANCH  75  76
ATOM     76  C   UNL A   1      32.221  23.577  26.017  1.00  0.00     0.188 C 
BRANCH  76  77
ATOM     77  O   UNL A   1      31.835  23.157  24.718  1.00  0.00    -0.376 OA
BRANCH  77  78
ATOM     78  C   UNL A   1      31.605  24.212  23.787  1.00  0.00     0.202 C 
BRANCH  78  79
ATOM     79  C   UNL A   1      31.124  25.547  24.382  1.00  0.00     0.261 C 
BRANCH  79  80
ATOM     80  O   UNL A   1      31.593  26.725  23.687  1.00  0.00    -0.459 OA
BRANCH  80  81
ATOM     81  C   UNL A   1      32.693  27.373  24.145  1.00  0.00     0.364 C 
ATOM     82  O   UNL A   1      33.784  26.835  24.307  1.00  0.00    -0.245 OA
BRANCH  81  83
ATOM     83  C   UNL A   1      32.365  28.870  24.436  1.00  0.00     0.294 C 
ATOM     84  C   UNL A   1      33.416  29.700  25.183  1.00  0.00     0.090 C 
ATOM     85  N   UNL A   1      31.226  29.004  25.368  1.00  0.00    -0.334 N 
ATOM     86  C   UNL A   1      33.210  29.410  26.677  1.00  0.00     0.036 C 
ATOM     87  C   UNL A   1      31.793  28.806  26.711  1.00  0.00     0.268 C 
ATOM     88  H   UNL A   1      30.519  28.296  25.170  1.00  0.00     0.347 HD
ATOM     89  H   UNL A   1      30.769  29.912  25.280  1.00  0.00     0.347 HD
ATOM     90  C   UNL A   1      33.289  30.703  27.519  1.00  0.00     0.075 C 
ATOM     91  C   UNL A   1      34.267  28.405  27.198  1.00  0.00     0.075 C 
ATOM     92  C   UNL A   1      34.712  31.245  27.691  1.00  0.00     0.271 C 
ATOM     93  C   UNL A   1      35.659  29.029  27.327  1.00  0.00     0.271 C 
ATOM     94  N   UNL A   1      35.607  30.214  28.189  1.00  0.00    -0.271 N 
ATOM     95  H   UNL A   1      35.094  30.370  27.364  1.00  0.00     0.356 HD
BRANCH  94  96
ATOM     96  C   UNL A   1      36.339  30.143  29.382  1.00  0.00     0.322 C 
ATOM     97  O   UNL A   1      35.780  29.691  30.384  1.00  0.00    -0.230 OA
BRANCH  96  98
ATOM     98  C   UNL A   1      37.795  30.587  29.582  1.00  0.00     0.113 C 
ATOM     99  C   UNL A   1      38.995  29.754  30.015  1.00  0.00     0.028 C 
ATOM    100  C   UNL A   1      38.804  30.057  28.563  1.00  0.00     0.028 C 
BRANCH  98 101
ATOM    101  C   UNL A   1      37.892  32.068  30.026  1.00  0.00     0.007 A 
ATOM    102  C   UNL A   1      38.147  33.093  29.094  1.00  0.00     0.008 A 
ATOM    103  C   UNL A   1      37.875  32.430  31.384  1.00  0.00     0.127 A 
ATOM    104  C   UNL A   1      38.417  34.401  29.508  1.00  0.00     0.001 A 
ATOM    105  C   UNL A   1      38.165  33.726  31.807  1.00  0.00     0.039 A 
ATOM    106  F   UNL A   1      37.609  31.499  32.314  1.00  0.00    -0.207 F 
ATOM    107  C   UNL A   1      38.446  34.712  30.865  1.00  0.00     0.003 A 
ENDBRANCH  98 101
ENDBRANCH  96  98
ENDBRANCH  94  96
ENDBRANCH  81  83
ENDBRANCH  80  81
ENDBRANCH  79  80
ENDBRANCH  78  79
ENDBRANCH  77  78
ENDBRANCH  76  77
ENDBRANCH  75  76
ENDBRANCH   1  75
TORSDOF 26
ENDMDL
