MODEL 1
REMARK VINA RESULT:      -7.1      0.000      0.000
REMARK SMILES CC[C@H](C)[C@H](NC(=O)CN1C(=O)/C(=C/c2ccc(C)cc2)SC1=S)C(=O)OCCOCCOCCOCCOC(=O)c1ccc(-c2c3nc(c(-c4cc(S(=O)(=O)[O-])ccc4F)c4ccc([nH]4)c(-c4cc(S(=O)(=O)[O-])ccc4F)c4nc(c(-c5cc(S(=O)(=O)[O-])ccc5F)c5ccc2[nH]5)C=C4)C=C3)cc1
REMARK SMILES IDX 32 1 31 2 30 3 29 4 28 5 27 6 25 7 26 8 5 9 3 10 4 11 2 12
REMARK SMILES IDX 1 13 6 14 7 15 8 17 9 18 10 19 11 20 23 21 12 22 13 23 22 24
REMARK SMILES IDX 24 25 14 26 15 27 16 28 21 29 17 30 20 31 18 32 19 33 33 34
REMARK SMILES IDX 34 35 35 36 36 37 37 38 38 39 39 40 40 41 41 42 42 43 43 44
REMARK SMILES IDX 104 45 44 46 103 47 45 48 46 49 47 50 97 51 48 52 102 53
REMARK SMILES IDX 96 54 98 55 49 56 101 57 95 58 94 59 50 61 82 62 62 63 81 64
REMARK SMILES IDX 63 65 66 66 80 67 99 68 64 69 65 70 79 72 100 73 67 74 51 75
REMARK SMILES IDX 52 76 60 77 53 78 59 79 61 80 58 81 54 82 55 83 56 84 57 85
REMARK SMILES IDX 83 86 84 87 92 88 85 89 91 90 93 91 90 92 86 93 87 94 88 95
REMARK SMILES IDX 89 96 68 97 69 98 77 99 70 100 76 101 78 102 75 103 71 104
REMARK SMILES IDX 72 105 73 106 74 107
REMARK H PARENT 6 16 98 60 66 71
REMARK Flexibility Score: inf
ROOT
ATOM      1  C   UNL A   1      55.456  30.698  21.655  1.00  0.00     0.188 C 
ENDROOT
BRANCH   1   2
ATOM      2  C   UNL A   1      54.093  31.692  21.952  1.00  0.00     0.188 C 
BRANCH   2   3
ATOM      3  O   UNL A   1      53.609  32.316  23.184  1.00  0.00    -0.376 OA
BRANCH   3   4
ATOM      4  C   UNL A   1      53.266  31.914  24.532  1.00  0.00     0.202 C 
BRANCH   4   5
ATOM      5  C   UNL A   1      52.196  32.751  25.284  1.00  0.00     0.261 C 
BRANCH   5   6
ATOM      6  O   UNL A   1      52.688  33.186  26.528  1.00  0.00    -0.462 OA
BRANCH   6   7
ATOM      7  C   UNL A   1      53.577  34.169  26.296  1.00  0.00     0.328 C 
ATOM      8  O   UNL A   1      53.409  35.105  25.523  1.00  0.00    -0.250 OA
BRANCH   7   9
ATOM      9  C   UNL A   1      54.831  33.905  27.103  1.00  0.00     0.195 C 
BRANCH   9  10
ATOM     10  C   UNL A   1      54.957  35.251  27.934  1.00  0.00     0.019 C 
ATOM     11  C   UNL A   1      54.367  35.127  29.335  1.00  0.00     0.010 C 
BRANCH  10  12
ATOM     12  C   UNL A   1      56.351  35.927  27.985  1.00  0.00     0.002 C 
ATOM     13  C   UNL A   1      56.609  36.982  26.912  1.00  0.00     0.004 C 
ENDBRANCH  10  12
ENDBRANCH   9  10
BRANCH   9  14
ATOM     14  N   UNL A   1      56.088  33.397  26.334  1.00  0.00    -0.341 N 
ATOM     15  C   UNL A   1      56.890  32.320  25.992  1.00  0.00     0.240 C 
ATOM     16  H   UNL A   1      56.486  34.186  25.902  1.00  0.00     0.164 HD
ATOM     17  O   UNL A   1      58.030  32.798  25.752  1.00  0.00    -0.273 OA
BRANCH  15  18
ATOM     18  C   UNL A   1      56.865  30.579  25.655  1.00  0.00     0.227 C 
BRANCH  18  19
ATOM     19  N   UNL A   1      56.314  29.151  26.075  1.00  0.00    -0.283 N 
ATOM     20  C   UNL A   1      55.238  28.462  25.471  1.00  0.00     0.266 C 
ATOM     21  C   UNL A   1      56.618  28.512  27.281  1.00  0.00     0.148 C 
ATOM     22  O   UNL A   1      54.361  28.723  24.710  1.00  0.00    -0.268 OA
ATOM     23  C   UNL A   1      55.276  27.075  26.004  1.00  0.00     0.081 C 
ATOM     24  S   UNL A   1      55.429  27.259  27.680  1.00  0.00    -0.054 SA
ATOM     25  S   UNL A   1      57.956  28.515  28.250  1.00  0.00    -0.052 S 
ATOM     26  C   UNL A   1      55.702  26.083  25.208  1.00  0.00     0.029 C 
BRANCH  26  27
ATOM     27  C   UNL A   1      56.331  24.834  25.657  1.00  0.00    -0.024 A 
ATOM     28  C   UNL A   1      55.595  23.826  26.282  1.00  0.00     0.008 A 
ATOM     29  C   UNL A   1      57.710  24.657  25.475  1.00  0.00     0.008 A 
ATOM     30  C   UNL A   1      56.228  22.685  26.769  1.00  0.00     0.004 A 
ATOM     31  C   UNL A   1      58.339  23.500  25.938  1.00  0.00     0.004 A 
ATOM     32  C   UNL A   1      57.602  22.512  26.602  1.00  0.00    -0.051 A 
ATOM     33  C   UNL A   1      58.271  21.265  27.092  1.00  0.00     0.044 C 
ENDBRANCH  26  27
ENDBRANCH  18  19
ENDBRANCH  15  18
ENDBRANCH   9  14
ENDBRANCH   7   9
ENDBRANCH   6   7
ENDBRANCH   5   6
ENDBRANCH   4   5
ENDBRANCH   3   4
ENDBRANCH   2   3
ENDBRANCH   1   2
BRANCH   1  34
ATOM     34  O   UNL A   1      55.212  29.355  21.191  1.00  0.00    -0.377 OA
BRANCH  34  35
ATOM     35  C   UNL A   1      55.225  28.948  19.799  1.00  0.00     0.188 C 
BRANCH  35  36
ATOM     36  C   UNL A   1      53.763  28.913  19.208  1.00  0.00     0.188 C 
BRANCH  36  37
ATOM     37  O   UNL A   1      53.489  27.775  18.366  1.00  0.00    -0.376 OA
BRANCH  37  38
ATOM     38  C   UNL A   1      52.637  26.785  18.912  1.00  0.00     0.202 C 
BRANCH  38  39
ATOM     39  C   UNL A   1      52.050  27.282  20.232  1.00  0.00     0.261 C 
BRANCH  39  40
ATOM     40  O   UNL A   1      52.154  26.222  21.213  1.00  0.00    -0.460 OA
BRANCH  40  41
ATOM     41  C   UNL A   1      52.931  26.524  22.292  1.00  0.00     0.338 C 
ATOM     42  O   UNL A   1      54.151  26.491  22.299  1.00  0.00    -0.246 OA
BRANCH  41  43
ATOM     43  C   UNL A   1      52.087  26.795  23.494  1.00  0.00     0.060 A 
ATOM     44  C   UNL A   1      52.035  25.871  24.550  1.00  0.00     0.016 A 
ATOM     45  C   UNL A   1      51.193  27.857  23.484  1.00  0.00     0.016 A 
ATOM     46  C   UNL A   1      50.985  25.917  25.491  1.00  0.00     0.010 A 
ATOM     47  C   UNL A   1      50.152  27.871  24.400  1.00  0.00     0.010 A 
ATOM     48  C   UNL A   1      49.979  26.879  25.371  1.00  0.00    -0.014 A 
BRANCH  48  49
ATOM     49  C   UNL A   1      48.626  26.812  25.985  1.00  0.00     0.031 A 
ATOM     50  C   UNL A   1      47.556  25.867  25.503  1.00  0.00     0.074 A 
ATOM     51  C   UNL A   1      48.481  27.349  27.219  1.00  0.00     0.049 A 
ATOM     52  N   UNL A   1      46.463  25.589  26.133  1.00  0.00    -0.248 NA
ATOM     53  C   UNL A   1      47.641  25.124  24.254  1.00  0.00     0.031 C 
ATOM     54  C   UNL A   1      47.489  26.968  28.222  1.00  0.00     0.029 A 
ATOM     55  N   UNL A   1      49.217  28.366  27.843  1.00  0.00    -0.354 N 
ATOM     56  C   UNL A   1      45.832  24.498  25.564  1.00  0.00     0.074 A 
ATOM     57  C   UNL A   1      46.600  24.280  24.360  1.00  0.00     0.031 C 
ATOM     58  C   UNL A   1      47.534  27.828  29.236  1.00  0.00     0.029 A 
ATOM     59  C   UNL A   1      48.423  28.884  28.880  1.00  0.00     0.049 A 
ATOM     60  H   UNL A   1      50.123  28.662  27.599  1.00  0.00     0.167 HD
ATOM     61  C   UNL A   1      44.815  23.882  26.258  1.00  0.00     0.034 A 
ATOM     62  C   UNL A   1      48.052  30.178  28.985  1.00  0.00     0.034 A 
ATOM     63  C   UNL A   1      44.281  24.771  27.339  1.00  0.00     0.049 A 
ATOM     64  C   UNL A   1      46.518  30.208  28.763  1.00  0.00     0.074 A 
ATOM     65  C   UNL A   1      43.778  24.612  28.620  1.00  0.00     0.029 A 
ATOM     66  N   UNL A   1      44.270  26.169  27.135  1.00  0.00    -0.354 N 
ATOM     67  N   UNL A   1      45.845  29.278  28.094  1.00  0.00    -0.248 NA
ATOM     68  C   UNL A   1      45.615  31.058  29.533  1.00  0.00     0.031 C 
ATOM     69  C   UNL A   1      43.582  25.899  29.191  1.00  0.00     0.029 A 
ATOM     70  C   UNL A   1      43.932  26.873  28.268  1.00  0.00     0.049 A 
ATOM     71  H   UNL A   1      44.483  26.595  26.274  1.00  0.00     0.167 HD
ATOM     72  C   UNL A   1      44.518  29.277  28.472  1.00  0.00     0.074 A 
ATOM     73  C   UNL A   1      44.426  30.456  29.332  1.00  0.00     0.031 C 
ATOM     74  C   UNL A   1      43.579  28.291  28.229  1.00  0.00     0.034 A 
BRANCH  61  75
ATOM     75  C   UNL A   1      44.363  22.391  26.098  1.00  0.00     0.023 A 
ATOM     76  C   UNL A   1      45.267  21.408  25.606  1.00  0.00     0.031 A 
ATOM     77  C   UNL A   1      43.063  21.877  26.299  1.00  0.00     0.131 A 
ATOM     78  C   UNL A   1      44.879  20.087  25.263  1.00  0.00     0.055 A 
ATOM     79  C   UNL A   1      42.682  20.546  26.006  1.00  0.00     0.041 A 
ATOM     80  F   UNL A   1      42.071  22.614  26.801  1.00  0.00    -0.206 F 
ATOM     81  C   UNL A   1      43.584  19.645  25.470  1.00  0.00     0.022 A 
BRANCH  78  82
ATOM     82  S   UNL A   1      46.092  18.947  24.516  1.00  0.00     0.124 S 
ATOM     83  O   UNL A   1      47.329  19.713  24.625  1.00  0.00    -0.237 OA
ATOM     84  O   UNL A   1      45.988  17.766  25.365  1.00  0.00    -0.237 OA
ATOM     85  O   UNL A   1      45.597  18.768  23.151  1.00  0.00    -0.744 OA
ENDBRANCH  78  82
ENDBRANCH  61  75
BRANCH  62  86
ATOM     86  C   UNL A   1      49.265  31.036  28.755  1.00  0.00     0.023 A 
ATOM     87  C   UNL A   1      49.127  32.011  27.708  1.00  0.00     0.031 A 
ATOM     88  C   UNL A   1      50.065  31.409  29.847  1.00  0.00     0.131 A 
ATOM     89  C   UNL A   1      49.557  33.346  27.890  1.00  0.00     0.055 A 
ATOM     90  C   UNL A   1      50.503  32.737  30.013  1.00  0.00     0.041 A 
ATOM     91  F   UNL A   1      50.251  30.560  30.869  1.00  0.00    -0.206 F 
ATOM     92  C   UNL A   1      50.196  33.722  29.070  1.00  0.00     0.022 A 
BRANCH  89  93
ATOM     93  S   UNL A   1      49.060  34.663  26.716  1.00  0.00     0.124 S 
ATOM     94  O   UNL A   1      48.703  33.896  25.528  1.00  0.00    -0.237 OA
ATOM     95  O   UNL A   1      47.953  35.331  27.391  1.00  0.00    -0.237 OA
ATOM     96  O   UNL A   1      50.270  35.478  26.589  1.00  0.00    -0.744 OA
ENDBRANCH  89  93
ENDBRANCH  62  86
BRANCH  74  97
ATOM     97  C   UNL A   1      42.089  28.547  28.036  1.00  0.00     0.023 A 
ATOM     98  C   UNL A   1      41.248  28.894  29.089  1.00  0.00     0.031 A 
ATOM     99  C   UNL A   1      41.490  28.603  26.740  1.00  0.00     0.131 A 
ATOM    100  C   UNL A   1      39.905  29.228  28.866  1.00  0.00     0.055 A 
ATOM    101  C   UNL A   1      40.157  28.951  26.517  1.00  0.00     0.041 A 
ATOM    102  F   UNL A   1      42.176  28.392  25.608  1.00  0.00    -0.206 F 
ATOM    103  C   UNL A   1      39.351  29.272  27.590  1.00  0.00     0.022 A 
BRANCH 100 104
ATOM    104  S   UNL A   1      38.917  29.642  30.315  1.00  0.00     0.124 S 
ATOM    105  O   UNL A   1      38.179  30.811  29.844  1.00  0.00    -0.237 OA
ATOM    106  O   UNL A   1      38.126  28.431  30.507  1.00  0.00    -0.237 OA
ATOM    107  O   UNL A   1      39.916  29.905  31.348  1.00  0.00    -0.744 OA
ENDBRANCH 100 104
ENDBRANCH  74  97
ENDBRANCH  48  49
ENDBRANCH  41  43
ENDBRANCH  40  41
ENDBRANCH  39  40
ENDBRANCH  38  39
ENDBRANCH  37  38
ENDBRANCH  36  37
ENDBRANCH  35  36
ENDBRANCH  34  35
ENDBRANCH   1  34
TORSDOF 29
ENDMDL
MODEL 2
REMARK VINA RESULT:      -6.8      7.484     13.856
REMARK SMILES CC[C@H](C)[C@H](NC(=O)CN1C(=O)/C(=C/c2ccc(C)cc2)SC1=S)C(=O)OCCOCCOCCOCCOC(=O)c1ccc(-c2c3nc(c(-c4cc(S(=O)(=O)[O-])ccc4F)c4ccc([nH]4)c(-c4cc(S(=O)(=O)[O-])ccc4F)c4nc(c(-c5cc(S(=O)(=O)[O-])ccc5F)c5ccc2[nH]5)C=C4)C=C3)cc1
REMARK SMILES IDX 32 1 31 2 30 3 29 4 28 5 27 6 25 7 26 8 5 9 3 10 4 11 2 12
REMARK SMILES IDX 1 13 6 14 7 15 8 17 9 18 10 19 11 20 23 21 12 22 13 23 22 24
REMARK SMILES IDX 24 25 14 26 15 27 16 28 21 29 17 30 20 31 18 32 19 33 33 34
REMARK SMILES IDX 34 35 35 36 36 37 37 38 38 39 39 40 40 41 41 42 42 43 43 44
REMARK SMILES IDX 104 45 44 46 103 47 45 48 46 49 47 50 97 51 48 52 102 53
REMARK SMILES IDX 96 54 98 55 49 56 101 57 95 58 94 59 50 61 82 62 62 63 81 64
REMARK SMILES IDX 63 65 66 66 80 67 99 68 64 69 65 70 79 72 100 73 67 74 51 75
REMARK SMILES IDX 52 76 60 77 53 78 59 79 61 80 58 81 54 82 55 83 56 84 57 85
REMARK SMILES IDX 83 86 84 87 92 88 85 89 91 90 93 91 90 92 86 93 87 94 88 95
REMARK SMILES IDX 89 96 68 97 69 98 77 99 70 100 76 101 78 102 75 103 71 104
REMARK SMILES IDX 72 105 73 106 74 107
REMARK H PARENT 6 16 98 60 66 71
REMARK Flexibility Score: inf
ROOT
ATOM      1  C   UNL A   1      44.640  43.279  29.944  1.00  0.00     0.188 C 
ENDROOT
BRANCH   1   2
ATOM      2  C   UNL A   1      44.960  43.754  28.330  1.00  0.00     0.188 C 
BRANCH   2   3
ATOM      3  O   UNL A   1      45.365  45.043  27.770  1.00  0.00    -0.376 OA
BRANCH   3   4
ATOM      4  C   UNL A   1      46.212  45.536  26.703  1.00  0.00     0.202 C 
BRANCH   4   5
ATOM      5  C   UNL A   1      46.446  44.609  25.480  1.00  0.00     0.261 C 
BRANCH   5   6
ATOM      6  O   UNL A   1      47.255  45.246  24.521  1.00  0.00    -0.462 OA
BRANCH   6   7
ATOM      7  C   UNL A   1      46.558  45.306  23.372  1.00  0.00     0.328 C 
ATOM      8  O   UNL A   1      46.342  46.327  22.730  1.00  0.00    -0.250 OA
BRANCH   7   9
ATOM      9  C   UNL A   1      46.045  43.923  23.029  1.00  0.00     0.195 C 
BRANCH   9  10
ATOM     10  C   UNL A   1      47.087  43.469  21.920  1.00  0.00     0.019 C 
ATOM     11  C   UNL A   1      48.511  43.382  22.460  1.00  0.00     0.010 C 
BRANCH  10  12
ATOM     12  C   UNL A   1      46.738  42.208  21.091  1.00  0.00     0.002 C 
ATOM     13  C   UNL A   1      47.305  40.894  21.624  1.00  0.00     0.004 C 
ENDBRANCH  10  12
ENDBRANCH   9  10
BRANCH   9  14
ATOM     14  N   UNL A   1      44.527  43.775  22.713  1.00  0.00    -0.341 N 
ATOM     15  C   UNL A   1      43.349  43.081  22.943  1.00  0.00     0.240 C 
ATOM     16  H   UNL A   1      44.307  44.487  22.070  1.00  0.00     0.164 HD
ATOM     17  O   UNL A   1      42.642  43.247  21.914  1.00  0.00    -0.273 OA
BRANCH  15  18
ATOM     18  C   UNL A   1      42.449  42.177  24.173  1.00  0.00     0.227 C 
BRANCH  18  19
ATOM     19  N   UNL A   1      42.520  41.230  25.445  1.00  0.00    -0.283 N 
ATOM     20  C   UNL A   1      41.423  40.800  26.226  1.00  0.00     0.266 C 
ATOM     21  C   UNL A   1      43.694  40.936  26.145  1.00  0.00     0.148 C 
ATOM     22  O   UNL A   1      40.276  41.094  26.343  1.00  0.00    -0.268 OA
ATOM     23  C   UNL A   1      41.937  39.723  27.113  1.00  0.00     0.081 C 
ATOM     24  S   UNL A   1      43.355  40.357  27.786  1.00  0.00    -0.054 SA
ATOM     25  S   UNL A   1      45.272  40.782  25.681  1.00  0.00    -0.052 S 
ATOM     26  C   UNL A   1      41.606  38.450  26.850  1.00  0.00     0.029 C 
BRANCH  26  27
ATOM     27  C   UNL A   1      42.402  37.267  27.204  1.00  0.00    -0.024 A 
ATOM     28  C   UNL A   1      43.721  37.114  26.773  1.00  0.00     0.008 A 
ATOM     29  C   UNL A   1      41.816  36.254  27.975  1.00  0.00     0.008 A 
ATOM     30  C   UNL A   1      44.428  35.949  27.055  1.00  0.00     0.004 A 
ATOM     31  C   UNL A   1      42.536  35.097  28.284  1.00  0.00     0.004 A 
ATOM     32  C   UNL A   1      43.844  34.932  27.811  1.00  0.00    -0.051 A 
ATOM     33  C   UNL A   1      44.622  33.698  28.147  1.00  0.00     0.044 C 
ENDBRANCH  26  27
ENDBRANCH  18  19
ENDBRANCH  15  18
ENDBRANCH   9  14
ENDBRANCH   7   9
ENDBRANCH   6   7
ENDBRANCH   5   6
ENDBRANCH   4   5
ENDBRANCH   3   4
ENDBRANCH   2   3
ENDBRANCH   1   2
BRANCH   1  34
ATOM     34  O   UNL A   1      43.692  44.064  30.694  1.00  0.00    -0.377 OA
BRANCH  34  35
ATOM     35  C   UNL A   1      42.730  43.520  31.634  1.00  0.00     0.188 C 
BRANCH  35  36
ATOM     36  C   UNL A   1      42.428  42.004  31.319  1.00  0.00     0.188 C 
BRANCH  36  37
ATOM     37  O   UNL A   1      42.231  41.181  32.487  1.00  0.00    -0.376 OA
BRANCH  37  38
ATOM     38  C   UNL A   1      43.223  41.276  33.492  1.00  0.00     0.202 C 
BRANCH  38  39
ATOM     39  C   UNL A   1      43.519  39.887  34.055  1.00  0.00     0.261 C 
BRANCH  39  40
ATOM     40  O   UNL A   1      44.802  39.447  33.548  1.00  0.00    -0.460 OA
BRANCH  40  41
ATOM     41  C   UNL A   1      44.743  38.781  32.360  1.00  0.00     0.338 C 
ATOM     42  O   UNL A   1      44.969  39.284  31.272  1.00  0.00    -0.246 OA
BRANCH  41  43
ATOM     43  C   UNL A   1      44.259  37.382  32.559  1.00  0.00     0.060 A 
ATOM     44  C   UNL A   1      44.636  36.654  33.700  1.00  0.00     0.016 A 
ATOM     45  C   UNL A   1      43.608  36.723  31.526  1.00  0.00     0.016 A 
ATOM     46  C   UNL A   1      44.515  35.249  33.726  1.00  0.00     0.010 A 
ATOM     47  C   UNL A   1      43.523  35.340  31.556  1.00  0.00     0.010 A 
ATOM     48  C   UNL A   1      44.029  34.567  32.607  1.00  0.00    -0.014 A 
BRANCH  48  49
ATOM     49  C   UNL A   1      44.229  33.125  32.306  1.00  0.00     0.031 A 
ATOM     50  C   UNL A   1      45.513  32.580  31.737  1.00  0.00     0.074 A 
ATOM     51  C   UNL A   1      43.377  32.249  32.887  1.00  0.00     0.049 A 
ATOM     52  N   UNL A   1      45.836  31.330  31.680  1.00  0.00    -0.248 NA
ATOM     53  C   UNL A   1      46.573  33.417  31.193  1.00  0.00     0.031 C 
ATOM     54  C   UNL A   1      43.649  30.847  33.197  1.00  0.00     0.029 A 
ATOM     55  N   UNL A   1      42.065  32.445  33.338  1.00  0.00    -0.354 N 
ATOM     56  C   UNL A   1      47.173  31.183  31.357  1.00  0.00     0.074 A 
ATOM     57  C   UNL A   1      47.568  32.531  31.020  1.00  0.00     0.031 C 
ATOM     58  C   UNL A   1      42.526  30.258  33.599  1.00  0.00     0.029 A 
ATOM     59  C   UNL A   1      41.455  31.181  33.420  1.00  0.00     0.049 A 
ATOM     60  H   UNL A   1      41.647  33.309  33.558  1.00  0.00     0.167 HD
ATOM     61  C   UNL A   1      47.766  29.951  31.527  1.00  0.00     0.034 A 
ATOM     62  C   UNL A   1      40.331  30.831  32.757  1.00  0.00     0.034 A 
ATOM     63  C   UNL A   1      46.739  28.867  31.636  1.00  0.00     0.049 A 
ATOM     64  C   UNL A   1      40.756  29.765  31.715  1.00  0.00     0.074 A 
ATOM     65  C   UNL A   1      46.597  27.677  32.332  1.00  0.00     0.029 A 
ATOM     66  N   UNL A   1      45.529  28.992  30.915  1.00  0.00    -0.354 N 
ATOM     67  N   UNL A   1      41.989  29.648  31.232  1.00  0.00    -0.248 NA
ATOM     68  C   UNL A   1      39.956  28.584  31.408  1.00  0.00     0.031 C 
ATOM     69  C   UNL A   1      45.286  27.176  32.106  1.00  0.00     0.029 A 
ATOM     70  C   UNL A   1      44.605  28.027  31.248  1.00  0.00     0.049 A 
ATOM     71  H   UNL A   1      45.365  29.694  30.247  1.00  0.00     0.167 HD
ATOM     72  C   UNL A   1      42.198  28.372  30.750  1.00  0.00     0.074 A 
ATOM     73  C   UNL A   1      40.867  27.772  30.833  1.00  0.00     0.031 C 
ATOM     74  C   UNL A   1      43.410  27.781  30.443  1.00  0.00     0.034 A 
BRANCH  61  75
ATOM     75  C   UNL A   1      49.292  29.689  31.762  1.00  0.00     0.023 A 
ATOM     76  C   UNL A   1      49.841  29.728  33.074  1.00  0.00     0.031 A 
ATOM     77  C   UNL A   1      50.279  29.501  30.769  1.00  0.00     0.131 A 
ATOM     78  C   UNL A   1      51.234  29.684  33.344  1.00  0.00     0.055 A 
ATOM     79  C   UNL A   1      51.664  29.405  31.036  1.00  0.00     0.041 A 
ATOM     80  F   UNL A   1      49.978  29.384  29.474  1.00  0.00    -0.206 F 
ATOM     81  C   UNL A   1      52.154  29.513  32.324  1.00  0.00     0.022 A 
BRANCH  78  82
ATOM     82  S   UNL A   1      51.837  29.876  35.055  1.00  0.00     0.124 S 
ATOM     83  O   UNL A   1      51.554  28.560  35.620  1.00  0.00    -0.237 OA
ATOM     84  O   UNL A   1      53.244  30.207  34.864  1.00  0.00    -0.237 OA
ATOM     85  O   UNL A   1      51.015  30.963  35.586  1.00  0.00    -0.744 OA
ENDBRANCH  78  82
ENDBRANCH  61  75
BRANCH  62  86
ATOM     86  C   UNL A   1      39.320  31.930  32.933  1.00  0.00     0.023 A 
ATOM     87  C   UNL A   1      38.660  32.343  31.725  1.00  0.00     0.031 A 
ATOM     88  C   UNL A   1      38.552  31.981  34.107  1.00  0.00     0.131 A 
ATOM     89  C   UNL A   1      37.260  32.540  31.687  1.00  0.00     0.055 A 
ATOM     90  C   UNL A   1      37.160  32.193  34.062  1.00  0.00     0.041 A 
ATOM     91  F   UNL A   1      39.088  31.615  35.281  1.00  0.00    -0.206 F 
ATOM     92  C   UNL A   1      36.501  32.409  32.849  1.00  0.00     0.022 A 
BRANCH  89  93
ATOM     93  S   UNL A   1      36.376  32.708  30.090  1.00  0.00     0.124 S 
ATOM     94  O   UNL A   1      37.330  32.131  29.149  1.00  0.00    -0.237 OA
ATOM     95  O   UNL A   1      35.149  31.943  30.290  1.00  0.00    -0.237 OA
ATOM     96  O   UNL A   1      36.174  34.152  29.964  1.00  0.00    -0.744 OA
ENDBRANCH  89  93
ENDBRANCH  62  86
BRANCH  74  97
ATOM     97  C   UNL A   1      43.609  26.732  29.355  1.00  0.00     0.023 A 
ATOM     98  C   UNL A   1      43.736  27.066  28.011  1.00  0.00     0.031 A 
ATOM     99  C   UNL A   1      43.835  25.355  29.660  1.00  0.00     0.131 A 
ATOM    100  C   UNL A   1      44.025  26.093  27.044  1.00  0.00     0.055 A 
ATOM    101  C   UNL A   1      44.138  24.389  28.700  1.00  0.00     0.041 A 
ATOM    102  F   UNL A   1      43.845  24.876  30.911  1.00  0.00    -0.206 F 
ATOM    103  C   UNL A   1      44.239  24.757  27.374  1.00  0.00     0.022 A 
BRANCH 100 104
ATOM    104  S   UNL A   1      44.148  26.652  25.336  1.00  0.00     0.124 S 
ATOM    105  O   UNL A   1      45.159  25.744  24.801  1.00  0.00    -0.237 OA
ATOM    106  O   UNL A   1      42.790  26.446  24.844  1.00  0.00    -0.237 OA
ATOM    107  O   UNL A   1      44.561  28.047  25.460  1.00  0.00    -0.744 OA
ENDBRANCH 100 104
ENDBRANCH  74  97
ENDBRANCH  48  49
ENDBRANCH  41  43
ENDBRANCH  40  41
ENDBRANCH  39  40
ENDBRANCH  38  39
ENDBRANCH  37  38
ENDBRANCH  36  37
ENDBRANCH  35  36
ENDBRANCH  34  35
ENDBRANCH   1  34
TORSDOF 29
ENDMDL
MODEL 3
REMARK VINA RESULT:      -6.6      6.817     12.955
REMARK SMILES CC[C@H](C)[C@H](NC(=O)CN1C(=O)/C(=C/c2ccc(C)cc2)SC1=S)C(=O)OCCOCCOCCOCCOC(=O)c1ccc(-c2c3nc(c(-c4cc(S(=O)(=O)[O-])ccc4F)c4ccc([nH]4)c(-c4cc(S(=O)(=O)[O-])ccc4F)c4nc(c(-c5cc(S(=O)(=O)[O-])ccc5F)c5ccc2[nH]5)C=C4)C=C3)cc1
REMARK SMILES IDX 32 1 31 2 30 3 29 4 28 5 27 6 25 7 26 8 5 9 3 10 4 11 2 12
REMARK SMILES IDX 1 13 6 14 7 15 8 17 9 18 10 19 11 20 23 21 12 22 13 23 22 24
REMARK SMILES IDX 24 25 14 26 15 27 16 28 21 29 17 30 20 31 18 32 19 33 33 34
REMARK SMILES IDX 34 35 35 36 36 37 37 38 38 39 39 40 40 41 41 42 42 43 43 44
REMARK SMILES IDX 104 45 44 46 103 47 45 48 46 49 47 50 97 51 48 52 102 53
REMARK SMILES IDX 96 54 98 55 49 56 101 57 95 58 94 59 50 61 82 62 62 63 81 64
REMARK SMILES IDX 63 65 66 66 80 67 99 68 64 69 65 70 79 72 100 73 67 74 51 75
REMARK SMILES IDX 52 76 60 77 53 78 59 79 61 80 58 81 54 82 55 83 56 84 57 85
REMARK SMILES IDX 83 86 84 87 92 88 85 89 91 90 93 91 90 92 86 93 87 94 88 95
REMARK SMILES IDX 89 96 68 97 69 98 77 99 70 100 76 101 78 102 75 103 71 104
REMARK SMILES IDX 72 105 73 106 74 107
REMARK H PARENT 6 16 98 60 66 71
REMARK Flexibility Score: inf
ROOT
ATOM      1  C   UNL A   1      44.346  42.350  30.009  1.00  0.00     0.188 C 
ENDROOT
BRANCH   1   2
ATOM      2  C   UNL A   1      44.933  42.968  28.523  1.00  0.00     0.188 C 
BRANCH   2   3
ATOM      3  O   UNL A   1      45.877  44.048  28.237  1.00  0.00    -0.376 OA
BRANCH   3   4
ATOM      4  C   UNL A   1      47.013  44.284  27.370  1.00  0.00     0.202 C 
BRANCH   4   5
ATOM      5  C   UNL A   1      47.076  43.497  26.033  1.00  0.00     0.261 C 
BRANCH   5   6
ATOM      6  O   UNL A   1      47.461  44.343  24.976  1.00  0.00    -0.462 OA
BRANCH   6   7
ATOM      7  C   UNL A   1      46.347  44.697  24.309  1.00  0.00     0.328 C 
ATOM      8  O   UNL A   1      45.872  45.826  24.279  1.00  0.00    -0.250 OA
BRANCH   7   9
ATOM      9  C   UNL A   1      45.754  43.471  23.647  1.00  0.00     0.195 C 
BRANCH   9  10
ATOM     10  C   UNL A   1      46.288  43.630  22.160  1.00  0.00     0.019 C 
ATOM     11  C   UNL A   1      47.685  43.044  21.979  1.00  0.00     0.010 C 
BRANCH  10  12
ATOM     12  C   UNL A   1      45.350  43.172  21.016  1.00  0.00     0.002 C 
ATOM     13  C   UNL A   1      45.883  43.390  19.602  1.00  0.00     0.004 C 
ENDBRANCH  10  12
ENDBRANCH   9  10
BRANCH   9  14
ATOM     14  N   UNL A   1      44.233  43.206  23.855  1.00  0.00    -0.341 N 
ATOM     15  C   UNL A   1      43.252  42.344  24.319  1.00  0.00     0.240 C 
ATOM     16  H   UNL A   1      43.763  43.997  23.506  1.00  0.00     0.164 HD
ATOM     17  O   UNL A   1      42.211  42.619  23.666  1.00  0.00    -0.273 OA
BRANCH  15  18
ATOM     18  C   UNL A   1      42.904  41.117  25.550  1.00  0.00     0.227 C 
BRANCH  18  19
ATOM     19  N   UNL A   1      43.487  40.009  26.526  1.00  0.00    -0.283 N 
ATOM     20  C   UNL A   1      42.823  39.447  27.640  1.00  0.00     0.266 C 
ATOM     21  C   UNL A   1      44.838  39.655  26.599  1.00  0.00     0.148 C 
ATOM     22  O   UNL A   1      41.852  39.691  28.282  1.00  0.00    -0.268 OA
ATOM     23  C   UNL A   1      43.634  38.274  28.063  1.00  0.00     0.081 C 
ATOM     24  S   UNL A   1      45.225  38.851  28.132  1.00  0.00    -0.054 SA
ATOM     25  S   UNL A   1      46.052  39.609  25.480  1.00  0.00    -0.052 S 
ATOM     26  C   UNL A   1      43.179  37.040  27.802  1.00  0.00     0.029 C 
BRANCH  26  27
ATOM     27  C   UNL A   1      44.009  35.843  27.614  1.00  0.00    -0.024 A 
ATOM     28  C   UNL A   1      45.190  35.649  28.333  1.00  0.00     0.008 A 
ATOM     29  C   UNL A   1      43.619  34.881  26.672  1.00  0.00     0.008 A 
ATOM     30  C   UNL A   1      46.000  34.544  28.080  1.00  0.00     0.004 A 
ATOM     31  C   UNL A   1      44.417  33.758  26.440  1.00  0.00     0.004 A 
ATOM     32  C   UNL A   1      45.622  33.591  27.134  1.00  0.00    -0.051 A 
ATOM     33  C   UNL A   1      46.476  32.386  26.895  1.00  0.00     0.044 C 
ENDBRANCH  26  27
ENDBRANCH  18  19
ENDBRANCH  15  18
ENDBRANCH   9  14
ENDBRANCH   7   9
ENDBRANCH   6   7
ENDBRANCH   5   6
ENDBRANCH   4   5
ENDBRANCH   3   4
ENDBRANCH   2   3
ENDBRANCH   1   2
BRANCH   1  34
ATOM     34  O   UNL A   1      43.221  43.021  30.611  1.00  0.00    -0.377 OA
BRANCH  34  35
ATOM     35  C   UNL A   1      42.325  42.421  31.581  1.00  0.00     0.188 C 
BRANCH  35  36
ATOM     36  C   UNL A   1      42.495  40.853  31.612  1.00  0.00     0.188 C 
BRANCH  36  37
ATOM     37  O   UNL A   1      42.363  40.266  32.922  1.00  0.00    -0.376 OA
BRANCH  37  38
ATOM     38  C   UNL A   1      43.571  40.004  33.613  1.00  0.00     0.202 C 
BRANCH  38  39
ATOM     39  C   UNL A   1      43.639  38.523  33.987  1.00  0.00     0.261 C 
BRANCH  39  40
ATOM     40  O   UNL A   1      44.914  37.995  33.550  1.00  0.00    -0.460 OA
BRANCH  40  41
ATOM     41  C   UNL A   1      44.891  37.406  32.321  1.00  0.00     0.338 C 
ATOM     42  O   UNL A   1      45.248  37.946  31.287  1.00  0.00    -0.246 OA
BRANCH  41  43
ATOM     43  C   UNL A   1      44.270  36.050  32.393  1.00  0.00     0.060 A 
ATOM     44  C   UNL A   1      44.654  35.144  33.395  1.00  0.00     0.016 A 
ATOM     45  C   UNL A   1      43.466  35.602  31.355  1.00  0.00     0.016 A 
ATOM     46  C   UNL A   1      44.377  33.767  33.261  1.00  0.00     0.010 A 
ATOM     47  C   UNL A   1      43.227  34.243  31.224  1.00  0.00     0.010 A 
ATOM     48  C   UNL A   1      43.726  33.292  32.120  1.00  0.00    -0.014 A 
BRANCH  48  49
ATOM     49  C   UNL A   1      43.735  31.889  31.627  1.00  0.00     0.031 A 
ATOM     50  C   UNL A   1      44.942  31.257  30.983  1.00  0.00     0.074 A 
ATOM     51  C   UNL A   1      42.767  31.065  32.092  1.00  0.00     0.049 A 
ATOM     52  N   UNL A   1      45.096  29.994  30.758  1.00  0.00    -0.248 NA
ATOM     53  C   UNL A   1      46.110  32.010  30.550  1.00  0.00     0.031 C 
ATOM     54  C   UNL A   1      42.846  29.610  32.209  1.00  0.00     0.029 A 
ATOM     55  N   UNL A   1      41.487  31.373  32.573  1.00  0.00    -0.354 N 
ATOM     56  C   UNL A   1      46.405  29.714  30.411  1.00  0.00     0.074 A 
ATOM     57  C   UNL A   1      46.981  31.029  30.255  1.00  0.00     0.031 C 
ATOM     58  C   UNL A   1      41.649  29.129  32.535  1.00  0.00     0.029 A 
ATOM     59  C   UNL A   1      40.713  30.203  32.488  1.00  0.00     0.049 A 
ATOM     60  H   UNL A   1      41.186  32.248  32.908  1.00  0.00     0.167 HD
ATOM     61  C   UNL A   1      46.826  28.402  30.411  1.00  0.00     0.034 A 
ATOM     62  C   UNL A   1      39.561  30.098  31.791  1.00  0.00     0.034 A 
ATOM     63  C   UNL A   1      45.662  27.460  30.380  1.00  0.00     0.049 A 
ATOM     64  C   UNL A   1      39.853  29.133  30.614  1.00  0.00     0.074 A 
ATOM     65  C   UNL A   1      45.354  26.218  30.911  1.00  0.00     0.029 A 
ATOM     66  N   UNL A   1      44.489  27.841  29.689  1.00  0.00    -0.354 N 
ATOM     67  N   UNL A   1      41.064  28.917  30.111  1.00  0.00    -0.248 NA
ATOM     68  C   UNL A   1      38.906  28.121  30.155  1.00  0.00     0.031 C 
ATOM     69  C   UNL A   1      43.991  25.931  30.628  1.00  0.00     0.029 A 
ATOM     70  C   UNL A   1      43.440  26.973  29.896  1.00  0.00     0.049 A 
ATOM     71  H   UNL A   1      44.428  28.642  29.122  1.00  0.00     0.167 HD
ATOM     72  C   UNL A   1      41.107  27.700  29.462  1.00  0.00     0.074 A 
ATOM     73  C   UNL A   1      39.707  27.279  29.472  1.00  0.00     0.031 C 
ATOM     74  C   UNL A   1      42.233  26.999  29.072  1.00  0.00     0.034 A 
BRANCH  61  75
ATOM     75  C   UNL A   1      48.300  27.909  30.600  1.00  0.00     0.023 A 
ATOM     76  C   UNL A   1      49.077  28.352  31.706  1.00  0.00     0.031 A 
ATOM     77  C   UNL A   1      49.042  27.105  29.706  1.00  0.00     0.131 A 
ATOM     78  C   UNL A   1      50.467  28.096  31.842  1.00  0.00     0.055 A 
ATOM     79  C   UNL A   1      50.415  26.805  29.863  1.00  0.00     0.041 A 
ATOM     80  F   UNL A   1      48.496  26.543  28.627  1.00  0.00    -0.206 F 
ATOM     81  C   UNL A   1      51.143  27.312  30.924  1.00  0.00     0.022 A 
BRANCH  78  82
ATOM     82  S   UNL A   1      51.394  28.824  33.234  1.00  0.00     0.124 S 
ATOM     83  O   UNL A   1      51.061  30.240  33.108  1.00  0.00    -0.237 OA
ATOM     84  O   UNL A   1      50.836  28.132  34.389  1.00  0.00    -0.237 OA
ATOM     85  O   UNL A   1      52.786  28.490  32.930  1.00  0.00    -0.744 OA
ENDBRANCH  78  82
ENDBRANCH  61  75
BRANCH  62  86
ATOM     86  C   UNL A   1      38.703  31.289  32.118  1.00  0.00     0.023 A 
ATOM     87  C   UNL A   1      38.368  31.430  33.508  1.00  0.00     0.031 A 
ATOM     88  C   UNL A   1      38.876  32.483  31.399  1.00  0.00     0.131 A 
ATOM     89  C   UNL A   1      38.461  32.682  34.160  1.00  0.00     0.055 A 
ATOM     90  C   UNL A   1      38.951  33.727  32.054  1.00  0.00     0.041 A 
ATOM     91  F   UNL A   1      39.188  32.446  30.094  1.00  0.00    -0.206 F 
ATOM     92  C   UNL A   1      38.809  33.823  33.440  1.00  0.00     0.022 A 
BRANCH  89  93
ATOM     93  S   UNL A   1      38.390  32.798  35.988  1.00  0.00     0.124 S 
ATOM     94  O   UNL A   1      37.960  34.178  36.191  1.00  0.00    -0.237 OA
ATOM     95  O   UNL A   1      37.420  31.776  36.364  1.00  0.00    -0.237 OA
ATOM     96  O   UNL A   1      39.765  32.509  36.400  1.00  0.00    -0.744 OA
ENDBRANCH  89  93
ENDBRANCH  62  86
BRANCH  74  97
ATOM     97  C   UNL A   1      42.303  26.088  27.852  1.00  0.00     0.023 A 
ATOM     98  C   UNL A   1      42.181  24.705  27.944  1.00  0.00     0.031 A 
ATOM     99  C   UNL A   1      42.340  26.604  26.520  1.00  0.00     0.131 A 
ATOM    100  C   UNL A   1      42.142  23.901  26.797  1.00  0.00     0.055 A 
ATOM    101  C   UNL A   1      42.285  25.805  25.377  1.00  0.00     0.041 A 
ATOM    102  F   UNL A   1      42.361  27.916  26.245  1.00  0.00    -0.206 F 
ATOM    103  C   UNL A   1      42.181  24.436  25.512  1.00  0.00     0.022 A 
BRANCH 100 104
ATOM    104  S   UNL A   1      41.998  22.123  27.052  1.00  0.00     0.124 S 
ATOM    105  O   UNL A   1      40.915  21.780  26.134  1.00  0.00    -0.237 OA
ATOM    106  O   UNL A   1      43.324  21.648  26.670  1.00  0.00    -0.237 OA
ATOM    107  O   UNL A   1      41.678  22.005  28.472  1.00  0.00    -0.744 OA
ENDBRANCH 100 104
ENDBRANCH  74  97
ENDBRANCH  48  49
ENDBRANCH  41  43
ENDBRANCH  40  41
ENDBRANCH  39  40
ENDBRANCH  38  39
ENDBRANCH  37  38
ENDBRANCH  36  37
ENDBRANCH  35  36
ENDBRANCH  34  35
ENDBRANCH   1  34
TORSDOF 29
ENDMDL
