MODEL 1
REMARK VINA RESULT:      -9.5      0.000      0.000
REMARK SMILES O=C(OCCOCCOCCOCCOC(=O)[C@@H]1C[N@H+](Cc2ccco2)CC12CCOCC2)c1ccc(-c2c3nc(c(-c4cc(S(=O)(=O)[O-])ccc4F)c4ccc([nH]4)c(-c4cc(S(=O)(=O)[O-])ccc4F)c4nc(c(-c5cc(S(=O)(=O)[O-])ccc5F)c5ccc2[nH]5)C=C4)C=C3)cc1
REMARK SMILES IDX 8 1 7 2 6 3 5 4 4 5 3 6 2 7 1 8 34 9 35 10 96 11 36 12 95 13
REMARK SMILES IDX 37 14 38 15 39 16 89 17 40 18 94 19 88 20 90 21 41 22 93 23
REMARK SMILES IDX 87 24 86 25 42 27 74 28 54 29 73 30 55 31 58 32 72 33 91 34
REMARK SMILES IDX 56 35 57 36 71 38 92 39 59 40 43 41 44 42 52 43 45 44 51 45
REMARK SMILES IDX 53 46 50 47 46 48 47 49 48 50 49 51 75 52 76 53 84 54 77 55
REMARK SMILES IDX 83 56 85 57 82 58 78 59 79 60 80 61 81 62 60 63 61 64 69 65
REMARK SMILES IDX 62 66 68 67 70 68 67 69 63 70 64 71 65 72 66 73 9 74 10 75
REMARK SMILES IDX 11 76 12 77 13 78 14 79 15 80 16 81 17 82 18 83 19 84 28 85
REMARK SMILES IDX 20 86 27 87 29 88 33 89 30 91 32 92 31 93 21 94 22 95 23 96
REMARK SMILES IDX 26 97 24 98 25 99
REMARK H PARENT 90 26 58 37 20 90
REMARK Flexibility Score: inf
ROOT
ATOM      1  C   UNL A   1      32.020  28.363  25.384  1.00  0.00     0.188 C 
ENDROOT
BRANCH   1   2
ATOM      2  C   UNL A   1      31.905  29.881  25.349  1.00  0.00     0.188 C 
BRANCH   2   3
ATOM      3  O   UNL A   1      33.019  30.384  26.081  1.00  0.00    -0.376 OA
BRANCH   3   4
ATOM      4  C   UNL A   1      32.701  31.157  27.227  1.00  0.00     0.202 C 
BRANCH   4   5
ATOM      5  C   UNL A   1      32.289  32.574  26.842  1.00  0.00     0.261 C 
BRANCH   5   6
ATOM      6  O   UNL A   1      32.402  33.475  27.954  1.00  0.00    -0.460 OA
BRANCH   6   7
ATOM      7  C   UNL A   1      33.485  34.181  28.369  1.00  0.00     0.338 C 
ATOM      8  O   UNL A   1      33.471  35.396  28.161  1.00  0.00    -0.246 OA
BRANCH   7   9
ATOM      9  C   UNL A   1      34.708  33.613  29.045  1.00  0.00     0.060 A 
ATOM     10  C   UNL A   1      36.040  33.964  28.802  1.00  0.00     0.016 A 
ATOM     11  C   UNL A   1      34.475  32.666  30.064  1.00  0.00     0.016 A 
ATOM     12  C   UNL A   1      37.093  33.422  29.536  1.00  0.00     0.010 A 
ATOM     13  C   UNL A   1      35.527  32.087  30.786  1.00  0.00     0.010 A 
ATOM     14  C   UNL A   1      36.845  32.458  30.508  1.00  0.00    -0.014 A 
BRANCH  14  15
ATOM     15  C   UNL A   1      37.996  31.708  31.043  1.00  0.00     0.031 A 
ATOM     16  C   UNL A   1      38.392  31.984  32.465  1.00  0.00     0.074 A 
ATOM     17  C   UNL A   1      38.571  30.727  30.327  1.00  0.00     0.049 A 
ATOM     18  N   UNL A   1      39.360  31.473  33.174  1.00  0.00    -0.248 NA
ATOM     19  C   UNL A   1      37.555  32.954  33.196  1.00  0.00     0.031 C 
ATOM     20  C   UNL A   1      38.143  30.295  28.996  1.00  0.00     0.029 A 
ATOM     21  N   UNL A   1      39.623  29.901  30.623  1.00  0.00    -0.354 N 
ATOM     22  C   UNL A   1      39.252  32.059  34.431  1.00  0.00     0.074 A 
ATOM     23  C   UNL A   1      38.125  32.962  34.390  1.00  0.00     0.031 C 
ATOM     24  C   UNL A   1      38.938  29.291  28.585  1.00  0.00     0.029 A 
ATOM     25  C   UNL A   1      39.960  29.044  29.600  1.00  0.00     0.049 A 
ATOM     26  H   UNL A   1      40.095  29.919  31.488  1.00  0.00     0.167 HD
ATOM     27  C   UNL A   1      40.039  31.868  35.514  1.00  0.00     0.034 A 
ATOM     28  C   UNL A   1      41.001  28.192  29.495  1.00  0.00     0.034 A 
ATOM     29  C   UNL A   1      41.188  31.002  35.499  1.00  0.00     0.049 A 
ATOM     30  C   UNL A   1      41.954  28.108  30.669  1.00  0.00     0.074 A 
ATOM     31  C   UNL A   1      42.133  30.793  36.487  1.00  0.00     0.029 A 
ATOM     32  N   UNL A   1      41.559  30.212  34.416  1.00  0.00    -0.354 N 
ATOM     33  N   UNL A   1      41.879  28.706  31.838  1.00  0.00    -0.248 NA
ATOM     34  C   UNL A   1      43.132  27.247  30.509  1.00  0.00     0.031 C 
ATOM     35  C   UNL A   1      43.106  29.927  35.976  1.00  0.00     0.029 A 
ATOM     36  C   UNL A   1      42.735  29.543  34.696  1.00  0.00     0.049 A 
ATOM     37  H   UNL A   1      41.056  30.141  33.572  1.00  0.00     0.167 HD
ATOM     38  C   UNL A   1      42.995  28.285  32.555  1.00  0.00     0.074 A 
ATOM     39  C   UNL A   1      43.706  27.356  31.698  1.00  0.00     0.031 C 
ATOM     40  C   UNL A   1      43.409  28.632  33.801  1.00  0.00     0.034 A 
BRANCH  27  41
ATOM     41  C   UNL A   1      39.737  32.705  36.730  1.00  0.00     0.023 A 
ATOM     42  C   UNL A   1      38.862  32.266  37.739  1.00  0.00     0.031 A 
ATOM     43  C   UNL A   1      40.262  34.006  36.828  1.00  0.00     0.131 A 
ATOM     44  C   UNL A   1      38.489  33.145  38.769  1.00  0.00     0.055 A 
ATOM     45  C   UNL A   1      39.938  34.851  37.889  1.00  0.00     0.041 A 
ATOM     46  F   UNL A   1      41.072  34.488  35.872  1.00  0.00    -0.206 F 
ATOM     47  C   UNL A   1      39.037  34.428  38.861  1.00  0.00     0.022 A 
BRANCH  44  48
ATOM     48  S   UNL A   1      37.179  32.640  39.921  1.00  0.00     0.124 S 
ATOM     49  O   UNL A   1      37.653  31.327  40.349  1.00  0.00    -0.237 OA
ATOM     50  O   UNL A   1      37.220  33.693  40.929  1.00  0.00    -0.237 OA
ATOM     51  O   UNL A   1      35.978  32.622  39.088  1.00  0.00    -0.744 OA
ENDBRANCH  44  48
ENDBRANCH  27  41
BRANCH  28  52
ATOM     52  C   UNL A   1      41.266  27.436  28.231  1.00  0.00     0.023 A 
ATOM     53  C   UNL A   1      41.298  26.032  28.202  1.00  0.00     0.031 A 
ATOM     54  C   UNL A   1      41.586  28.118  27.041  1.00  0.00     0.131 A 
ATOM     55  C   UNL A   1      41.694  25.360  27.031  1.00  0.00     0.055 A 
ATOM     56  C   UNL A   1      41.918  27.446  25.863  1.00  0.00     0.041 A 
ATOM     57  F   UNL A   1      41.591  29.460  27.004  1.00  0.00    -0.206 F 
ATOM     58  C   UNL A   1      41.991  26.058  25.858  1.00  0.00     0.022 A 
BRANCH  55  59
ATOM     59  S   UNL A   1      41.941  23.562  27.092  1.00  0.00     0.124 S 
ATOM     60  O   UNL A   1      40.929  23.089  26.154  1.00  0.00    -0.237 OA
ATOM     61  O   UNL A   1      43.330  23.434  26.660  1.00  0.00    -0.237 OA
ATOM     62  O   UNL A   1      41.693  23.232  28.494  1.00  0.00    -0.744 OA
ENDBRANCH  55  59
ENDBRANCH  28  52
BRANCH  40  63
ATOM     63  C   UNL A   1      44.674  27.981  34.295  1.00  0.00     0.023 A 
ATOM     64  C   UNL A   1      45.929  28.582  34.099  1.00  0.00     0.031 A 
ATOM     65  C   UNL A   1      44.620  26.751  34.972  1.00  0.00     0.131 A 
ATOM     66  C   UNL A   1      47.088  27.925  34.532  1.00  0.00     0.055 A 
ATOM     67  C   UNL A   1      45.773  26.130  35.450  1.00  0.00     0.041 A 
ATOM     68  F   UNL A   1      43.444  26.140  35.186  1.00  0.00    -0.206 F 
ATOM     69  C   UNL A   1      47.018  26.710  35.220  1.00  0.00     0.022 A 
BRANCH  66  70
ATOM     70  S   UNL A   1      48.699  28.646  34.117  1.00  0.00     0.124 S 
ATOM     71  O   UNL A   1      48.763  28.435  32.674  1.00  0.00    -0.237 OA
ATOM     72  O   UNL A   1      48.544  30.030  34.552  1.00  0.00    -0.237 OA
ATOM     73  O   UNL A   1      49.642  27.851  34.902  1.00  0.00    -0.744 OA
ENDBRANCH  66  70
ENDBRANCH  40  63
ENDBRANCH  14  15
ENDBRANCH   7   9
ENDBRANCH   6   7
ENDBRANCH   5   6
ENDBRANCH   4   5
ENDBRANCH   3   4
ENDBRANCH   2   3
ENDBRANCH   1   2
BRANCH   1  74
ATOM     74  O   UNL A   1      33.058  27.885  24.534  1.00  0.00    -0.377 OA
BRANCH  74  75
ATOM     75  C   UNL A   1      32.700  27.056  23.434  1.00  0.00     0.188 C 
BRANCH  75  76
ATOM     76  C   UNL A   1      33.676  27.021  22.266  1.00  0.00     0.188 C 
BRANCH  76  77
ATOM     77  O   UNL A   1      33.490  26.013  21.289  1.00  0.00    -0.376 OA
BRANCH  77  78
ATOM     78  C   UNL A   1      32.618  24.921  21.583  1.00  0.00     0.202 C 
BRANCH  78  79
ATOM     79  C   UNL A   1      33.239  23.609  22.083  1.00  0.00     0.261 C 
BRANCH  79  80
ATOM     80  O   UNL A   1      32.757  23.204  23.399  1.00  0.00    -0.463 OA
BRANCH  80  81
ATOM     81  C   UNL A   1      32.797  21.880  23.652  1.00  0.00     0.315 C 
ATOM     82  O   UNL A   1      31.923  21.100  23.269  1.00  0.00    -0.252 OA
BRANCH  81  83
ATOM     83  C   UNL A   1      33.941  21.331  24.504  1.00  0.00     0.166 C 
ATOM     84  C   UNL A   1      33.256  20.496  25.587  1.00  0.00     0.278 C 
ATOM     85  C   UNL A   1      35.169  21.995  25.213  1.00  0.00     0.043 C 
ATOM     86  N   UNL A   1      33.717  20.977  26.878  1.00  0.00    -0.327 N 
ATOM     87  C   UNL A   1      35.051  21.518  26.685  1.00  0.00     0.270 C 
ATOM     88  C   UNL A   1      36.496  21.431  24.600  1.00  0.00     0.042 C 
ATOM     89  C   UNL A   1      35.346  23.511  25.114  1.00  0.00     0.042 C 
ATOM     90  H   UNL A   1      33.772  20.193  27.529  1.00  0.00     0.348 HD
ATOM     91  C   UNL A   1      37.748  22.015  25.261  1.00  0.00     0.161 C 
ATOM     92  C   UNL A   1      36.601  24.021  25.821  1.00  0.00     0.161 C 
ATOM     93  O   UNL A   1      37.762  23.439  25.222  1.00  0.00    -0.381 OA
BRANCH  86  94
ATOM     94  C   UNL A   1      32.773  21.797  27.647  1.00  0.00     0.338 C 
BRANCH  94  95
ATOM     95  C   UNL A   1      31.981  22.839  26.933  1.00  0.00     0.157 A 
ATOM     96  C   UNL A   1      30.705  22.873  26.406  1.00  0.00     0.052 A 
ATOM     97  O   UNL A   1      32.552  24.078  26.820  1.00  0.00    -0.463 OA
ATOM     98  C   UNL A   1      30.511  24.178  25.888  1.00  0.00     0.042 A 
ATOM     99  C   UNL A   1      31.659  24.876  26.176  1.00  0.00     0.195 A 
ENDBRANCH  94  95
ENDBRANCH  86  94
ENDBRANCH  81  83
ENDBRANCH  80  81
ENDBRANCH  79  80
ENDBRANCH  78  79
ENDBRANCH  77  78
ENDBRANCH  76  77
ENDBRANCH  75  76
ENDBRANCH  74  75
ENDBRANCH   1  74
TORSDOF 25
ENDMDL
MODEL 2
REMARK VINA RESULT:      -9.1      2.387      7.699
REMARK SMILES O=C(OCCOCCOCCOCCOC(=O)[C@@H]1C[N@H+](Cc2ccco2)CC12CCOCC2)c1ccc(-c2c3nc(c(-c4cc(S(=O)(=O)[O-])ccc4F)c4ccc([nH]4)c(-c4cc(S(=O)(=O)[O-])ccc4F)c4nc(c(-c5cc(S(=O)(=O)[O-])ccc5F)c5ccc2[nH]5)C=C4)C=C3)cc1
REMARK SMILES IDX 8 1 7 2 6 3 5 4 4 5 3 6 2 7 1 8 34 9 35 10 96 11 36 12 95 13
REMARK SMILES IDX 37 14 38 15 39 16 89 17 40 18 94 19 88 20 90 21 41 22 93 23
REMARK SMILES IDX 87 24 86 25 42 27 74 28 54 29 73 30 55 31 58 32 72 33 91 34
REMARK SMILES IDX 56 35 57 36 71 38 92 39 59 40 43 41 44 42 52 43 45 44 51 45
REMARK SMILES IDX 53 46 50 47 46 48 47 49 48 50 49 51 75 52 76 53 84 54 77 55
REMARK SMILES IDX 83 56 85 57 82 58 78 59 79 60 80 61 81 62 60 63 61 64 69 65
REMARK SMILES IDX 62 66 68 67 70 68 67 69 63 70 64 71 65 72 66 73 9 74 10 75
REMARK SMILES IDX 11 76 12 77 13 78 14 79 15 80 16 81 17 82 18 83 19 84 28 85
REMARK SMILES IDX 20 86 27 87 29 88 33 89 30 91 32 92 31 93 21 94 22 95 23 96
REMARK SMILES IDX 26 97 24 98 25 99
REMARK H PARENT 90 26 58 37 20 90
REMARK Flexibility Score: inf
ROOT
ATOM      1  C   UNL A   1      32.303  28.611  25.505  1.00  0.00     0.188 C 
ENDROOT
BRANCH   1   2
ATOM      2  C   UNL A   1      32.317  30.130  25.395  1.00  0.00     0.188 C 
BRANCH   2   3
ATOM      3  O   UNL A   1      33.163  30.599  26.442  1.00  0.00    -0.376 OA
BRANCH   3   4
ATOM      4  C   UNL A   1      32.538  31.419  27.415  1.00  0.00     0.202 C 
BRANCH   4   5
ATOM      5  C   UNL A   1      32.429  32.863  26.935  1.00  0.00     0.261 C 
BRANCH   5   6
ATOM      6  O   UNL A   1      32.378  33.782  28.037  1.00  0.00    -0.460 OA
BRANCH   6   7
ATOM      7  C   UNL A   1      33.405  34.362  28.709  1.00  0.00     0.338 C 
ATOM      8  O   UNL A   1      33.417  35.595  28.750  1.00  0.00    -0.246 OA
BRANCH   7   9
ATOM      9  C   UNL A   1      34.538  33.640  29.392  1.00  0.00     0.060 A 
ATOM     10  C   UNL A   1      34.433  32.699  30.422  1.00  0.00     0.016 A 
ATOM     11  C   UNL A   1      35.834  33.906  28.902  1.00  0.00     0.016 A 
ATOM     12  C   UNL A   1      35.548  32.039  30.936  1.00  0.00     0.010 A 
ATOM     13  C   UNL A   1      36.966  33.275  29.433  1.00  0.00     0.010 A 
ATOM     14  C   UNL A   1      36.821  32.347  30.468  1.00  0.00    -0.014 A 
BRANCH  14  15
ATOM     15  C   UNL A   1      37.976  31.847  31.237  1.00  0.00     0.031 A 
ATOM     16  C   UNL A   1      38.783  30.741  30.620  1.00  0.00     0.074 A 
ATOM     17  C   UNL A   1      38.360  32.454  32.373  1.00  0.00     0.049 A 
ATOM     18  N   UNL A   1      39.835  30.122  31.079  1.00  0.00    -0.248 NA
ATOM     19  C   UNL A   1      38.357  30.296  29.280  1.00  0.00     0.031 C 
ATOM     20  C   UNL A   1      37.718  33.632  32.956  1.00  0.00     0.029 A 
ATOM     21  N   UNL A   1      39.394  32.179  33.229  1.00  0.00    -0.354 N 
ATOM     22  C   UNL A   1      40.194  29.213  30.090  1.00  0.00     0.074 A 
ATOM     23  C   UNL A   1      39.252  29.362  29.005  1.00  0.00     0.031 C 
ATOM     24  C   UNL A   1      38.367  33.970  34.086  1.00  0.00     0.029 A 
ATOM     25  C   UNL A   1      39.435  33.004  34.331  1.00  0.00     0.049 A 
ATOM     26  H   UNL A   1      40.047  31.458  33.071  1.00  0.00     0.167 HD
ATOM     27  C   UNL A   1      41.213  28.322  30.102  1.00  0.00     0.034 A 
ATOM     28  C   UNL A   1      40.226  32.946  35.422  1.00  0.00     0.034 A 
ATOM     29  C   UNL A   1      42.097  28.164  31.226  1.00  0.00     0.049 A 
ATOM     30  C   UNL A   1      41.263  31.844  35.475  1.00  0.00     0.074 A 
ATOM     31  C   UNL A   1      43.102  27.235  31.417  1.00  0.00     0.029 A 
ATOM     32  N   UNL A   1      42.058  28.955  32.369  1.00  0.00    -0.354 N 
ATOM     33  N   UNL A   1      41.565  30.949  34.559  1.00  0.00    -0.248 NA
ATOM     34  C   UNL A   1      42.056  31.735  36.705  1.00  0.00     0.031 C 
ATOM     35  C   UNL A   1      43.626  27.426  32.701  1.00  0.00     0.029 A 
ATOM     36  C   UNL A   1      42.995  28.514  33.285  1.00  0.00     0.049 A 
ATOM     37  H   UNL A   1      41.450  29.718  32.507  1.00  0.00     0.167 HD
ATOM     38  C   UNL A   1      42.589  30.179  35.100  1.00  0.00     0.074 A 
ATOM     39  C   UNL A   1      42.876  30.738  36.407  1.00  0.00     0.031 C 
ATOM     40  C   UNL A   1      43.235  29.103  34.581  1.00  0.00     0.034 A 
BRANCH  27  41
ATOM     41  C   UNL A   1      41.318  27.395  28.918  1.00  0.00     0.023 A 
ATOM     42  C   UNL A   1      42.289  27.572  27.916  1.00  0.00     0.031 A 
ATOM     43  C   UNL A   1      40.365  26.376  28.745  1.00  0.00     0.131 A 
ATOM     44  C   UNL A   1      42.245  26.782  26.756  1.00  0.00     0.055 A 
ATOM     45  C   UNL A   1      40.368  25.551  27.620  1.00  0.00     0.041 A 
ATOM     46  F   UNL A   1      39.395  26.188  29.653  1.00  0.00    -0.206 F 
ATOM     47  C   UNL A   1      41.303  25.759  26.612  1.00  0.00     0.022 A 
BRANCH  44  48
ATOM     48  S   UNL A   1      43.355  27.186  25.378  1.00  0.00     0.124 S 
ATOM     49  O   UNL A   1      42.490  28.005  24.533  1.00  0.00    -0.237 OA
ATOM     50  O   UNL A   1      44.446  27.889  26.044  1.00  0.00    -0.237 OA
ATOM     51  O   UNL A   1      43.703  25.880  24.822  1.00  0.00    -0.744 OA
ENDBRANCH  44  48
ENDBRANCH  27  41
BRANCH  28  52
ATOM     52  C   UNL A   1      40.022  33.869  36.582  1.00  0.00     0.023 A 
ATOM     53  C   UNL A   1      40.998  34.805  36.964  1.00  0.00     0.031 A 
ATOM     54  C   UNL A   1      38.874  33.762  37.391  1.00  0.00     0.131 A 
ATOM     55  C   UNL A   1      40.834  35.552  38.145  1.00  0.00     0.055 A 
ATOM     56  C   UNL A   1      38.686  34.550  38.528  1.00  0.00     0.041 A 
ATOM     57  F   UNL A   1      37.910  32.875  37.093  1.00  0.00    -0.206 F 
ATOM     58  C   UNL A   1      39.679  35.440  38.922  1.00  0.00     0.022 A 
BRANCH  55  59
ATOM     59  S   UNL A   1      42.209  36.586  38.727  1.00  0.00     0.124 S 
ATOM     60  O   UNL A   1      43.265  36.237  37.785  1.00  0.00    -0.237 OA
ATOM     61  O   UNL A   1      41.650  37.929  38.601  1.00  0.00    -0.237 OA
ATOM     62  O   UNL A   1      42.422  36.128  40.099  1.00  0.00    -0.744 OA
ENDBRANCH  55  59
ENDBRANCH  28  52
BRANCH  40  63
ATOM     63  C   UNL A   1      44.318  28.493  35.431  1.00  0.00     0.023 A 
ATOM     64  C   UNL A   1      44.008  27.640  36.504  1.00  0.00     0.031 A 
ATOM     65  C   UNL A   1      45.670  28.764  35.160  1.00  0.00     0.131 A 
ATOM     66  C   UNL A   1      45.040  27.128  37.303  1.00  0.00     0.055 A 
ATOM     67  C   UNL A   1      46.693  28.206  35.924  1.00  0.00     0.041 A 
ATOM     68  F   UNL A   1      46.014  29.570  34.143  1.00  0.00    -0.206 F 
ATOM     69  C   UNL A   1      46.381  27.392  37.010  1.00  0.00     0.022 A 
BRANCH  66  70
ATOM     70  S   UNL A   1      44.600  26.168  38.776  1.00  0.00     0.124 S 
ATOM     71  O   UNL A   1      45.279  24.901  38.527  1.00  0.00    -0.237 OA
ATOM     72  O   UNL A   1      45.148  26.983  39.855  1.00  0.00    -0.237 OA
ATOM     73  O   UNL A   1      43.140  26.111  38.725  1.00  0.00    -0.744 OA
ENDBRANCH  66  70
ENDBRANCH  40  63
ENDBRANCH  14  15
ENDBRANCH   7   9
ENDBRANCH   6   7
ENDBRANCH   5   6
ENDBRANCH   4   5
ENDBRANCH   3   4
ENDBRANCH   2   3
ENDBRANCH   1   2
BRANCH   1  74
ATOM     74  O   UNL A   1      33.354  28.011  24.755  1.00  0.00    -0.377 OA
BRANCH  74  75
ATOM     75  C   UNL A   1      33.015  27.009  23.804  1.00  0.00     0.188 C 
BRANCH  75  76
ATOM     76  C   UNL A   1      33.789  27.030  22.493  1.00  0.00     0.188 C 
BRANCH  76  77
ATOM     77  O   UNL A   1      33.469  26.043  21.529  1.00  0.00    -0.376 OA
BRANCH  77  78
ATOM     78  C   UNL A   1      32.445  25.093  21.828  1.00  0.00     0.202 C 
BRANCH  78  79
ATOM     79  C   UNL A   1      32.857  23.637  22.085  1.00  0.00     0.261 C 
BRANCH  79  80
ATOM     80  O   UNL A   1      32.584  23.190  23.447  1.00  0.00    -0.463 OA
BRANCH  80  81
ATOM     81  C   UNL A   1      32.749  21.870  23.670  1.00  0.00     0.315 C 
ATOM     82  O   UNL A   1      31.944  21.021  23.282  1.00  0.00    -0.252 OA
BRANCH  81  83
ATOM     83  C   UNL A   1      33.952  21.411  24.495  1.00  0.00     0.166 C 
ATOM     84  C   UNL A   1      33.357  20.536  25.600  1.00  0.00     0.278 C 
ATOM     85  C   UNL A   1      35.147  22.168  25.167  1.00  0.00     0.043 C 
ATOM     86  N   UNL A   1      33.815  21.059  26.876  1.00  0.00    -0.327 N 
ATOM     87  C   UNL A   1      35.102  21.694  26.645  1.00  0.00     0.270 C 
ATOM     88  C   UNL A   1      36.494  21.697  24.523  1.00  0.00     0.042 C 
ATOM     89  C   UNL A   1      35.211  23.692  25.056  1.00  0.00     0.042 C 
ATOM     90  H   UNL A   1      33.944  20.286  27.529  1.00  0.00     0.348 HD
ATOM     91  C   UNL A   1      37.717  22.375  25.148  1.00  0.00     0.161 C 
ATOM     92  C   UNL A   1      36.443  24.297  25.727  1.00  0.00     0.161 C 
ATOM     93  O   UNL A   1      37.627  23.796  25.101  1.00  0.00    -0.381 OA
BRANCH  86  94
ATOM     94  C   UNL A   1      32.836  21.814  27.666  1.00  0.00     0.338 C 
BRANCH  94  95
ATOM     95  C   UNL A   1      32.163  22.989  27.040  1.00  0.00     0.157 A 
ATOM     96  C   UNL A   1      32.581  24.262  26.708  1.00  0.00     0.052 A 
ATOM     97  O   UNL A   1      30.880  22.802  26.598  1.00  0.00    -0.463 OA
ATOM     98  C   UNL A   1      31.479  24.906  26.091  1.00  0.00     0.042 A 
ATOM     99  C   UNL A   1      30.474  23.972  26.037  1.00  0.00     0.195 A 
ENDBRANCH  94  95
ENDBRANCH  86  94
ENDBRANCH  81  83
ENDBRANCH  80  81
ENDBRANCH  79  80
ENDBRANCH  78  79
ENDBRANCH  77  78
ENDBRANCH  76  77
ENDBRANCH  75  76
ENDBRANCH  74  75
ENDBRANCH   1  74
TORSDOF 25
ENDMDL
MODEL 3
REMARK VINA RESULT:      -8.9      5.443      8.931
REMARK SMILES O=C(OCCOCCOCCOCCOC(=O)[C@@H]1C[N@H+](Cc2ccco2)CC12CCOCC2)c1ccc(-c2c3nc(c(-c4cc(S(=O)(=O)[O-])ccc4F)c4ccc([nH]4)c(-c4cc(S(=O)(=O)[O-])ccc4F)c4nc(c(-c5cc(S(=O)(=O)[O-])ccc5F)c5ccc2[nH]5)C=C4)C=C3)cc1
REMARK SMILES IDX 8 1 7 2 6 3 5 4 4 5 3 6 2 7 1 8 34 9 35 10 96 11 36 12 95 13
REMARK SMILES IDX 37 14 38 15 39 16 89 17 40 18 94 19 88 20 90 21 41 22 93 23
REMARK SMILES IDX 87 24 86 25 42 27 74 28 54 29 73 30 55 31 58 32 72 33 91 34
REMARK SMILES IDX 56 35 57 36 71 38 92 39 59 40 43 41 44 42 52 43 45 44 51 45
REMARK SMILES IDX 53 46 50 47 46 48 47 49 48 50 49 51 75 52 76 53 84 54 77 55
REMARK SMILES IDX 83 56 85 57 82 58 78 59 79 60 80 61 81 62 60 63 61 64 69 65
REMARK SMILES IDX 62 66 68 67 70 68 67 69 63 70 64 71 65 72 66 73 9 74 10 75
REMARK SMILES IDX 11 76 12 77 13 78 14 79 15 80 16 81 17 82 18 83 19 84 28 85
REMARK SMILES IDX 20 86 27 87 29 88 33 89 30 91 32 92 31 93 21 94 22 95 23 96
REMARK SMILES IDX 26 97 24 98 25 99
REMARK H PARENT 90 26 58 37 20 90
REMARK Flexibility Score: inf
ROOT
ATOM      1  C   UNL A   1      41.048  21.899  27.553  1.00  0.00     0.188 C 
ENDROOT
BRANCH   1   2
ATOM      2  C   UNL A   1      42.360  21.677  26.813  1.00  0.00     0.188 C 
BRANCH   2   3
ATOM      3  O   UNL A   1      43.276  22.642  27.325  1.00  0.00    -0.376 OA
BRANCH   3   4
ATOM      4  C   UNL A   1      44.164  23.209  26.376  1.00  0.00     0.202 C 
BRANCH   4   5
ATOM      5  C   UNL A   1      43.462  23.468  25.047  1.00  0.00     0.261 C 
BRANCH   5   6
ATOM      6  O   UNL A   1      43.312  24.874  24.796  1.00  0.00    -0.460 OA
BRANCH   6   7
ATOM      7  C   UNL A   1      42.454  25.755  25.373  1.00  0.00     0.338 C 
ATOM      8  O   UNL A   1      41.251  25.573  25.171  1.00  0.00    -0.246 OA
BRANCH   7   9
ATOM      9  C   UNL A   1      42.838  26.941  26.221  1.00  0.00     0.060 A 
ATOM     10  C   UNL A   1      43.612  26.924  27.386  1.00  0.00     0.016 A 
ATOM     11  C   UNL A   1      42.414  28.204  25.756  1.00  0.00     0.016 A 
ATOM     12  C   UNL A   1      43.965  28.094  28.056  1.00  0.00     0.010 A 
ATOM     13  C   UNL A   1      42.733  29.385  26.439  1.00  0.00     0.010 A 
ATOM     14  C   UNL A   1      43.501  29.325  27.605  1.00  0.00    -0.014 A 
BRANCH  14  15
ATOM     15  C   UNL A   1      43.652  30.487  28.501  1.00  0.00     0.031 A 
ATOM     16  C   UNL A   1      42.495  30.811  29.403  1.00  0.00     0.074 A 
ATOM     17  C   UNL A   1      44.825  31.136  28.595  1.00  0.00     0.049 A 
ATOM     18  N   UNL A   1      42.363  31.771  30.275  1.00  0.00    -0.248 NA
ATOM     19  C   UNL A   1      41.338  29.900  29.328  1.00  0.00     0.031 C 
ATOM     20  C   UNL A   1      46.042  30.783  27.863  1.00  0.00     0.029 A 
ATOM     21  N   UNL A   1      45.194  32.212  29.358  1.00  0.00    -0.354 N 
ATOM     22  C   UNL A   1      41.111  31.584  30.850  1.00  0.00     0.074 A 
ATOM     23  C   UNL A   1      40.522  30.419  30.230  1.00  0.00     0.031 C 
ATOM     24  C   UNL A   1      47.021  31.640  28.205  1.00  0.00     0.029 A 
ATOM     25  C   UNL A   1      46.487  32.630  29.138  1.00  0.00     0.049 A 
ATOM     26  H   UNL A   1      44.590  32.647  30.004  1.00  0.00     0.167 HD
ATOM     27  C   UNL A   1      40.504  32.335  31.798  1.00  0.00     0.034 A 
ATOM     28  C   UNL A   1      47.136  33.713  29.612  1.00  0.00     0.034 A 
ATOM     29  C   UNL A   1      41.099  33.523  32.350  1.00  0.00     0.049 A 
ATOM     30  C   UNL A   1      46.380  34.619  30.560  1.00  0.00     0.074 A 
ATOM     31  C   UNL A   1      40.559  34.434  33.238  1.00  0.00     0.029 A 
ATOM     32  N   UNL A   1      42.378  33.973  32.040  1.00  0.00    -0.354 N 
ATOM     33  N   UNL A   1      45.172  34.469  31.060  1.00  0.00    -0.248 NA
ATOM     34  C   UNL A   1      47.064  35.842  30.999  1.00  0.00     0.031 C 
ATOM     35  C   UNL A   1      41.487  35.467  33.413  1.00  0.00     0.029 A 
ATOM     36  C   UNL A   1      42.632  35.167  32.690  1.00  0.00     0.049 A 
ATOM     37  H   UNL A   1      43.011  33.510  31.445  1.00  0.00     0.167 HD
ATOM     38  C   UNL A   1      44.958  35.573  31.880  1.00  0.00     0.074 A 
ATOM     39  C   UNL A   1      46.174  36.361  31.833  1.00  0.00     0.031 C 
ATOM     40  C   UNL A   1      43.861  35.919  32.602  1.00  0.00     0.034 A 
BRANCH  27  41
ATOM     41  C   UNL A   1      39.099  31.944  32.177  1.00  0.00     0.023 A 
ATOM     42  C   UNL A   1      37.985  32.334  31.414  1.00  0.00     0.031 A 
ATOM     43  C   UNL A   1      38.869  31.250  33.378  1.00  0.00     0.131 A 
ATOM     44  C   UNL A   1      36.689  32.082  31.893  1.00  0.00     0.055 A 
ATOM     45  C   UNL A   1      37.580  30.945  33.816  1.00  0.00     0.041 A 
ATOM     46  F   UNL A   1      39.896  30.886  34.163  1.00  0.00    -0.206 F 
ATOM     47  C   UNL A   1      36.480  31.372  33.079  1.00  0.00     0.022 A 
BRANCH  44  48
ATOM     48  S   UNL A   1      35.274  32.804  31.014  1.00  0.00     0.124 S 
ATOM     49  O   UNL A   1      34.188  32.573  31.962  1.00  0.00    -0.237 OA
ATOM     50  O   UNL A   1      35.683  34.193  30.839  1.00  0.00    -0.237 OA
ATOM     51  O   UNL A   1      35.197  32.018  29.784  1.00  0.00    -0.744 OA
ENDBRANCH  44  48
ENDBRANCH  27  41
BRANCH  28  52
ATOM     52  C   UNL A   1      48.513  34.064  29.143  1.00  0.00     0.023 A 
ATOM     53  C   UNL A   1      48.732  34.741  27.931  1.00  0.00     0.031 A 
ATOM     54  C   UNL A   1      49.647  33.641  29.863  1.00  0.00     0.131 A 
ATOM     55  C   UNL A   1      50.042  34.924  27.453  1.00  0.00     0.055 A 
ATOM     56  C   UNL A   1      50.948  33.880  29.415  1.00  0.00     0.041 A 
ATOM     57  F   UNL A   1      49.509  32.973  31.020  1.00  0.00    -0.206 F 
ATOM     58  C   UNL A   1      51.151  34.510  28.193  1.00  0.00     0.022 A 
BRANCH  55  59
ATOM     59  S   UNL A   1      50.280  35.601  25.784  1.00  0.00     0.124 S 
ATOM     60  O   UNL A   1      51.711  35.409  25.584  1.00  0.00    -0.237 OA
ATOM     61  O   UNL A   1      49.399  34.752  24.987  1.00  0.00    -0.237 OA
ATOM     62  O   UNL A   1      49.850  36.991  25.916  1.00  0.00    -0.744 OA
ENDBRANCH  55  59
ENDBRANCH  28  52
BRANCH  40  63
ATOM     63  C   UNL A   1      43.956  37.192  33.402  1.00  0.00     0.023 A 
ATOM     64  C   UNL A   1      43.575  38.428  32.854  1.00  0.00     0.031 A 
ATOM     65  C   UNL A   1      44.427  37.163  34.726  1.00  0.00     0.131 A 
ATOM     66  C   UNL A   1      43.721  39.597  33.612  1.00  0.00     0.055 A 
ATOM     67  C   UNL A   1      44.516  38.322  35.493  1.00  0.00     0.041 A 
ATOM     68  F   UNL A   1      44.799  36.004  35.293  1.00  0.00    -0.206 F 
ATOM     69  C   UNL A   1      44.174  39.551  34.934  1.00  0.00     0.022 A 
BRANCH  66  70
ATOM     70  S   UNL A   1      43.379  41.192  32.821  1.00  0.00     0.124 S 
ATOM     71  O   UNL A   1      42.024  40.994  32.314  1.00  0.00    -0.237 OA
ATOM     72  O   UNL A   1      43.513  42.128  33.932  1.00  0.00    -0.237 OA
ATOM     73  O   UNL A   1      44.416  41.294  31.795  1.00  0.00    -0.744 OA
ENDBRANCH  66  70
ENDBRANCH  40  63
ENDBRANCH  14  15
ENDBRANCH   7   9
ENDBRANCH   6   7
ENDBRANCH   5   6
ENDBRANCH   4   5
ENDBRANCH   3   4
ENDBRANCH   2   3
ENDBRANCH   1   2
BRANCH   1  74
ATOM     74  O   UNL A   1      39.975  21.169  26.968  1.00  0.00    -0.377 OA
BRANCH  74  75
ATOM     75  C   UNL A   1      39.064  21.868  26.128  1.00  0.00     0.188 C 
BRANCH  75  76
ATOM     76  C   UNL A   1      38.819  23.333  26.464  1.00  0.00     0.188 C 
BRANCH  76  77
ATOM     77  O   UNL A   1      37.599  23.908  26.032  1.00  0.00    -0.376 OA
BRANCH  77  78
ATOM     78  C   UNL A   1      36.995  23.422  24.831  1.00  0.00     0.202 C 
BRANCH  78  79
ATOM     79  C   UNL A   1      35.707  24.097  24.342  1.00  0.00     0.261 C 
BRANCH  79  80
ATOM     80  O   UNL A   1      35.193  23.532  23.098  1.00  0.00    -0.463 OA
BRANCH  80  81
ATOM     81  C   UNL A   1      33.913  23.838  22.805  1.00  0.00     0.315 C 
ATOM     82  O   UNL A   1      33.583  24.914  22.301  1.00  0.00    -0.252 OA
BRANCH  81  83
ATOM     83  C   UNL A   1      32.817  22.837  23.171  1.00  0.00     0.166 C 
ATOM     84  C   UNL A   1      31.745  23.672  23.874  1.00  0.00     0.278 C 
ATOM     85  C   UNL A   1      32.823  21.461  23.917  1.00  0.00     0.043 C 
ATOM     86  N   UNL A   1      31.488  23.065  25.169  1.00  0.00    -0.327 N 
ATOM     87  C   UNL A   1      31.770  21.645  25.043  1.00  0.00     0.270 C 
ATOM     88  C   UNL A   1      32.335  20.335  22.944  1.00  0.00     0.042 C 
ATOM     89  C   UNL A   1      34.149  20.920  24.455  1.00  0.00     0.042 C 
ATOM     90  H   UNL A   1      30.502  23.184  25.406  1.00  0.00     0.348 HD
ATOM     91  C   UNL A   1      32.288  18.957  23.611  1.00  0.00     0.161 C 
ATOM     92  C   UNL A   1      34.015  19.556  25.131  1.00  0.00     0.161 C 
ATOM     93  O   UNL A   1      33.540  18.594  24.185  1.00  0.00    -0.381 OA
BRANCH  86  94
ATOM     94  C   UNL A   1      32.049  23.752  26.338  1.00  0.00     0.338 C 
BRANCH  94  95
ATOM     95  C   UNL A   1      32.163  25.238  26.310  1.00  0.00     0.157 A 
ATOM     96  C   UNL A   1      33.125  26.112  25.843  1.00  0.00     0.052 A 
ATOM     97  O   UNL A   1      31.078  25.949  26.748  1.00  0.00    -0.463 OA
ATOM     98  C   UNL A   1      32.630  27.421  26.065  1.00  0.00     0.042 A 
ATOM     99  C   UNL A   1      31.376  27.267  26.606  1.00  0.00     0.195 A 
ENDBRANCH  94  95
ENDBRANCH  86  94
ENDBRANCH  81  83
ENDBRANCH  80  81
ENDBRANCH  79  80
ENDBRANCH  78  79
ENDBRANCH  77  78
ENDBRANCH  76  77
ENDBRANCH  75  76
ENDBRANCH  74  75
ENDBRANCH   1  74
TORSDOF 25
ENDMDL
