MODEL 1
REMARK VINA RESULT:      -8.0      0.000      0.000
REMARK SMILES CC(C)(C[S@](=O)c1cccc(Cl)c1)C(=O)OCCOCCOCCOCCOC(=O)c1ccc(-c2c3nc(c(-c4cc(S(=O)(=O)[O-])ccc4F)c4ccc([nH]4)c(-c4cc(S(=O)(=O)[O-])ccc4F)c4nc(c(-c5cc(S(=O)(=O)[O-])ccc5F)c5ccc2[nH]5)C=C4)C=C3)cc1
REMARK SMILES IDX 22 1 21 2 20 3 19 4 18 5 17 6 16 7 14 8 15 9 2 10 1 11 3 12
REMARK SMILES IDX 4 13 5 14 6 15 7 16 8 17 13 18 9 19 11 20 10 21 12 22 23 23
REMARK SMILES IDX 24 24 25 25 26 26 27 27 28 28 29 29 30 30 31 31 32 32 93 33
REMARK SMILES IDX 33 34 92 35 34 36 35 37 36 38 86 39 37 40 91 41 85 42 87 43
REMARK SMILES IDX 38 44 90 45 84 46 83 47 39 49 71 50 51 51 70 52 52 53 55 54
REMARK SMILES IDX 69 55 88 56 53 57 54 58 68 60 89 61 56 62 40 63 41 64 49 65
REMARK SMILES IDX 42 66 48 67 50 68 47 69 43 70 44 71 45 72 46 73 72 74 73 75
REMARK SMILES IDX 81 76 74 77 80 78 82 79 79 80 75 81 76 82 77 83 78 84 57 85
REMARK SMILES IDX 58 86 66 87 59 88 65 89 67 90 64 91 60 92 61 93 62 94 63 95
REMARK H PARENT 87 48 55 59
REMARK Flexibility Score: inf
ROOT
ATOM      1  O   UNL A   1      32.776  36.897  31.233  1.00  0.00    -0.377 OA
ENDROOT
BRANCH   1   2
ATOM      2  C   UNL A   1      32.717  35.820  30.324  1.00  0.00     0.188 C 
BRANCH   2   3
ATOM      3  C   UNL A   1      33.659  35.918  29.113  1.00  0.00     0.188 C 
BRANCH   3   4
ATOM      4  O   UNL A   1      33.703  34.891  28.135  1.00  0.00    -0.376 OA
BRANCH   4   5
ATOM      5  C   UNL A   1      33.323  33.566  28.474  1.00  0.00     0.202 C 
BRANCH   5   6
ATOM      6  C   UNL A   1      33.926  32.379  27.696  1.00  0.00     0.261 C 
BRANCH   6   7
ATOM      7  O   UNL A   1      33.068  31.260  27.359  1.00  0.00    -0.463 OA
BRANCH   7   8
ATOM      8  C   UNL A   1      33.656  30.043  27.188  1.00  0.00     0.312 C 
ATOM      9  O   UNL A   1      34.764  29.758  27.627  1.00  0.00    -0.252 OA
BRANCH   8  10
ATOM     10  C   UNL A   1      32.841  29.078  26.286  1.00  0.00     0.074 C 
ATOM     11  C   UNL A   1      31.776  29.877  25.524  1.00  0.00     0.024 C 
ATOM     12  C   UNL A   1      32.062  28.212  27.315  1.00  0.00     0.024 C 
BRANCH  10  13
ATOM     13  C   UNL A   1      33.667  28.098  25.422  1.00  0.00     0.128 C 
BRANCH  13  14
ATOM     14  S   UNL A   1      33.127  26.590  24.594  1.00  0.00     0.054 S 
ATOM     15  O   UNL A   1      31.837  26.870  23.885  1.00  0.00    -0.254 OA
BRANCH  14  16
ATOM     16  C   UNL A   1      32.782  25.150  25.589  1.00  0.00     0.040 A 
ATOM     17  C   UNL A   1      33.913  24.434  26.031  1.00  0.00     0.018 A 
ATOM     18  C   UNL A   1      31.533  24.633  25.905  1.00  0.00     0.038 A 
ATOM     19  C   UNL A   1      33.800  23.302  26.844  1.00  0.00     0.003 A 
ATOM     20  C   UNL A   1      31.415  23.514  26.741  1.00  0.00     0.042 A 
ATOM     21  C   UNL A   1      32.542  22.855  27.224  1.00  0.00     0.020 A 
ATOM     22  Cl  UNL A   1      29.852  22.959  27.202  1.00  0.00    -0.084 Cl
ENDBRANCH  14  16
ENDBRANCH  13  14
ENDBRANCH  10  13
ENDBRANCH   8  10
ENDBRANCH   7   8
ENDBRANCH   6   7
ENDBRANCH   5   6
ENDBRANCH   4   5
ENDBRANCH   3   4
ENDBRANCH   2   3
ENDBRANCH   1   2
BRANCH   1  23
ATOM     23  C   UNL A   1      33.333  36.595  32.505  1.00  0.00     0.188 C 
BRANCH  23  24
ATOM     24  C   UNL A   1      34.581  35.697  32.491  1.00  0.00     0.188 C 
BRANCH  24  25
ATOM     25  O   UNL A   1      34.664  34.838  33.622  1.00  0.00    -0.376 OA
BRANCH  25  26
ATOM     26  C   UNL A   1      34.649  33.429  33.459  1.00  0.00     0.202 C 
BRANCH  26  27
ATOM     27  C   UNL A   1      34.467  32.782  32.072  1.00  0.00     0.261 C 
BRANCH  27  28
ATOM     28  O   UNL A   1      35.594  32.123  31.483  1.00  0.00    -0.460 OA
BRANCH  28  29
ATOM     29  C   UNL A   1      36.491  32.876  30.810  1.00  0.00     0.338 C 
ATOM     30  O   UNL A   1      36.264  33.893  30.194  1.00  0.00    -0.246 OA
BRANCH  29  31
ATOM     31  C   UNL A   1      37.842  32.369  31.158  1.00  0.00     0.060 A 
ATOM     32  C   UNL A   1      38.947  32.919  30.496  1.00  0.00     0.016 A 
ATOM     33  C   UNL A   1      38.023  31.367  32.118  1.00  0.00     0.016 A 
ATOM     34  C   UNL A   1      40.227  32.429  30.744  1.00  0.00     0.010 A 
ATOM     35  C   UNL A   1      39.306  30.854  32.343  1.00  0.00     0.010 A 
ATOM     36  C   UNL A   1      40.404  31.350  31.617  1.00  0.00    -0.014 A 
BRANCH  36  37
ATOM     37  C   UNL A   1      41.677  30.590  31.541  1.00  0.00     0.031 A 
ATOM     38  C   UNL A   1      42.718  30.860  32.598  1.00  0.00     0.074 A 
ATOM     39  C   UNL A   1      41.866  29.619  30.630  1.00  0.00     0.049 A 
ATOM     40  N   UNL A   1      43.892  30.311  32.772  1.00  0.00    -0.248 NA
ATOM     41  C   UNL A   1      42.385  31.891  33.594  1.00  0.00     0.031 C 
ATOM     42  C   UNL A   1      40.903  29.227  29.601  1.00  0.00     0.029 A 
ATOM     43  N   UNL A   1      42.932  28.777  30.430  1.00  0.00    -0.354 N 
ATOM     44  C   UNL A   1      44.436  30.931  33.893  1.00  0.00     0.074 A 
ATOM     45  C   UNL A   1      43.483  31.925  34.332  1.00  0.00     0.031 C 
ATOM     46  C   UNL A   1      41.427  28.222  28.877  1.00  0.00     0.029 A 
ATOM     47  C   UNL A   1      42.772  27.922  29.365  1.00  0.00     0.049 A 
ATOM     48  H   UNL A   1      43.737  28.785  30.998  1.00  0.00     0.167 HD
ATOM     49  C   UNL A   1      45.621  30.688  34.505  1.00  0.00     0.034 A 
ATOM     50  C   UNL A   1      43.623  27.019  28.835  1.00  0.00     0.034 A 
ATOM     51  C   UNL A   1      46.563  29.697  34.050  1.00  0.00     0.049 A 
ATOM     52  C   UNL A   1      44.972  26.821  29.491  1.00  0.00     0.074 A 
ATOM     53  C   UNL A   1      47.791  29.363  34.593  1.00  0.00     0.029 A 
ATOM     54  N   UNL A   1      46.389  28.885  32.936  1.00  0.00    -0.354 N 
ATOM     55  N   UNL A   1      45.476  27.414  30.550  1.00  0.00    -0.248 NA
ATOM     56  C   UNL A   1      45.858  25.817  28.890  1.00  0.00     0.031 C 
ATOM     57  C   UNL A   1      48.395  28.414  33.761  1.00  0.00     0.029 A 
ATOM     58  C   UNL A   1      47.501  28.077  32.757  1.00  0.00     0.049 A 
ATOM     59  H   UNL A   1      45.592  28.884  32.357  1.00  0.00     0.167 HD
ATOM     60  C   UNL A   1      46.720  26.820  30.764  1.00  0.00     0.074 A 
ATOM     61  C   UNL A   1      46.875  25.812  29.735  1.00  0.00     0.031 C 
ATOM     62  C   UNL A   1      47.646  27.077  31.724  1.00  0.00     0.034 A 
BRANCH  49  63
ATOM     63  C   UNL A   1      45.985  31.553  35.688  1.00  0.00     0.023 A 
ATOM     64  C   UNL A   1      46.522  32.844  35.537  1.00  0.00     0.031 A 
ATOM     65  C   UNL A   1      45.809  31.064  36.996  1.00  0.00     0.131 A 
ATOM     66  C   UNL A   1      46.917  33.575  36.668  1.00  0.00     0.055 A 
ATOM     67  C   UNL A   1      46.127  31.829  38.119  1.00  0.00     0.041 A 
ATOM     68  F   UNL A   1      45.330  29.827  37.203  1.00  0.00    -0.206 F 
ATOM     69  C   UNL A   1      46.696  33.088  37.958  1.00  0.00     0.022 A 
BRANCH  66  70
ATOM     70  S   UNL A   1      47.850  35.113  36.430  1.00  0.00     0.124 S 
ATOM     71  O   UNL A   1      48.341  34.952  35.064  1.00  0.00    -0.237 OA
ATOM     72  O   UNL A   1      46.828  36.136  36.626  1.00  0.00    -0.237 OA
ATOM     73  O   UNL A   1      48.879  35.053  37.466  1.00  0.00    -0.744 OA
ENDBRANCH  66  70
ENDBRANCH  49  63
BRANCH  50  74
ATOM     74  C   UNL A   1      43.262  26.261  27.600  1.00  0.00     0.023 A 
ATOM     75  C   UNL A   1      42.778  24.944  27.659  1.00  0.00     0.031 A 
ATOM     76  C   UNL A   1      43.482  26.821  26.327  1.00  0.00     0.131 A 
ATOM     77  C   UNL A   1      42.589  24.211  26.476  1.00  0.00     0.055 A 
ATOM     78  C   UNL A   1      43.229  26.112  25.152  1.00  0.00     0.041 A 
ATOM     79  F   UNL A   1      43.951  28.073  26.207  1.00  0.00    -0.206 F 
ATOM     80  C   UNL A   1      42.796  24.791  25.223  1.00  0.00     0.022 A 
BRANCH  77  81
ATOM     81  S   UNL A   1      42.183  22.447  26.598  1.00  0.00     0.124 S 
ATOM     82  O   UNL A   1      40.769  22.492  26.953  1.00  0.00    -0.237 OA
ATOM     83  O   UNL A   1      42.493  21.972  25.253  1.00  0.00    -0.237 OA
ATOM     84  O   UNL A   1      43.076  21.964  27.648  1.00  0.00    -0.744 OA
ENDBRANCH  77  81
ENDBRANCH  50  74
BRANCH  62  85
ATOM     85  C   UNL A   1      48.881  26.203  31.744  1.00  0.00     0.023 A 
ATOM     86  C   UNL A   1      48.971  25.055  32.550  1.00  0.00     0.031 A 
ATOM     87  C   UNL A   1      50.003  26.550  30.968  1.00  0.00     0.131 A 
ATOM     88  C   UNL A   1      50.182  24.350  32.632  1.00  0.00     0.055 A 
ATOM     89  C   UNL A   1      51.176  25.795  30.989  1.00  0.00     0.041 A 
ATOM     90  F   UNL A   1      49.980  27.635  30.178  1.00  0.00    -0.206 F 
ATOM     91  C   UNL A   1      51.279  24.701  31.841  1.00  0.00     0.022 A 
BRANCH  88  92
ATOM     92  S   UNL A   1      50.353  23.064  33.900  1.00  0.00     0.124 S 
ATOM     93  O   UNL A   1      51.159  22.063  33.208  1.00  0.00    -0.237 OA
ATOM     94  O   UNL A   1      51.018  23.780  34.983  1.00  0.00    -0.237 OA
ATOM     95  O   UNL A   1      48.973  22.667  34.174  1.00  0.00    -0.744 OA
ENDBRANCH  88  92
ENDBRANCH  62  85
ENDBRANCH  36  37
ENDBRANCH  29  31
ENDBRANCH  28  29
ENDBRANCH  27  28
ENDBRANCH  26  27
ENDBRANCH  25  26
ENDBRANCH  24  25
ENDBRANCH  23  24
ENDBRANCH   1  23
TORSDOF 26
ENDMDL
MODEL 2
REMARK VINA RESULT:      -7.6      8.891     13.268
REMARK SMILES CC(C)(C[S@](=O)c1cccc(Cl)c1)C(=O)OCCOCCOCCOCCOC(=O)c1ccc(-c2c3nc(c(-c4cc(S(=O)(=O)[O-])ccc4F)c4ccc([nH]4)c(-c4cc(S(=O)(=O)[O-])ccc4F)c4nc(c(-c5cc(S(=O)(=O)[O-])ccc5F)c5ccc2[nH]5)C=C4)C=C3)cc1
REMARK SMILES IDX 22 1 21 2 20 3 19 4 18 5 17 6 16 7 14 8 15 9 2 10 1 11 3 12
REMARK SMILES IDX 4 13 5 14 6 15 7 16 8 17 13 18 9 19 11 20 10 21 12 22 23 23
REMARK SMILES IDX 24 24 25 25 26 26 27 27 28 28 29 29 30 30 31 31 32 32 93 33
REMARK SMILES IDX 33 34 92 35 34 36 35 37 36 38 86 39 37 40 91 41 85 42 87 43
REMARK SMILES IDX 38 44 90 45 84 46 83 47 39 49 71 50 51 51 70 52 52 53 55 54
REMARK SMILES IDX 69 55 88 56 53 57 54 58 68 60 89 61 56 62 40 63 41 64 49 65
REMARK SMILES IDX 42 66 48 67 50 68 47 69 43 70 44 71 45 72 46 73 72 74 73 75
REMARK SMILES IDX 81 76 74 77 80 78 82 79 79 80 75 81 76 82 77 83 78 84 57 85
REMARK SMILES IDX 58 86 66 87 59 88 65 89 67 90 64 91 60 92 61 93 62 94 63 95
REMARK H PARENT 87 48 55 59
REMARK Flexibility Score: inf
ROOT
ATOM      1  O   UNL A   1      43.149  40.399  29.900  1.00  0.00    -0.377 OA
ENDROOT
BRANCH   1   2
ATOM      2  C   UNL A   1      43.114  39.532  28.788  1.00  0.00     0.188 C 
BRANCH   2   3
ATOM      3  C   UNL A   1      41.761  39.432  28.064  1.00  0.00     0.188 C 
BRANCH   3   4
ATOM      4  O   UNL A   1      41.678  39.535  26.651  1.00  0.00    -0.376 OA
BRANCH   4   5
ATOM      5  C   UNL A   1      41.582  40.809  26.033  1.00  0.00     0.202 C 
BRANCH   5   6
ATOM      6  C   UNL A   1      42.816  41.408  25.330  1.00  0.00     0.261 C 
BRANCH   6   7
ATOM      7  O   UNL A   1      44.035  41.587  26.094  1.00  0.00    -0.463 OA
BRANCH   7   8
ATOM      8  C   UNL A   1      45.056  40.715  25.867  1.00  0.00     0.312 C 
ATOM      9  O   UNL A   1      44.964  39.504  26.035  1.00  0.00    -0.252 OA
BRANCH   8  10
ATOM     10  C   UNL A   1      46.392  41.405  25.480  1.00  0.00     0.074 C 
ATOM     11  C   UNL A   1      46.902  40.812  24.160  1.00  0.00     0.024 C 
ATOM     12  C   UNL A   1      47.375  40.904  26.574  1.00  0.00     0.024 C 
BRANCH  10  13
ATOM     13  C   UNL A   1      46.404  42.949  25.551  1.00  0.00     0.128 C 
BRANCH  13  14
ATOM     14  S   UNL A   1      47.300  44.122  24.516  1.00  0.00     0.054 S 
ATOM     15  O   UNL A   1      47.581  45.353  25.323  1.00  0.00    -0.254 OA
BRANCH  14  16
ATOM     16  C   UNL A   1      46.505  44.733  23.039  1.00  0.00     0.040 A 
ATOM     17  C   UNL A   1      47.090  45.880  22.468  1.00  0.00     0.018 A 
ATOM     18  C   UNL A   1      45.348  44.243  22.450  1.00  0.00     0.038 A 
ATOM     19  C   UNL A   1      46.596  46.455  21.293  1.00  0.00     0.003 A 
ATOM     20  C   UNL A   1      44.863  44.799  21.258  1.00  0.00     0.042 A 
ATOM     21  C   UNL A   1      45.491  45.893  20.669  1.00  0.00     0.020 A 
ATOM     22  Cl  UNL A   1      43.487  44.104  20.493  1.00  0.00    -0.084 Cl
ENDBRANCH  14  16
ENDBRANCH  13  14
ENDBRANCH  10  13
ENDBRANCH   8  10
ENDBRANCH   7   8
ENDBRANCH   6   7
ENDBRANCH   5   6
ENDBRANCH   4   5
ENDBRANCH   3   4
ENDBRANCH   2   3
ENDBRANCH   1   2
BRANCH   1  23
ATOM     23  C   UNL A   1      43.726  41.676  29.662  1.00  0.00     0.188 C 
BRANCH  23  24
ATOM     24  C   UNL A   1      45.093  41.925  30.319  1.00  0.00     0.188 C 
BRANCH  24  25
ATOM     25  O   UNL A   1      45.374  43.305  30.517  1.00  0.00    -0.376 OA
BRANCH  25  26
ATOM     26  C   UNL A   1      44.517  44.109  31.313  1.00  0.00     0.202 C 
BRANCH  26  27
ATOM     27  C   UNL A   1      44.895  44.504  32.754  1.00  0.00     0.261 C 
BRANCH  27  28
ATOM     28  O   UNL A   1      44.385  43.703  33.827  1.00  0.00    -0.460 OA
BRANCH  28  29
ATOM     29  C   UNL A   1      45.232  42.848  34.440  1.00  0.00     0.338 C 
ATOM     30  O   UNL A   1      46.077  43.130  35.261  1.00  0.00    -0.246 OA
BRANCH  29  31
ATOM     31  C   UNL A   1      44.786  41.471  34.109  1.00  0.00     0.060 A 
ATOM     32  C   UNL A   1      45.617  40.402  34.466  1.00  0.00     0.016 A 
ATOM     33  C   UNL A   1      43.572  41.233  33.455  1.00  0.00     0.016 A 
ATOM     34  C   UNL A   1      45.269  39.099  34.118  1.00  0.00     0.010 A 
ATOM     35  C   UNL A   1      43.239  39.926  33.078  1.00  0.00     0.010 A 
ATOM     36  C   UNL A   1      44.114  38.863  33.364  1.00  0.00    -0.014 A 
BRANCH  36  37
ATOM     37  C   UNL A   1      43.992  37.561  32.659  1.00  0.00     0.031 A 
ATOM     38  C   UNL A   1      44.892  37.319  31.474  1.00  0.00     0.074 A 
ATOM     39  C   UNL A   1      43.186  36.585  33.115  1.00  0.00     0.049 A 
ATOM     40  N   UNL A   1      45.003  36.261  30.714  1.00  0.00    -0.248 NA
ATOM     41  C   UNL A   1      45.791  38.423  31.101  1.00  0.00     0.031 C 
ATOM     42  C   UNL A   1      42.319  36.685  34.288  1.00  0.00     0.029 A 
ATOM     43  N   UNL A   1      42.973  35.312  32.647  1.00  0.00    -0.354 N 
ATOM     44  C   UNL A   1      45.979  36.575  29.772  1.00  0.00     0.074 A 
ATOM     45  C   UNL A   1      46.398  37.934  30.032  1.00  0.00     0.031 C 
ATOM     46  C   UNL A   1      41.666  35.520  34.446  1.00  0.00     0.029 A 
ATOM     47  C   UNL A   1      42.039  34.606  33.368  1.00  0.00     0.049 A 
ATOM     48  H   UNL A   1      43.447  34.940  31.868  1.00  0.00     0.167 HD
ATOM     49  C   UNL A   1      46.485  35.796  28.785  1.00  0.00     0.034 A 
ATOM     50  C   UNL A   1      41.531  33.372  33.163  1.00  0.00     0.034 A 
ATOM     51  C   UNL A   1      46.052  34.444  28.536  1.00  0.00     0.049 A 
ATOM     52  C   UNL A   1      42.057  32.552  32.007  1.00  0.00     0.074 A 
ATOM     53  C   UNL A   1      46.496  33.562  27.566  1.00  0.00     0.029 A 
ATOM     54  N   UNL A   1      45.065  33.780  29.254  1.00  0.00    -0.354 N 
ATOM     55  N   UNL A   1      42.980  32.859  31.122  1.00  0.00    -0.248 NA
ATOM     56  C   UNL A   1      41.487  31.210  31.835  1.00  0.00     0.031 C 
ATOM     57  C   UNL A   1      45.721  32.401  27.643  1.00  0.00     0.029 A 
ATOM     58  C   UNL A   1      44.864  32.513  28.727  1.00  0.00     0.049 A 
ATOM     59  H   UNL A   1      44.579  34.153  30.024  1.00  0.00     0.167 HD
ATOM     60  C   UNL A   1      43.128  31.729  30.318  1.00  0.00     0.074 A 
ATOM     61  C   UNL A   1      42.213  30.733  30.838  1.00  0.00     0.031 C 
ATOM     62  C   UNL A   1      43.946  31.529  29.252  1.00  0.00     0.034 A 
BRANCH  49  63
ATOM     63  C   UNL A   1      47.513  36.414  27.867  1.00  0.00     0.023 A 
ATOM     64  C   UNL A   1      48.851  36.604  28.256  1.00  0.00     0.031 A 
ATOM     65  C   UNL A   1      47.137  36.840  26.579  1.00  0.00     0.131 A 
ATOM     66  C   UNL A   1      49.746  37.256  27.393  1.00  0.00     0.055 A 
ATOM     67  C   UNL A   1      48.052  37.412  25.695  1.00  0.00     0.041 A 
ATOM     68  F   UNL A   1      45.866  36.713  26.162  1.00  0.00    -0.206 F 
ATOM     69  C   UNL A   1      49.363  37.634  26.104  1.00  0.00     0.022 A 
BRANCH  66  70
ATOM     70  S   UNL A   1      51.380  37.727  28.026  1.00  0.00     0.124 S 
ATOM     71  O   UNL A   1      52.127  36.481  27.870  1.00  0.00    -0.237 OA
ATOM     72  O   UNL A   1      51.761  38.817  27.135  1.00  0.00    -0.237 OA
ATOM     73  O   UNL A   1      51.112  38.115  29.409  1.00  0.00    -0.744 OA
ENDBRANCH  66  70
ENDBRANCH  49  63
BRANCH  50  74
ATOM     74  C   UNL A   1      40.439  32.842  34.034  1.00  0.00     0.023 A 
ATOM     75  C   UNL A   1      39.102  33.239  33.863  1.00  0.00     0.031 A 
ATOM     76  C   UNL A   1      40.735  31.990  35.115  1.00  0.00     0.131 A 
ATOM     77  C   UNL A   1      38.126  32.837  34.789  1.00  0.00     0.055 A 
ATOM     78  C   UNL A   1      39.750  31.539  35.994  1.00  0.00     0.041 A 
ATOM     79  F   UNL A   1      41.996  31.584  35.334  1.00  0.00    -0.206 F 
ATOM     80  C   UNL A   1      38.438  31.978  35.845  1.00  0.00     0.022 A 
BRANCH  77  81
ATOM     81  S   UNL A   1      36.462  33.551  34.668  1.00  0.00     0.124 S 
ATOM     82  O   UNL A   1      36.060  33.603  36.069  1.00  0.00    -0.237 OA
ATOM     83  O   UNL A   1      36.731  34.835  34.029  1.00  0.00    -0.237 OA
ATOM     84  O   UNL A   1      35.737  32.587  33.844  1.00  0.00    -0.744 OA
ENDBRANCH  77  81
ENDBRANCH  50  74
BRANCH  62  85
ATOM     85  C   UNL A   1      43.936  30.153  28.623  1.00  0.00     0.023 A 
ATOM     86  C   UNL A   1      43.109  29.836  27.531  1.00  0.00     0.031 A 
ATOM     87  C   UNL A   1      44.742  29.129  29.154  1.00  0.00     0.131 A 
ATOM     88  C   UNL A   1      43.040  28.514  27.065  1.00  0.00     0.055 A 
ATOM     89  C   UNL A   1      44.732  27.836  28.631  1.00  0.00     0.041 A 
ATOM     90  F   UNL A   1      45.552  29.368  30.199  1.00  0.00    -0.206 F 
ATOM     91  C   UNL A   1      43.861  27.516  27.595  1.00  0.00     0.022 A 
BRANCH  88  92
ATOM     92  S   UNL A   1      41.752  28.084  25.862  1.00  0.00     0.124 S 
ATOM     93  O   UNL A   1      40.677  28.999  26.230  1.00  0.00    -0.237 OA
ATOM     94  O   UNL A   1      42.412  28.356  24.589  1.00  0.00    -0.237 OA
ATOM     95  O   UNL A   1      41.487  26.673  26.134  1.00  0.00    -0.744 OA
ENDBRANCH  88  92
ENDBRANCH  62  85
ENDBRANCH  36  37
ENDBRANCH  29  31
ENDBRANCH  28  29
ENDBRANCH  27  28
ENDBRANCH  26  27
ENDBRANCH  25  26
ENDBRANCH  24  25
ENDBRANCH  23  24
ENDBRANCH   1  23
TORSDOF 26
ENDMDL
MODEL 3
REMARK VINA RESULT:      -7.5      6.065     13.969
REMARK SMILES CC(C)(C[S@](=O)c1cccc(Cl)c1)C(=O)OCCOCCOCCOCCOC(=O)c1ccc(-c2c3nc(c(-c4cc(S(=O)(=O)[O-])ccc4F)c4ccc([nH]4)c(-c4cc(S(=O)(=O)[O-])ccc4F)c4nc(c(-c5cc(S(=O)(=O)[O-])ccc5F)c5ccc2[nH]5)C=C4)C=C3)cc1
REMARK SMILES IDX 22 1 21 2 20 3 19 4 18 5 17 6 16 7 14 8 15 9 2 10 1 11 3 12
REMARK SMILES IDX 4 13 5 14 6 15 7 16 8 17 13 18 9 19 11 20 10 21 12 22 23 23
REMARK SMILES IDX 24 24 25 25 26 26 27 27 28 28 29 29 30 30 31 31 32 32 93 33
REMARK SMILES IDX 33 34 92 35 34 36 35 37 36 38 86 39 37 40 91 41 85 42 87 43
REMARK SMILES IDX 38 44 90 45 84 46 83 47 39 49 71 50 51 51 70 52 52 53 55 54
REMARK SMILES IDX 69 55 88 56 53 57 54 58 68 60 89 61 56 62 40 63 41 64 49 65
REMARK SMILES IDX 42 66 48 67 50 68 47 69 43 70 44 71 45 72 46 73 72 74 73 75
REMARK SMILES IDX 81 76 74 77 80 78 82 79 79 80 75 81 76 82 77 83 78 84 57 85
REMARK SMILES IDX 58 86 66 87 59 88 65 89 67 90 64 91 60 92 61 93 62 94 63 95
REMARK H PARENT 87 48 55 59
REMARK Flexibility Score: inf
ROOT
ATOM      1  O   UNL A   1      48.950  26.591  39.255  1.00  0.00    -0.377 OA
ENDROOT
BRANCH   1   2
ATOM      2  C   UNL A   1      47.693  25.951  39.249  1.00  0.00     0.188 C 
BRANCH   2   3
ATOM      3  C   UNL A   1      46.737  26.371  38.119  1.00  0.00     0.188 C 
BRANCH   3   4
ATOM      4  O   UNL A   1      46.441  25.489  37.047  1.00  0.00    -0.376 OA
BRANCH   4   5
ATOM      5  C   UNL A   1      45.436  24.498  37.195  1.00  0.00     0.202 C 
BRANCH   5   6
ATOM      6  C   UNL A   1      44.973  23.694  35.963  1.00  0.00     0.261 C 
BRANCH   6   7
ATOM      7  O   UNL A   1      43.656  23.955  35.417  1.00  0.00    -0.463 OA
BRANCH   7   8
ATOM      8  C   UNL A   1      43.416  25.196  34.911  1.00  0.00     0.312 C 
ATOM      9  O   UNL A   1      44.093  25.710  34.026  1.00  0.00    -0.252 OA
BRANCH   8  10
ATOM     10  C   UNL A   1      42.271  25.956  35.634  1.00  0.00     0.074 C 
ATOM     11  C   UNL A   1      42.769  26.432  37.004  1.00  0.00     0.024 C 
ATOM     12  C   UNL A   1      41.238  24.833  35.927  1.00  0.00     0.024 C 
BRANCH  10  13
ATOM     13  C   UNL A   1      41.533  27.025  34.797  1.00  0.00     0.128 C 
BRANCH  13  14
ATOM     14  S   UNL A   1      42.221  28.409  33.870  1.00  0.00     0.054 S 
ATOM     15  O   UNL A   1      42.409  29.565  34.806  1.00  0.00    -0.254 OA
BRANCH  14  16
ATOM     16  C   UNL A   1      41.272  29.084  32.518  1.00  0.00     0.040 A 
ATOM     17  C   UNL A   1      41.968  29.972  31.674  1.00  0.00     0.018 A 
ATOM     18  C   UNL A   1      39.923  28.883  32.263  1.00  0.00     0.038 A 
ATOM     19  C   UNL A   1      41.364  30.556  30.556  1.00  0.00     0.003 A 
ATOM     20  C   UNL A   1      39.319  29.445  31.130  1.00  0.00     0.042 A 
ATOM     21  C   UNL A   1      40.037  30.268  30.267  1.00  0.00     0.020 A 
ATOM     22  Cl  UNL A   1      37.671  29.092  30.780  1.00  0.00    -0.084 Cl
ENDBRANCH  14  16
ENDBRANCH  13  14
ENDBRANCH  10  13
ENDBRANCH   8  10
ENDBRANCH   7   8
ENDBRANCH   6   7
ENDBRANCH   5   6
ENDBRANCH   4   5
ENDBRANCH   3   4
ENDBRANCH   2   3
ENDBRANCH   1   2
BRANCH   1  23
ATOM     23  C   UNL A   1      49.200  27.437  40.368  1.00  0.00     0.188 C 
BRANCH  23  24
ATOM     24  C   UNL A   1      48.169  28.553  40.604  1.00  0.00     0.188 C 
BRANCH  24  25
ATOM     25  O   UNL A   1      48.488  29.761  39.923  1.00  0.00    -0.376 OA
BRANCH  25  26
ATOM     26  C   UNL A   1      49.820  30.030  39.517  1.00  0.00     0.202 C 
BRANCH  26  27
ATOM     27  C   UNL A   1      50.220  30.037  38.029  1.00  0.00     0.261 C 
BRANCH  27  28
ATOM     28  O   UNL A   1      49.195  30.277  37.056  1.00  0.00    -0.460 OA
BRANCH  28  29
ATOM     29  C   UNL A   1      49.109  31.510  36.513  1.00  0.00     0.338 C 
ATOM     30  O   UNL A   1      50.006  32.135  35.991  1.00  0.00    -0.246 OA
BRANCH  29  31
ATOM     31  C   UNL A   1      47.670  31.868  36.455  1.00  0.00     0.060 A 
ATOM     32  C   UNL A   1      46.748  30.859  36.153  1.00  0.00     0.016 A 
ATOM     33  C   UNL A   1      47.231  33.175  36.692  1.00  0.00     0.016 A 
ATOM     34  C   UNL A   1      45.395  31.161  36.025  1.00  0.00     0.010 A 
ATOM     35  C   UNL A   1      45.874  33.485  36.533  1.00  0.00     0.010 A 
ATOM     36  C   UNL A   1      44.962  32.487  36.147  1.00  0.00    -0.014 A 
BRANCH  36  37
ATOM     37  C   UNL A   1      43.627  32.840  35.600  1.00  0.00     0.031 A 
ATOM     38  C   UNL A   1      43.535  33.165  34.131  1.00  0.00     0.074 A 
ATOM     39  C   UNL A   1      42.516  32.775  36.355  1.00  0.00     0.049 A 
ATOM     40  N   UNL A   1      42.490  33.470  33.408  1.00  0.00    -0.248 NA
ATOM     41  C   UNL A   1      44.799  33.137  33.376  1.00  0.00     0.031 C 
ATOM     42  C   UNL A   1      42.477  32.410  37.771  1.00  0.00     0.029 A 
ATOM     43  N   UNL A   1      41.202  33.006  36.031  1.00  0.00    -0.354 N 
ATOM     44  C   UNL A   1      42.970  33.674  32.117  1.00  0.00     0.074 A 
ATOM     45  C   UNL A   1      44.403  33.498  32.166  1.00  0.00     0.031 C 
ATOM     46  C   UNL A   1      41.201  32.445  38.193  1.00  0.00     0.029 A 
ATOM     47  C   UNL A   1      40.337  32.868  37.092  1.00  0.00     0.049 A 
ATOM     48  H   UNL A   1      40.906  33.247  35.124  1.00  0.00     0.167 HD
ATOM     49  C   UNL A   1      42.276  33.974  30.992  1.00  0.00     0.034 A 
ATOM     50  C   UNL A   1      39.007  33.081  37.166  1.00  0.00     0.034 A 
ATOM     51  C   UNL A   1      40.846  34.153  30.963  1.00  0.00     0.049 A 
ATOM     52  C   UNL A   1      38.266  33.491  35.913  1.00  0.00     0.074 A 
ATOM     53  C   UNL A   1      40.038  34.456  29.881  1.00  0.00     0.029 A 
ATOM     54  N   UNL A   1      40.009  34.057  32.068  1.00  0.00    -0.354 N 
ATOM     55  N   UNL A   1      38.731  33.682  34.697  1.00  0.00    -0.248 NA
ATOM     56  C   UNL A   1      36.818  33.695  36.038  1.00  0.00     0.031 C 
ATOM     57  C   UNL A   1      38.730  34.627  30.346  1.00  0.00     0.029 A 
ATOM     58  C   UNL A   1      38.700  34.328  31.699  1.00  0.00     0.049 A 
ATOM     59  H   UNL A   1      40.302  33.830  32.980  1.00  0.00     0.167 HD
ATOM     60  C   UNL A   1      37.621  33.985  33.908  1.00  0.00     0.074 A 
ATOM     61  C   UNL A   1      36.468  33.931  34.783  1.00  0.00     0.031 C 
ATOM     62  C   UNL A   1      37.558  34.275  32.583  1.00  0.00     0.034 A 
BRANCH  49  63
ATOM     63  C   UNL A   1      43.065  34.191  29.723  1.00  0.00     0.023 A 
ATOM     64  C   UNL A   1      43.385  33.137  28.849  1.00  0.00     0.031 A 
ATOM     65  C   UNL A   1      43.522  35.480  29.393  1.00  0.00     0.131 A 
ATOM     66  C   UNL A   1      44.188  33.380  27.723  1.00  0.00     0.055 A 
ATOM     67  C   UNL A   1      44.251  35.729  28.229  1.00  0.00     0.041 A 
ATOM     68  F   UNL A   1      43.275  36.522  30.205  1.00  0.00    -0.206 F 
ATOM     69  C   UNL A   1      44.598  34.674  27.392  1.00  0.00     0.022 A 
BRANCH  66  70
ATOM     70  S   UNL A   1      44.806  31.964  26.771  1.00  0.00     0.124 S 
ATOM     71  O   UNL A   1      44.012  30.869  27.322  1.00  0.00    -0.237 OA
ATOM     72  O   UNL A   1      44.500  32.350  25.398  1.00  0.00    -0.237 OA
ATOM     73  O   UNL A   1      46.228  31.923  27.106  1.00  0.00    -0.744 OA
ENDBRANCH  66  70
ENDBRANCH  49  63
BRANCH  50  74
ATOM     74  C   UNL A   1      38.284  32.958  38.467  1.00  0.00     0.023 A 
ATOM     75  C   UNL A   1      38.378  33.949  39.459  1.00  0.00     0.031 A 
ATOM     76  C   UNL A   1      37.553  31.794  38.773  1.00  0.00     0.131 A 
ATOM     77  C   UNL A   1      37.807  33.733  40.723  1.00  0.00     0.055 A 
ATOM     78  C   UNL A   1      36.930  31.613  40.008  1.00  0.00     0.041 A 
ATOM     79  F   UNL A   1      37.435  30.809  37.868  1.00  0.00    -0.206 F 
ATOM     80  C   UNL A   1      37.071  32.579  41.000  1.00  0.00     0.022 A 
BRANCH  77  81
ATOM     81  S   UNL A   1      38.142  34.929  42.047  1.00  0.00     0.124 S 
ATOM     82  O   UNL A   1      38.422  36.141  41.286  1.00  0.00    -0.237 OA
ATOM     83  O   UNL A   1      36.886  34.913  42.792  1.00  0.00    -0.237 OA
ATOM     84  O   UNL A   1      39.286  34.351  42.747  1.00  0.00    -0.744 OA
ENDBRANCH  77  81
ENDBRANCH  50  74
BRANCH  62  85
ATOM     85  C   UNL A   1      36.183  34.488  31.987  1.00  0.00     0.023 A 
ATOM     86  C   UNL A   1      35.389  35.599  32.318  1.00  0.00     0.031 A 
ATOM     87  C   UNL A   1      35.644  33.536  31.101  1.00  0.00     0.131 A 
ATOM     88  C   UNL A   1      34.072  35.686  31.841  1.00  0.00     0.055 A 
ATOM     89  C   UNL A   1      34.364  33.672  30.563  1.00  0.00     0.041 A 
ATOM     90  F   UNL A   1      36.352  32.451  30.748  1.00  0.00    -0.206 F 
ATOM     91  C   UNL A   1      33.561  34.740  30.950  1.00  0.00     0.022 A 
BRANCH  88  92
ATOM     92  S   UNL A   1      32.985  36.969  32.523  1.00  0.00     0.124 S 
ATOM     93  O   UNL A   1      33.235  38.088  31.621  1.00  0.00    -0.237 OA
ATOM     94  O   UNL A   1      31.669  36.348  32.419  1.00  0.00    -0.237 OA
ATOM     95  O   UNL A   1      33.480  37.148  33.887  1.00  0.00    -0.744 OA
ENDBRANCH  88  92
ENDBRANCH  62  85
ENDBRANCH  36  37
ENDBRANCH  29  31
ENDBRANCH  28  29
ENDBRANCH  27  28
ENDBRANCH  26  27
ENDBRANCH  25  26
ENDBRANCH  24  25
ENDBRANCH  23  24
ENDBRANCH   1  23
TORSDOF 26
ENDMDL
