MODEL 1
REMARK VINA RESULT:     -10.6      0.000      0.000
REMARK SMILES Cc1ccc([C@@]23C[C@@H]4C[C@@H](C[C@@](C(=O)N5CCC(C(=O)OCCOCCOCCOCCOC(=O)c6ccc(-c7c8nc(c(-c9cc(S(=O)(=O)[O-])ccc9F)c9ccc([nH]9)c(-c9cc(S(=O)(=O)[O-])ccc9F)c9nc(c(-c%10cc(S(=O)(=O)[O-])ccc%10F)c%10ccc7[nH]%10)C=C9)C=C8)cc6)CC5)(C4)C2)C3)cc1
REMARK SMILES IDX 28 1 27 2 26 3 25 4 24 5 23 6 22 7 21 8 19 9 20 10 18 11
REMARK SMILES IDX 13 12 14 13 15 14 16 15 100 16 17 17 99 18 12 19 6 20 7 21
REMARK SMILES IDX 102 22 103 23 8 24 10 25 9 26 101 27 11 28 5 29 1 30 2 31
REMARK SMILES IDX 3 32 105 33 4 34 104 35 29 36 30 37 31 38 32 39 33 40 34 41
REMARK SMILES IDX 35 42 36 43 37 44 98 45 38 46 97 47 39 48 40 49 41 50 91 51
REMARK SMILES IDX 42 52 96 53 90 54 92 55 43 56 95 57 89 58 88 59 44 61 76 62
REMARK SMILES IDX 56 63 75 64 57 65 60 66 74 67 93 68 58 69 59 70 73 72 94 73
REMARK SMILES IDX 61 74 45 75 46 76 54 77 47 78 53 79 55 80 52 81 48 82 49 83
REMARK SMILES IDX 50 84 51 85 77 86 78 87 86 88 79 89 85 90 87 91 84 92 80 93
REMARK SMILES IDX 81 94 82 95 83 96 62 97 63 98 71 99 64 100 70 101 72 102
REMARK SMILES IDX 69 103 65 104 66 105 67 106 68 107
REMARK H PARENT 92 60 60 71
REMARK Flexibility Score: inf
ROOT
ATOM      1  C   UNL A   1      42.102  26.995  26.654  1.00  0.00     0.188 C 
ENDROOT
BRANCH   1   2
ATOM      2  O   UNL A   1      40.710  27.339  26.755  1.00  0.00    -0.377 OA
BRANCH   2   3
ATOM      3  C   UNL A   1      40.091  27.263  28.030  1.00  0.00     0.188 C 
BRANCH   3   4
ATOM      4  C   UNL A   1      39.478  25.916  28.446  1.00  0.00     0.188 C 
BRANCH   4   5
ATOM      5  O   UNL A   1      40.345  24.791  28.437  1.00  0.00    -0.376 OA
BRANCH   5   6
ATOM      6  C   UNL A   1      39.914  23.761  27.552  1.00  0.00     0.202 C 
BRANCH   6   7
ATOM      7  C   UNL A   1      39.048  24.203  26.377  1.00  0.00     0.261 C 
BRANCH   7   8
ATOM      8  O   UNL A   1      37.779  23.536  26.453  1.00  0.00    -0.463 OA
BRANCH   8   9
ATOM      9  C   UNL A   1      37.540  22.580  25.530  1.00  0.00     0.309 C 
ATOM     10  O   UNL A   1      38.168  21.554  25.387  1.00  0.00    -0.252 OA
BRANCH   9  11
ATOM     11  C   UNL A   1      36.220  22.833  24.845  1.00  0.00     0.103 C 
ATOM     12  C   UNL A   1      33.285  25.075  22.719  1.00  0.00     0.228 C 
ATOM     13  O   UNL A   1      33.376  25.093  21.487  1.00  0.00    -0.274 OA
ATOM     14  N   UNL A   1      34.091  24.226  23.488  1.00  0.00    -0.342 N 
ATOM     15  C   UNL A   1      34.792  23.118  22.820  1.00  0.00     0.120 C 
ATOM     16  C   UNL A   1      34.186  24.202  24.949  1.00  0.00     0.120 C 
ATOM     17  C   UNL A   1      36.229  22.928  23.322  1.00  0.00     0.037 C 
ATOM     18  C   UNL A   1      35.612  24.110  25.412  1.00  0.00     0.037 C 
BRANCH  12  19
ATOM     19  C   UNL A   1      32.158  25.892  23.409  1.00  0.00     0.051 C 
ATOM     20  C   UNL A   1      31.902  27.760  25.177  1.00  0.00    -0.003 C 
ATOM     21  C   UNL A   1      31.069  28.521  24.103  1.00  0.00     0.015 C 
ATOM     22  C   UNL A   1      32.848  26.819  24.424  1.00  0.00     0.028 C 
ATOM     23  C   UNL A   1      30.961  26.846  25.999  1.00  0.00     0.015 C 
ATOM     24  C   UNL A   1      30.268  27.549  23.210  1.00  0.00    -0.009 C 
ATOM     25  C   UNL A   1      30.217  25.861  25.068  1.00  0.00    -0.009 C 
ATOM     26  C   UNL A   1      29.360  26.676  24.087  1.00  0.00     0.007 C 
ATOM     27  C   UNL A   1      31.220  26.628  22.430  1.00  0.00     0.020 C 
ATOM     28  C   UNL A   1      31.225  24.991  24.274  1.00  0.00     0.020 C 
BRANCH  20  29
ATOM     29  C   UNL A   1      32.708  28.745  26.053  1.00  0.00    -0.042 A 
ATOM     30  C   UNL A   1      35.067  31.607  28.324  1.00  0.00     0.044 C 
ATOM     31  C   UNL A   1      34.233  30.628  27.556  1.00  0.00    -0.051 A 
ATOM     32  C   UNL A   1      34.781  29.400  27.204  1.00  0.00     0.004 A 
ATOM     33  C   UNL A   1      32.920  30.912  27.166  1.00  0.00     0.004 A 
ATOM     34  C   UNL A   1      34.028  28.476  26.477  1.00  0.00     0.004 A 
ATOM     35  C   UNL A   1      32.170  29.985  26.425  1.00  0.00     0.004 A 
ENDBRANCH  20  29
ENDBRANCH  12  19
ENDBRANCH   9  11
ENDBRANCH   8   9
ENDBRANCH   7   8
ENDBRANCH   6   7
ENDBRANCH   5   6
ENDBRANCH   4   5
ENDBRANCH   3   4
ENDBRANCH   2   3
ENDBRANCH   1   2
BRANCH   1  36
ATOM     36  C   UNL A   1      42.469  25.862  25.698  1.00  0.00     0.188 C 
BRANCH  36  37
ATOM     37  O   UNL A   1      43.706  26.209  25.054  1.00  0.00    -0.376 OA
BRANCH  37  38
ATOM     38  C   UNL A   1      44.269  27.449  25.462  1.00  0.00     0.202 C 
BRANCH  38  39
ATOM     39  C   UNL A   1      45.800  27.453  25.469  1.00  0.00     0.261 C 
BRANCH  39  40
ATOM     40  O   UNL A   1      46.279  27.075  26.775  1.00  0.00    -0.460 OA
BRANCH  40  41
ATOM     41  C   UNL A   1      46.467  25.737  26.936  1.00  0.00     0.338 C 
ATOM     42  O   UNL A   1      46.832  24.980  26.053  1.00  0.00    -0.246 OA
BRANCH  41  43
ATOM     43  C   UNL A   1      46.120  25.326  28.324  1.00  0.00     0.060 A 
ATOM     44  C   UNL A   1      44.819  24.896  28.629  1.00  0.00     0.016 A 
ATOM     45  C   UNL A   1      47.031  25.544  29.354  1.00  0.00     0.016 A 
ATOM     46  C   UNL A   1      44.401  24.811  29.966  1.00  0.00     0.010 A 
ATOM     47  C   UNL A   1      46.589  25.541  30.664  1.00  0.00     0.010 A 
ATOM     48  C   UNL A   1      45.264  25.213  30.989  1.00  0.00    -0.014 A 
BRANCH  48  49
ATOM     49  C   UNL A   1      44.842  25.549  32.363  1.00  0.00     0.031 A 
ATOM     50  C   UNL A   1      44.418  26.939  32.736  1.00  0.00     0.074 A 
ATOM     51  C   UNL A   1      44.450  24.515  33.150  1.00  0.00     0.049 A 
ATOM     52  N   UNL A   1      44.008  27.293  33.910  1.00  0.00    -0.248 NA
ATOM     53  C   UNL A   1      44.404  28.069  31.804  1.00  0.00     0.031 C 
ATOM     54  C   UNL A   1      43.482  24.560  34.247  1.00  0.00     0.029 A 
ATOM     55  N   UNL A   1      44.796  23.170  33.126  1.00  0.00    -0.354 N 
ATOM     56  C   UNL A   1      43.313  28.478  33.785  1.00  0.00     0.074 A 
ATOM     57  C   UNL A   1      43.736  28.993  32.508  1.00  0.00     0.031 C 
ATOM     58  C   UNL A   1      43.389  23.360  34.834  1.00  0.00     0.029 A 
ATOM     59  C   UNL A   1      44.535  22.621  34.388  1.00  0.00     0.049 A 
ATOM     60  H   UNL A   1      45.163  22.685  32.352  1.00  0.00     0.167 HD
ATOM     61  C   UNL A   1      42.330  28.790  34.692  1.00  0.00     0.034 A 
ATOM     62  C   UNL A   1      45.537  22.234  35.233  1.00  0.00     0.034 A 
ATOM     63  C   UNL A   1      42.336  27.888  35.877  1.00  0.00     0.049 A 
ATOM     64  C   UNL A   1      45.658  23.173  36.445  1.00  0.00     0.074 A 
ATOM     65  C   UNL A   1      41.372  27.236  36.634  1.00  0.00     0.029 A 
ATOM     66  N   UNL A   1      43.555  27.420  36.383  1.00  0.00    -0.354 N 
ATOM     67  N   UNL A   1      44.872  24.205  36.657  1.00  0.00    -0.248 NA
ATOM     68  C   UNL A   1      46.651  23.059  37.500  1.00  0.00     0.031 C 
ATOM     69  C   UNL A   1      42.029  26.338  37.537  1.00  0.00     0.029 A 
ATOM     70  C   UNL A   1      43.398  26.481  37.383  1.00  0.00     0.049 A 
ATOM     71  H   UNL A   1      44.432  27.730  36.059  1.00  0.00     0.167 HD
ATOM     72  C   UNL A   1      45.228  24.907  37.774  1.00  0.00     0.074 A 
ATOM     73  C   UNL A   1      46.363  24.131  38.268  1.00  0.00     0.031 C 
ATOM     74  C   UNL A   1      44.575  26.061  38.156  1.00  0.00     0.034 A 
BRANCH  61  75
ATOM     75  C   UNL A   1      41.188  29.795  34.421  1.00  0.00     0.023 A 
ATOM     76  C   UNL A   1      39.990  29.366  33.796  1.00  0.00     0.031 A 
ATOM     77  C   UNL A   1      41.263  31.196  34.625  1.00  0.00     0.131 A 
ATOM     78  C   UNL A   1      38.976  30.280  33.410  1.00  0.00     0.055 A 
ATOM     79  C   UNL A   1      40.222  32.090  34.318  1.00  0.00     0.041 A 
ATOM     80  F   UNL A   1      42.373  31.799  35.064  1.00  0.00    -0.206 F 
ATOM     81  C   UNL A   1      39.074  31.637  33.699  1.00  0.00     0.022 A 
BRANCH  78  82
ATOM     82  S   UNL A   1      37.532  29.701  32.465  1.00  0.00     0.124 S 
ATOM     83  O   UNL A   1      36.545  30.736  32.751  1.00  0.00    -0.237 OA
ATOM     84  O   UNL A   1      38.044  29.654  31.100  1.00  0.00    -0.237 OA
ATOM     85  O   UNL A   1      37.241  28.394  33.053  1.00  0.00    -0.744 OA
ENDBRANCH  78  82
ENDBRANCH  61  75
BRANCH  62  86
ATOM     86  C   UNL A   1      46.543  21.400  34.496  1.00  0.00     0.023 A 
ATOM     87  C   UNL A   1      47.748  22.100  34.222  1.00  0.00     0.031 A 
ATOM     88  C   UNL A   1      46.632  20.014  34.702  1.00  0.00     0.131 A 
ATOM     89  C   UNL A   1      48.986  21.493  34.481  1.00  0.00     0.055 A 
ATOM     90  C   UNL A   1      47.881  19.387  34.860  1.00  0.00     0.041 A 
ATOM     91  F   UNL A   1      45.534  19.292  34.972  1.00  0.00    -0.206 F 
ATOM     92  C   UNL A   1      49.058  20.141  34.824  1.00  0.00     0.022 A 
BRANCH  89  93
ATOM     93  S   UNL A   1      50.456  22.551  34.743  1.00  0.00     0.124 S 
ATOM     94  O   UNL A   1      50.166  23.158  36.037  1.00  0.00    -0.237 OA
ATOM     95  O   UNL A   1      51.565  21.605  34.722  1.00  0.00    -0.237 OA
ATOM     96  O   UNL A   1      50.410  23.454  33.593  1.00  0.00    -0.744 OA
ENDBRANCH  89  93
ENDBRANCH  62  86
BRANCH  74  97
ATOM     97  C   UNL A   1      45.000  27.009  39.274  1.00  0.00     0.023 A 
ATOM     98  C   UNL A   1      45.548  28.269  39.041  1.00  0.00     0.031 A 
ATOM     99  C   UNL A   1      44.822  26.681  40.649  1.00  0.00     0.131 A 
ATOM    100  C   UNL A   1      45.740  29.190  40.086  1.00  0.00     0.055 A 
ATOM    101  C   UNL A   1      45.066  27.576  41.695  1.00  0.00     0.041 A 
ATOM    102  F   UNL A   1      44.386  25.481  41.057  1.00  0.00    -0.206 F 
ATOM    103  C   UNL A   1      45.497  28.858  41.414  1.00  0.00     0.022 A 
BRANCH 100 104
ATOM    104  S   UNL A   1      46.247  30.864  39.633  1.00  0.00     0.124 S 
ATOM    105  O   UNL A   1      46.414  30.758  38.187  1.00  0.00    -0.237 OA
ATOM    106  O   UNL A   1      45.102  31.653  40.080  1.00  0.00    -0.237 OA
ATOM    107  O   UNL A   1      47.479  31.069  40.392  1.00  0.00    -0.744 OA
ENDBRANCH 100 104
ENDBRANCH  74  97
ENDBRANCH  48  49
ENDBRANCH  41  43
ENDBRANCH  40  41
ENDBRANCH  39  40
ENDBRANCH  38  39
ENDBRANCH  37  38
ENDBRANCH  36  37
ENDBRANCH   1  36
TORSDOF 25
ENDMDL
MODEL 2
REMARK VINA RESULT:     -10.3      6.261     10.778
REMARK SMILES Cc1ccc([C@@]23C[C@@H]4C[C@@H](C[C@@](C(=O)N5CCC(C(=O)OCCOCCOCCOCCOC(=O)c6ccc(-c7c8nc(c(-c9cc(S(=O)(=O)[O-])ccc9F)c9ccc([nH]9)c(-c9cc(S(=O)(=O)[O-])ccc9F)c9nc(c(-c%10cc(S(=O)(=O)[O-])ccc%10F)c%10ccc7[nH]%10)C=C9)C=C8)cc6)CC5)(C4)C2)C3)cc1
REMARK SMILES IDX 28 1 27 2 26 3 25 4 24 5 23 6 22 7 21 8 19 9 20 10 18 11
REMARK SMILES IDX 13 12 14 13 15 14 16 15 100 16 17 17 99 18 12 19 6 20 7 21
REMARK SMILES IDX 102 22 103 23 8 24 10 25 9 26 101 27 11 28 5 29 1 30 2 31
REMARK SMILES IDX 3 32 105 33 4 34 104 35 29 36 30 37 31 38 32 39 33 40 34 41
REMARK SMILES IDX 35 42 36 43 37 44 98 45 38 46 97 47 39 48 40 49 41 50 91 51
REMARK SMILES IDX 42 52 96 53 90 54 92 55 43 56 95 57 89 58 88 59 44 61 76 62
REMARK SMILES IDX 56 63 75 64 57 65 60 66 74 67 93 68 58 69 59 70 73 72 94 73
REMARK SMILES IDX 61 74 45 75 46 76 54 77 47 78 53 79 55 80 52 81 48 82 49 83
REMARK SMILES IDX 50 84 51 85 77 86 78 87 86 88 79 89 85 90 87 91 84 92 80 93
REMARK SMILES IDX 81 94 82 95 83 96 62 97 63 98 71 99 64 100 70 101 72 102
REMARK SMILES IDX 69 103 65 104 66 105 67 106 68 107
REMARK H PARENT 92 60 60 71
REMARK Flexibility Score: inf
ROOT
ATOM      1  C   UNL A   1      47.491  24.980  25.297  1.00  0.00     0.188 C 
ENDROOT
BRANCH   1   2
ATOM      2  O   UNL A   1      46.612  24.519  24.258  1.00  0.00    -0.377 OA
BRANCH   2   3
ATOM      3  C   UNL A   1      45.753  23.425  24.543  1.00  0.00     0.188 C 
BRANCH   3   4
ATOM      4  C   UNL A   1      46.338  22.008  24.422  1.00  0.00     0.188 C 
BRANCH   4   5
ATOM      5  O   UNL A   1      46.042  21.104  25.476  1.00  0.00    -0.376 OA
BRANCH   5   6
ATOM      6  C   UNL A   1      46.284  19.743  25.129  1.00  0.00     0.202 C 
BRANCH   6   7
ATOM      7  C   UNL A   1      45.063  18.928  24.717  1.00  0.00     0.261 C 
BRANCH   7   8
ATOM      8  O   UNL A   1      43.893  19.755  24.812  1.00  0.00    -0.463 OA
BRANCH   8   9
ATOM      9  C   UNL A   1      42.873  19.279  25.558  1.00  0.00     0.309 C 
ATOM     10  O   UNL A   1      42.611  18.111  25.747  1.00  0.00    -0.252 OA
BRANCH   9  11
ATOM     11  C   UNL A   1      42.234  20.397  26.343  1.00  0.00     0.103 C 
ATOM     12  C   UNL A   1      40.093  24.035  26.931  1.00  0.00     0.228 C 
ATOM     13  O   UNL A   1      38.860  23.963  26.958  1.00  0.00    -0.274 OA
ATOM     14  N   UNL A   1      40.881  22.877  26.923  1.00  0.00    -0.342 N 
ATOM     15  C   UNL A   1      40.262  21.595  27.292  1.00  0.00     0.120 C 
ATOM     16  C   UNL A   1      42.335  22.815  26.753  1.00  0.00     0.120 C 
ATOM     17  C   UNL A   1      40.709  20.433  26.395  1.00  0.00     0.037 C 
ATOM     18  C   UNL A   1      42.736  21.727  25.797  1.00  0.00     0.037 C 
BRANCH  12  19
ATOM     19  C   UNL A   1      40.775  25.424  27.064  1.00  0.00     0.051 C 
ATOM     20  C   UNL A   1      42.462  26.631  28.606  1.00  0.00    -0.003 C 
ATOM     21  C   UNL A   1      43.261  26.953  27.308  1.00  0.00     0.015 C 
ATOM     22  C   UNL A   1      41.650  25.362  28.327  1.00  0.00     0.028 C 
ATOM     23  C   UNL A   1      41.424  27.752  28.856  1.00  0.00     0.015 C 
ATOM     24  C   UNL A   1      42.324  27.165  26.099  1.00  0.00    -0.009 C 
ATOM     25  C   UNL A   1      40.480  27.895  27.640  1.00  0.00    -0.009 C 
ATOM     26  C   UNL A   1      41.323  28.285  26.416  1.00  0.00     0.007 C 
ATOM     27  C   UNL A   1      41.535  25.879  25.801  1.00  0.00     0.020 C 
ATOM     28  C   UNL A   1      39.746  26.559  27.357  1.00  0.00     0.020 C 
BRANCH  20  29
ATOM     29  C   UNL A   1      43.415  26.409  29.803  1.00  0.00    -0.042 A 
ATOM     30  C   UNL A   1      45.920  25.676  33.281  1.00  0.00     0.044 C 
ATOM     31  C   UNL A   1      45.076  25.919  32.067  1.00  0.00    -0.051 A 
ATOM     32  C   UNL A   1      44.286  27.062  32.008  1.00  0.00     0.004 A 
ATOM     33  C   UNL A   1      45.044  25.026  30.991  1.00  0.00     0.004 A 
ATOM     34  C   UNL A   1      43.482  27.304  30.893  1.00  0.00     0.004 A 
ATOM     35  C   UNL A   1      44.224  25.267  29.877  1.00  0.00     0.004 A 
ENDBRANCH  20  29
ENDBRANCH  12  19
ENDBRANCH   9  11
ENDBRANCH   8   9
ENDBRANCH   7   8
ENDBRANCH   6   7
ENDBRANCH   5   6
ENDBRANCH   4   5
ENDBRANCH   3   4
ENDBRANCH   2   3
ENDBRANCH   1   2
BRANCH   1  36
ATOM     36  C   UNL A   1      48.602  25.946  24.888  1.00  0.00     0.188 C 
BRANCH  36  37
ATOM     37  O   UNL A   1      49.123  26.554  26.081  1.00  0.00    -0.376 OA
BRANCH  37  38
ATOM     38  C   UNL A   1      50.346  26.004  26.551  1.00  0.00     0.202 C 
BRANCH  38  39
ATOM     39  C   UNL A   1      50.205  25.223  27.861  1.00  0.00     0.261 C 
BRANCH  39  40
ATOM     40  O   UNL A   1      48.888  25.433  28.409  1.00  0.00    -0.460 OA
BRANCH  40  41
ATOM     41  C   UNL A   1      48.882  25.919  29.680  1.00  0.00     0.338 C 
ATOM     42  O   UNL A   1      49.567  25.483  30.588  1.00  0.00    -0.246 OA
BRANCH  41  43
ATOM     43  C   UNL A   1      47.890  27.021  29.810  1.00  0.00     0.060 A 
ATOM     44  C   UNL A   1      47.097  27.390  28.712  1.00  0.00     0.016 A 
ATOM     45  C   UNL A   1      47.880  27.806  30.960  1.00  0.00     0.016 A 
ATOM     46  C   UNL A   1      46.400  28.608  28.725  1.00  0.00     0.010 A 
ATOM     47  C   UNL A   1      47.261  29.042  30.934  1.00  0.00     0.010 A 
ATOM     48  C   UNL A   1      46.546  29.478  29.809  1.00  0.00    -0.014 A 
BRANCH  48  49
ATOM     49  C   UNL A   1      46.208  30.916  29.785  1.00  0.00     0.031 A 
ATOM     50  C   UNL A   1      47.257  31.965  29.561  1.00  0.00     0.074 A 
ATOM     51  C   UNL A   1      44.909  31.233  29.551  1.00  0.00     0.049 A 
ATOM     52  N   UNL A   1      47.025  33.235  29.498  1.00  0.00    -0.248 NA
ATOM     53  C   UNL A   1      48.679  31.673  29.372  1.00  0.00     0.031 C 
ATOM     54  C   UNL A   1      44.399  32.446  28.912  1.00  0.00     0.029 A 
ATOM     55  N   UNL A   1      43.740  30.522  29.795  1.00  0.00    -0.354 N 
ATOM     56  C   UNL A   1      48.095  33.838  28.870  1.00  0.00     0.074 A 
ATOM     57  C   UNL A   1      49.150  32.863  28.973  1.00  0.00     0.031 C 
ATOM     58  C   UNL A   1      43.061  32.440  28.903  1.00  0.00     0.029 A 
ATOM     59  C   UNL A   1      42.672  31.427  29.842  1.00  0.00     0.049 A 
ATOM     60  H   UNL A   1      43.674  29.548  29.914  1.00  0.00     0.167 HD
ATOM     61  C   UNL A   1      47.907  35.012  28.182  1.00  0.00     0.034 A 
ATOM     62  C   UNL A   1      42.015  31.715  31.005  1.00  0.00     0.034 A 
ATOM     63  C   UNL A   1      46.575  35.624  28.444  1.00  0.00     0.049 A 
ATOM     64  C   UNL A   1      42.323  33.139  31.499  1.00  0.00     0.074 A 
ATOM     65  C   UNL A   1      45.594  36.235  27.676  1.00  0.00     0.029 A 
ATOM     66  N   UNL A   1      46.010  35.528  29.723  1.00  0.00    -0.354 N 
ATOM     67  N   UNL A   1      43.100  33.986  30.863  1.00  0.00    -0.248 NA
ATOM     68  C   UNL A   1      41.816  33.730  32.727  1.00  0.00     0.031 C 
ATOM     69  C   UNL A   1      44.432  36.436  28.491  1.00  0.00     0.029 A 
ATOM     70  C   UNL A   1      44.717  36.008  29.776  1.00  0.00     0.049 A 
ATOM     71  H   UNL A   1      46.487  35.158  30.500  1.00  0.00     0.167 HD
ATOM     72  C   UNL A   1      43.254  35.161  31.544  1.00  0.00     0.074 A 
ATOM     73  C   UNL A   1      42.413  34.940  32.718  1.00  0.00     0.031 C 
ATOM     74  C   UNL A   1      44.073  36.173  31.087  1.00  0.00     0.034 A 
BRANCH  61  75
ATOM     75  C   UNL A   1      48.852  35.528  27.074  1.00  0.00     0.023 A 
ATOM     76  C   UNL A   1      49.941  36.376  27.398  1.00  0.00     0.031 A 
ATOM     77  C   UNL A   1      48.664  35.338  25.681  1.00  0.00     0.131 A 
ATOM     78  C   UNL A   1      50.748  36.977  26.398  1.00  0.00     0.055 A 
ATOM     79  C   UNL A   1      49.515  35.866  24.695  1.00  0.00     0.041 A 
ATOM     80  F   UNL A   1      47.603  34.694  25.182  1.00  0.00    -0.206 F 
ATOM     81  C   UNL A   1      50.560  36.698  25.049  1.00  0.00     0.022 A 
BRANCH  78  82
ATOM     82  S   UNL A   1      52.029  38.185  26.859  1.00  0.00     0.124 S 
ATOM     83  O   UNL A   1      52.730  38.383  25.595  1.00  0.00    -0.237 OA
ATOM     84  O   UNL A   1      51.242  39.313  27.345  1.00  0.00    -0.237 OA
ATOM     85  O   UNL A   1      52.801  37.489  27.888  1.00  0.00    -0.744 OA
ENDBRANCH  78  82
ENDBRANCH  61  75
BRANCH  62  86
ATOM     86  C   UNL A   1      41.662  30.449  31.727  1.00  0.00     0.023 A 
ATOM     87  C   UNL A   1      42.390  30.279  32.935  1.00  0.00     0.031 A 
ATOM     88  C   UNL A   1      40.363  29.917  31.674  1.00  0.00     0.131 A 
ATOM     89  C   UNL A   1      41.722  29.903  34.110  1.00  0.00     0.055 A 
ATOM     90  C   UNL A   1      39.730  29.444  32.838  1.00  0.00     0.041 A 
ATOM     91  F   UNL A   1      39.617  30.047  30.568  1.00  0.00    -0.206 F 
ATOM     92  C   UNL A   1      40.383  29.507  34.072  1.00  0.00     0.022 A 
BRANCH  89  93
ATOM     93  S   UNL A   1      42.482  30.295  35.728  1.00  0.00     0.124 S 
ATOM     94  O   UNL A   1      41.734  29.432  36.633  1.00  0.00    -0.237 OA
ATOM     95  O   UNL A   1      43.885  29.948  35.538  1.00  0.00    -0.237 OA
ATOM     96  O   UNL A   1      42.228  31.730  35.862  1.00  0.00    -0.744 OA
ENDBRANCH  89  93
ENDBRANCH  62  86
BRANCH  74  97
ATOM     97  C   UNL A   1      44.450  37.440  31.850  1.00  0.00     0.023 A 
ATOM     98  C   UNL A   1      43.804  38.661  31.672  1.00  0.00     0.031 A 
ATOM     99  C   UNL A   1      45.474  37.447  32.841  1.00  0.00     0.131 A 
ATOM    100  C   UNL A   1      44.041  39.749  32.529  1.00  0.00     0.055 A 
ATOM    101  C   UNL A   1      45.751  38.547  33.658  1.00  0.00     0.041 A 
ATOM    102  F   UNL A   1      46.253  36.384  33.085  1.00  0.00    -0.206 F 
ATOM    103  C   UNL A   1      45.006  39.702  33.529  1.00  0.00     0.022 A 
BRANCH 100 104
ATOM    104  S   UNL A   1      42.985  41.203  32.337  1.00  0.00     0.124 S 
ATOM    105  O   UNL A   1      43.952  42.296  32.368  1.00  0.00    -0.237 OA
ATOM    106  O   UNL A   1      42.363  40.950  31.040  1.00  0.00    -0.237 OA
ATOM    107  O   UNL A   1      42.084  41.130  33.485  1.00  0.00    -0.744 OA
ENDBRANCH 100 104
ENDBRANCH  74  97
ENDBRANCH  48  49
ENDBRANCH  41  43
ENDBRANCH  40  41
ENDBRANCH  39  40
ENDBRANCH  38  39
ENDBRANCH  37  38
ENDBRANCH  36  37
ENDBRANCH   1  36
TORSDOF 25
ENDMDL
MODEL 3
REMARK VINA RESULT:     -10.1      2.672      3.704
REMARK SMILES Cc1ccc([C@@]23C[C@@H]4C[C@@H](C[C@@](C(=O)N5CCC(C(=O)OCCOCCOCCOCCOC(=O)c6ccc(-c7c8nc(c(-c9cc(S(=O)(=O)[O-])ccc9F)c9ccc([nH]9)c(-c9cc(S(=O)(=O)[O-])ccc9F)c9nc(c(-c%10cc(S(=O)(=O)[O-])ccc%10F)c%10ccc7[nH]%10)C=C9)C=C8)cc6)CC5)(C4)C2)C3)cc1
REMARK SMILES IDX 28 1 27 2 26 3 25 4 24 5 23 6 22 7 21 8 19 9 20 10 18 11
REMARK SMILES IDX 13 12 14 13 15 14 16 15 100 16 17 17 99 18 12 19 6 20 7 21
REMARK SMILES IDX 102 22 103 23 8 24 10 25 9 26 101 27 11 28 5 29 1 30 2 31
REMARK SMILES IDX 3 32 105 33 4 34 104 35 29 36 30 37 31 38 32 39 33 40 34 41
REMARK SMILES IDX 35 42 36 43 37 44 98 45 38 46 97 47 39 48 40 49 41 50 91 51
REMARK SMILES IDX 42 52 96 53 90 54 92 55 43 56 95 57 89 58 88 59 44 61 76 62
REMARK SMILES IDX 56 63 75 64 57 65 60 66 74 67 93 68 58 69 59 70 73 72 94 73
REMARK SMILES IDX 61 74 45 75 46 76 54 77 47 78 53 79 55 80 52 81 48 82 49 83
REMARK SMILES IDX 50 84 51 85 77 86 78 87 86 88 79 89 85 90 87 91 84 92 80 93
REMARK SMILES IDX 81 94 82 95 83 96 62 97 63 98 71 99 64 100 70 101 72 102
REMARK SMILES IDX 69 103 65 104 66 105 67 106 68 107
REMARK H PARENT 92 60 60 71
REMARK Flexibility Score: inf
ROOT
ATOM      1  C   UNL A   1      42.672  26.513  26.171  1.00  0.00     0.188 C 
ENDROOT
BRANCH   1   2
ATOM      2  O   UNL A   1      41.525  27.343  25.925  1.00  0.00    -0.377 OA
BRANCH   2   3
ATOM      3  C   UNL A   1      40.819  27.859  27.044  1.00  0.00     0.188 C 
BRANCH   3   4
ATOM      4  C   UNL A   1      39.817  26.929  27.745  1.00  0.00     0.188 C 
BRANCH   4   5
ATOM      5  O   UNL A   1      40.360  25.824  28.454  1.00  0.00    -0.376 OA
BRANCH   5   6
ATOM      6  C   UNL A   1      39.835  24.571  28.024  1.00  0.00     0.202 C 
BRANCH   6   7
ATOM      7  C   UNL A   1      39.346  24.508  26.581  1.00  0.00     0.261 C 
BRANCH   7   8
ATOM      8  O   UNL A   1      38.004  24.002  26.562  1.00  0.00    -0.463 OA
BRANCH   8   9
ATOM      9  C   UNL A   1      37.781  22.898  25.818  1.00  0.00     0.309 C 
ATOM     10  O   UNL A   1      38.394  21.855  25.886  1.00  0.00    -0.252 OA
BRANCH   9  11
ATOM     11  C   UNL A   1      36.493  23.038  25.046  1.00  0.00     0.103 C 
ATOM     12  C   UNL A   1      33.498  25.039  22.768  1.00  0.00     0.228 C 
ATOM     13  O   UNL A   1      33.671  25.102  21.546  1.00  0.00    -0.274 OA
ATOM     14  N   UNL A   1      34.331  24.251  23.572  1.00  0.00    -0.342 N 
ATOM     15  C   UNL A   1      35.184  23.239  22.931  1.00  0.00     0.120 C 
ATOM     16  C   UNL A   1      34.328  24.195  25.036  1.00  0.00     0.120 C 
ATOM     17  C   UNL A   1      36.596  23.178  23.531  1.00  0.00     0.037 C 
ATOM     18  C   UNL A   1      35.721  24.231  25.596  1.00  0.00     0.037 C 
BRANCH  12  19
ATOM     19  C   UNL A   1      32.250  25.719  23.393  1.00  0.00     0.051 C 
ATOM     20  C   UNL A   1      31.688  27.599  25.076  1.00  0.00    -0.003 C 
ATOM     21  C   UNL A   1      30.794  28.199  23.951  1.00  0.00     0.015 C 
ATOM     22  C   UNL A   1      32.775  26.768  24.387  1.00  0.00     0.028 C 
ATOM     23  C   UNL A   1      30.854  26.596  25.910  1.00  0.00     0.015 C 
ATOM     24  C   UNL A   1      30.160  27.095  23.077  1.00  0.00    -0.009 C 
ATOM     25  C   UNL A   1      30.279  25.486  25.001  1.00  0.00    -0.009 C 
ATOM     26  C   UNL A   1      29.351  26.139  23.965  1.00  0.00     0.007 C 
ATOM     27  C   UNL A   1      31.252  26.284  22.361  1.00  0.00     0.020 C 
ATOM     28  C   UNL A   1      31.420  24.732  24.270  1.00  0.00     0.020 C 
BRANCH  20  29
ATOM     29  C   UNL A   1      32.325  28.717  25.933  1.00  0.00    -0.042 A 
ATOM     30  C   UNL A   1      34.230  31.935  28.151  1.00  0.00     0.044 C 
ATOM     31  C   UNL A   1      33.551  30.834  27.398  1.00  0.00    -0.051 A 
ATOM     32  C   UNL A   1      34.194  29.608  27.259  1.00  0.00     0.004 A 
ATOM     33  C   UNL A   1      32.291  30.998  26.812  1.00  0.00     0.004 A 
ATOM     34  C   UNL A   1      33.587  28.571  26.551  1.00  0.00     0.004 A 
ATOM     35  C   UNL A   1      31.689  29.956  26.090  1.00  0.00     0.004 A 
ENDBRANCH  20  29
ENDBRANCH  12  19
ENDBRANCH   9  11
ENDBRANCH   8   9
ENDBRANCH   7   8
ENDBRANCH   6   7
ENDBRANCH   5   6
ENDBRANCH   4   5
ENDBRANCH   3   4
ENDBRANCH   2   3
ENDBRANCH   1   2
BRANCH   1  36
ATOM     36  C   UNL A   1      42.776  25.218  25.369  1.00  0.00     0.188 C 
BRANCH  36  37
ATOM     37  O   UNL A   1      44.150  25.040  24.989  1.00  0.00    -0.376 OA
BRANCH  37  38
ATOM     38  C   UNL A   1      45.029  26.075  25.411  1.00  0.00     0.202 C 
BRANCH  38  39
ATOM     39  C   UNL A   1      46.509  25.689  25.342  1.00  0.00     0.261 C 
BRANCH  39  40
ATOM     40  O   UNL A   1      47.046  25.590  26.676  1.00  0.00    -0.460 OA
BRANCH  40  41
ATOM     41  C   UNL A   1      46.686  24.459  27.341  1.00  0.00     0.338 C 
ATOM     42  O   UNL A   1      46.764  23.333  26.881  1.00  0.00    -0.246 OA
BRANCH  41  43
ATOM     43  C   UNL A   1      46.145  24.797  28.686  1.00  0.00     0.060 A 
ATOM     44  C   UNL A   1      44.828  24.447  29.024  1.00  0.00     0.016 A 
ATOM     45  C   UNL A   1      46.878  25.618  29.537  1.00  0.00     0.016 A 
ATOM     46  C   UNL A   1      44.212  25.026  30.145  1.00  0.00     0.010 A 
ATOM     47  C   UNL A   1      46.240  26.250  30.588  1.00  0.00     0.010 A 
ATOM     48  C   UNL A   1      44.893  25.995  30.887  1.00  0.00    -0.014 A 
BRANCH  48  49
ATOM     49  C   UNL A   1      44.253  26.949  31.815  1.00  0.00     0.031 A 
ATOM     50  C   UNL A   1      43.538  28.169  31.315  1.00  0.00     0.074 A 
ATOM     51  C   UNL A   1      43.966  26.489  33.060  1.00  0.00     0.049 A 
ATOM     52  N   UNL A   1      42.931  29.026  32.069  1.00  0.00    -0.248 NA
ATOM     53  C   UNL A   1      43.428  28.533  29.901  1.00  0.00     0.031 C 
ATOM     54  C   UNL A   1      42.882  26.934  33.935  1.00  0.00     0.029 A 
ATOM     55  N   UNL A   1      44.555  25.485  33.817  1.00  0.00    -0.354 N 
ATOM     56  C   UNL A   1      42.049  29.742  31.285  1.00  0.00     0.074 A 
ATOM     57  C   UNL A   1      42.522  29.519  29.943  1.00  0.00     0.031 C 
ATOM     58  C   UNL A   1      42.941  26.296  35.110  1.00  0.00     0.029 A 
ATOM     59  C   UNL A   1      44.250  25.709  35.165  1.00  0.00     0.049 A 
ATOM     60  H   UNL A   1      45.096  24.742  33.466  1.00  0.00     0.167 HD
ATOM     61  C   UNL A   1      40.923  30.288  31.852  1.00  0.00     0.034 A 
ATOM     62  C   UNL A   1      45.196  26.103  36.070  1.00  0.00     0.034 A 
ATOM     63  C   UNL A   1      40.952  30.246  33.340  1.00  0.00     0.049 A 
ATOM     64  C   UNL A   1      44.994  27.563  36.510  1.00  0.00     0.074 A 
ATOM     65  C   UNL A   1      40.041  29.947  34.343  1.00  0.00     0.029 A 
ATOM     66  N   UNL A   1      42.167  30.432  34.013  1.00  0.00    -0.354 N 
ATOM     67  N   UNL A   1      44.011  28.328  36.091  1.00  0.00    -0.248 NA
ATOM     68  C   UNL A   1      45.857  28.291  37.427  1.00  0.00     0.031 C 
ATOM     69  C   UNL A   1      40.739  29.893  35.595  1.00  0.00     0.029 A 
ATOM     70  C   UNL A   1      42.066  30.221  35.373  1.00  0.00     0.049 A 
ATOM     71  H   UNL A   1      43.004  30.687  33.562  1.00  0.00     0.167 HD
ATOM     72  C   UNL A   1      44.094  29.598  36.589  1.00  0.00     0.074 A 
ATOM     73  C   UNL A   1      45.285  29.513  37.432  1.00  0.00     0.031 C 
ATOM     74  C   UNL A   1      43.198  30.585  36.236  1.00  0.00     0.034 A 
BRANCH  61  75
ATOM     75  C   UNL A   1      39.657  30.679  31.058  1.00  0.00     0.023 A 
ATOM     76  C   UNL A   1      39.266  32.039  30.957  1.00  0.00     0.031 A 
ATOM     77  C   UNL A   1      38.726  29.768  30.498  1.00  0.00     0.131 A 
ATOM     78  C   UNL A   1      38.042  32.425  30.353  1.00  0.00     0.055 A 
ATOM     79  C   UNL A   1      37.553  30.158  29.826  1.00  0.00     0.041 A 
ATOM     80  F   UNL A   1      38.850  28.443  30.630  1.00  0.00    -0.206 F 
ATOM     81  C   UNL A   1      37.200  31.492  29.758  1.00  0.00     0.022 A 
BRANCH  78  82
ATOM     82  S   UNL A   1      37.509  34.165  30.395  1.00  0.00     0.124 S 
ATOM     83  O   UNL A   1      38.770  34.874  30.207  1.00  0.00    -0.237 OA
ATOM     84  O   UNL A   1      36.558  34.233  29.291  1.00  0.00    -0.237 OA
ATOM     85  O   UNL A   1      36.915  34.309  31.724  1.00  0.00    -0.744 OA
ENDBRANCH  78  82
ENDBRANCH  61  75
BRANCH  62  86
ATOM     86  C   UNL A   1      46.420  25.245  35.944  1.00  0.00     0.023 A 
ATOM     87  C   UNL A   1      46.166  23.875  36.222  1.00  0.00     0.031 A 
ATOM     88  C   UNL A   1      47.425  25.541  35.009  1.00  0.00     0.131 A 
ATOM     89  C   UNL A   1      46.657  22.882  35.359  1.00  0.00     0.055 A 
ATOM     90  C   UNL A   1      47.991  24.527  34.214  1.00  0.00     0.041 A 
ATOM     91  F   UNL A   1      47.711  26.812  34.694  1.00  0.00    -0.206 F 
ATOM     92  C   UNL A   1      47.552  23.206  34.338  1.00  0.00     0.022 A 
BRANCH  89  93
ATOM     93  S   UNL A   1      45.837  21.247  35.332  1.00  0.00     0.124 S 
ATOM     94  O   UNL A   1      46.770  20.452  34.543  1.00  0.00    -0.237 OA
ATOM     95  O   UNL A   1      45.737  20.891  36.742  1.00  0.00    -0.237 OA
ATOM     96  O   UNL A   1      44.555  21.542  34.691  1.00  0.00    -0.744 OA
ENDBRANCH  89  93
ENDBRANCH  62  86
BRANCH  74  97
ATOM     97  C   UNL A   1      43.303  32.066  36.592  1.00  0.00     0.023 A 
ATOM     98  C   UNL A   1      44.228  32.929  36.009  1.00  0.00     0.031 A 
ATOM     99  C   UNL A   1      42.420  32.682  37.526  1.00  0.00     0.131 A 
ATOM    100  C   UNL A   1      44.164  34.319  36.211  1.00  0.00     0.055 A 
ATOM    101  C   UNL A   1      42.391  34.057  37.772  1.00  0.00     0.041 A 
ATOM    102  F   UNL A   1      41.524  31.987  38.241  1.00  0.00    -0.206 F 
ATOM    103  C   UNL A   1      43.248  34.894  37.083  1.00  0.00     0.022 A 
BRANCH 100 104
ATOM    104  S   UNL A   1      45.275  35.352  35.229  1.00  0.00     0.124 S 
ATOM    105  O   UNL A   1      45.053  34.851  33.877  1.00  0.00    -0.237 OA
ATOM    106  O   UNL A   1      44.755  36.690  35.500  1.00  0.00    -0.237 OA
ATOM    107  O   UNL A   1      46.595  35.071  35.792  1.00  0.00    -0.744 OA
ENDBRANCH 100 104
ENDBRANCH  74  97
ENDBRANCH  48  49
ENDBRANCH  41  43
ENDBRANCH  40  41
ENDBRANCH  39  40
ENDBRANCH  38  39
ENDBRANCH  37  38
ENDBRANCH  36  37
ENDBRANCH   1  36
TORSDOF 25
ENDMDL
