MODEL 1
REMARK VINA RESULT:     -10.3      0.000      0.000
REMARK SMILES COc1ccc(NC(=O)N[C@@H]2C=C[C@H](C(=O)OCCOCCOCCOCCOC(=O)c3ccc(-c4c5nc(c(-c6cc(S(=O)(=O)[O-])ccc6F)c6ccc([nH]6)c(-c6cc(S(=O)(=O)[O-])ccc6F)c6nc(c(-c7cc(S(=O)(=O)[O-])ccc7F)c7ccc4[nH]7)C=C6)C=C5)cc3)C2)c(C)c1
REMARK SMILES IDX 23 1 22 2 21 3 20 4 19 5 18 6 17 7 15 8 16 9 14 10 11 11
REMARK SMILES IDX 12 12 95 13 13 14 10 15 7 16 8 17 9 19 6 21 3 22 4 23 98 24
REMARK SMILES IDX 5 25 96 26 97 27 2 28 1 29 24 30 25 31 26 32 27 33 28 34
REMARK SMILES IDX 29 35 30 36 31 37 32 38 33 39 94 40 34 41 93 42 35 43 36 44
REMARK SMILES IDX 37 45 87 46 38 47 92 48 86 49 88 50 39 51 91 52 85 53 84 54
REMARK SMILES IDX 40 56 72 57 52 58 71 59 53 60 56 61 70 62 89 63 54 64 55 65
REMARK SMILES IDX 69 67 90 68 57 69 41 70 42 71 50 72 43 73 49 74 51 75 48 76
REMARK SMILES IDX 44 77 45 78 46 79 47 80 73 81 74 82 82 83 75 84 81 85 83 86
REMARK SMILES IDX 80 87 76 88 77 89 78 90 79 91 58 92 59 93 67 94 60 95 66 96
REMARK SMILES IDX 68 97 65 98 61 99 62 100 63 101 64 102
REMARK H PARENT 7 18 10 20 88 55 56 66
REMARK Flexibility Score: inf
ROOT
ATOM      1  O   UNL A   1      34.726  21.363  24.266  1.00  0.00    -0.377 OA
ENDROOT
BRANCH   1   2
ATOM      2  C   UNL A   1      33.539  22.008  24.665  1.00  0.00     0.188 C 
BRANCH   2   3
ATOM      3  C   UNL A   1      33.632  23.353  25.383  1.00  0.00     0.188 C 
BRANCH   3   4
ATOM      4  O   UNL A   1      34.201  24.436  24.680  1.00  0.00    -0.376 OA
BRANCH   4   5
ATOM      5  C   UNL A   1      33.243  25.105  23.869  1.00  0.00     0.202 C 
BRANCH   5   6
ATOM      6  C   UNL A   1      33.500  26.581  23.628  1.00  0.00     0.261 C 
BRANCH   6   7
ATOM      7  O   UNL A   1      34.010  27.248  24.797  1.00  0.00    -0.463 OA
BRANCH   7   8
ATOM      8  C   UNL A   1      33.356  28.385  25.102  1.00  0.00     0.312 C 
ATOM      9  O   UNL A   1      32.581  28.963  24.341  1.00  0.00    -0.252 OA
BRANCH   8  10
ATOM     10  C   UNL A   1      33.466  28.810  26.547  1.00  0.00     0.124 C 
ATOM     11  C   UNL A   1      33.469  30.895  27.931  1.00  0.00     0.107 C 
ATOM     12  C   UNL A   1      34.784  30.270  27.736  1.00  0.00    -0.006 C 
ATOM     13  C   UNL A   1      32.563  29.829  27.254  1.00  0.00     0.048 C 
ATOM     14  C   UNL A   1      34.819  29.343  26.790  1.00  0.00    -0.014 C 
BRANCH  11  15
ATOM     15  N   UNL A   1      33.572  32.210  27.285  1.00  0.00    -0.332 N 
ATOM     16  N   UNL A   1      33.436  34.394  28.216  1.00  0.00    -0.308 N 
ATOM     17  C   UNL A   1      32.795  33.313  27.621  1.00  0.00     0.319 C 
ATOM     18  H   UNL A   1      33.468  35.210  27.666  1.00  0.00     0.171 HD
ATOM     19  O   UNL A   1      31.748  33.480  26.987  1.00  0.00    -0.248 OA
ATOM     20  H   UNL A   1      34.236  32.318  26.566  1.00  0.00     0.165 HD
BRANCH  16  21
ATOM     21  C   UNL A   1      34.057  34.512  29.496  1.00  0.00     0.046 A 
ATOM     22  C   UNL A   1      34.675  33.952  32.176  1.00  0.00     0.119 A 
ATOM     23  C   UNL A   1      33.755  34.938  31.871  1.00  0.00     0.048 A 
ATOM     24  C   UNL A   1      35.552  33.571  31.168  1.00  0.00     0.052 A 
ATOM     25  C   UNL A   1      33.517  35.274  30.524  1.00  0.00     0.030 A 
ATOM     26  C   UNL A   1      35.255  33.859  29.807  1.00  0.00    -0.024 A 
ATOM     27  C   UNL A   1      36.244  33.462  28.756  1.00  0.00     0.047 C 
BRANCH  22  28
ATOM     28  O   UNL A   1      34.800  33.410  33.426  1.00  0.00    -0.497 OA
ATOM     29  C   UNL A   1      35.176  34.382  34.416  1.00  0.00     0.278 C 
ENDBRANCH  22  28
ENDBRANCH  16  21
ENDBRANCH  11  15
ENDBRANCH   8  10
ENDBRANCH   7   8
ENDBRANCH   6   7
ENDBRANCH   5   6
ENDBRANCH   4   5
ENDBRANCH   3   4
ENDBRANCH   2   3
ENDBRANCH   1   2
BRANCH   1  30
ATOM     30  C   UNL A   1      35.709  21.042  25.245  1.00  0.00     0.188 C 
BRANCH  30  31
ATOM     31  C   UNL A   1      36.710  19.921  25.017  1.00  0.00     0.188 C 
BRANCH  31  32
ATOM     32  O   UNL A   1      38.006  20.500  24.918  1.00  0.00    -0.376 OA
BRANCH  32  33
ATOM     33  C   UNL A   1      38.166  21.754  25.558  1.00  0.00     0.202 C 
BRANCH  33  34
ATOM     34  C   UNL A   1      39.419  21.821  26.435  1.00  0.00     0.261 C 
BRANCH  34  35
ATOM     35  O   UNL A   1      40.482  21.050  25.833  1.00  0.00    -0.460 OA
BRANCH  35  36
ATOM     36  C   UNL A   1      41.497  20.703  26.680  1.00  0.00     0.338 C 
ATOM     37  O   UNL A   1      41.638  19.603  27.167  1.00  0.00    -0.246 OA
BRANCH  36  38
ATOM     38  C   UNL A   1      42.338  21.899  27.006  1.00  0.00     0.060 A 
ATOM     39  C   UNL A   1      42.546  22.297  28.337  1.00  0.00     0.016 A 
ATOM     40  C   UNL A   1      42.701  22.759  25.982  1.00  0.00     0.016 A 
ATOM     41  C   UNL A   1      42.973  23.611  28.635  1.00  0.00     0.010 A 
ATOM     42  C   UNL A   1      43.014  24.070  26.289  1.00  0.00     0.010 A 
ATOM     43  C   UNL A   1      43.138  24.541  27.609  1.00  0.00    -0.014 A 
BRANCH  43  44
ATOM     44  C   UNL A   1      43.270  26.018  27.758  1.00  0.00     0.031 A 
ATOM     45  C   UNL A   1      42.012  26.860  27.872  1.00  0.00     0.074 A 
ATOM     46  C   UNL A   1      44.448  26.548  28.195  1.00  0.00     0.049 A 
ATOM     47  N   UNL A   1      41.961  28.097  28.243  1.00  0.00    -0.248 NA
ATOM     48  C   UNL A   1      40.663  26.343  27.636  1.00  0.00     0.031 C 
ATOM     49  C   UNL A   1      44.580  27.745  29.020  1.00  0.00     0.029 A 
ATOM     50  N   UNL A   1      45.774  26.134  28.078  1.00  0.00    -0.354 N 
ATOM     51  C   UNL A   1      40.680  28.400  28.671  1.00  0.00     0.074 A 
ATOM     52  C   UNL A   1      39.894  27.302  28.167  1.00  0.00     0.031 C 
ATOM     53  C   UNL A   1      45.856  28.014  29.299  1.00  0.00     0.029 A 
ATOM     54  C   UNL A   1      46.623  27.212  28.405  1.00  0.00     0.049 A 
ATOM     55  H   UNL A   1      46.071  25.234  27.809  1.00  0.00     0.167 HD
ATOM     56  C   UNL A   1      40.488  29.471  29.512  1.00  0.00     0.034 A 
ATOM     57  C   UNL A   1      47.446  27.787  27.481  1.00  0.00     0.034 A 
ATOM     58  C   UNL A   1      41.725  30.280  29.667  1.00  0.00     0.049 A 
ATOM     59  C   UNL A   1      46.959  29.212  27.174  1.00  0.00     0.074 A 
ATOM     60  C   UNL A   1      42.433  30.805  30.741  1.00  0.00     0.029 A 
ATOM     61  N   UNL A   1      42.518  30.534  28.547  1.00  0.00    -0.354 N 
ATOM     62  N   UNL A   1      45.699  29.593  27.265  1.00  0.00    -0.248 NA
ATOM     63  C   UNL A   1      47.861  30.355  27.046  1.00  0.00     0.031 C 
ATOM     64  C   UNL A   1      43.687  31.284  30.259  1.00  0.00     0.029 A 
ATOM     65  C   UNL A   1      43.716  31.118  28.883  1.00  0.00     0.049 A 
ATOM     66  H   UNL A   1      42.250  30.320  27.624  1.00  0.00     0.167 HD
ATOM     67  C   UNL A   1      45.636  30.963  27.383  1.00  0.00     0.074 A 
ATOM     68  C   UNL A   1      47.012  31.394  27.172  1.00  0.00     0.031 C 
ATOM     69  C   UNL A   1      44.562  31.682  27.846  1.00  0.00     0.034 A 
BRANCH  56  70
ATOM     70  C   UNL A   1      39.245  29.764  30.379  1.00  0.00     0.023 A 
ATOM     71  C   UNL A   1      39.415  30.304  31.682  1.00  0.00     0.031 A 
ATOM     72  C   UNL A   1      37.903  29.470  30.056  1.00  0.00     0.131 A 
ATOM     73  C   UNL A   1      38.339  30.481  32.581  1.00  0.00     0.055 A 
ATOM     74  C   UNL A   1      36.821  29.707  30.926  1.00  0.00     0.041 A 
ATOM     75  F   UNL A   1      37.547  28.904  28.900  1.00  0.00    -0.206 F 
ATOM     76  C   UNL A   1      37.034  30.204  32.201  1.00  0.00     0.022 A 
BRANCH  73  77
ATOM     77  S   UNL A   1      38.662  31.060  34.276  1.00  0.00     0.124 S 
ATOM     78  O   UNL A   1      38.344  29.879  35.070  1.00  0.00    -0.237 OA
ATOM     79  O   UNL A   1      40.067  31.442  34.219  1.00  0.00    -0.237 OA
ATOM     80  O   UNL A   1      37.729  32.176  34.435  1.00  0.00    -0.744 OA
ENDBRANCH  73  77
ENDBRANCH  56  70
BRANCH  57  81
ATOM     81  C   UNL A   1      48.081  26.705  26.663  1.00  0.00     0.023 A 
ATOM     82  C   UNL A   1      47.851  26.836  25.262  1.00  0.00     0.031 A 
ATOM     83  C   UNL A   1      49.317  26.177  27.071  1.00  0.00     0.131 A 
ATOM     84  C   UNL A   1      48.924  26.724  24.357  1.00  0.00     0.055 A 
ATOM     85  C   UNL A   1      50.365  26.009  26.151  1.00  0.00     0.041 A 
ATOM     86  F   UNL A   1      49.607  26.051  28.375  1.00  0.00    -0.206 F 
ATOM     87  C   UNL A   1      50.192  26.347  24.805  1.00  0.00     0.022 A 
BRANCH  84  88
ATOM     88  S   UNL A   1      48.719  27.340  22.648  1.00  0.00     0.124 S 
ATOM     89  O   UNL A   1      49.935  28.124  22.464  1.00  0.00    -0.237 OA
ATOM     90  O   UNL A   1      48.614  26.112  21.861  1.00  0.00    -0.237 OA
ATOM     91  O   UNL A   1      47.479  28.111  22.711  1.00  0.00    -0.744 OA
ENDBRANCH  84  88
ENDBRANCH  57  81
BRANCH  69  92
ATOM     92  C   UNL A   1      44.174  33.063  27.351  1.00  0.00     0.023 A 
ATOM     93  C   UNL A   1      44.256  34.199  28.152  1.00  0.00     0.031 A 
ATOM     94  C   UNL A   1      43.850  33.302  25.982  1.00  0.00     0.131 A 
ATOM     95  C   UNL A   1      44.009  35.475  27.623  1.00  0.00     0.055 A 
ATOM     96  C   UNL A   1      43.654  34.576  25.448  1.00  0.00     0.041 A 
ATOM     97  F   UNL A   1      43.754  32.321  25.075  1.00  0.00    -0.206 F 
ATOM     98  C   UNL A   1      43.732  35.679  26.274  1.00  0.00     0.022 A 
BRANCH  95  99
ATOM     99  S   UNL A   1      44.051  36.863  28.774  1.00  0.00     0.124 S 
ATOM    100  O   UNL A   1      42.707  36.816  29.343  1.00  0.00    -0.237 OA
ATOM    101  O   UNL A   1      45.133  36.484  29.677  1.00  0.00    -0.237 OA
ATOM    102  O   UNL A   1      44.328  38.013  27.917  1.00  0.00    -0.744 OA
ENDBRANCH  95  99
ENDBRANCH  69  92
ENDBRANCH  43  44
ENDBRANCH  36  38
ENDBRANCH  35  36
ENDBRANCH  34  35
ENDBRANCH  33  34
ENDBRANCH  32  33
ENDBRANCH  31  32
ENDBRANCH  30  31
ENDBRANCH   1  30
TORSDOF 26
ENDMDL
MODEL 2
REMARK VINA RESULT:      -9.3      2.829      9.857
REMARK SMILES COc1ccc(NC(=O)N[C@@H]2C=C[C@H](C(=O)OCCOCCOCCOCCOC(=O)c3ccc(-c4c5nc(c(-c6cc(S(=O)(=O)[O-])ccc6F)c6ccc([nH]6)c(-c6cc(S(=O)(=O)[O-])ccc6F)c6nc(c(-c7cc(S(=O)(=O)[O-])ccc7F)c7ccc4[nH]7)C=C6)C=C5)cc3)C2)c(C)c1
REMARK SMILES IDX 23 1 22 2 21 3 20 4 19 5 18 6 17 7 15 8 16 9 14 10 11 11
REMARK SMILES IDX 12 12 95 13 13 14 10 15 7 16 8 17 9 19 6 21 3 22 4 23 98 24
REMARK SMILES IDX 5 25 96 26 97 27 2 28 1 29 24 30 25 31 26 32 27 33 28 34
REMARK SMILES IDX 29 35 30 36 31 37 32 38 33 39 94 40 34 41 93 42 35 43 36 44
REMARK SMILES IDX 37 45 87 46 38 47 92 48 86 49 88 50 39 51 91 52 85 53 84 54
REMARK SMILES IDX 40 56 72 57 52 58 71 59 53 60 56 61 70 62 89 63 54 64 55 65
REMARK SMILES IDX 69 67 90 68 57 69 41 70 42 71 50 72 43 73 49 74 51 75 48 76
REMARK SMILES IDX 44 77 45 78 46 79 47 80 73 81 74 82 82 83 75 84 81 85 83 86
REMARK SMILES IDX 80 87 76 88 77 89 78 90 79 91 58 92 59 93 67 94 60 95 66 96
REMARK SMILES IDX 68 97 65 98 61 99 62 100 63 101 64 102
REMARK H PARENT 7 18 10 20 88 55 56 66
REMARK Flexibility Score: inf
ROOT
ATOM      1  O   UNL A   1      34.688  33.713  29.320  1.00  0.00    -0.377 OA
ENDROOT
BRANCH   1   2
ATOM      2  C   UNL A   1      35.729  33.101  28.595  1.00  0.00     0.188 C 
BRANCH   2   3
ATOM      3  C   UNL A   1      35.491  31.724  27.978  1.00  0.00     0.188 C 
BRANCH   3   4
ATOM      4  O   UNL A   1      34.158  31.281  27.854  1.00  0.00    -0.376 OA
BRANCH   4   5
ATOM      5  C   UNL A   1      34.037  30.218  26.917  1.00  0.00     0.202 C 
BRANCH   5   6
ATOM      6  C   UNL A   1      32.653  30.013  26.329  1.00  0.00     0.261 C 
BRANCH   6   7
ATOM      7  O   UNL A   1      32.102  28.724  26.658  1.00  0.00    -0.463 OA
BRANCH   7   8
ATOM      8  C   UNL A   1      32.309  27.788  25.711  1.00  0.00     0.312 C 
ATOM      9  O   UNL A   1      33.379  27.619  25.127  1.00  0.00    -0.252 OA
BRANCH   8  10
ATOM     10  C   UNL A   1      31.187  26.792  25.550  1.00  0.00     0.124 C 
ATOM     11  C   UNL A   1      30.453  24.973  23.996  1.00  0.00     0.107 C 
ATOM     12  C   UNL A   1      29.708  26.234  23.881  1.00  0.00    -0.006 C 
ATOM     13  C   UNL A   1      31.349  25.302  25.222  1.00  0.00     0.048 C 
ATOM     14  C   UNL A   1      30.271  27.264  24.496  1.00  0.00    -0.014 C 
BRANCH  11  15
ATOM     15  N   UNL A   1      31.114  24.802  22.695  1.00  0.00    -0.332 N 
ATOM     16  N   UNL A   1      33.328  24.102  22.178  1.00  0.00    -0.308 N 
ATOM     17  C   UNL A   1      32.439  25.140  22.438  1.00  0.00     0.319 C 
ATOM     18  H   UNL A   1      33.676  24.078  21.258  1.00  0.00     0.171 HD
ATOM     19  O   UNL A   1      32.657  26.274  22.000  1.00  0.00    -0.248 OA
ATOM     20  H   UNL A   1      30.585  24.423  21.957  1.00  0.00     0.165 HD
BRANCH  16  21
ATOM     21  C   UNL A   1      33.816  23.067  23.030  1.00  0.00     0.046 A 
ATOM     22  C   UNL A   1      34.322  21.623  25.383  1.00  0.00     0.119 A 
ATOM     23  C   UNL A   1      35.285  22.475  24.876  1.00  0.00     0.048 A 
ATOM     24  C   UNL A   1      33.329  21.199  24.510  1.00  0.00     0.052 A 
ATOM     25  C   UNL A   1      35.059  23.127  23.648  1.00  0.00     0.030 A 
ATOM     26  C   UNL A   1      33.071  21.916  23.309  1.00  0.00    -0.024 A 
ATOM     27  C   UNL A   1      32.015  21.404  22.379  1.00  0.00     0.047 C 
BRANCH  22  28
ATOM     28  O   UNL A   1      34.359  21.132  26.660  1.00  0.00    -0.497 OA
ATOM     29  C   UNL A   1      33.591  21.926  27.580  1.00  0.00     0.278 C 
ENDBRANCH  22  28
ENDBRANCH  16  21
ENDBRANCH  11  15
ENDBRANCH   8  10
ENDBRANCH   7   8
ENDBRANCH   6   7
ENDBRANCH   5   6
ENDBRANCH   4   5
ENDBRANCH   3   4
ENDBRANCH   2   3
ENDBRANCH   1   2
BRANCH   1  30
ATOM     30  C   UNL A   1      34.829  33.895  30.726  1.00  0.00     0.188 C 
BRANCH  30  31
ATOM     31  C   UNL A   1      34.583  32.752  31.697  1.00  0.00     0.188 C 
BRANCH  31  32
ATOM     32  O   UNL A   1      35.819  32.078  31.907  1.00  0.00    -0.376 OA
BRANCH  32  33
ATOM     33  C   UNL A   1      36.123  31.764  33.255  1.00  0.00     0.202 C 
BRANCH  33  34
ATOM     34  C   UNL A   1      37.628  31.713  33.532  1.00  0.00     0.261 C 
BRANCH  34  35
ATOM     35  O   UNL A   1      38.066  32.969  34.097  1.00  0.00    -0.460 OA
BRANCH  35  36
ATOM     36  C   UNL A   1      38.149  34.004  33.209  1.00  0.00     0.338 C 
ATOM     37  O   UNL A   1      37.370  34.931  33.162  1.00  0.00    -0.246 OA
BRANCH  36  38
ATOM     38  C   UNL A   1      39.267  33.774  32.239  1.00  0.00     0.060 A 
ATOM     39  C   UNL A   1      39.007  33.522  30.882  1.00  0.00     0.016 A 
ATOM     40  C   UNL A   1      40.544  33.558  32.731  1.00  0.00     0.016 A 
ATOM     41  C   UNL A   1      39.986  32.912  30.066  1.00  0.00     0.010 A 
ATOM     42  C   UNL A   1      41.453  32.866  31.953  1.00  0.00     0.010 A 
ATOM     43  C   UNL A   1      41.200  32.505  30.617  1.00  0.00    -0.014 A 
BRANCH  43  44
ATOM     44  C   UNL A   1      42.197  31.584  29.998  1.00  0.00     0.031 A 
ATOM     45  C   UNL A   1      41.980  30.085  30.110  1.00  0.00     0.074 A 
ATOM     46  C   UNL A   1      43.027  32.049  29.022  1.00  0.00     0.049 A 
ATOM     47  N   UNL A   1      42.606  29.179  29.434  1.00  0.00    -0.248 NA
ATOM     48  C   UNL A   1      40.965  29.473  30.967  1.00  0.00     0.031 C 
ATOM     49  C   UNL A   1      43.520  31.270  27.891  1.00  0.00     0.029 A 
ATOM     50  N   UNL A   1      43.571  33.307  28.761  1.00  0.00    -0.354 N 
ATOM     51  C   UNL A   1      41.869  28.007  29.437  1.00  0.00     0.074 A 
ATOM     52  C   UNL A   1      40.915  28.219  30.497  1.00  0.00     0.031 C 
ATOM     53  C   UNL A   1      44.306  31.996  27.096  1.00  0.00     0.029 A 
ATOM     54  C   UNL A   1      44.630  33.168  27.840  1.00  0.00     0.049 A 
ATOM     55  H   UNL A   1      43.265  34.156  29.156  1.00  0.00     0.167 HD
ATOM     56  C   UNL A   1      42.083  27.076  28.449  1.00  0.00     0.034 A 
ATOM     57  C   UNL A   1      45.922  33.445  28.180  1.00  0.00     0.034 A 
ATOM     58  C   UNL A   1      43.266  27.416  27.617  1.00  0.00     0.049 A 
ATOM     59  C   UNL A   1      46.738  32.143  28.206  1.00  0.00     0.074 A 
ATOM     60  C   UNL A   1      43.525  27.494  26.254  1.00  0.00     0.029 A 
ATOM     61  N   UNL A   1      44.417  27.904  28.236  1.00  0.00    -0.354 N 
ATOM     62  N   UNL A   1      46.223  30.958  28.477  1.00  0.00    -0.248 NA
ATOM     63  C   UNL A   1      48.084  32.031  27.647  1.00  0.00     0.031 C 
ATOM     64  C   UNL A   1      44.795  28.117  26.075  1.00  0.00     0.029 A 
ATOM     65  C   UNL A   1      45.343  28.354  27.326  1.00  0.00     0.049 A 
ATOM     66  H   UNL A   1      44.551  27.922  29.212  1.00  0.00     0.167 HD
ATOM     67  C   UNL A   1      47.049  29.971  27.988  1.00  0.00     0.074 A 
ATOM     68  C   UNL A   1      48.231  30.696  27.540  1.00  0.00     0.031 C 
ATOM     69  C   UNL A   1      46.694  28.664  27.761  1.00  0.00     0.034 A 
BRANCH  56  70
ATOM     70  C   UNL A   1      41.156  25.906  28.055  1.00  0.00     0.023 A 
ATOM     71  C   UNL A   1      41.722  24.637  27.758  1.00  0.00     0.031 A 
ATOM     72  C   UNL A   1      39.759  25.964  27.863  1.00  0.00     0.131 A 
ATOM     73  C   UNL A   1      40.955  23.555  27.268  1.00  0.00     0.055 A 
ATOM     74  C   UNL A   1      38.983  24.867  27.439  1.00  0.00     0.041 A 
ATOM     75  F   UNL A   1      39.054  27.085  28.035  1.00  0.00    -0.206 F 
ATOM     76  C   UNL A   1      39.579  23.658  27.127  1.00  0.00     0.022 A 
BRANCH  73  77
ATOM     77  S   UNL A   1      41.780  22.004  26.792  1.00  0.00     0.124 S 
ATOM     78  O   UNL A   1      42.281  22.320  25.459  1.00  0.00    -0.237 OA
ATOM     79  O   UNL A   1      42.781  21.843  27.838  1.00  0.00    -0.237 OA
ATOM     80  O   UNL A   1      40.696  21.022  26.823  1.00  0.00    -0.744 OA
ENDBRANCH  73  77
ENDBRANCH  56  70
BRANCH  57  81
ATOM     81  C   UNL A   1      45.946  34.705  28.990  1.00  0.00     0.023 A 
ATOM     82  C   UNL A   1      45.443  35.843  28.295  1.00  0.00     0.031 A 
ATOM     83  C   UNL A   1      45.709  34.632  30.373  1.00  0.00     0.131 A 
ATOM     84  C   UNL A   1      44.502  36.688  28.912  1.00  0.00     0.055 A 
ATOM     85  C   UNL A   1      44.815  35.518  30.995  1.00  0.00     0.041 A 
ATOM     86  F   UNL A   1      46.134  33.575  31.082  1.00  0.00    -0.206 F 
ATOM     87  C   UNL A   1      44.158  36.504  30.253  1.00  0.00     0.022 A 
BRANCH  84  88
ATOM     88  S   UNL A   1      43.530  37.846  27.884  1.00  0.00     0.124 S 
ATOM     89  O   UNL A   1      43.030  38.786  28.881  1.00  0.00    -0.237 OA
ATOM     90  O   UNL A   1      44.519  38.365  26.940  1.00  0.00    -0.237 OA
ATOM     91  O   UNL A   1      42.519  36.988  27.270  1.00  0.00    -0.744 OA
ENDBRANCH  84  88
ENDBRANCH  57  81
BRANCH  69  92
ATOM     92  C   UNL A   1      47.626  27.478  27.930  1.00  0.00     0.023 A 
ATOM     93  C   UNL A   1      48.742  27.280  27.122  1.00  0.00     0.031 A 
ATOM     94  C   UNL A   1      47.500  26.579  29.031  1.00  0.00     0.131 A 
ATOM     95  C   UNL A   1      49.650  26.242  27.386  1.00  0.00     0.055 A 
ATOM     96  C   UNL A   1      48.430  25.582  29.321  1.00  0.00     0.041 A 
ATOM     97  F   UNL A   1      46.496  26.649  29.915  1.00  0.00    -0.206 F 
ATOM     98  C   UNL A   1      49.519  25.405  28.492  1.00  0.00     0.022 A 
BRANCH  95  99
ATOM     99  S   UNL A   1      51.007  26.021  26.220  1.00  0.00     0.124 S 
ATOM    100  O   UNL A   1      50.305  26.066  24.940  1.00  0.00    -0.237 OA
ATOM    101  O   UNL A   1      51.859  27.169  26.513  1.00  0.00    -0.237 OA
ATOM    102  O   UNL A   1      51.565  24.721  26.583  1.00  0.00    -0.744 OA
ENDBRANCH  95  99
ENDBRANCH  69  92
ENDBRANCH  43  44
ENDBRANCH  36  38
ENDBRANCH  35  36
ENDBRANCH  34  35
ENDBRANCH  33  34
ENDBRANCH  32  33
ENDBRANCH  31  32
ENDBRANCH  30  31
ENDBRANCH   1  30
TORSDOF 26
ENDMDL
MODEL 3
REMARK VINA RESULT:      -9.3      6.091      8.608
REMARK SMILES COc1ccc(NC(=O)N[C@@H]2C=C[C@H](C(=O)OCCOCCOCCOCCOC(=O)c3ccc(-c4c5nc(c(-c6cc(S(=O)(=O)[O-])ccc6F)c6ccc([nH]6)c(-c6cc(S(=O)(=O)[O-])ccc6F)c6nc(c(-c7cc(S(=O)(=O)[O-])ccc7F)c7ccc4[nH]7)C=C6)C=C5)cc3)C2)c(C)c1
REMARK SMILES IDX 23 1 22 2 21 3 20 4 19 5 18 6 17 7 15 8 16 9 14 10 11 11
REMARK SMILES IDX 12 12 95 13 13 14 10 15 7 16 8 17 9 19 6 21 3 22 4 23 98 24
REMARK SMILES IDX 5 25 96 26 97 27 2 28 1 29 24 30 25 31 26 32 27 33 28 34
REMARK SMILES IDX 29 35 30 36 31 37 32 38 33 39 94 40 34 41 93 42 35 43 36 44
REMARK SMILES IDX 37 45 87 46 38 47 92 48 86 49 88 50 39 51 91 52 85 53 84 54
REMARK SMILES IDX 40 56 72 57 52 58 71 59 53 60 56 61 70 62 89 63 54 64 55 65
REMARK SMILES IDX 69 67 90 68 57 69 41 70 42 71 50 72 43 73 49 74 51 75 48 76
REMARK SMILES IDX 44 77 45 78 46 79 47 80 73 81 74 82 82 83 75 84 81 85 83 86
REMARK SMILES IDX 80 87 76 88 77 89 78 90 79 91 58 92 59 93 67 94 60 95 66 96
REMARK SMILES IDX 68 97 65 98 61 99 62 100 63 101 64 102
REMARK H PARENT 7 18 10 20 88 55 56 66
REMARK Flexibility Score: inf
ROOT
ATOM      1  O   UNL A   1      40.082  23.549  26.160  1.00  0.00    -0.377 OA
ENDROOT
BRANCH   1   2
ATOM      2  C   UNL A   1      39.383  22.384  26.530  1.00  0.00     0.188 C 
BRANCH   2   3
ATOM      3  C   UNL A   1      38.227  21.904  25.653  1.00  0.00     0.188 C 
BRANCH   3   4
ATOM      4  O   UNL A   1      38.295  20.594  25.136  1.00  0.00    -0.376 OA
BRANCH   4   5
ATOM      5  C   UNL A   1      37.002  20.036  24.932  1.00  0.00     0.202 C 
BRANCH   5   6
ATOM      6  C   UNL A   1      35.834  20.974  25.180  1.00  0.00     0.261 C 
BRANCH   6   7
ATOM      7  O   UNL A   1      34.562  20.325  25.001  1.00  0.00    -0.463 OA
BRANCH   7   8
ATOM      8  C   UNL A   1      33.557  20.904  25.686  1.00  0.00     0.312 C 
ATOM      9  O   UNL A   1      33.559  21.079  26.903  1.00  0.00    -0.252 OA
BRANCH   8  10
ATOM     10  C   UNL A   1      32.487  21.535  24.827  1.00  0.00     0.124 C 
ATOM     11  C   UNL A   1      32.244  23.274  23.045  1.00  0.00     0.107 C 
ATOM     12  C   UNL A   1      31.785  23.677  24.381  1.00  0.00    -0.006 C 
ATOM     13  C   UNL A   1      32.579  21.781  23.315  1.00  0.00     0.048 C 
ATOM     14  C   UNL A   1      32.166  22.871  25.361  1.00  0.00    -0.014 C 
BRANCH  11  15
ATOM     15  N   UNL A   1      33.361  24.178  22.738  1.00  0.00    -0.332 N 
ATOM     16  N   UNL A   1      33.536  26.538  22.971  1.00  0.00    -0.308 N 
ATOM     17  C   UNL A   1      33.216  25.442  22.177  1.00  0.00     0.319 C 
ATOM     18  H   UNL A   1      34.328  27.044  22.677  1.00  0.00     0.171 HD
ATOM     19  O   UNL A   1      33.278  25.523  20.946  1.00  0.00    -0.248 OA
ATOM     20  H   UNL A   1      34.273  23.868  22.943  1.00  0.00     0.165 HD
BRANCH  16  21
ATOM     21  C   UNL A   1      32.902  27.048  24.143  1.00  0.00     0.046 A 
ATOM     22  C   UNL A   1      32.316  28.788  26.265  1.00  0.00     0.119 A 
ATOM     23  C   UNL A   1      33.159  27.712  26.469  1.00  0.00     0.048 A 
ATOM     24  C   UNL A   1      31.475  28.734  25.161  1.00  0.00     0.052 A 
ATOM     25  C   UNL A   1      33.377  26.793  25.423  1.00  0.00     0.030 A 
ATOM     26  C   UNL A   1      31.756  27.849  24.084  1.00  0.00    -0.024 A 
ATOM     27  C   UNL A   1      30.805  27.797  22.929  1.00  0.00     0.047 C 
BRANCH  22  28
ATOM     28  O   UNL A   1      32.226  29.840  27.137  1.00  0.00    -0.497 OA
ATOM     29  C   UNL A   1      31.776  31.048  26.501  1.00  0.00     0.278 C 
ENDBRANCH  22  28
ENDBRANCH  16  21
ENDBRANCH  11  15
ENDBRANCH   8  10
ENDBRANCH   7   8
ENDBRANCH   6   7
ENDBRANCH   5   6
ENDBRANCH   4   5
ENDBRANCH   3   4
ENDBRANCH   2   3
ENDBRANCH   1   2
BRANCH   1  30
ATOM     30  C   UNL A   1      39.868  24.753  26.891  1.00  0.00     0.188 C 
BRANCH  30  31
ATOM     31  C   UNL A   1      40.872  25.893  26.840  1.00  0.00     0.188 C 
BRANCH  31  32
ATOM     32  O   UNL A   1      41.224  26.112  25.478  1.00  0.00    -0.376 OA
BRANCH  32  33
ATOM     33  C   UNL A   1      42.586  25.890  25.156  1.00  0.00     0.202 C 
BRANCH  33  34
ATOM     34  C   UNL A   1      43.510  25.978  26.374  1.00  0.00     0.261 C 
BRANCH  34  35
ATOM     35  O   UNL A   1      44.665  25.132  26.175  1.00  0.00    -0.460 OA
BRANCH  35  36
ATOM     36  C   UNL A   1      44.502  23.832  26.562  1.00  0.00     0.338 C 
ATOM     37  O   UNL A   1      44.165  22.934  25.822  1.00  0.00    -0.246 OA
BRANCH  36  38
ATOM     38  C   UNL A   1      44.690  23.698  28.042  1.00  0.00     0.060 A 
ATOM     39  C   UNL A   1      43.701  23.108  28.847  1.00  0.00     0.016 A 
ATOM     40  C   UNL A   1      45.728  24.386  28.648  1.00  0.00     0.016 A 
ATOM     41  C   UNL A   1      43.677  23.341  30.240  1.00  0.00     0.010 A 
ATOM     42  C   UNL A   1      45.633  24.693  29.993  1.00  0.00     0.010 A 
ATOM     43  C   UNL A   1      44.605  24.205  30.820  1.00  0.00    -0.014 A 
BRANCH  43  44
ATOM     44  C   UNL A   1      44.536  24.803  32.184  1.00  0.00     0.031 A 
ATOM     45  C   UNL A   1      43.957  26.197  32.347  1.00  0.00     0.074 A 
ATOM     46  C   UNL A   1      44.592  23.991  33.278  1.00  0.00     0.049 A 
ATOM     47  N   UNL A   1      43.610  26.746  33.464  1.00  0.00    -0.248 NA
ATOM     48  C   UNL A   1      43.649  27.085  31.225  1.00  0.00     0.031 C 
ATOM     49  C   UNL A   1      43.896  24.226  34.539  1.00  0.00     0.029 A 
ATOM     50  N   UNL A   1      45.207  22.762  33.515  1.00  0.00    -0.354 N 
ATOM     51  C   UNL A   1      42.725  27.780  33.217  1.00  0.00     0.074 A 
ATOM     52  C   UNL A   1      42.874  28.013  31.803  1.00  0.00     0.031 C 
ATOM     53  C   UNL A   1      44.133  23.254  35.422  1.00  0.00     0.029 A 
ATOM     54  C   UNL A   1      45.244  22.526  34.905  1.00  0.00     0.049 A 
ATOM     55  H   UNL A   1      45.558  22.155  32.822  1.00  0.00     0.167 HD
ATOM     56  C   UNL A   1      41.888  28.204  34.222  1.00  0.00     0.034 A 
ATOM     57  C   UNL A   1      46.420  22.464  35.594  1.00  0.00     0.034 A 
ATOM     58  C   UNL A   1      42.231  27.579  35.526  1.00  0.00     0.049 A 
ATOM     59  C   UNL A   1      46.533  23.677  36.530  1.00  0.00     0.074 A 
ATOM     60  C   UNL A   1      41.518  26.931  36.528  1.00  0.00     0.029 A 
ATOM     61  N   UNL A   1      43.572  27.441  35.884  1.00  0.00    -0.354 N 
ATOM     62  N   UNL A   1      45.969  24.845  36.291  1.00  0.00    -0.248 NA
ATOM     63  C   UNL A   1      47.012  23.581  37.909  1.00  0.00     0.031 C 
ATOM     64  C   UNL A   1      42.451  26.333  37.426  1.00  0.00     0.029 A 
ATOM     65  C   UNL A   1      43.730  26.674  37.013  1.00  0.00     0.049 A 
ATOM     66  H   UNL A   1      44.319  27.847  35.386  1.00  0.00     0.167 HD
ATOM     67  C   UNL A   1      45.852  25.553  37.465  1.00  0.00     0.074 A 
ATOM     68  C   UNL A   1      46.581  24.745  38.434  1.00  0.00     0.031 C 
ATOM     69  C   UNL A   1      45.019  26.624  37.680  1.00  0.00     0.034 A 
BRANCH  56  70
ATOM     70  C   UNL A   1      40.613  29.061  34.074  1.00  0.00     0.023 A 
ATOM     71  C   UNL A   1      40.397  30.150  34.961  1.00  0.00     0.031 A 
ATOM     72  C   UNL A   1      39.545  28.837  33.179  1.00  0.00     0.131 A 
ATOM     73  C   UNL A   1      39.199  30.900  34.971  1.00  0.00     0.055 A 
ATOM     74  C   UNL A   1      38.378  29.625  33.142  1.00  0.00     0.041 A 
ATOM     75  F   UNL A   1      39.536  27.826  32.306  1.00  0.00    -0.206 F 
ATOM     76  C   UNL A   1      38.193  30.656  34.048  1.00  0.00     0.022 A 
BRANCH  73  77
ATOM     77  S   UNL A   1      38.953  32.196  36.225  1.00  0.00     0.124 S 
ATOM     78  O   UNL A   1      37.996  33.080  35.570  1.00  0.00    -0.237 OA
ATOM     79  O   UNL A   1      38.458  31.441  37.369  1.00  0.00    -0.237 OA
ATOM     80  O   UNL A   1      40.293  32.759  36.396  1.00  0.00    -0.744 OA
ENDBRANCH  73  77
ENDBRANCH  56  70
BRANCH  57  81
ATOM     81  C   UNL A   1      47.407  21.674  34.789  1.00  0.00     0.023 A 
ATOM     82  C   UNL A   1      48.461  22.462  34.241  1.00  0.00     0.031 A 
ATOM     83  C   UNL A   1      47.717  20.363  35.186  1.00  0.00     0.131 A 
ATOM     84  C   UNL A   1      49.798  22.044  34.375  1.00  0.00     0.055 A 
ATOM     85  C   UNL A   1      49.051  19.931  35.258  1.00  0.00     0.041 A 
ATOM     86  F   UNL A   1      46.776  19.577  35.733  1.00  0.00    -0.206 F 
ATOM     87  C   UNL A   1      50.098  20.793  34.918  1.00  0.00     0.022 A 
BRANCH  84  88
ATOM     88  S   UNL A   1      51.144  23.249  34.094  1.00  0.00     0.124 S 
ATOM     89  O   UNL A   1      51.618  23.493  35.452  1.00  0.00    -0.237 OA
ATOM     90  O   UNL A   1      52.057  22.529  33.207  1.00  0.00    -0.237 OA
ATOM     91  O   UNL A   1      50.464  24.375  33.456  1.00  0.00    -0.744 OA
ENDBRANCH  84  88
ENDBRANCH  57  81
BRANCH  69  92
ATOM     92  C   UNL A   1      45.344  27.797  38.587  1.00  0.00     0.023 A 
ATOM     93  C   UNL A   1      45.568  29.083  38.101  1.00  0.00     0.031 A 
ATOM     94  C   UNL A   1      45.281  27.683  40.008  1.00  0.00     0.131 A 
ATOM     95  C   UNL A   1      45.741  30.166  38.976  1.00  0.00     0.055 A 
ATOM     96  C   UNL A   1      45.403  28.769  40.874  1.00  0.00     0.041 A 
ATOM     97  F   UNL A   1      45.050  26.522  40.634  1.00  0.00    -0.206 F 
ATOM     98  C   UNL A   1      45.637  30.028  40.358  1.00  0.00     0.022 A 
BRANCH  95  99
ATOM     99  S   UNL A   1      46.120  31.767  38.237  1.00  0.00     0.124 S 
ATOM    100  O   UNL A   1      45.395  32.678  39.118  1.00  0.00    -0.237 OA
ATOM    101  O   UNL A   1      47.576  31.817  38.336  1.00  0.00    -0.237 OA
ATOM    102  O   UNL A   1      45.592  31.653  36.880  1.00  0.00    -0.744 OA
ENDBRANCH  95  99
ENDBRANCH  69  92
ENDBRANCH  43  44
ENDBRANCH  36  38
ENDBRANCH  35  36
ENDBRANCH  34  35
ENDBRANCH  33  34
ENDBRANCH  32  33
ENDBRANCH  31  32
ENDBRANCH  30  31
ENDBRANCH   1  30
TORSDOF 26
ENDMDL
