MODEL 1
REMARK VINA RESULT:     -10.6      0.000      0.000
REMARK SMILES C[C@]12CCC[C@](C)(C(=O)OCCOCCOCCOCCOC(=O)c3ccc(-c4c5nc(c(-c6cc(S(=O)(=O)[O-])ccc6F)c6ccc([nH]6)c(-c6cc(S(=O)(=O)[O-])ccc6F)c6nc(c(-c7cc(S(=O)(=O)[O-])ccc7F)c7ccc4[nH]7)C=C6)C=C5)cc3)[C@@H]1CC[C@]13C=C(CO)[C@H](CC[C@H]12)C3
REMARK SMILES IDX 17 1 16 2 15 3 14 4 13 5 12 6 11 7 10 8 8 9 9 10 6 11 1 12
REMARK SMILES IDX 2 13 3 14 88 15 99 16 4 17 89 18 91 19 98 20 5 21 7 22 90 23
REMARK SMILES IDX 92 24 100 25 97 26 93 27 96 28 94 29 95 30 18 32 19 33 20 34
REMARK SMILES IDX 21 35 22 36 23 37 24 38 25 39 26 40 87 41 27 42 86 43 28 44
REMARK SMILES IDX 29 45 30 46 80 47 31 48 85 49 79 50 81 51 32 52 84 53 78 54
REMARK SMILES IDX 77 55 33 57 65 58 45 59 64 60 46 61 49 62 63 63 82 64 47 65
REMARK SMILES IDX 48 66 62 68 83 69 50 70 34 71 35 72 43 73 36 74 42 75 44 76
REMARK SMILES IDX 41 77 37 78 38 79 39 80 40 81 66 82 67 83 75 84 68 85 74 86
REMARK SMILES IDX 76 87 73 88 69 89 70 90 71 91 72 92 51 93 52 94 60 95 53 96
REMARK SMILES IDX 59 97 61 98 58 99 54 100 55 101 56 102 57 103
REMARK H PARENT 95 31 81 56 49 67
REMARK Flexibility Score: inf
ROOT
ATOM      1  C   UNL A   1      35.733  33.710  30.109  1.00  0.00     0.188 C 
ENDROOT
BRANCH   1   2
ATOM      2  O   UNL A   1      35.927  33.489  28.725  1.00  0.00    -0.377 OA
BRANCH   2   3
ATOM      3  C   UNL A   1      34.971  32.892  27.870  1.00  0.00     0.188 C 
BRANCH   3   4
ATOM      4  C   UNL A   1      34.309  31.528  28.102  1.00  0.00     0.188 C 
BRANCH   4   5
ATOM      5  O   UNL A   1      35.078  30.435  27.685  1.00  0.00    -0.376 OA
BRANCH   5   6
ATOM      6  C   UNL A   1      34.451  29.227  27.310  1.00  0.00     0.202 C 
BRANCH   6   7
ATOM      7  C   UNL A   1      34.130  28.883  25.848  1.00  0.00     0.261 C 
BRANCH   7   8
ATOM      8  O   UNL A   1      33.214  27.802  25.582  1.00  0.00    -0.463 OA
BRANCH   8   9
ATOM      9  C   UNL A   1      31.968  28.149  25.147  1.00  0.00     0.312 C 
ATOM     10  O   UNL A   1      31.291  28.990  25.735  1.00  0.00    -0.252 OA
BRANCH   9  11
ATOM     11  C   UNL A   1      31.443  27.360  23.881  1.00  0.00     0.069 C 
ATOM     12  C   UNL A   1      33.786  25.544  24.276  1.00  0.00     0.012 C 
ATOM     13  C   UNL A   1      32.463  24.977  23.682  1.00  0.00    -0.025 C 
ATOM     14  C   UNL A   1      32.598  25.135  22.157  1.00  0.00     0.007 C 
ATOM     15  C   UNL A   1      31.221  25.803  24.115  1.00  0.00     0.012 C 
ATOM     16  C   UNL A   1      32.445  23.498  24.143  1.00  0.00     0.005 C 
ATOM     17  C   UNL A   1      32.991  26.563  21.793  1.00  0.00     0.002 C 
ATOM     18  C   UNL A   1      30.614  25.432  25.494  1.00  0.00     0.006 C 
ATOM     19  C   UNL A   1      31.871  23.206  25.593  1.00  0.00    -0.008 C 
ATOM     20  C   UNL A   1      32.288  22.252  23.281  1.00  0.00     0.006 C 
ATOM     21  C   UNL A   1      32.268  27.684  22.571  1.00  0.00     0.019 C 
ATOM     22  C   UNL A   1      30.059  28.033  23.618  1.00  0.00     0.024 C 
ATOM     23  C   UNL A   1      30.576  23.943  25.858  1.00  0.00     0.012 C 
ATOM     24  C   UNL A   1      33.021  23.458  26.513  1.00  0.00    -0.018 C 
ATOM     25  C   UNL A   1      31.797  21.683  25.895  1.00  0.00     0.019 C 
ATOM     26  C   UNL A   1      33.245  21.196  23.964  1.00  0.00     0.008 C 
ATOM     27  C   UNL A   1      33.914  22.478  26.267  1.00  0.00    -0.045 C 
ATOM     28  C   UNL A   1      33.239  21.291  25.537  1.00  0.00     0.018 C 
BRANCH  27  29
ATOM     29  C   UNL A   1      35.357  22.643  26.539  1.00  0.00     0.187 C 
BRANCH  29  30
ATOM     30  O   UNL A   1      36.090  21.842  25.618  1.00  0.00    -0.392 OA
ATOM     31  H   UNL A   1      37.029  22.085  25.654  1.00  0.00     0.211 HD
ENDBRANCH  29  30
ENDBRANCH  27  29
ENDBRANCH   9  11
ENDBRANCH   8   9
ENDBRANCH   7   8
ENDBRANCH   6   7
ENDBRANCH   5   6
ENDBRANCH   4   5
ENDBRANCH   3   4
ENDBRANCH   2   3
ENDBRANCH   1   2
BRANCH   1  32
ATOM     32  C   UNL A   1      34.386  34.314  30.526  1.00  0.00     0.188 C 
BRANCH  32  33
ATOM     33  O   UNL A   1      33.794  33.917  31.760  1.00  0.00    -0.376 OA
BRANCH  33  34
ATOM     34  C   UNL A   1      34.284  34.466  32.969  1.00  0.00     0.202 C 
BRANCH  34  35
ATOM     35  C   UNL A   1      35.008  33.542  33.952  1.00  0.00     0.261 C 
BRANCH  35  36
ATOM     36  O   UNL A   1      35.916  32.589  33.388  1.00  0.00    -0.460 OA
BRANCH  36  37
ATOM     37  C   UNL A   1      37.011  32.345  34.151  1.00  0.00     0.338 C 
ATOM     38  O   UNL A   1      37.073  32.361  35.371  1.00  0.00    -0.246 OA
BRANCH  37  39
ATOM     39  C   UNL A   1      38.157  31.999  33.285  1.00  0.00     0.060 A 
ATOM     40  C   UNL A   1      38.109  32.350  31.930  1.00  0.00     0.016 A 
ATOM     41  C   UNL A   1      39.242  31.270  33.785  1.00  0.00     0.016 A 
ATOM     42  C   UNL A   1      39.150  31.980  31.071  1.00  0.00     0.010 A 
ATOM     43  C   UNL A   1      40.273  30.882  32.919  1.00  0.00     0.010 A 
ATOM     44  C   UNL A   1      40.230  31.225  31.552  1.00  0.00    -0.014 A 
BRANCH  44  45
ATOM     45  C   UNL A   1      41.188  30.601  30.601  1.00  0.00     0.031 A 
ATOM     46  C   UNL A   1      42.412  31.403  30.252  1.00  0.00     0.074 A 
ATOM     47  C   UNL A   1      41.010  29.378  30.060  1.00  0.00     0.049 A 
ATOM     48  N   UNL A   1      43.411  31.100  29.468  1.00  0.00    -0.248 NA
ATOM     49  C   UNL A   1      42.521  32.727  30.890  1.00  0.00     0.031 C 
ATOM     50  C   UNL A   1      39.918  28.460  30.364  1.00  0.00     0.029 A 
ATOM     51  N   UNL A   1      41.749  28.695  29.123  1.00  0.00    -0.354 N 
ATOM     52  C   UNL A   1      44.285  32.178  29.546  1.00  0.00     0.074 A 
ATOM     53  C   UNL A   1      43.661  33.173  30.390  1.00  0.00     0.031 C 
ATOM     54  C   UNL A   1      40.013  27.369  29.584  1.00  0.00     0.029 A 
ATOM     55  C   UNL A   1      41.201  27.488  28.748  1.00  0.00     0.049 A 
ATOM     56  H   UNL A   1      42.595  29.037  28.754  1.00  0.00     0.167 HD
ATOM     57  C   UNL A   1      45.511  32.315  28.990  1.00  0.00     0.034 A 
ATOM     58  C   UNL A   1      41.614  26.571  27.848  1.00  0.00     0.034 A 
ATOM     59  C   UNL A   1      46.100  31.339  28.111  1.00  0.00     0.049 A 
ATOM     60  C   UNL A   1      42.927  26.801  27.138  1.00  0.00     0.074 A 
ATOM     61  C   UNL A   1      47.327  31.382  27.476  1.00  0.00     0.029 A 
ATOM     62  N   UNL A   1      45.490  30.152  27.722  1.00  0.00    -0.354 N 
ATOM     63  N   UNL A   1      43.767  27.804  27.260  1.00  0.00    -0.248 NA
ATOM     64  C   UNL A   1      43.365  25.763  26.195  1.00  0.00     0.031 C 
ATOM     65  C   UNL A   1      47.425  30.262  26.642  1.00  0.00     0.029 A 
ATOM     66  C   UNL A   1      46.299  29.475  26.825  1.00  0.00     0.049 A 
ATOM     67  H   UNL A   1      44.612  29.839  28.039  1.00  0.00     0.167 HD
ATOM     68  C   UNL A   1      44.852  27.491  26.448  1.00  0.00     0.074 A 
ATOM     69  C   UNL A   1      44.563  26.206  25.845  1.00  0.00     0.031 C 
ATOM     70  C   UNL A   1      45.992  28.195  26.229  1.00  0.00     0.034 A 
BRANCH  57  71
ATOM     71  C   UNL A   1      46.249  33.595  29.288  1.00  0.00     0.023 A 
ATOM     72  C   UNL A   1      46.107  34.730  28.468  1.00  0.00     0.031 A 
ATOM     73  C   UNL A   1      47.163  33.658  30.352  1.00  0.00     0.131 A 
ATOM     74  C   UNL A   1      46.931  35.845  28.672  1.00  0.00     0.055 A 
ATOM     75  C   UNL A   1      47.917  34.805  30.603  1.00  0.00     0.041 A 
ATOM     76  F   UNL A   1      47.361  32.595  31.146  1.00  0.00    -0.206 F 
ATOM     77  C   UNL A   1      47.818  35.901  29.750  1.00  0.00     0.022 A 
BRANCH  74  78
ATOM     78  S   UNL A   1      46.951  37.149  27.411  1.00  0.00     0.124 S 
ATOM     79  O   UNL A   1      45.554  37.166  26.983  1.00  0.00    -0.237 OA
ATOM     80  O   UNL A   1      47.402  38.313  28.166  1.00  0.00    -0.237 OA
ATOM     81  O   UNL A   1      47.894  36.647  26.415  1.00  0.00    -0.744 OA
ENDBRANCH  74  78
ENDBRANCH  57  71
BRANCH  58  82
ATOM     82  C   UNL A   1      40.798  25.352  27.556  1.00  0.00     0.023 A 
ATOM     83  C   UNL A   1      41.371  24.069  27.558  1.00  0.00     0.031 A 
ATOM     84  C   UNL A   1      39.445  25.464  27.188  1.00  0.00     0.131 A 
ATOM     85  C   UNL A   1      40.615  22.960  27.140  1.00  0.00     0.055 A 
ATOM     86  C   UNL A   1      38.682  24.352  26.824  1.00  0.00     0.041 A 
ATOM     87  F   UNL A   1      38.842  26.664  27.169  1.00  0.00    -0.206 F 
ATOM     88  C   UNL A   1      39.272  23.092  26.782  1.00  0.00     0.022 A 
BRANCH  85  89
ATOM     89  S   UNL A   1      41.442  21.353  26.969  1.00  0.00     0.124 S 
ATOM     90  O   UNL A   1      40.310  20.434  26.987  1.00  0.00    -0.237 OA
ATOM     91  O   UNL A   1      42.129  21.501  25.690  1.00  0.00    -0.237 OA
ATOM     92  O   UNL A   1      42.315  21.293  28.139  1.00  0.00    -0.744 OA
ENDBRANCH  85  89
ENDBRANCH  58  82
BRANCH  70  93
ATOM     93  C   UNL A   1      47.035  27.564  25.338  1.00  0.00     0.023 A 
ATOM     94  C   UNL A   1      47.233  27.983  24.012  1.00  0.00     0.031 A 
ATOM     95  C   UNL A   1      47.853  26.534  25.837  1.00  0.00     0.131 A 
ATOM     96  C   UNL A   1      48.190  27.340  23.213  1.00  0.00     0.055 A 
ATOM     97  C   UNL A   1      48.847  25.943  25.057  1.00  0.00     0.041 A 
ATOM     98  F   UNL A   1      47.707  26.092  27.096  1.00  0.00    -0.206 F 
ATOM     99  C   UNL A   1      49.013  26.337  23.733  1.00  0.00     0.022 A 
BRANCH  96 100
ATOM    100  S   UNL A   1      48.289  27.773  21.455  1.00  0.00     0.124 S 
ATOM    101  O   UNL A   1      46.924  28.203  21.170  1.00  0.00    -0.237 OA
ATOM    102  O   UNL A   1      49.302  28.824  21.449  1.00  0.00    -0.237 OA
ATOM    103  O   UNL A   1      48.692  26.522  20.815  1.00  0.00    -0.744 OA
ENDBRANCH  96 100
ENDBRANCH  70  93
ENDBRANCH  44  45
ENDBRANCH  37  39
ENDBRANCH  36  37
ENDBRANCH  35  36
ENDBRANCH  34  35
ENDBRANCH  33  34
ENDBRANCH  32  33
ENDBRANCH   1  32
TORSDOF 25
ENDMDL
MODEL 2
REMARK VINA RESULT:     -10.4      3.204     10.714
REMARK SMILES C[C@]12CCC[C@](C)(C(=O)OCCOCCOCCOCCOC(=O)c3ccc(-c4c5nc(c(-c6cc(S(=O)(=O)[O-])ccc6F)c6ccc([nH]6)c(-c6cc(S(=O)(=O)[O-])ccc6F)c6nc(c(-c7cc(S(=O)(=O)[O-])ccc7F)c7ccc4[nH]7)C=C6)C=C5)cc3)[C@@H]1CC[C@]13C=C(CO)[C@H](CC[C@H]12)C3
REMARK SMILES IDX 17 1 16 2 15 3 14 4 13 5 12 6 11 7 10 8 8 9 9 10 6 11 1 12
REMARK SMILES IDX 2 13 3 14 88 15 99 16 4 17 89 18 91 19 98 20 5 21 7 22 90 23
REMARK SMILES IDX 92 24 100 25 97 26 93 27 96 28 94 29 95 30 18 32 19 33 20 34
REMARK SMILES IDX 21 35 22 36 23 37 24 38 25 39 26 40 87 41 27 42 86 43 28 44
REMARK SMILES IDX 29 45 30 46 80 47 31 48 85 49 79 50 81 51 32 52 84 53 78 54
REMARK SMILES IDX 77 55 33 57 65 58 45 59 64 60 46 61 49 62 63 63 82 64 47 65
REMARK SMILES IDX 48 66 62 68 83 69 50 70 34 71 35 72 43 73 36 74 42 75 44 76
REMARK SMILES IDX 41 77 37 78 38 79 39 80 40 81 66 82 67 83 75 84 68 85 74 86
REMARK SMILES IDX 76 87 73 88 69 89 70 90 71 91 72 92 51 93 52 94 60 95 53 96
REMARK SMILES IDX 59 97 61 98 58 99 54 100 55 101 56 102 57 103
REMARK H PARENT 95 31 81 56 49 67
REMARK Flexibility Score: inf
ROOT
ATOM      1  C   UNL A   1      41.837  19.464  27.466  1.00  0.00     0.188 C 
ENDROOT
BRANCH   1   2
ATOM      2  O   UNL A   1      40.896  20.460  27.822  1.00  0.00    -0.377 OA
BRANCH   2   3
ATOM      3  C   UNL A   1      40.749  21.696  27.149  1.00  0.00     0.188 C 
BRANCH   3   4
ATOM      4  C   UNL A   1      40.418  23.033  27.822  1.00  0.00     0.188 C 
BRANCH   4   5
ATOM      5  O   UNL A   1      39.948  24.019  26.945  1.00  0.00    -0.376 OA
BRANCH   5   6
ATOM      6  C   UNL A   1      38.569  24.114  26.658  1.00  0.00     0.202 C 
BRANCH   6   7
ATOM      7  C   UNL A   1      37.827  23.067  25.814  1.00  0.00     0.261 C 
BRANCH   7   8
ATOM      8  O   UNL A   1      36.394  22.973  25.939  1.00  0.00    -0.463 OA
BRANCH   8   9
ATOM      9  C   UNL A   1      35.732  22.336  24.930  1.00  0.00     0.312 C 
ATOM     10  O   UNL A   1      36.293  22.042  23.877  1.00  0.00    -0.252 OA
BRANCH   9  11
ATOM     11  C   UNL A   1      34.198  22.057  25.191  1.00  0.00     0.069 C 
ATOM     12  C   UNL A   1      33.926  25.006  25.608  1.00  0.00     0.012 C 
ATOM     13  C   UNL A   1      32.736  24.200  25.008  1.00  0.00    -0.025 C 
ATOM     14  C   UNL A   1      31.891  23.757  26.216  1.00  0.00     0.007 C 
ATOM     15  C   UNL A   1      33.205  22.908  24.285  1.00  0.00     0.012 C 
ATOM     16  C   UNL A   1      32.010  25.220  24.097  1.00  0.00     0.005 C 
ATOM     17  C   UNL A   1      32.762  23.073  27.265  1.00  0.00     0.002 C 
ATOM     18  C   UNL A   1      33.661  23.089  22.814  1.00  0.00     0.006 C 
ATOM     19  C   UNL A   1      32.577  25.398  22.625  1.00  0.00    -0.008 C 
ATOM     20  C   UNL A   1      30.537  25.608  24.117  1.00  0.00     0.006 C 
ATOM     21  C   UNL A   1      33.821  22.086  26.727  1.00  0.00     0.019 C 
ATOM     22  C   UNL A   1      34.062  20.549  24.809  1.00  0.00     0.024 C 
ATOM     23  C   UNL A   1      32.859  24.072  21.953  1.00  0.00     0.012 C 
ATOM     24  C   UNL A   1      33.708  26.364  22.770  1.00  0.00    -0.018 C 
ATOM     25  C   UNL A   1      31.699  26.357  21.774  1.00  0.00     0.019 C 
ATOM     26  C   UNL A   1      30.550  27.156  23.799  1.00  0.00     0.008 C 
ATOM     27  C   UNL A   1      33.147  27.546  23.093  1.00  0.00    -0.045 C 
ATOM     28  C   UNL A   1      31.640  27.555  22.734  1.00  0.00     0.018 C 
BRANCH  27  29
ATOM     29  C   UNL A   1      33.885  28.591  23.833  1.00  0.00     0.187 C 
BRANCH  29  30
ATOM     30  O   UNL A   1      32.960  29.578  24.275  1.00  0.00    -0.392 OA
ATOM     31  H   UNL A   1      32.959  29.608  25.246  1.00  0.00     0.211 HD
ENDBRANCH  29  30
ENDBRANCH  27  29
ENDBRANCH   9  11
ENDBRANCH   8   9
ENDBRANCH   7   8
ENDBRANCH   6   7
ENDBRANCH   5   6
ENDBRANCH   4   5
ENDBRANCH   3   4
ENDBRANCH   2   3
ENDBRANCH   1   2
BRANCH   1  32
ATOM     32  C   UNL A   1      42.249  19.404  25.990  1.00  0.00     0.188 C 
BRANCH  32  33
ATOM     33  O   UNL A   1      43.570  18.994  25.650  1.00  0.00    -0.376 OA
BRANCH  33  34
ATOM     34  C   UNL A   1      44.372  19.842  24.848  1.00  0.00     0.202 C 
BRANCH  34  35
ATOM     35  C   UNL A   1      44.935  21.121  25.472  1.00  0.00     0.261 C 
BRANCH  35  36
ATOM     36  O   UNL A   1      44.761  22.331  24.728  1.00  0.00    -0.460 OA
BRANCH  36  37
ATOM     37  C   UNL A   1      43.632  23.018  25.037  1.00  0.00     0.338 C 
ATOM     38  O   UNL A   1      42.480  22.644  24.879  1.00  0.00    -0.246 OA
BRANCH  37  39
ATOM     39  C   UNL A   1      43.988  24.311  25.656  1.00  0.00     0.060 A 
ATOM     40  C   UNL A   1      44.112  24.381  27.050  1.00  0.00     0.016 A 
ATOM     41  C   UNL A   1      44.128  25.466  24.878  1.00  0.00     0.016 A 
ATOM     42  C   UNL A   1      44.385  25.606  27.670  1.00  0.00     0.010 A 
ATOM     43  C   UNL A   1      44.380  26.695  25.502  1.00  0.00     0.010 A 
ATOM     44  C   UNL A   1      44.500  26.777  26.905  1.00  0.00    -0.014 A 
BRANCH  44  45
ATOM     45  C   UNL A   1      44.515  28.106  27.572  1.00  0.00     0.031 A 
ATOM     46  C   UNL A   1      43.197  28.624  28.076  1.00  0.00     0.074 A 
ATOM     47  C   UNL A   1      45.634  28.840  27.741  1.00  0.00     0.049 A 
ATOM     48  N   UNL A   1      42.922  29.736  28.704  1.00  0.00    -0.248 NA
ATOM     49  C   UNL A   1      42.030  27.754  27.847  1.00  0.00     0.031 C 
ATOM     50  C   UNL A   1      46.987  28.435  27.375  1.00  0.00     0.029 A 
ATOM     51  N   UNL A   1      45.810  30.101  28.262  1.00  0.00    -0.354 N 
ATOM     52  C   UNL A   1      41.561  29.683  28.977  1.00  0.00     0.074 A 
ATOM     53  C   UNL A   1      41.053  28.469  28.378  1.00  0.00     0.031 C 
ATOM     54  C   UNL A   1      47.842  29.444  27.613  1.00  0.00     0.029 A 
ATOM     55  C   UNL A   1      47.107  30.562  28.190  1.00  0.00     0.049 A 
ATOM     56  H   UNL A   1      45.075  30.628  28.651  1.00  0.00     0.167 HD
ATOM     57  C   UNL A   1      40.806  30.553  29.689  1.00  0.00     0.034 A 
ATOM     58  C   UNL A   1      47.648  31.741  28.562  1.00  0.00     0.034 A 
ATOM     59  C   UNL A   1      41.314  31.783  30.237  1.00  0.00     0.049 A 
ATOM     60  C   UNL A   1      46.761  32.756  29.242  1.00  0.00     0.074 A 
ATOM     61  C   UNL A   1      40.636  32.748  30.958  1.00  0.00     0.029 A 
ATOM     62  N   UNL A   1      42.623  32.231  30.101  1.00  0.00    -0.354 N 
ATOM     63  N   UNL A   1      45.483  32.670  29.537  1.00  0.00    -0.248 NA
ATOM     64  C   UNL A   1      47.393  34.011  29.670  1.00  0.00     0.031 C 
ATOM     65  C   UNL A   1      41.513  33.814  31.189  1.00  0.00     0.029 A 
ATOM     66  C   UNL A   1      42.761  33.476  30.691  1.00  0.00     0.049 A 
ATOM     67  H   UNL A   1      43.345  31.735  29.652  1.00  0.00     0.167 HD
ATOM     68  C   UNL A   1      45.175  33.838  30.227  1.00  0.00     0.074 A 
ATOM     69  C   UNL A   1      46.398  34.609  30.309  1.00  0.00     0.031 C 
ATOM     70  C   UNL A   1      43.990  34.234  30.758  1.00  0.00     0.034 A 
BRANCH  57  71
ATOM     71  C   UNL A   1      39.349  30.206  29.851  1.00  0.00     0.023 A 
ATOM     72  C   UNL A   1      38.356  30.830  29.073  1.00  0.00     0.031 A 
ATOM     73  C   UNL A   1      38.938  29.304  30.846  1.00  0.00     0.131 A 
ATOM     74  C   UNL A   1      37.003  30.611  29.362  1.00  0.00     0.055 A 
ATOM     75  C   UNL A   1      37.590  29.025  31.071  1.00  0.00     0.041 A 
ATOM     76  F   UNL A   1      39.841  28.704  31.638  1.00  0.00    -0.206 F 
ATOM     77  C   UNL A   1      36.612  29.693  30.340  1.00  0.00     0.022 A 
BRANCH  74  78
ATOM     78  S   UNL A   1      35.764  31.670  28.564  1.00  0.00     0.124 S 
ATOM     79  O   UNL A   1      34.817  31.890  29.654  1.00  0.00    -0.237 OA
ATOM     80  O   UNL A   1      36.553  32.828  28.158  1.00  0.00    -0.237 OA
ATOM     81  O   UNL A   1      35.261  30.842  27.469  1.00  0.00    -0.744 OA
ENDBRANCH  74  78
ENDBRANCH  57  71
BRANCH  58  82
ATOM     82  C   UNL A   1      49.091  32.042  28.312  1.00  0.00     0.023 A 
ATOM     83  C   UNL A   1      49.521  32.624  27.108  1.00  0.00     0.031 A 
ATOM     84  C   UNL A   1      50.075  31.671  29.248  1.00  0.00     0.131 A 
ATOM     85  C   UNL A   1      50.895  32.762  26.843  1.00  0.00     0.055 A 
ATOM     86  C   UNL A   1      51.438  31.859  29.002  1.00  0.00     0.041 A 
ATOM     87  F   UNL A   1      49.725  31.111  30.417  1.00  0.00    -0.206 F 
ATOM     88  C   UNL A   1      51.855  32.392  27.787  1.00  0.00     0.022 A 
BRANCH  85  89
ATOM     89  S   UNL A   1      51.415  33.336  25.201  1.00  0.00     0.124 S 
ATOM     90  O   UNL A   1      50.326  34.238  24.845  1.00  0.00    -0.237 OA
ATOM     91  O   UNL A   1      52.700  33.962  25.493  1.00  0.00    -0.237 OA
ATOM     92  O   UNL A   1      51.487  32.105  24.417  1.00  0.00    -0.744 OA
ENDBRANCH  85  89
ENDBRANCH  58  82
BRANCH  70  93
ATOM     93  C   UNL A   1      43.973  35.537  31.521  1.00  0.00     0.023 A 
ATOM     94  C   UNL A   1      44.111  35.583  32.918  1.00  0.00     0.031 A 
ATOM     95  C   UNL A   1      43.827  36.753  30.829  1.00  0.00     0.131 A 
ATOM     96  C   UNL A   1      44.052  36.816  33.585  1.00  0.00     0.055 A 
ATOM     97  C   UNL A   1      43.833  37.980  31.492  1.00  0.00     0.041 A 
ATOM     98  F   UNL A   1      43.687  36.769  29.494  1.00  0.00    -0.206 F 
ATOM     99  C   UNL A   1      43.935  38.016  32.879  1.00  0.00     0.022 A 
BRANCH  96 100
ATOM    100  S   UNL A   1      44.044  36.825  35.398  1.00  0.00     0.124 S 
ATOM    101  O   UNL A   1      45.335  36.223  35.712  1.00  0.00    -0.237 OA
ATOM    102  O   UNL A   1      43.912  38.247  35.702  1.00  0.00    -0.237 OA
ATOM    103  O   UNL A   1      42.879  36.009  35.740  1.00  0.00    -0.744 OA
ENDBRANCH  96 100
ENDBRANCH  70  93
ENDBRANCH  44  45
ENDBRANCH  37  39
ENDBRANCH  36  37
ENDBRANCH  35  36
ENDBRANCH  34  35
ENDBRANCH  33  34
ENDBRANCH  32  33
ENDBRANCH   1  32
TORSDOF 25
ENDMDL
MODEL 3
REMARK VINA RESULT:     -10.1      5.026      9.466
REMARK SMILES C[C@]12CCC[C@](C)(C(=O)OCCOCCOCCOCCOC(=O)c3ccc(-c4c5nc(c(-c6cc(S(=O)(=O)[O-])ccc6F)c6ccc([nH]6)c(-c6cc(S(=O)(=O)[O-])ccc6F)c6nc(c(-c7cc(S(=O)(=O)[O-])ccc7F)c7ccc4[nH]7)C=C6)C=C5)cc3)[C@@H]1CC[C@]13C=C(CO)[C@H](CC[C@H]12)C3
REMARK SMILES IDX 17 1 16 2 15 3 14 4 13 5 12 6 11 7 10 8 8 9 9 10 6 11 1 12
REMARK SMILES IDX 2 13 3 14 88 15 99 16 4 17 89 18 91 19 98 20 5 21 7 22 90 23
REMARK SMILES IDX 92 24 100 25 97 26 93 27 96 28 94 29 95 30 18 32 19 33 20 34
REMARK SMILES IDX 21 35 22 36 23 37 24 38 25 39 26 40 87 41 27 42 86 43 28 44
REMARK SMILES IDX 29 45 30 46 80 47 31 48 85 49 79 50 81 51 32 52 84 53 78 54
REMARK SMILES IDX 77 55 33 57 65 58 45 59 64 60 46 61 49 62 63 63 82 64 47 65
REMARK SMILES IDX 48 66 62 68 83 69 50 70 34 71 35 72 43 73 36 74 42 75 44 76
REMARK SMILES IDX 41 77 37 78 38 79 39 80 40 81 66 82 67 83 75 84 68 85 74 86
REMARK SMILES IDX 76 87 73 88 69 89 70 90 71 91 72 92 51 93 52 94 60 95 53 96
REMARK SMILES IDX 59 97 61 98 58 99 54 100 55 101 56 102 57 103
REMARK H PARENT 95 31 81 56 49 67
REMARK Flexibility Score: inf
ROOT
ATOM      1  C   UNL A   1      34.315  29.365  26.704  1.00  0.00     0.188 C 
ENDROOT
BRANCH   1   2
ATOM      2  O   UNL A   1      33.534  29.532  25.536  1.00  0.00    -0.377 OA
BRANCH   2   3
ATOM      3  C   UNL A   1      32.967  28.469  24.795  1.00  0.00     0.188 C 
BRANCH   3   4
ATOM      4  C   UNL A   1      31.772  27.619  25.244  1.00  0.00     0.188 C 
BRANCH   4   5
ATOM      5  O   UNL A   1      30.936  27.202  24.201  1.00  0.00    -0.376 OA
BRANCH   5   6
ATOM      6  C   UNL A   1      30.013  26.153  24.406  1.00  0.00     0.202 C 
BRANCH   6   7
ATOM      7  C   UNL A   1      30.366  24.887  25.199  1.00  0.00     0.261 C 
BRANCH   7   8
ATOM      8  O   UNL A   1      30.746  23.702  24.470  1.00  0.00    -0.463 OA
BRANCH   8   9
ATOM      9  C   UNL A   1      31.507  22.789  25.139  1.00  0.00     0.312 C 
ATOM     10  O   UNL A   1      31.044  22.112  26.056  1.00  0.00    -0.252 OA
BRANCH   9  11
ATOM     11  C   UNL A   1      33.022  22.705  24.693  1.00  0.00     0.069 C 
ATOM     12  C   UNL A   1      33.166  20.199  26.320  1.00  0.00     0.012 C 
ATOM     13  C   UNL A   1      34.049  20.342  25.046  1.00  0.00    -0.025 C 
ATOM     14  C   UNL A   1      35.372  20.962  25.530  1.00  0.00     0.007 C 
ATOM     15  C   UNL A   1      33.438  21.329  24.013  1.00  0.00     0.012 C 
ATOM     16  C   UNL A   1      34.209  18.889  24.531  1.00  0.00     0.005 C 
ATOM     17  C   UNL A   1      35.111  22.213  26.363  1.00  0.00     0.002 C 
ATOM     18  C   UNL A   1      32.374  20.728  23.057  1.00  0.00     0.006 C 
ATOM     19  C   UNL A   1      33.046  18.323  23.612  1.00  0.00    -0.008 C 
ATOM     20  C   UNL A   1      35.500  18.144  24.223  1.00  0.00     0.006 C 
ATOM     21  C   UNL A   1      34.022  23.169  25.828  1.00  0.00     0.019 C 
ATOM     22  C   UNL A   1      33.121  23.843  23.630  1.00  0.00     0.024 C 
ATOM     23  C   UNL A   1      32.628  19.306  22.541  1.00  0.00     0.012 C 
ATOM     24  C   UNL A   1      32.003  17.847  24.572  1.00  0.00    -0.018 C 
ATOM     25  C   UNL A   1      33.372  16.905  23.067  1.00  0.00     0.019 C 
ATOM     26  C   UNL A   1      35.204  16.665  24.694  1.00  0.00     0.008 C 
ATOM     27  C   UNL A   1      32.534  16.776  25.196  1.00  0.00    -0.045 C 
ATOM     28  C   UNL A   1      33.728  16.208  24.389  1.00  0.00     0.018 C 
BRANCH  27  29
ATOM     29  C   UNL A   1      32.094  16.351  26.541  1.00  0.00     0.187 C 
BRANCH  29  30
ATOM     30  O   UNL A   1      32.156  14.931  26.614  1.00  0.00    -0.392 OA
ATOM     31  H   UNL A   1      32.827  14.670  27.265  1.00  0.00     0.211 HD
ENDBRANCH  29  30
ENDBRANCH  27  29
ENDBRANCH   9  11
ENDBRANCH   8   9
ENDBRANCH   7   8
ENDBRANCH   6   7
ENDBRANCH   5   6
ENDBRANCH   4   5
ENDBRANCH   3   4
ENDBRANCH   2   3
ENDBRANCH   1   2
BRANCH   1  32
ATOM     32  C   UNL A   1      34.600  30.628  27.526  1.00  0.00     0.188 C 
BRANCH  32  33
ATOM     33  O   UNL A   1      33.513  31.359  28.085  1.00  0.00    -0.376 OA
BRANCH  33  34
ATOM     34  C   UNL A   1      32.638  32.064  27.223  1.00  0.00     0.202 C 
BRANCH  34  35
ATOM     35  C   UNL A   1      32.658  33.595  27.255  1.00  0.00     0.261 C 
BRANCH  35  36
ATOM     36  O   UNL A   1      32.438  34.214  28.527  1.00  0.00    -0.460 OA
BRANCH  36  37
ATOM     37  C   UNL A   1      33.472  34.979  28.960  1.00  0.00     0.338 C 
ATOM     38  O   UNL A   1      33.514  36.199  29.004  1.00  0.00    -0.246 OA
BRANCH  37  39
ATOM     39  C   UNL A   1      34.572  34.112  29.430  1.00  0.00     0.060 A 
ATOM     40  C   UNL A   1      34.319  33.201  30.464  1.00  0.00     0.016 A 
ATOM     41  C   UNL A   1      35.864  34.243  28.909  1.00  0.00     0.016 A 
ATOM     42  C   UNL A   1      35.356  32.412  30.975  1.00  0.00     0.010 A 
ATOM     43  C   UNL A   1      36.906  33.468  29.436  1.00  0.00     0.010 A 
ATOM     44  C   UNL A   1      36.661  32.553  30.481  1.00  0.00    -0.014 A 
BRANCH  44  45
ATOM     45  C   UNL A   1      37.803  31.925  31.198  1.00  0.00     0.031 A 
ATOM     46  C   UNL A   1      38.540  30.834  30.471  1.00  0.00     0.074 A 
ATOM     47  C   UNL A   1      38.194  32.289  32.437  1.00  0.00     0.049 A 
ATOM     48  N   UNL A   1      39.574  30.131  30.849  1.00  0.00    -0.248 NA
ATOM     49  C   UNL A   1      38.041  30.504  29.125  1.00  0.00     0.031 C 
ATOM     50  C   UNL A   1      37.627  33.376  33.228  1.00  0.00     0.029 A 
ATOM     51  N   UNL A   1      39.167  31.771  33.260  1.00  0.00    -0.354 N 
ATOM     52  C   UNL A   1      39.872  29.303  29.774  1.00  0.00     0.074 A 
ATOM     53  C   UNL A   1      38.864  29.534  28.764  1.00  0.00     0.031 C 
ATOM     54  C   UNL A   1      38.205  33.402  34.441  1.00  0.00     0.029 A 
ATOM     55  C   UNL A   1      39.219  32.358  34.505  1.00  0.00     0.049 A 
ATOM     56  H   UNL A   1      39.772  31.045  32.983  1.00  0.00     0.167 HD
ATOM     57  C   UNL A   1      40.911  28.446  29.629  1.00  0.00     0.034 A 
ATOM     58  C   UNL A   1      40.004  32.099  35.572  1.00  0.00     0.034 A 
ATOM     59  C   UNL A   1      41.879  28.187  30.662  1.00  0.00     0.049 A 
ATOM     60  C   UNL A   1      41.079  31.048  35.436  1.00  0.00     0.074 A 
ATOM     61  C   UNL A   1      42.960  27.327  30.632  1.00  0.00     0.029 A 
ATOM     62  N   UNL A   1      41.867  28.770  31.924  1.00  0.00    -0.354 N 
ATOM     63  N   UNL A   1      41.380  30.305  34.394  1.00  0.00    -0.248 NA
ATOM     64  C   UNL A   1      41.941  30.821  36.604  1.00  0.00     0.031 C 
ATOM     65  C   UNL A   1      43.554  27.330  31.899  1.00  0.00     0.029 A 
ATOM     66  C   UNL A   1      42.899  28.258  32.692  1.00  0.00     0.049 A 
ATOM     67  H   UNL A   1      41.220  29.448  32.226  1.00  0.00     0.167 HD
ATOM     68  C   UNL A   1      42.496  29.562  34.768  1.00  0.00     0.074 A 
ATOM     69  C   UNL A   1      42.816  29.948  36.127  1.00  0.00     0.031 C 
ATOM     70  C   UNL A   1      43.201  28.651  34.050  1.00  0.00     0.034 A 
BRANCH  57  71
ATOM     71  C   UNL A   1      40.995  27.703  28.321  1.00  0.00     0.023 A 
ATOM     72  C   UNL A   1      40.644  26.343  28.226  1.00  0.00     0.031 A 
ATOM     73  C   UNL A   1      41.507  28.334  27.176  1.00  0.00     0.131 A 
ATOM     74  C   UNL A   1      40.892  25.639  27.040  1.00  0.00     0.055 A 
ATOM     75  C   UNL A   1      41.670  27.648  25.972  1.00  0.00     0.041 A 
ATOM     76  F   UNL A   1      41.888  29.620  27.217  1.00  0.00    -0.206 F 
ATOM     77  C   UNL A   1      41.380  26.288  25.903  1.00  0.00     0.022 A 
BRANCH  74  78
ATOM     78  S   UNL A   1      40.733  23.832  27.056  1.00  0.00     0.124 S 
ATOM     79  O   UNL A   1      41.654  23.446  25.991  1.00  0.00    -0.237 OA
ATOM     80  O   UNL A   1      41.144  23.491  28.413  1.00  0.00    -0.237 OA
ATOM     81  O   UNL A   1      39.319  23.611  26.758  1.00  0.00    -0.744 OA
ENDBRANCH  74  78
ENDBRANCH  57  71
BRANCH  58  82
ATOM     82  C   UNL A   1      39.822  32.834  36.862  1.00  0.00     0.023 A 
ATOM     83  C   UNL A   1      38.977  32.343  37.872  1.00  0.00     0.031 A 
ATOM     84  C   UNL A   1      40.430  34.086  37.068  1.00  0.00     0.131 A 
ATOM     85  C   UNL A   1      38.713  33.125  39.010  1.00  0.00     0.055 A 
ATOM     86  C   UNL A   1      40.207  34.836  38.225  1.00  0.00     0.041 A 
ATOM     87  F   UNL A   1      41.249  34.605  36.139  1.00  0.00    -0.206 F 
ATOM     88  C   UNL A   1      39.330  34.363  39.198  1.00  0.00     0.022 A 
BRANCH  85  89
ATOM     89  S   UNL A   1      37.468  32.546  40.198  1.00  0.00     0.124 S 
ATOM     90  O   UNL A   1      36.232  32.742  39.449  1.00  0.00    -0.237 OA
ATOM     91  O   UNL A   1      37.876  31.163  40.414  1.00  0.00    -0.237 OA
ATOM     92  O   UNL A   1      37.651  33.435  41.343  1.00  0.00    -0.744 OA
ENDBRANCH  85  89
ENDBRANCH  58  82
BRANCH  70  93
ATOM     93  C   UNL A   1      44.421  28.048  34.703  1.00  0.00     0.023 A 
ATOM     94  C   UNL A   1      44.395  26.775  35.296  1.00  0.00     0.031 A 
ATOM     95  C   UNL A   1      45.634  28.761  34.717  1.00  0.00     0.131 A 
ATOM     96  C   UNL A   1      45.546  26.274  35.922  1.00  0.00     0.055 A 
ATOM     97  C   UNL A   1      46.792  28.230  35.285  1.00  0.00     0.041 A 
ATOM     98  F   UNL A   1      45.716  29.983  34.167  1.00  0.00    -0.206 F 
ATOM     99  C   UNL A   1      46.749  26.984  35.903  1.00  0.00     0.022 A 
BRANCH  96 100
ATOM    100  S   UNL A   1      45.427  24.715  36.842  1.00  0.00     0.124 S 
ATOM    101  O   UNL A   1      45.890  25.108  38.169  1.00  0.00    -0.237 OA
ATOM    102  O   UNL A   1      44.007  24.395  36.731  1.00  0.00    -0.237 OA
ATOM    103  O   UNL A   1      46.322  23.818  36.113  1.00  0.00    -0.744 OA
ENDBRANCH  96 100
ENDBRANCH  70  93
ENDBRANCH  44  45
ENDBRANCH  37  39
ENDBRANCH  36  37
ENDBRANCH  35  36
ENDBRANCH  34  35
ENDBRANCH  33  34
ENDBRANCH  32  33
ENDBRANCH   1  32
TORSDOF 25
ENDMDL
