MODEL 1
REMARK VINA RESULT:      -8.7      0.000      0.000
REMARK SMILES CC(=O)O[C@H]1C[C@@H](C(=O)OCCOCCOCCOCCOC(=O)c2ccc(-c3c4nc(c(-c5cc(S(=O)(=O)[O-])ccc5F)c5ccc([nH]5)c(-c5cc(S(=O)(=O)[O-])ccc5F)c5nc(c(-c6cc(S(=O)(=O)[O-])ccc6F)c6ccc3[nH]6)C=C5)C=C4)cc2)N(S(=O)(=O)c2ccc(F)cc2)C1
REMARK SMILES IDX 17 1 16 2 15 3 14 4 13 5 12 6 11 7 10 8 8 9 9 10 7 11 5 12
REMARK SMILES IDX 6 13 99 14 88 15 4 16 2 17 1 18 3 19 89 20 90 21 91 22 92 23
REMARK SMILES IDX 93 24 98 25 94 26 97 27 95 28 96 29 18 30 19 31 20 32 21 33
REMARK SMILES IDX 22 34 23 35 24 36 25 37 26 38 87 39 27 40 86 41 28 42 29 43
REMARK SMILES IDX 30 44 80 45 31 46 85 47 79 48 81 49 32 50 84 51 78 52 77 53
REMARK SMILES IDX 33 55 65 56 45 57 64 58 46 59 49 60 63 61 82 62 47 63 48 64
REMARK SMILES IDX 62 66 83 67 50 68 34 69 35 70 43 71 36 72 42 73 44 74 41 75
REMARK SMILES IDX 37 76 38 77 39 78 40 79 66 80 67 81 75 82 68 83 74 84 76 85
REMARK SMILES IDX 73 86 69 87 70 88 71 89 72 90 51 91 52 92 60 93 53 94 59 95
REMARK SMILES IDX 61 96 58 97 54 98 55 99 56 100 57 101
REMARK H PARENT 81 54 49 65
REMARK Flexibility Score: inf
ROOT
ATOM      1  C   UNL A   1      34.310  30.401  27.066  1.00  0.00     0.188 C 
ENDROOT
BRANCH   1   2
ATOM      2  O   UNL A   1      33.012  30.493  27.610  1.00  0.00    -0.377 OA
BRANCH   2   3
ATOM      3  C   UNL A   1      32.024  29.750  26.932  1.00  0.00     0.188 C 
BRANCH   3   4
ATOM      4  C   UNL A   1      32.157  28.222  26.776  1.00  0.00     0.188 C 
BRANCH   4   5
ATOM      5  O   UNL A   1      32.664  27.685  25.567  1.00  0.00    -0.376 OA
BRANCH   5   6
ATOM      6  C   UNL A   1      33.794  26.836  25.482  1.00  0.00     0.202 C 
BRANCH   6   7
ATOM      7  C   UNL A   1      33.796  25.351  25.886  1.00  0.00     0.261 C 
BRANCH   7   8
ATOM      8  O   UNL A   1      35.021  24.659  25.608  1.00  0.00    -0.462 OA
BRANCH   8   9
ATOM      9  C   UNL A   1      35.022  23.663  24.696  1.00  0.00     0.324 C 
ATOM     10  O   UNL A   1      35.876  23.521  23.829  1.00  0.00    -0.250 OA
BRANCH   9  11
ATOM     11  C   UNL A   1      33.880  22.702  24.882  1.00  0.00     0.187 C 
ATOM     12  C   UNL A   1      32.821  20.593  24.942  1.00  0.00     0.194 C 
ATOM     13  C   UNL A   1      34.013  21.295  24.317  1.00  0.00     0.079 C 
ATOM     14  C   UNL A   1      31.740  21.697  24.992  1.00  0.00     0.148 C 
ATOM     15  N   UNL A   1      32.433  23.048  24.681  1.00  0.00    -0.180 NA
BRANCH  12  16
ATOM     16  O   UNL A   1      32.420  19.505  24.086  1.00  0.00    -0.461 OA
BRANCH  16  17
ATOM     17  C   UNL A   1      32.619  18.190  24.344  1.00  0.00     0.302 C 
ATOM     18  C   UNL A   1      33.402  17.396  23.344  1.00  0.00     0.139 C 
ATOM     19  O   UNL A   1      32.174  17.671  25.363  1.00  0.00    -0.253 OA
ENDBRANCH  16  17
ENDBRANCH  12  16
BRANCH  15  20
ATOM     20  S   UNL A   1      31.733  23.666  23.231  1.00  0.00     0.243 S 
ATOM     21  O   UNL A   1      32.758  23.598  22.211  1.00  0.00    -0.207 OA
ATOM     22  O   UNL A   1      30.532  22.864  23.071  1.00  0.00    -0.207 OA
BRANCH  20  23
ATOM     23  C   UNL A   1      31.130  25.351  23.240  1.00  0.00     0.082 A 
ATOM     24  C   UNL A   1      30.041  25.620  24.094  1.00  0.00     0.025 A 
ATOM     25  C   UNL A   1      31.543  26.361  22.383  1.00  0.00     0.025 A 
ATOM     26  C   UNL A   1      29.377  26.855  24.056  1.00  0.00     0.040 A 
ATOM     27  C   UNL A   1      30.879  27.596  22.336  1.00  0.00     0.040 A 
ATOM     28  C   UNL A   1      29.795  27.829  23.163  1.00  0.00     0.123 A 
ATOM     29  F   UNL A   1      29.144  28.997  23.092  1.00  0.00    -0.207 F 
ENDBRANCH  20  23
ENDBRANCH  15  20
ENDBRANCH   9  11
ENDBRANCH   8   9
ENDBRANCH   7   8
ENDBRANCH   6   7
ENDBRANCH   5   6
ENDBRANCH   4   5
ENDBRANCH   3   4
ENDBRANCH   2   3
ENDBRANCH   1   2
BRANCH   1  30
ATOM     30  C   UNL A   1      35.380  30.220  28.153  1.00  0.00     0.188 C 
BRANCH  30  31
ATOM     31  O   UNL A   1      36.528  29.512  27.728  1.00  0.00    -0.376 OA
BRANCH  31  32
ATOM     32  C   UNL A   1      37.792  29.683  28.351  1.00  0.00     0.202 C 
BRANCH  32  33
ATOM     33  C   UNL A   1      38.739  28.584  28.890  1.00  0.00     0.261 C 
BRANCH  33  34
ATOM     34  O   UNL A   1      39.836  28.135  28.096  1.00  0.00    -0.460 OA
BRANCH  34  35
ATOM     35  C   UNL A   1      40.302  26.882  28.302  1.00  0.00     0.338 C 
ATOM     36  O   UNL A   1      39.645  25.882  28.466  1.00  0.00    -0.246 OA
BRANCH  35  37
ATOM     37  C   UNL A   1      41.762  26.931  28.019  1.00  0.00     0.060 A 
ATOM     38  C   UNL A   1      42.402  25.738  27.653  1.00  0.00     0.016 A 
ATOM     39  C   UNL A   1      42.460  28.145  27.981  1.00  0.00     0.016 A 
ATOM     40  C   UNL A   1      43.739  25.751  27.260  1.00  0.00     0.010 A 
ATOM     41  C   UNL A   1      43.817  28.149  27.639  1.00  0.00     0.010 A 
ATOM     42  C   UNL A   1      44.467  26.946  27.308  1.00  0.00    -0.014 A 
BRANCH  42  43
ATOM     43  C   UNL A   1      45.947  26.870  27.328  1.00  0.00     0.031 A 
ATOM     44  C   UNL A   1      46.595  26.646  28.668  1.00  0.00     0.074 A 
ATOM     45  C   UNL A   1      46.691  26.938  26.210  1.00  0.00     0.049 A 
ATOM     46  N   UNL A   1      47.859  26.555  28.980  1.00  0.00    -0.248 NA
ATOM     47  C   UNL A   1      45.679  26.501  29.813  1.00  0.00     0.031 C 
ATOM     48  C   UNL A   1      46.170  27.080  24.852  1.00  0.00     0.029 A 
ATOM     49  N   UNL A   1      48.053  26.891  26.045  1.00  0.00    -0.354 N 
ATOM     50  C   UNL A   1      47.890  26.349  30.356  1.00  0.00     0.074 A 
ATOM     51  C   UNL A   1      46.522  26.359  30.821  1.00  0.00     0.031 C 
ATOM     52  C   UNL A   1      47.204  27.115  23.991  1.00  0.00     0.029 A 
ATOM     53  C   UNL A   1      48.460  27.037  24.739  1.00  0.00     0.049 A 
ATOM     54  H   UNL A   1      48.681  26.764  26.792  1.00  0.00     0.167 HD
ATOM     55  C   UNL A   1      48.965  26.167  31.159  1.00  0.00     0.034 A 
ATOM     56  C   UNL A   1      49.702  27.122  24.219  1.00  0.00     0.034 A 
ATOM     57  C   UNL A   1      50.323  26.182  30.681  1.00  0.00     0.049 A 
ATOM     58  C   UNL A   1      50.891  27.024  25.150  1.00  0.00     0.074 A 
ATOM     59  C   UNL A   1      51.489  26.003  31.401  1.00  0.00     0.029 A 
ATOM     60  N   UNL A   1      50.699  26.407  29.362  1.00  0.00    -0.354 N 
ATOM     61  N   UNL A   1      50.912  26.832  26.450  1.00  0.00    -0.248 NA
ATOM     62  C   UNL A   1      52.223  27.151  24.542  1.00  0.00     0.031 C 
ATOM     63  C   UNL A   1      52.570  26.209  30.538  1.00  0.00     0.029 A 
ATOM     64  C   UNL A   1      52.081  26.415  29.258  1.00  0.00     0.049 A 
ATOM     65  H   UNL A   1      50.075  26.541  28.613  1.00  0.00     0.167 HD
ATOM     66  C   UNL A   1      52.260  26.779  26.807  1.00  0.00     0.074 A 
ATOM     67  C   UNL A   1      53.017  26.949  25.584  1.00  0.00     0.031 C 
ATOM     68  C   UNL A   1      52.820  26.595  28.031  1.00  0.00     0.034 A 
BRANCH  55  69
ATOM     69  C   UNL A   1      48.706  26.015  32.636  1.00  0.00     0.023 A 
ATOM     70  C   UNL A   1      48.428  24.767  33.222  1.00  0.00     0.031 A 
ATOM     71  C   UNL A   1      48.699  27.149  33.468  1.00  0.00     0.131 A 
ATOM     72  C   UNL A   1      48.090  24.694  34.582  1.00  0.00     0.055 A 
ATOM     73  C   UNL A   1      48.444  27.058  34.836  1.00  0.00     0.041 A 
ATOM     74  F   UNL A   1      48.924  28.371  32.958  1.00  0.00    -0.206 F 
ATOM     75  C   UNL A   1      48.125  25.826  35.399  1.00  0.00     0.022 A 
BRANCH  72  76
ATOM     76  S   UNL A   1      47.465  23.123  35.237  1.00  0.00     0.124 S 
ATOM     77  O   UNL A   1      48.524  22.196  34.845  1.00  0.00    -0.237 OA
ATOM     78  O   UNL A   1      47.352  23.397  36.665  1.00  0.00    -0.237 OA
ATOM     79  O   UNL A   1      46.196  22.939  34.534  1.00  0.00    -0.744 OA
ENDBRANCH  72  76
ENDBRANCH  55  69
BRANCH  56  80
ATOM     80  C   UNL A   1      49.903  27.351  22.757  1.00  0.00     0.023 A 
ATOM     81  C   UNL A   1      50.609  28.468  22.284  1.00  0.00     0.031 A 
ATOM     82  C   UNL A   1      49.336  26.482  21.806  1.00  0.00     0.131 A 
ATOM     83  C   UNL A   1      50.693  28.711  20.903  1.00  0.00     0.055 A 
ATOM     84  C   UNL A   1      49.469  26.699  20.433  1.00  0.00     0.041 A 
ATOM     85  F   UNL A   1      48.644  25.401  22.200  1.00  0.00    -0.206 F 
ATOM     86  C   UNL A   1      50.142  27.826  19.974  1.00  0.00     0.022 A 
BRANCH  83  87
ATOM     87  S   UNL A   1      51.466  30.252  20.334  1.00  0.00     0.124 S 
ATOM     88  O   UNL A   1      51.980  29.861  19.026  1.00  0.00    -0.237 OA
ATOM     89  O   UNL A   1      50.334  31.173  20.331  1.00  0.00    -0.237 OA
ATOM     90  O   UNL A   1      52.481  30.519  21.350  1.00  0.00    -0.744 OA
ENDBRANCH  83  87
ENDBRANCH  56  80
BRANCH  68  91
ATOM     91  C   UNL A   1      54.328  26.517  28.100  1.00  0.00     0.023 A 
ATOM     92  C   UNL A   1      55.025  25.321  27.854  1.00  0.00     0.031 A 
ATOM     93  C   UNL A   1      55.079  27.666  28.412  1.00  0.00     0.131 A 
ATOM     94  C   UNL A   1      56.422  25.289  27.980  1.00  0.00     0.055 A 
ATOM     95  C   UNL A   1      56.473  27.644  28.465  1.00  0.00     0.041 A 
ATOM     96  F   UNL A   1      54.467  28.836  28.659  1.00  0.00    -0.206 F 
ATOM     97  C   UNL A   1      57.152  26.446  28.263  1.00  0.00     0.022 A 
BRANCH  94  98
ATOM     98  S   UNL A   1      57.268  23.687  27.871  1.00  0.00     0.124 S 
ATOM     99  O   UNL A   1      57.121  23.364  26.455  1.00  0.00    -0.237 OA
ATOM    100  O   UNL A   1      58.618  24.017  28.313  1.00  0.00    -0.237 OA
ATOM    101  O   UNL A   1      56.508  22.835  28.784  1.00  0.00    -0.744 OA
ENDBRANCH  94  98
ENDBRANCH  68  91
ENDBRANCH  42  43
ENDBRANCH  35  37
ENDBRANCH  34  35
ENDBRANCH  33  34
ENDBRANCH  32  33
ENDBRANCH  31  32
ENDBRANCH  30  31
ENDBRANCH   1  30
TORSDOF 27
ENDMDL
MODEL 2
REMARK VINA RESULT:      -8.5      7.039     11.160
REMARK SMILES CC(=O)O[C@H]1C[C@@H](C(=O)OCCOCCOCCOCCOC(=O)c2ccc(-c3c4nc(c(-c5cc(S(=O)(=O)[O-])ccc5F)c5ccc([nH]5)c(-c5cc(S(=O)(=O)[O-])ccc5F)c5nc(c(-c6cc(S(=O)(=O)[O-])ccc6F)c6ccc3[nH]6)C=C5)C=C4)cc2)N(S(=O)(=O)c2ccc(F)cc2)C1
REMARK SMILES IDX 17 1 16 2 15 3 14 4 13 5 12 6 11 7 10 8 8 9 9 10 7 11 5 12
REMARK SMILES IDX 6 13 99 14 88 15 4 16 2 17 1 18 3 19 89 20 90 21 91 22 92 23
REMARK SMILES IDX 93 24 98 25 94 26 97 27 95 28 96 29 18 30 19 31 20 32 21 33
REMARK SMILES IDX 22 34 23 35 24 36 25 37 26 38 87 39 27 40 86 41 28 42 29 43
REMARK SMILES IDX 30 44 80 45 31 46 85 47 79 48 81 49 32 50 84 51 78 52 77 53
REMARK SMILES IDX 33 55 65 56 45 57 64 58 46 59 49 60 63 61 82 62 47 63 48 64
REMARK SMILES IDX 62 66 83 67 50 68 34 69 35 70 43 71 36 72 42 73 44 74 41 75
REMARK SMILES IDX 37 76 38 77 39 78 40 79 66 80 67 81 75 82 68 83 74 84 76 85
REMARK SMILES IDX 73 86 69 87 70 88 71 89 72 90 51 91 52 92 60 93 53 94 59 95
REMARK SMILES IDX 61 96 58 97 54 98 55 99 56 100 57 101
REMARK H PARENT 81 54 49 65
REMARK Flexibility Score: inf
ROOT
ATOM      1  C   UNL A   1      36.141  32.406  31.544  1.00  0.00     0.188 C 
ENDROOT
BRANCH   1   2
ATOM      2  O   UNL A   1      36.355  31.033  31.299  1.00  0.00    -0.377 OA
BRANCH   2   3
ATOM      3  C   UNL A   1      37.377  30.742  30.374  1.00  0.00     0.188 C 
BRANCH   3   4
ATOM      4  C   UNL A   1      37.196  29.625  29.328  1.00  0.00     0.188 C 
BRANCH   4   5
ATOM      5  O   UNL A   1      38.330  28.912  28.864  1.00  0.00    -0.376 OA
BRANCH   5   6
ATOM      6  C   UNL A   1      38.954  29.131  27.612  1.00  0.00     0.202 C 
BRANCH   6   7
ATOM      7  C   UNL A   1      40.446  28.886  27.332  1.00  0.00     0.261 C 
BRANCH   7   8
ATOM      8  O   UNL A   1      40.833  27.505  27.322  1.00  0.00    -0.462 OA
BRANCH   8   9
ATOM      9  C   UNL A   1      41.602  27.044  26.313  1.00  0.00     0.324 C 
ATOM     10  O   UNL A   1      41.195  26.327  25.406  1.00  0.00    -0.250 OA
BRANCH   9  11
ATOM     11  C   UNL A   1      43.018  27.544  26.384  1.00  0.00     0.187 C 
ATOM     12  C   UNL A   1      45.195  27.987  25.585  1.00  0.00     0.194 C 
ATOM     13  C   UNL A   1      44.013  27.067  25.336  1.00  0.00     0.079 C 
ATOM     14  C   UNL A   1      45.173  28.192  27.117  1.00  0.00     0.148 C 
ATOM     15  N   UNL A   1      43.826  27.640  27.646  1.00  0.00    -0.180 NA
BRANCH  12  16
ATOM     16  O   UNL A   1      46.401  27.320  25.161  1.00  0.00    -0.461 OA
BRANCH  16  17
ATOM     17  C   UNL A   1      47.144  27.655  24.079  1.00  0.00     0.302 C 
ATOM     18  C   UNL A   1      48.316  26.784  23.743  1.00  0.00     0.139 C 
ATOM     19  O   UNL A   1      46.863  28.636  23.398  1.00  0.00    -0.253 OA
ENDBRANCH  16  17
ENDBRANCH  12  16
BRANCH  15  20
ATOM     20  S   UNL A   1      44.186  26.337  28.718  1.00  0.00     0.243 S 
ATOM     21  O   UNL A   1      43.415  25.199  28.264  1.00  0.00    -0.207 OA
ATOM     22  O   UNL A   1      45.637  26.261  28.675  1.00  0.00    -0.207 OA
BRANCH  20  23
ATOM     23  C   UNL A   1      43.815  26.550  30.455  1.00  0.00     0.082 A 
ATOM     24  C   UNL A   1      42.724  27.388  30.763  1.00  0.00     0.025 A 
ATOM     25  C   UNL A   1      44.587  26.082  31.509  1.00  0.00     0.025 A 
ATOM     26  C   UNL A   1      42.448  27.763  32.086  1.00  0.00     0.040 A 
ATOM     27  C   UNL A   1      44.321  26.461  32.834  1.00  0.00     0.040 A 
ATOM     28  C   UNL A   1      43.262  27.306  33.110  1.00  0.00     0.123 A 
ATOM     29  F   UNL A   1      43.031  27.690  34.372  1.00  0.00    -0.207 F 
ENDBRANCH  20  23
ENDBRANCH  15  20
ENDBRANCH   9  11
ENDBRANCH   8   9
ENDBRANCH   7   8
ENDBRANCH   6   7
ENDBRANCH   5   6
ENDBRANCH   4   5
ENDBRANCH   3   4
ENDBRANCH   2   3
ENDBRANCH   1   2
BRANCH   1  30
ATOM     30  C   UNL A   1      35.137  32.639  32.682  1.00  0.00     0.188 C 
BRANCH  30  31
ATOM     31  O   UNL A   1      35.711  32.644  33.975  1.00  0.00    -0.376 OA
BRANCH  31  32
ATOM     32  C   UNL A   1      37.116  32.591  34.175  1.00  0.00     0.202 C 
BRANCH  32  33
ATOM     33  C   UNL A   1      37.909  31.611  35.073  1.00  0.00     0.261 C 
BRANCH  33  34
ATOM     34  O   UNL A   1      39.248  31.256  34.732  1.00  0.00    -0.460 OA
BRANCH  34  35
ATOM     35  C   UNL A   1      39.435  30.264  33.831  1.00  0.00     0.338 C 
ATOM     36  O   UNL A   1      38.711  29.319  33.633  1.00  0.00    -0.246 OA
BRANCH  35  37
ATOM     37  C   UNL A   1      40.554  30.707  32.956  1.00  0.00     0.060 A 
ATOM     38  C   UNL A   1      41.773  31.039  33.564  1.00  0.00     0.016 A 
ATOM     39  C   UNL A   1      40.453  30.666  31.560  1.00  0.00     0.016 A 
ATOM     40  C   UNL A   1      42.888  31.342  32.784  1.00  0.00     0.010 A 
ATOM     41  C   UNL A   1      41.556  31.023  30.777  1.00  0.00     0.010 A 
ATOM     42  C   UNL A   1      42.768  31.393  31.390  1.00  0.00    -0.014 A 
BRANCH  42  43
ATOM     43  C   UNL A   1      43.796  32.132  30.620  1.00  0.00     0.031 A 
ATOM     44  C   UNL A   1      45.078  31.399  30.327  1.00  0.00     0.074 A 
ATOM     45  C   UNL A   1      43.594  33.375  30.149  1.00  0.00     0.049 A 
ATOM     46  N   UNL A   1      46.146  31.804  29.694  1.00  0.00    -0.248 NA
ATOM     47  C   UNL A   1      45.158  30.013  30.818  1.00  0.00     0.031 C 
ATOM     48  C   UNL A   1      42.367  34.154  30.308  1.00  0.00     0.029 A 
ATOM     49  N   UNL A   1      44.425  34.200  29.432  1.00  0.00    -0.354 N 
ATOM     50  C   UNL A   1      47.024  30.726  29.716  1.00  0.00     0.074 A 
ATOM     51  C   UNL A   1      46.378  29.663  30.450  1.00  0.00     0.031 C 
ATOM     52  C   UNL A   1      42.530  35.348  29.709  1.00  0.00     0.029 A 
ATOM     53  C   UNL A   1      43.883  35.434  29.159  1.00  0.00     0.049 A 
ATOM     54  H   UNL A   1      45.326  33.932  29.139  1.00  0.00     0.167 HD
ATOM     55  C   UNL A   1      48.260  30.631  29.170  1.00  0.00     0.034 A 
ATOM     56  C   UNL A   1      44.430  36.512  28.558  1.00  0.00     0.034 A 
ATOM     57  C   UNL A   1      48.898  31.709  28.460  1.00  0.00     0.049 A 
ATOM     58  C   UNL A   1      45.853  36.420  28.052  1.00  0.00     0.074 A 
ATOM     59  C   UNL A   1      50.143  31.725  27.862  1.00  0.00     0.029 A 
ATOM     60  N   UNL A   1      48.346  32.970  28.269  1.00  0.00    -0.354 N 
ATOM     61  N   UNL A   1      46.679  35.397  28.079  1.00  0.00    -0.248 NA
ATOM     62  C   UNL A   1      46.416  37.627  27.430  1.00  0.00     0.031 C 
ATOM     63  C   UNL A   1      50.382  33.019  27.389  1.00  0.00     0.029 A 
ATOM     64  C   UNL A   1      49.246  33.785  27.600  1.00  0.00     0.049 A 
ATOM     65  H   UNL A   1      47.448  33.245  28.566  1.00  0.00     0.167 HD
ATOM     66  C   UNL A   1      47.844  35.830  27.446  1.00  0.00     0.074 A 
ATOM     67  C   UNL A   1      47.608  37.200  27.040  1.00  0.00     0.031 C 
ATOM     68  C   UNL A   1      48.999  35.153  27.211  1.00  0.00     0.034 A 
BRANCH  55  69
ATOM     69  C   UNL A   1      49.017  29.347  29.394  1.00  0.00     0.023 A 
ATOM     70  C   UNL A   1      49.152  28.374  28.388  1.00  0.00     0.031 A 
ATOM     71  C   UNL A   1      49.582  29.076  30.653  1.00  0.00     0.131 A 
ATOM     72  C   UNL A   1      49.776  27.150  28.678  1.00  0.00     0.055 A 
ATOM     73  C   UNL A   1      50.274  27.891  30.910  1.00  0.00     0.041 A 
ATOM     74  F   UNL A   1      49.456  29.953  31.662  1.00  0.00    -0.206 F 
ATOM     75  C   UNL A   1      50.363  26.915  29.923  1.00  0.00     0.022 A 
BRANCH  72  76
ATOM     76  S   UNL A   1      49.682  25.817  27.453  1.00  0.00     0.124 S 
ATOM     77  O   UNL A   1      50.522  26.342  26.380  1.00  0.00    -0.237 OA
ATOM     78  O   UNL A   1      50.220  24.676  28.185  1.00  0.00    -0.237 OA
ATOM     79  O   UNL A   1      48.257  25.741  27.138  1.00  0.00    -0.744 OA
ENDBRANCH  72  76
ENDBRANCH  55  69
BRANCH  56  80
ATOM     80  C   UNL A   1      43.663  37.786  28.431  1.00  0.00     0.023 A 
ATOM     81  C   UNL A   1      43.637  38.729  29.471  1.00  0.00     0.031 A 
ATOM     82  C   UNL A   1      42.891  38.053  27.285  1.00  0.00     0.131 A 
ATOM     83  C   UNL A   1      42.825  39.870  29.364  1.00  0.00     0.055 A 
ATOM     84  C   UNL A   1      42.128  39.215  27.160  1.00  0.00     0.041 A 
ATOM     85  F   UNL A   1      42.872  37.184  26.262  1.00  0.00    -0.206 F 
ATOM     86  C   UNL A   1      42.082  40.127  28.210  1.00  0.00     0.022 A 
BRANCH  83  87
ATOM     87  S   UNL A   1      42.684  40.979  30.794  1.00  0.00     0.124 S 
ATOM     88  O   UNL A   1      43.371  42.172  30.312  1.00  0.00    -0.237 OA
ATOM     89  O   UNL A   1      41.238  41.087  30.949  1.00  0.00    -0.237 OA
ATOM     90  O   UNL A   1      43.370  40.249  31.858  1.00  0.00    -0.744 OA
ENDBRANCH  83  87
ENDBRANCH  56  80
BRANCH  68  91
ATOM     91  C   UNL A   1      50.078  35.870  26.434  1.00  0.00     0.023 A 
ATOM     92  C   UNL A   1      51.120  36.565  27.072  1.00  0.00     0.031 A 
ATOM     93  C   UNL A   1      50.064  35.850  25.027  1.00  0.00     0.131 A 
ATOM     94  C   UNL A   1      52.070  37.257  26.306  1.00  0.00     0.055 A 
ATOM     95  C   UNL A   1      51.053  36.480  24.270  1.00  0.00     0.041 A 
ATOM     96  F   UNL A   1      49.092  35.205  24.362  1.00  0.00    -0.206 F 
ATOM     97  C   UNL A   1      52.055  37.202  24.910  1.00  0.00     0.022 A 
BRANCH  94  98
ATOM     98  S   UNL A   1      53.269  38.319  27.158  1.00  0.00     0.124 S 
ATOM     99  O   UNL A   1      53.581  37.530  28.346  1.00  0.00    -0.237 OA
ATOM    100  O   UNL A   1      54.338  38.437  26.173  1.00  0.00    -0.237 OA
ATOM    101  O   UNL A   1      52.520  39.549  27.409  1.00  0.00    -0.744 OA
ENDBRANCH  94  98
ENDBRANCH  68  91
ENDBRANCH  42  43
ENDBRANCH  35  37
ENDBRANCH  34  35
ENDBRANCH  33  34
ENDBRANCH  32  33
ENDBRANCH  31  32
ENDBRANCH  30  31
ENDBRANCH   1  30
TORSDOF 27
ENDMDL
MODEL 3
REMARK VINA RESULT:      -8.2      5.916     10.837
REMARK SMILES CC(=O)O[C@H]1C[C@@H](C(=O)OCCOCCOCCOCCOC(=O)c2ccc(-c3c4nc(c(-c5cc(S(=O)(=O)[O-])ccc5F)c5ccc([nH]5)c(-c5cc(S(=O)(=O)[O-])ccc5F)c5nc(c(-c6cc(S(=O)(=O)[O-])ccc6F)c6ccc3[nH]6)C=C5)C=C4)cc2)N(S(=O)(=O)c2ccc(F)cc2)C1
REMARK SMILES IDX 17 1 16 2 15 3 14 4 13 5 12 6 11 7 10 8 8 9 9 10 7 11 5 12
REMARK SMILES IDX 6 13 99 14 88 15 4 16 2 17 1 18 3 19 89 20 90 21 91 22 92 23
REMARK SMILES IDX 93 24 98 25 94 26 97 27 95 28 96 29 18 30 19 31 20 32 21 33
REMARK SMILES IDX 22 34 23 35 24 36 25 37 26 38 87 39 27 40 86 41 28 42 29 43
REMARK SMILES IDX 30 44 80 45 31 46 85 47 79 48 81 49 32 50 84 51 78 52 77 53
REMARK SMILES IDX 33 55 65 56 45 57 64 58 46 59 49 60 63 61 82 62 47 63 48 64
REMARK SMILES IDX 62 66 83 67 50 68 34 69 35 70 43 71 36 72 42 73 44 74 41 75
REMARK SMILES IDX 37 76 38 77 39 78 40 79 66 80 67 81 75 82 68 83 74 84 76 85
REMARK SMILES IDX 73 86 69 87 70 88 71 89 72 90 51 91 52 92 60 93 53 94 59 95
REMARK SMILES IDX 61 96 58 97 54 98 55 99 56 100 57 101
REMARK H PARENT 81 54 49 65
REMARK Flexibility Score: inf
ROOT
ATOM      1  C   UNL A   1      35.522  32.387  28.220  1.00  0.00     0.188 C 
ENDROOT
BRANCH   1   2
ATOM      2  O   UNL A   1      35.600  31.072  27.717  1.00  0.00    -0.377 OA
BRANCH   2   3
ATOM      3  C   UNL A   1      36.228  30.140  28.568  1.00  0.00     0.188 C 
BRANCH   3   4
ATOM      4  C   UNL A   1      37.148  29.045  27.994  1.00  0.00     0.188 C 
BRANCH   4   5
ATOM      5  O   UNL A   1      38.510  29.339  27.739  1.00  0.00    -0.376 OA
BRANCH   5   6
ATOM      6  C   UNL A   1      39.463  28.389  27.298  1.00  0.00     0.202 C 
BRANCH   6   7
ATOM      7  C   UNL A   1      40.904  28.734  26.884  1.00  0.00     0.261 C 
BRANCH   7   8
ATOM      8  O   UNL A   1      41.717  27.600  26.553  1.00  0.00    -0.462 OA
BRANCH   8   9
ATOM      9  C   UNL A   1      42.553  27.094  27.484  1.00  0.00     0.324 C 
ATOM     10  O   UNL A   1      42.190  26.612  28.550  1.00  0.00    -0.250 OA
BRANCH   9  11
ATOM     11  C   UNL A   1      43.995  27.137  27.058  1.00  0.00     0.187 C 
ATOM     12  C   UNL A   1      45.794  27.261  25.535  1.00  0.00     0.194 C 
ATOM     13  C   UNL A   1      44.334  26.852  25.603  1.00  0.00     0.079 C 
ATOM     14  C   UNL A   1      46.342  26.864  26.925  1.00  0.00     0.148 C 
ATOM     15  N   UNL A   1      45.130  26.528  27.830  1.00  0.00    -0.180 NA
BRANCH  12  16
ATOM     16  O   UNL A   1      46.439  26.515  24.484  1.00  0.00    -0.461 OA
BRANCH  16  17
ATOM     17  C   UNL A   1      47.319  25.502  24.667  1.00  0.00     0.302 C 
ATOM     18  C   UNL A   1      46.801  24.101  24.553  1.00  0.00     0.139 C 
ATOM     19  O   UNL A   1      48.500  25.727  24.915  1.00  0.00    -0.253 OA
ENDBRANCH  16  17
ENDBRANCH  12  16
BRANCH  15  20
ATOM     20  S   UNL A   1      45.268  24.870  28.285  1.00  0.00     0.243 S 
ATOM     21  O   UNL A   1      46.552  24.410  27.800  1.00  0.00    -0.207 OA
ATOM     22  O   UNL A   1      45.031  24.897  29.719  1.00  0.00    -0.207 OA
BRANCH  20  23
ATOM     23  C   UNL A   1      44.043  23.723  27.666  1.00  0.00     0.082 A 
ATOM     24  C   UNL A   1      43.088  23.266  28.597  1.00  0.00     0.025 A 
ATOM     25  C   UNL A   1      44.043  23.144  26.405  1.00  0.00     0.025 A 
ATOM     26  C   UNL A   1      42.191  22.239  28.271  1.00  0.00     0.040 A 
ATOM     27  C   UNL A   1      43.153  22.110  26.075  1.00  0.00     0.040 A 
ATOM     28  C   UNL A   1      42.243  21.659  27.013  1.00  0.00     0.123 A 
ATOM     29  F   UNL A   1      41.417  20.651  26.704  1.00  0.00    -0.207 F 
ENDBRANCH  20  23
ENDBRANCH  15  20
ENDBRANCH   9  11
ENDBRANCH   8   9
ENDBRANCH   7   8
ENDBRANCH   6   7
ENDBRANCH   5   6
ENDBRANCH   4   5
ENDBRANCH   3   4
ENDBRANCH   2   3
ENDBRANCH   1   2
BRANCH   1  30
ATOM     30  C   UNL A   1      34.871  32.435  29.610  1.00  0.00     0.188 C 
BRANCH  30  31
ATOM     31  O   UNL A   1      35.445  33.380  30.491  1.00  0.00    -0.376 OA
BRANCH  31  32
ATOM     32  C   UNL A   1      35.160  33.385  31.882  1.00  0.00     0.202 C 
BRANCH  32  33
ATOM     33  C   UNL A   1      36.168  33.357  33.056  1.00  0.00     0.261 C 
BRANCH  33  34
ATOM     34  O   UNL A   1      36.614  32.110  33.584  1.00  0.00    -0.460 OA
BRANCH  34  35
ATOM     35  C   UNL A   1      36.671  31.048  32.749  1.00  0.00     0.338 C 
ATOM     36  O   UNL A   1      35.744  30.523  32.180  1.00  0.00    -0.246 OA
BRANCH  35  37
ATOM     37  C   UNL A   1      38.113  30.825  32.459  1.00  0.00     0.060 A 
ATOM     38  C   UNL A   1      38.450  30.159  31.272  1.00  0.00     0.016 A 
ATOM     39  C   UNL A   1      39.116  31.379  33.264  1.00  0.00     0.016 A 
ATOM     40  C   UNL A   1      39.786  30.033  30.892  1.00  0.00     0.010 A 
ATOM     41  C   UNL A   1      40.459  31.204  32.911  1.00  0.00     0.010 A 
ATOM     42  C   UNL A   1      40.797  30.503  31.740  1.00  0.00    -0.014 A 
BRANCH  42  43
ATOM     43  C   UNL A   1      42.171  29.978  31.556  1.00  0.00     0.031 A 
ATOM     44  C   UNL A   1      43.075  30.757  30.638  1.00  0.00     0.074 A 
ATOM     45  C   UNL A   1      42.626  28.895  32.209  1.00  0.00     0.049 A 
ATOM     46  N   UNL A   1      44.309  30.522  30.284  1.00  0.00    -0.248 NA
ATOM     47  C   UNL A   1      42.498  31.975  30.041  1.00  0.00     0.031 C 
ATOM     48  C   UNL A   1      41.866  28.106  33.176  1.00  0.00     0.029 A 
ATOM     49  N   UNL A   1      43.850  28.276  32.158  1.00  0.00    -0.354 N 
ATOM     50  C   UNL A   1      44.653  31.557  29.420  1.00  0.00     0.074 A 
ATOM     51  C   UNL A   1      43.490  32.402  29.281  1.00  0.00     0.031 C 
ATOM     52  C   UNL A   1      42.642  27.101  33.623  1.00  0.00     0.029 A 
ATOM     53  C   UNL A   1      43.938  27.152  32.946  1.00  0.00     0.049 A 
ATOM     54  H   UNL A   1      44.597  28.606  31.607  1.00  0.00     0.167 HD
ATOM     55  C   UNL A   1      45.835  31.782  28.800  1.00  0.00     0.034 A 
ATOM     56  C   UNL A   1      44.942  26.259  33.080  1.00  0.00     0.034 A 
ATOM     57  C   UNL A   1      46.978  30.916  28.934  1.00  0.00     0.049 A 
ATOM     58  C   UNL A   1      46.217  26.471  32.293  1.00  0.00     0.074 A 
ATOM     59  C   UNL A   1      48.227  31.048  28.357  1.00  0.00     0.029 A 
ATOM     60  N   UNL A   1      47.005  29.746  29.683  1.00  0.00    -0.354 N 
ATOM     61  N   UNL A   1      46.534  27.451  31.476  1.00  0.00    -0.248 NA
ATOM     62  C   UNL A   1      47.270  25.459  32.450  1.00  0.00     0.031 C 
ATOM     63  C   UNL A   1      48.979  29.915  28.684  1.00  0.00     0.029 A 
ATOM     64  C   UNL A   1      48.236  29.124  29.547  1.00  0.00     0.049 A 
ATOM     65  H   UNL A   1      46.259  29.409  30.229  1.00  0.00     0.167 HD
ATOM     66  C   UNL A   1      47.836  27.189  31.052  1.00  0.00     0.074 A 
ATOM     67  C   UNL A   1      48.246  25.966  31.712  1.00  0.00     0.031 C 
ATOM     68  C   UNL A   1      48.626  27.899  30.204  1.00  0.00     0.034 A 
BRANCH  55  69
ATOM     69  C   UNL A   1      45.914  32.966  27.870  1.00  0.00     0.023 A 
ATOM     70  C   UNL A   1      46.441  34.204  28.278  1.00  0.00     0.031 A 
ATOM     71  C   UNL A   1      45.413  32.863  26.559  1.00  0.00     0.131 A 
ATOM     72  C   UNL A   1      46.395  35.304  27.407  1.00  0.00     0.055 A 
ATOM     73  C   UNL A   1      45.446  33.938  25.671  1.00  0.00     0.041 A 
ATOM     74  F   UNL A   1      44.867  31.715  26.125  1.00  0.00    -0.206 F 
ATOM     75  C   UNL A   1      45.927  35.172  26.098  1.00  0.00     0.022 A 
BRANCH  72  76
ATOM     76  S   UNL A   1      46.819  36.943  28.057  1.00  0.00     0.124 S 
ATOM     77  O   UNL A   1      47.778  37.416  27.062  1.00  0.00    -0.237 OA
ATOM     78  O   UNL A   1      45.528  37.621  28.075  1.00  0.00    -0.237 OA
ATOM     79  O   UNL A   1      47.389  36.653  29.372  1.00  0.00    -0.744 OA
ENDBRANCH  72  76
ENDBRANCH  55  69
BRANCH  56  80
ATOM     80  C   UNL A   1      44.784  25.060  33.956  1.00  0.00     0.023 A 
ATOM     81  C   UNL A   1      45.130  25.100  35.316  1.00  0.00     0.031 A 
ATOM     82  C   UNL A   1      44.341  23.834  33.427  1.00  0.00     0.131 A 
ATOM     83  C   UNL A   1      45.068  23.929  36.090  1.00  0.00     0.055 A 
ATOM     84  C   UNL A   1      44.229  22.686  34.214  1.00  0.00     0.041 A 
ATOM     85  F   UNL A   1      44.003  23.735  32.132  1.00  0.00    -0.206 F 
ATOM     86  C   UNL A   1      44.606  22.726  35.552  1.00  0.00     0.022 A 
BRANCH  83  87
ATOM     87  S   UNL A   1      45.683  23.978  37.797  1.00  0.00     0.124 S 
ATOM     88  O   UNL A   1      44.673  24.801  38.452  1.00  0.00    -0.237 OA
ATOM     89  O   UNL A   1      45.690  22.563  38.154  1.00  0.00    -0.237 OA
ATOM     90  O   UNL A   1      47.002  24.592  37.666  1.00  0.00    -0.744 OA
ENDBRANCH  83  87
ENDBRANCH  56  80
BRANCH  68  91
ATOM     91  C   UNL A   1      50.033  27.398  29.982  1.00  0.00     0.023 A 
ATOM     92  C   UNL A   1      51.094  27.750  30.835  1.00  0.00     0.031 A 
ATOM     93  C   UNL A   1      50.315  26.546  28.897  1.00  0.00     0.131 A 
ATOM     94  C   UNL A   1      52.393  27.298  30.556  1.00  0.00     0.055 A 
ATOM     95  C   UNL A   1      51.595  26.043  28.667  1.00  0.00     0.041 A 
ATOM     96  F   UNL A   1      49.342  26.179  28.047  1.00  0.00    -0.206 F 
ATOM     97  C   UNL A   1      52.647  26.431  29.491  1.00  0.00     0.022 A 
BRANCH  94  98
ATOM     98  S   UNL A   1      53.770  27.945  31.546  1.00  0.00     0.124 S 
ATOM     99  O   UNL A   1      54.929  27.408  30.839  1.00  0.00    -0.237 OA
ATOM    100  O   UNL A   1      53.575  29.386  31.449  1.00  0.00    -0.237 OA
ATOM    101  O   UNL A   1      53.535  27.375  32.872  1.00  0.00    -0.744 OA
ENDBRANCH  94  98
ENDBRANCH  68  91
ENDBRANCH  42  43
ENDBRANCH  35  37
ENDBRANCH  34  35
ENDBRANCH  33  34
ENDBRANCH  32  33
ENDBRANCH  31  32
ENDBRANCH  30  31
ENDBRANCH   1  30
TORSDOF 27
ENDMDL
