MODEL 1
REMARK VINA RESULT:      -9.1      0.000      0.000
REMARK SMILES COc1ccc2c(c1)c(CC(=O)OCCOCCOCCOCCOC(=O)c1ccc(-c3c4nc(c(-c5cc(S(=O)(=O)[O-])ccc5F)c5ccc([nH]5)c(-c5cc(S(=O)(=O)[O-])ccc5F)c5nc(c(-c6cc(S(=O)(=O)[O-])ccc6F)c6ccc3[nH]6)C=C5)C=C4)cc1)c(C)n2C(=O)c1ccc(Cl)cc1
REMARK SMILES IDX 19 1 18 2 17 3 16 4 15 5 14 6 13 7 11 8 12 9 10 10 9 11 3 12
REMARK SMILES IDX 4 13 8 14 5 15 7 16 6 17 93 18 91 19 92 20 2 21 1 22 94 23
REMARK SMILES IDX 95 24 96 25 97 26 102 27 98 28 101 29 99 30 100 31 20 32
REMARK SMILES IDX 21 33 22 34 23 35 24 36 25 37 26 38 27 39 28 40 29 41 90 42
REMARK SMILES IDX 30 43 89 44 31 45 32 46 33 47 83 48 34 49 88 50 82 51 84 52
REMARK SMILES IDX 35 53 87 54 81 55 80 56 36 58 68 59 48 60 67 61 49 62 52 63
REMARK SMILES IDX 66 64 85 65 50 66 51 67 65 69 86 70 53 71 37 72 38 73 46 74
REMARK SMILES IDX 39 75 45 76 47 77 44 78 40 79 41 80 42 81 43 82 69 83 70 84
REMARK SMILES IDX 78 85 71 86 77 87 79 88 76 89 72 90 73 91 74 92 75 93 54 94
REMARK SMILES IDX 55 95 63 96 56 97 62 98 64 99 61 100 57 101 58 102 59 103
REMARK SMILES IDX 60 104
REMARK H PARENT 84 57 52 68
REMARK Flexibility Score: inf
ROOT
ATOM      1  O   UNL A   1      39.419  21.205  25.663  1.00  0.00    -0.377 OA
ENDROOT
BRANCH   1   2
ATOM      2  C   UNL A   1      38.297  21.908  26.115  1.00  0.00     0.188 C 
BRANCH   2   3
ATOM      3  C   UNL A   1      38.141  23.412  25.900  1.00  0.00     0.188 C 
BRANCH   3   4
ATOM      4  O   UNL A   1      36.942  23.862  25.266  1.00  0.00    -0.376 OA
BRANCH   4   5
ATOM      5  C   UNL A   1      35.857  22.947  25.217  1.00  0.00     0.202 C 
BRANCH   5   6
ATOM      6  C   UNL A   1      35.314  22.729  23.788  1.00  0.00     0.261 C 
BRANCH   6   7
ATOM      7  O   UNL A   1      33.987  22.139  23.741  1.00  0.00    -0.463 OA
BRANCH   7   8
ATOM      8  C   UNL A   1      33.184  22.554  22.729  1.00  0.00     0.310 C 
ATOM      9  O   UNL A   1      32.451  21.792  22.098  1.00  0.00    -0.252 OA
BRANCH   8  10
ATOM     10  C   UNL A   1      33.196  24.047  22.401  1.00  0.00     0.160 C 
BRANCH  10  11
ATOM     11  C   UNL A   1      32.551  25.103  23.288  1.00  0.00    -0.008 A 
ATOM     12  C   UNL A   1      30.353  23.773  26.155  1.00  0.00     0.119 A 
ATOM     13  C   UNL A   1      30.076  25.003  26.719  1.00  0.00     0.048 A 
ATOM     14  C   UNL A   1      31.008  23.713  24.912  1.00  0.00     0.057 A 
ATOM     15  C   UNL A   1      30.517  26.174  26.104  1.00  0.00     0.031 A 
ATOM     16  C   UNL A   1      31.592  24.882  24.340  1.00  0.00     0.008 A 
ATOM     17  C   UNL A   1      31.312  26.120  24.935  1.00  0.00     0.057 A 
ATOM     18  N   UNL A   1      31.918  27.126  24.158  1.00  0.00    -0.280 N 
ATOM     19  C   UNL A   1      32.675  26.486  23.158  1.00  0.00     0.028 A 
ATOM     20  C   UNL A   1      33.501  27.190  22.124  1.00  0.00     0.065 C 
BRANCH  12  21
ATOM     21  O   UNL A   1      30.084  22.571  26.756  1.00  0.00    -0.497 OA
ATOM     22  C   UNL A   1      28.797  22.434  27.366  1.00  0.00     0.278 C 
ENDBRANCH  12  21
BRANCH  18  23
ATOM     23  C   UNL A   1      31.746  28.534  24.344  1.00  0.00     0.262 C 
ATOM     24  O   UNL A   1      30.927  29.145  23.661  1.00  0.00    -0.268 OA
BRANCH  23  25
ATOM     25  C   UNL A   1      32.431  29.351  25.362  1.00  0.00     0.040 A 
ATOM     26  C   UNL A   1      33.705  28.991  25.819  1.00  0.00     0.015 A 
ATOM     27  C   UNL A   1      31.778  30.478  25.879  1.00  0.00     0.015 A 
ATOM     28  C   UNL A   1      34.295  29.725  26.853  1.00  0.00     0.021 A 
ATOM     29  C   UNL A   1      32.375  31.210  26.907  1.00  0.00     0.021 A 
ATOM     30  C   UNL A   1      33.623  30.822  27.399  1.00  0.00     0.041 A 
ATOM     31  Cl  UNL A   1      34.328  31.693  28.706  1.00  0.00    -0.084 Cl
ENDBRANCH  23  25
ENDBRANCH  18  23
ENDBRANCH  10  11
ENDBRANCH   8  10
ENDBRANCH   7   8
ENDBRANCH   6   7
ENDBRANCH   5   6
ENDBRANCH   4   5
ENDBRANCH   3   4
ENDBRANCH   2   3
ENDBRANCH   1   2
BRANCH   1  32
ATOM     32  C   UNL A   1      40.469  21.040  26.560  1.00  0.00     0.188 C 
BRANCH  32  33
ATOM     33  C   UNL A   1      41.124  19.661  26.468  1.00  0.00     0.188 C 
BRANCH  33  34
ATOM     34  O   UNL A   1      42.052  19.338  25.435  1.00  0.00    -0.376 OA
BRANCH  34  35
ATOM     35  C   UNL A   1      43.222  18.580  25.700  1.00  0.00     0.202 C 
BRANCH  35  36
ATOM     36  C   UNL A   1      44.572  18.958  25.051  1.00  0.00     0.261 C 
BRANCH  36  37
ATOM     37  O   UNL A   1      45.001  20.295  25.304  1.00  0.00    -0.460 OA
BRANCH  37  38
ATOM     38  C   UNL A   1      44.702  21.247  24.371  1.00  0.00     0.338 C 
ATOM     39  O   UNL A   1      44.618  21.122  23.185  1.00  0.00    -0.246 OA
BRANCH  38  40
ATOM     40  C   UNL A   1      44.188  22.383  25.178  1.00  0.00     0.060 A 
ATOM     41  C   UNL A   1      44.308  23.701  24.719  1.00  0.00     0.016 A 
ATOM     42  C   UNL A   1      43.987  22.103  26.534  1.00  0.00     0.016 A 
ATOM     43  C   UNL A   1      44.399  24.728  25.657  1.00  0.00     0.010 A 
ATOM     44  C   UNL A   1      44.128  23.125  27.466  1.00  0.00     0.010 A 
ATOM     45  C   UNL A   1      44.398  24.426  27.031  1.00  0.00    -0.014 A 
BRANCH  45  46
ATOM     46  C   UNL A   1      44.425  25.536  27.987  1.00  0.00     0.031 A 
ATOM     47  C   UNL A   1      43.141  26.272  27.968  1.00  0.00     0.074 A 
ATOM     48  C   UNL A   1      45.360  25.803  28.922  1.00  0.00     0.049 A 
ATOM     49  N   UNL A   1      42.915  27.482  27.576  1.00  0.00    -0.248 NA
ATOM     50  C   UNL A   1      41.930  25.471  28.217  1.00  0.00     0.031 C 
ATOM     51  C   UNL A   1      46.489  24.961  29.310  1.00  0.00     0.029 A 
ATOM     52  N   UNL A   1      45.421  26.830  29.828  1.00  0.00    -0.354 N 
ATOM     53  C   UNL A   1      41.541  27.646  27.719  1.00  0.00     0.074 A 
ATOM     54  C   UNL A   1      40.985  26.325  27.841  1.00  0.00     0.031 C 
ATOM     55  C   UNL A   1      46.982  25.388  30.493  1.00  0.00     0.029 A 
ATOM     56  C   UNL A   1      46.248  26.570  30.916  1.00  0.00     0.049 A 
ATOM     57  H   UNL A   1      44.926  27.674  29.718  1.00  0.00     0.167 HD
ATOM     58  C   UNL A   1      40.982  28.850  28.020  1.00  0.00     0.034 A 
ATOM     59  C   UNL A   1      46.220  27.168  32.138  1.00  0.00     0.034 A 
ATOM     60  C   UNL A   1      41.898  29.931  27.786  1.00  0.00     0.049 A 
ATOM     61  C   UNL A   1      45.480  28.448  32.024  1.00  0.00     0.074 A 
ATOM     62  C   UNL A   1      42.597  30.384  26.685  1.00  0.00     0.029 A 
ATOM     63  N   UNL A   1      42.489  30.516  28.880  1.00  0.00    -0.354 N 
ATOM     64  N   UNL A   1      45.914  29.500  31.390  1.00  0.00    -0.248 NA
ATOM     65  C   UNL A   1      44.044  28.410  32.263  1.00  0.00     0.031 C 
ATOM     66  C   UNL A   1      43.836  30.854  27.197  1.00  0.00     0.029 A 
ATOM     67  C   UNL A   1      43.812  30.708  28.586  1.00  0.00     0.049 A 
ATOM     68  H   UNL A   1      42.041  30.754  29.723  1.00  0.00     0.167 HD
ATOM     69  C   UNL A   1      44.790  30.001  30.752  1.00  0.00     0.074 A 
ATOM     70  C   UNL A   1      43.656  29.359  31.410  1.00  0.00     0.031 C 
ATOM     71  C   UNL A   1      44.884  30.659  29.560  1.00  0.00     0.034 A 
BRANCH  58  72
ATOM     72  C   UNL A   1      39.739  28.982  28.867  1.00  0.00     0.023 A 
ATOM     73  C   UNL A   1      39.755  28.888  30.272  1.00  0.00     0.031 A 
ATOM     74  C   UNL A   1      38.528  29.415  28.302  1.00  0.00     0.131 A 
ATOM     75  C   UNL A   1      38.626  29.150  31.052  1.00  0.00     0.055 A 
ATOM     76  C   UNL A   1      37.418  29.764  29.084  1.00  0.00     0.041 A 
ATOM     77  F   UNL A   1      38.403  29.573  26.974  1.00  0.00    -0.206 F 
ATOM     78  C   UNL A   1      37.460  29.623  30.468  1.00  0.00     0.022 A 
BRANCH  75  79
ATOM     79  S   UNL A   1      38.679  28.868  32.843  1.00  0.00     0.124 S 
ATOM     80  O   UNL A   1      37.286  28.552  33.137  1.00  0.00    -0.237 OA
ATOM     81  O   UNL A   1      39.619  27.755  32.939  1.00  0.00    -0.237 OA
ATOM     82  O   UNL A   1      39.170  30.137  33.375  1.00  0.00    -0.744 OA
ENDBRANCH  75  79
ENDBRANCH  58  72
BRANCH  59  83
ATOM     83  C   UNL A   1      46.350  26.460  33.443  1.00  0.00     0.023 A 
ATOM     84  C   UNL A   1      47.427  26.763  34.296  1.00  0.00     0.031 A 
ATOM     85  C   UNL A   1      45.612  25.301  33.744  1.00  0.00     0.131 A 
ATOM     86  C   UNL A   1      47.767  25.927  35.366  1.00  0.00     0.055 A 
ATOM     87  C   UNL A   1      45.945  24.467  34.823  1.00  0.00     0.041 A 
ATOM     88  F   UNL A   1      44.595  24.917  32.957  1.00  0.00    -0.206 F 
ATOM     89  C   UNL A   1      47.034  24.775  35.637  1.00  0.00     0.022 A 
BRANCH  86  90
ATOM     90  S   UNL A   1      49.220  26.323  36.374  1.00  0.00     0.124 S 
ATOM     91  O   UNL A   1      49.264  27.782  36.308  1.00  0.00    -0.237 OA
ATOM     92  O   UNL A   1      48.846  25.759  37.666  1.00  0.00    -0.237 OA
ATOM     93  O   UNL A   1      50.308  25.644  35.675  1.00  0.00    -0.744 OA
ENDBRANCH  86  90
ENDBRANCH  59  83
BRANCH  71  94
ATOM     94  C   UNL A   1      46.230  31.141  29.073  1.00  0.00     0.023 A 
ATOM     95  C   UNL A   1      47.026  30.191  28.406  1.00  0.00     0.031 A 
ATOM     96  C   UNL A   1      46.836  32.353  29.450  1.00  0.00     0.131 A 
ATOM     97  C   UNL A   1      48.387  30.429  28.194  1.00  0.00     0.055 A 
ATOM     98  C   UNL A   1      48.180  32.620  29.163  1.00  0.00     0.041 A 
ATOM     99  F   UNL A   1      46.189  33.267  30.187  1.00  0.00    -0.206 F 
ATOM    100  C   UNL A   1      48.968  31.647  28.554  1.00  0.00     0.022 A 
BRANCH  97 101
ATOM    101  S   UNL A   1      49.464  29.088  27.624  1.00  0.00     0.124 S 
ATOM    102  O   UNL A   1      50.636  29.250  28.479  1.00  0.00    -0.237 OA
ATOM    103  O   UNL A   1      48.651  27.902  27.890  1.00  0.00    -0.237 OA
ATOM    104  O   UNL A   1      49.676  29.382  26.210  1.00  0.00    -0.744 OA
ENDBRANCH  97 101
ENDBRANCH  71  94
ENDBRANCH  45  46
ENDBRANCH  38  40
ENDBRANCH  37  38
ENDBRANCH  36  37
ENDBRANCH  35  36
ENDBRANCH  34  35
ENDBRANCH  33  34
ENDBRANCH  32  33
ENDBRANCH   1  32
TORSDOF 27
ENDMDL
MODEL 2
REMARK VINA RESULT:      -9.0      1.954      2.162
REMARK SMILES COc1ccc2c(c1)c(CC(=O)OCCOCCOCCOCCOC(=O)c1ccc(-c3c4nc(c(-c5cc(S(=O)(=O)[O-])ccc5F)c5ccc([nH]5)c(-c5cc(S(=O)(=O)[O-])ccc5F)c5nc(c(-c6cc(S(=O)(=O)[O-])ccc6F)c6ccc3[nH]6)C=C5)C=C4)cc1)c(C)n2C(=O)c1ccc(Cl)cc1
REMARK SMILES IDX 19 1 18 2 17 3 16 4 15 5 14 6 13 7 11 8 12 9 10 10 9 11 3 12
REMARK SMILES IDX 4 13 8 14 5 15 7 16 6 17 93 18 91 19 92 20 2 21 1 22 94 23
REMARK SMILES IDX 95 24 96 25 97 26 102 27 98 28 101 29 99 30 100 31 20 32
REMARK SMILES IDX 21 33 22 34 23 35 24 36 25 37 26 38 27 39 28 40 29 41 90 42
REMARK SMILES IDX 30 43 89 44 31 45 32 46 33 47 83 48 34 49 88 50 82 51 84 52
REMARK SMILES IDX 35 53 87 54 81 55 80 56 36 58 68 59 48 60 67 61 49 62 52 63
REMARK SMILES IDX 66 64 85 65 50 66 51 67 65 69 86 70 53 71 37 72 38 73 46 74
REMARK SMILES IDX 39 75 45 76 47 77 44 78 40 79 41 80 42 81 43 82 69 83 70 84
REMARK SMILES IDX 78 85 71 86 77 87 79 88 76 89 72 90 73 91 74 92 75 93 54 94
REMARK SMILES IDX 55 95 63 96 56 97 62 98 64 99 61 100 57 101 58 102 59 103
REMARK SMILES IDX 60 104
REMARK H PARENT 84 57 52 68
REMARK Flexibility Score: inf
ROOT
ATOM      1  O   UNL A   1      39.247  20.826  25.471  1.00  0.00    -0.377 OA
ENDROOT
BRANCH   1   2
ATOM      2  C   UNL A   1      38.105  21.603  25.696  1.00  0.00     0.188 C 
BRANCH   2   3
ATOM      3  C   UNL A   1      38.182  23.107  25.945  1.00  0.00     0.188 C 
BRANCH   3   4
ATOM      4  O   UNL A   1      37.202  23.928  25.309  1.00  0.00    -0.376 OA
BRANCH   4   5
ATOM      5  C   UNL A   1      35.953  23.324  25.005  1.00  0.00     0.202 C 
BRANCH   5   6
ATOM      6  C   UNL A   1      35.543  23.492  23.526  1.00  0.00     0.261 C 
BRANCH   6   7
ATOM      7  O   UNL A   1      34.264  22.887  23.192  1.00  0.00    -0.463 OA
BRANCH   7   8
ATOM      8  C   UNL A   1      33.590  23.447  22.157  1.00  0.00     0.310 C 
ATOM      9  O   UNL A   1      33.002  22.784  21.302  1.00  0.00    -0.252 OA
BRANCH   8  10
ATOM     10  C   UNL A   1      33.557  24.974  22.096  1.00  0.00     0.160 C 
BRANCH  10  11
ATOM     11  C   UNL A   1      32.794  25.835  23.095  1.00  0.00    -0.008 A 
ATOM     12  C   UNL A   1      30.605  23.930  25.625  1.00  0.00     0.119 A 
ATOM     13  C   UNL A   1      30.208  25.038  26.348  1.00  0.00     0.048 A 
ATOM     14  C   UNL A   1      31.309  24.106  24.421  1.00  0.00     0.057 A 
ATOM     15  C   UNL A   1      30.574  26.318  25.932  1.00  0.00     0.031 A 
ATOM     16  C   UNL A   1      31.817  25.388  24.055  1.00  0.00     0.008 A 
ATOM     17  C   UNL A   1      31.414  26.498  24.809  1.00  0.00     0.057 A 
ATOM     18  N   UNL A   1      31.965  27.651  24.218  1.00  0.00    -0.280 N 
ATOM     19  C   UNL A   1      32.809  27.227  23.173  1.00  0.00     0.028 A 
ATOM     20  C   UNL A   1      33.613  28.137  22.296  1.00  0.00     0.065 C 
BRANCH  12  21
ATOM     21  O   UNL A   1      30.413  22.635  26.030  1.00  0.00    -0.497 OA
ATOM     22  C   UNL A   1      31.546  21.964  26.590  1.00  0.00     0.278 C 
ENDBRANCH  12  21
BRANCH  18  23
ATOM     23  C   UNL A   1      31.672  28.999  24.598  1.00  0.00     0.262 C 
ATOM     24  O   UNL A   1      30.707  29.578  24.103  1.00  0.00    -0.268 OA
BRANCH  23  25
ATOM     25  C   UNL A   1      32.398  29.777  25.618  1.00  0.00     0.040 A 
ATOM     26  C   UNL A   1      33.683  29.391  26.019  1.00  0.00     0.015 A 
ATOM     27  C   UNL A   1      31.772  30.890  26.195  1.00  0.00     0.015 A 
ATOM     28  C   UNL A   1      34.315  30.086  27.056  1.00  0.00     0.021 A 
ATOM     29  C   UNL A   1      32.411  31.582  27.227  1.00  0.00     0.021 A 
ATOM     30  C   UNL A   1      33.672  31.169  27.661  1.00  0.00     0.041 A 
ATOM     31  Cl  UNL A   1      34.428  31.989  28.972  1.00  0.00    -0.084 Cl
ENDBRANCH  23  25
ENDBRANCH  18  23
ENDBRANCH  10  11
ENDBRANCH   8  10
ENDBRANCH   7   8
ENDBRANCH   6   7
ENDBRANCH   5   6
ENDBRANCH   4   5
ENDBRANCH   3   4
ENDBRANCH   2   3
ENDBRANCH   1   2
BRANCH   1  32
ATOM     32  C   UNL A   1      40.296  20.965  26.373  1.00  0.00     0.188 C 
BRANCH  32  33
ATOM     33  C   UNL A   1      41.097  19.676  26.563  1.00  0.00     0.188 C 
BRANCH  33  34
ATOM     34  O   UNL A   1      41.952  19.166  25.542  1.00  0.00    -0.376 OA
BRANCH  34  35
ATOM     35  C   UNL A   1      43.133  18.444  25.857  1.00  0.00     0.202 C 
BRANCH  35  36
ATOM     36  C   UNL A   1      44.472  18.778  25.164  1.00  0.00     0.261 C 
BRANCH  36  37
ATOM     37  O   UNL A   1      44.938  20.110  25.380  1.00  0.00    -0.460 OA
BRANCH  37  38
ATOM     38  C   UNL A   1      44.646  21.048  24.431  1.00  0.00     0.338 C 
ATOM     39  O   UNL A   1      44.582  20.909  23.246  1.00  0.00    -0.246 OA
BRANCH  38  40
ATOM     40  C   UNL A   1      44.109  22.189  25.216  1.00  0.00     0.060 A 
ATOM     41  C   UNL A   1      44.213  23.501  24.739  1.00  0.00     0.016 A 
ATOM     42  C   UNL A   1      43.901  21.926  26.575  1.00  0.00     0.016 A 
ATOM     43  C   UNL A   1      44.281  24.544  25.662  1.00  0.00     0.010 A 
ATOM     44  C   UNL A   1      44.019  22.964  27.493  1.00  0.00     0.010 A 
ATOM     45  C   UNL A   1      44.274  24.262  27.040  1.00  0.00    -0.014 A 
BRANCH  45  46
ATOM     46  C   UNL A   1      44.277  25.387  27.979  1.00  0.00     0.031 A 
ATOM     47  C   UNL A   1      42.974  26.090  27.955  1.00  0.00     0.074 A 
ATOM     48  C   UNL A   1      45.208  25.691  28.906  1.00  0.00     0.049 A 
ATOM     49  N   UNL A   1      42.716  27.287  27.545  1.00  0.00    -0.248 NA
ATOM     50  C   UNL A   1      41.785  25.263  28.221  1.00  0.00     0.031 C 
ATOM     51  C   UNL A   1      46.360  24.884  29.301  1.00  0.00     0.029 A 
ATOM     52  N   UNL A   1      45.247  26.733  29.796  1.00  0.00    -0.354 N 
ATOM     53  C   UNL A   1      41.339  27.420  27.692  1.00  0.00     0.074 A 
ATOM     54  C   UNL A   1      40.817  26.087  27.836  1.00  0.00     0.031 C 
ATOM     55  C   UNL A   1      46.847  25.341  30.475  1.00  0.00     0.029 A 
ATOM     56  C   UNL A   1      46.085  26.510  30.885  1.00  0.00     0.049 A 
ATOM     57  H   UNL A   1      44.731  27.562  29.676  1.00  0.00     0.167 HD
ATOM     58  C   UNL A   1      40.751  28.614  27.978  1.00  0.00     0.034 A 
ATOM     59  C   UNL A   1      46.046  27.125  32.097  1.00  0.00     0.034 A 
ATOM     60  C   UNL A   1      41.639  29.713  27.724  1.00  0.00     0.049 A 
ATOM     61  C   UNL A   1      45.274  28.385  31.967  1.00  0.00     0.074 A 
ATOM     62  C   UNL A   1      42.322  30.167  26.613  1.00  0.00     0.029 A 
ATOM     63  N   UNL A   1      42.220  30.329  28.806  1.00  0.00    -0.354 N 
ATOM     64  N   UNL A   1      45.679  29.438  31.316  1.00  0.00    -0.248 NA
ATOM     65  C   UNL A   1      43.841  28.315  32.214  1.00  0.00     0.031 C 
ATOM     66  C   UNL A   1      43.551  30.676  27.113  1.00  0.00     0.029 A 
ATOM     67  C   UNL A   1      43.536  30.551  28.503  1.00  0.00     0.049 A 
ATOM     68  H   UNL A   1      41.769  30.569  29.648  1.00  0.00     0.167 HD
ATOM     69  C   UNL A   1      44.540  29.901  30.676  1.00  0.00     0.074 A 
ATOM     70  C   UNL A   1      43.426  29.241  31.348  1.00  0.00     0.031 C 
ATOM     71  C   UNL A   1      44.612  30.543  29.473  1.00  0.00     0.034 A 
BRANCH  58  72
ATOM     72  C   UNL A   1      39.509  28.727  28.828  1.00  0.00     0.023 A 
ATOM     73  C   UNL A   1      39.506  28.492  30.217  1.00  0.00     0.031 A 
ATOM     74  C   UNL A   1      38.328  29.279  28.304  1.00  0.00     0.131 A 
ATOM     75  C   UNL A   1      38.385  28.736  31.014  1.00  0.00     0.055 A 
ATOM     76  C   UNL A   1      37.231  29.607  29.112  1.00  0.00     0.041 A 
ATOM     77  F   UNL A   1      38.225  29.574  26.998  1.00  0.00    -0.206 F 
ATOM     78  C   UNL A   1      37.252  29.326  30.475  1.00  0.00     0.022 A 
BRANCH  75  79
ATOM     79  S   UNL A   1      38.405  28.274  32.768  1.00  0.00     0.124 S 
ATOM     80  O   UNL A   1      37.181  28.899  33.256  1.00  0.00    -0.237 OA
ATOM     81  O   UNL A   1      38.389  26.816  32.690  1.00  0.00    -0.237 OA
ATOM     82  O   UNL A   1      39.655  28.850  33.259  1.00  0.00    -0.744 OA
ENDBRANCH  75  79
ENDBRANCH  58  72
BRANCH  59  83
ATOM     83  C   UNL A   1      46.199  26.441  33.413  1.00  0.00     0.023 A 
ATOM     84  C   UNL A   1      45.066  25.919  34.063  1.00  0.00     0.031 A 
ATOM     85  C   UNL A   1      47.377  26.538  34.175  1.00  0.00     0.131 A 
ATOM     86  C   UNL A   1      45.104  25.553  35.413  1.00  0.00     0.055 A 
ATOM     87  C   UNL A   1      47.421  26.161  35.527  1.00  0.00     0.041 A 
ATOM     88  F   UNL A   1      48.491  27.063  33.644  1.00  0.00    -0.206 F 
ATOM     89  C   UNL A   1      46.276  25.673  36.155  1.00  0.00     0.022 A 
BRANCH  86  90
ATOM     90  S   UNL A   1      43.588  24.972  36.218  1.00  0.00     0.124 S 
ATOM     91  O   UNL A   1      42.713  26.139  36.125  1.00  0.00    -0.237 OA
ATOM     92  O   UNL A   1      43.223  23.839  35.378  1.00  0.00    -0.237 OA
ATOM     93  O   UNL A   1      44.032  24.644  37.571  1.00  0.00    -0.744 OA
ENDBRANCH  86  90
ENDBRANCH  59  83
BRANCH  71  94
ATOM     94  C   UNL A   1      45.944  31.051  28.973  1.00  0.00     0.023 A 
ATOM     95  C   UNL A   1      46.064  32.446  28.833  1.00  0.00     0.031 A 
ATOM     96  C   UNL A   1      46.953  30.248  28.410  1.00  0.00     0.131 A 
ATOM     97  C   UNL A   1      47.117  32.997  28.097  1.00  0.00     0.055 A 
ATOM     98  C   UNL A   1      48.048  30.809  27.743  1.00  0.00     0.041 A 
ATOM     99  F   UNL A   1      46.864  28.910  28.395  1.00  0.00    -0.206 F 
ATOM    100  C   UNL A   1      48.122  32.187  27.563  1.00  0.00     0.022 A 
BRANCH  97 101
ATOM    101  S   UNL A   1      47.092  34.755  27.656  1.00  0.00     0.124 S 
ATOM    102  O   UNL A   1      45.672  35.078  27.755  1.00  0.00    -0.237 OA
ATOM    103  O   UNL A   1      47.944  35.346  28.688  1.00  0.00    -0.237 OA
ATOM    104  O   UNL A   1      47.650  34.788  26.307  1.00  0.00    -0.744 OA
ENDBRANCH  97 101
ENDBRANCH  71  94
ENDBRANCH  45  46
ENDBRANCH  38  40
ENDBRANCH  37  38
ENDBRANCH  36  37
ENDBRANCH  35  36
ENDBRANCH  34  35
ENDBRANCH  33  34
ENDBRANCH  32  33
ENDBRANCH   1  32
TORSDOF 27
ENDMDL
MODEL 3
REMARK VINA RESULT:      -9.0      3.276      7.952
REMARK SMILES COc1ccc2c(c1)c(CC(=O)OCCOCCOCCOCCOC(=O)c1ccc(-c3c4nc(c(-c5cc(S(=O)(=O)[O-])ccc5F)c5ccc([nH]5)c(-c5cc(S(=O)(=O)[O-])ccc5F)c5nc(c(-c6cc(S(=O)(=O)[O-])ccc6F)c6ccc3[nH]6)C=C5)C=C4)cc1)c(C)n2C(=O)c1ccc(Cl)cc1
REMARK SMILES IDX 19 1 18 2 17 3 16 4 15 5 14 6 13 7 11 8 12 9 10 10 9 11 3 12
REMARK SMILES IDX 4 13 8 14 5 15 7 16 6 17 93 18 91 19 92 20 2 21 1 22 94 23
REMARK SMILES IDX 95 24 96 25 97 26 102 27 98 28 101 29 99 30 100 31 20 32
REMARK SMILES IDX 21 33 22 34 23 35 24 36 25 37 26 38 27 39 28 40 29 41 90 42
REMARK SMILES IDX 30 43 89 44 31 45 32 46 33 47 83 48 34 49 88 50 82 51 84 52
REMARK SMILES IDX 35 53 87 54 81 55 80 56 36 58 68 59 48 60 67 61 49 62 52 63
REMARK SMILES IDX 66 64 85 65 50 66 51 67 65 69 86 70 53 71 37 72 38 73 46 74
REMARK SMILES IDX 39 75 45 76 47 77 44 78 40 79 41 80 42 81 43 82 69 83 70 84
REMARK SMILES IDX 78 85 71 86 77 87 79 88 76 89 72 90 73 91 74 92 75 93 54 94
REMARK SMILES IDX 55 95 63 96 56 97 62 98 64 99 61 100 57 101 58 102 59 103
REMARK SMILES IDX 60 104
REMARK H PARENT 84 57 52 68
REMARK Flexibility Score: inf
ROOT
ATOM      1  O   UNL A   1      43.493  19.423  25.060  1.00  0.00    -0.377 OA
ENDROOT
BRANCH   1   2
ATOM      2  C   UNL A   1      42.882  18.692  26.085  1.00  0.00     0.188 C 
BRANCH   2   3
ATOM      3  C   UNL A   1      42.093  19.366  27.205  1.00  0.00     0.188 C 
BRANCH   3   4
ATOM      4  O   UNL A   1      40.782  19.838  26.891  1.00  0.00    -0.376 OA
BRANCH   4   5
ATOM      5  C   UNL A   1      40.145  19.266  25.758  1.00  0.00     0.202 C 
BRANCH   5   6
ATOM      6  C   UNL A   1      38.800  19.942  25.414  1.00  0.00     0.261 C 
BRANCH   6   7
ATOM      7  O   UNL A   1      38.411  20.994  26.339  1.00  0.00    -0.463 OA
BRANCH   7   8
ATOM      8  C   UNL A   1      38.154  22.207  25.789  1.00  0.00     0.310 C 
ATOM      9  O   UNL A   1      38.812  23.215  26.051  1.00  0.00    -0.252 OA
BRANCH   8  10
ATOM     10  C   UNL A   1      37.005  22.285  24.784  1.00  0.00     0.160 C 
BRANCH  10  11
ATOM     11  C   UNL A   1      35.546  22.065  25.164  1.00  0.00    -0.008 A 
ATOM     12  C   UNL A   1      34.216  18.481  24.714  1.00  0.00     0.119 A 
ATOM     13  C   UNL A   1      32.962  18.715  25.242  1.00  0.00     0.048 A 
ATOM     14  C   UNL A   1      35.079  19.564  24.473  1.00  0.00     0.057 A 
ATOM     15  C   UNL A   1      32.585  20.006  25.613  1.00  0.00     0.031 A 
ATOM     16  C   UNL A   1      34.774  20.864  24.974  1.00  0.00     0.008 A 
ATOM     17  C   UNL A   1      33.501  21.079  25.521  1.00  0.00     0.057 A 
ATOM     18  N   UNL A   1      33.399  22.440  25.867  1.00  0.00    -0.280 N 
ATOM     19  C   UNL A   1      34.660  23.027  25.646  1.00  0.00     0.028 A 
ATOM     20  C   UNL A   1      34.996  24.464  25.908  1.00  0.00     0.065 C 
BRANCH  12  21
ATOM     21  O   UNL A   1      34.722  17.234  24.454  1.00  0.00    -0.497 OA
ATOM     22  C   UNL A   1      34.223  16.159  25.255  1.00  0.00     0.278 C 
ENDBRANCH  12  21
BRANCH  18  23
ATOM     23  C   UNL A   1      32.208  23.094  26.317  1.00  0.00     0.262 C 
ATOM     24  O   UNL A   1      31.779  22.871  27.448  1.00  0.00    -0.268 OA
BRANCH  23  25
ATOM     25  C   UNL A   1      31.447  24.102  25.558  1.00  0.00     0.040 A 
ATOM     26  C   UNL A   1      31.136  23.886  24.210  1.00  0.00     0.015 A 
ATOM     27  C   UNL A   1      31.063  25.287  26.200  1.00  0.00     0.015 A 
ATOM     28  C   UNL A   1      30.497  24.896  23.483  1.00  0.00     0.021 A 
ATOM     29  C   UNL A   1      30.421  26.290  25.469  1.00  0.00     0.021 A 
ATOM     30  C   UNL A   1      30.154  26.096  24.113  1.00  0.00     0.041 A 
ATOM     31  Cl  UNL A   1      29.415  27.358  23.204  1.00  0.00    -0.084 Cl
ENDBRANCH  23  25
ENDBRANCH  18  23
ENDBRANCH  10  11
ENDBRANCH   8  10
ENDBRANCH   7   8
ENDBRANCH   6   7
ENDBRANCH   5   6
ENDBRANCH   4   5
ENDBRANCH   3   4
ENDBRANCH   2   3
ENDBRANCH   1   2
BRANCH   1  32
ATOM     32  C   UNL A   1      44.682  18.920  24.544  1.00  0.00     0.188 C 
BRANCH  32  33
ATOM     33  C   UNL A   1      45.906  19.305  25.376  1.00  0.00     0.188 C 
BRANCH  33  34
ATOM     34  O   UNL A   1      46.344  20.658  25.488  1.00  0.00    -0.376 OA
BRANCH  34  35
ATOM     35  C   UNL A   1      46.215  21.570  24.409  1.00  0.00     0.202 C 
BRANCH  35  36
ATOM     36  C   UNL A   1      45.191  22.725  24.469  1.00  0.00     0.261 C 
BRANCH  36  37
ATOM     37  O   UNL A   1      44.427  22.783  25.674  1.00  0.00    -0.460 OA
BRANCH  37  38
ATOM     38  C   UNL A   1      43.075  22.941  25.562  1.00  0.00     0.338 C 
ATOM     39  O   UNL A   1      42.264  22.145  25.192  1.00  0.00    -0.246 OA
BRANCH  38  40
ATOM     40  C   UNL A   1      42.804  24.197  26.307  1.00  0.00     0.060 A 
ATOM     41  C   UNL A   1      43.549  25.355  26.053  1.00  0.00     0.016 A 
ATOM     42  C   UNL A   1      42.100  24.035  27.505  1.00  0.00     0.016 A 
ATOM     43  C   UNL A   1      43.723  26.276  27.086  1.00  0.00     0.010 A 
ATOM     44  C   UNL A   1      42.318  24.931  28.546  1.00  0.00     0.010 A 
ATOM     45  C   UNL A   1      43.180  26.015  28.357  1.00  0.00    -0.014 A 
BRANCH  45  46
ATOM     46  C   UNL A   1      43.325  27.037  29.398  1.00  0.00     0.031 A 
ATOM     47  C   UNL A   1      44.184  26.544  30.498  1.00  0.00     0.074 A 
ATOM     48  C   UNL A   1      42.933  28.327  29.353  1.00  0.00     0.049 A 
ATOM     49  N   UNL A   1      43.853  26.288  31.720  1.00  0.00    -0.248 NA
ATOM     50  C   UNL A   1      45.526  26.076  30.113  1.00  0.00     0.031 C 
ATOM     51  C   UNL A   1      42.411  29.054  28.198  1.00  0.00     0.029 A 
ATOM     52  N   UNL A   1      43.047  29.308  30.304  1.00  0.00    -0.354 N 
ATOM     53  C   UNL A   1      45.020  25.804  32.304  1.00  0.00     0.074 A 
ATOM     54  C   UNL A   1      45.897  25.445  31.222  1.00  0.00     0.031 C 
ATOM     55  C   UNL A   1      42.464  30.382  28.442  1.00  0.00     0.029 A 
ATOM     56  C   UNL A   1      42.962  30.599  29.791  1.00  0.00     0.049 A 
ATOM     57  H   UNL A   1      43.177  29.117  31.260  1.00  0.00     0.167 HD
ATOM     58  C   UNL A   1      45.306  25.999  33.621  1.00  0.00     0.034 A 
ATOM     59  C   UNL A   1      43.421  31.747  30.360  1.00  0.00     0.034 A 
ATOM     60  C   UNL A   1      44.140  26.389  34.363  1.00  0.00     0.049 A 
ATOM     61  C   UNL A   1      43.634  31.507  31.808  1.00  0.00     0.074 A 
ATOM     62  C   UNL A   1      42.901  25.822  34.582  1.00  0.00     0.029 A 
ATOM     63  N   UNL A   1      44.026  27.708  34.726  1.00  0.00    -0.354 N 
ATOM     64  N   UNL A   1      42.681  31.321  32.676  1.00  0.00    -0.248 NA
ATOM     65  C   UNL A   1      44.953  31.047  32.219  1.00  0.00     0.031 C 
ATOM     66  C   UNL A   1      41.995  26.916  34.639  1.00  0.00     0.029 A 
ATOM     67  C   UNL A   1      42.732  28.093  34.498  1.00  0.00     0.049 A 
ATOM     68  H   UNL A   1      44.746  28.275  35.087  1.00  0.00     0.167 HD
ATOM     69  C   UNL A   1      43.168  30.324  33.507  1.00  0.00     0.074 A 
ATOM     70  C   UNL A   1      44.603  30.273  33.247  1.00  0.00     0.031 C 
ATOM     71  C   UNL A   1      42.331  29.430  34.110  1.00  0.00     0.034 A 
BRANCH  58  72
ATOM     72  C   UNL A   1      46.716  26.184  34.129  1.00  0.00     0.023 A 
ATOM     73  C   UNL A   1      47.391  25.209  34.889  1.00  0.00     0.031 A 
ATOM     74  C   UNL A   1      47.502  27.262  33.688  1.00  0.00     0.131 A 
ATOM     75  C   UNL A   1      48.740  25.332  35.233  1.00  0.00     0.055 A 
ATOM     76  C   UNL A   1      48.875  27.346  33.956  1.00  0.00     0.041 A 
ATOM     77  F   UNL A   1      46.975  28.236  32.930  1.00  0.00    -0.206 F 
ATOM     78  C   UNL A   1      49.500  26.382  34.741  1.00  0.00     0.022 A 
BRANCH  75  79
ATOM     79  S   UNL A   1      49.506  24.112  36.335  1.00  0.00     0.124 S 
ATOM     80  O   UNL A   1      50.279  24.963  37.232  1.00  0.00    -0.237 OA
ATOM     81  O   UNL A   1      48.334  23.467  36.922  1.00  0.00    -0.237 OA
ATOM     82  O   UNL A   1      50.282  23.270  35.428  1.00  0.00    -0.744 OA
ENDBRANCH  75  79
ENDBRANCH  58  72
BRANCH  59  83
ATOM     83  C   UNL A   1      44.141  32.834  29.638  1.00  0.00     0.023 A 
ATOM     84  C   UNL A   1      43.436  33.976  29.216  1.00  0.00     0.031 A 
ATOM     85  C   UNL A   1      45.429  32.654  29.105  1.00  0.00     0.131 A 
ATOM     86  C   UNL A   1      43.979  34.865  28.282  1.00  0.00     0.055 A 
ATOM     87  C   UNL A   1      45.981  33.550  28.175  1.00  0.00     0.041 A 
ATOM     88  F   UNL A   1      46.153  31.569  29.422  1.00  0.00    -0.206 F 
ATOM     89  C   UNL A   1      45.251  34.659  27.753  1.00  0.00     0.022 A 
BRANCH  86  90
ATOM     90  S   UNL A   1      42.986  36.269  27.710  1.00  0.00     0.124 S 
ATOM     91  O   UNL A   1      42.426  35.772  26.456  1.00  0.00    -0.237 OA
ATOM     92  O   UNL A   1      42.039  36.427  28.808  1.00  0.00    -0.237 OA
ATOM     93  O   UNL A   1      43.971  37.337  27.562  1.00  0.00    -0.744 OA
ENDBRANCH  86  90
ENDBRANCH  59  83
BRANCH  71  94
ATOM     94  C   UNL A   1      40.846  29.703  34.151  1.00  0.00     0.023 A 
ATOM     95  C   UNL A   1      40.088  29.177  33.089  1.00  0.00     0.031 A 
ATOM     96  C   UNL A   1      40.221  30.631  35.003  1.00  0.00     0.131 A 
ATOM     97  C   UNL A   1      38.783  29.622  32.859  1.00  0.00     0.055 A 
ATOM     98  C   UNL A   1      38.887  31.013  34.818  1.00  0.00     0.041 A 
ATOM     99  F   UNL A   1      40.896  31.270  35.970  1.00  0.00    -0.206 F 
ATOM    100  C   UNL A   1      38.170  30.527  33.728  1.00  0.00     0.022 A 
BRANCH  97 101
ATOM    101  S   UNL A   1      37.932  29.181  31.322  1.00  0.00     0.124 S 
ATOM    102  O   UNL A   1      38.433  30.189  30.392  1.00  0.00    -0.237 OA
ATOM    103  O   UNL A   1      38.405  27.817  31.084  1.00  0.00    -0.237 OA
ATOM    104  O   UNL A   1      36.515  29.289  31.659  1.00  0.00    -0.744 OA
ENDBRANCH  97 101
ENDBRANCH  71  94
ENDBRANCH  45  46
ENDBRANCH  38  40
ENDBRANCH  37  38
ENDBRANCH  36  37
ENDBRANCH  35  36
ENDBRANCH  34  35
ENDBRANCH  33  34
ENDBRANCH  32  33
ENDBRANCH   1  32
TORSDOF 27
ENDMDL
