MODEL 1
REMARK VINA RESULT:      -9.5      0.000      0.000
REMARK SMILES Cc1cc(N2CCCC2)nc2sc3c(=O)n(CC(=O)OCCOCCOCCOCCOC(=O)c4ccc(-c5c6nc(c(-c7cc(S(=O)(=O)[O-])ccc7F)c7ccc([nH]7)c(-c7cc(S(=O)(=O)[O-])ccc7F)c7nc(c(-c8cc(S(=O)(=O)[O-])ccc8F)c8ccc5[nH]8)C=C7)C=C6)cc4)cnc3c12
REMARK SMILES IDX 27 1 26 2 25 3 24 4 23 5 22 6 21 7 20 8 18 9 19 10 17 11
REMARK SMILES IDX 16 12 1 13 2 14 3 15 101 16 4 17 11 18 100 19 10 20 12 21
REMARK SMILES IDX 13 22 99 23 14 24 98 25 15 26 5 27 6 28 9 29 7 30 8 31 28 32
REMARK SMILES IDX 29 33 30 34 31 35 32 36 33 37 34 38 35 39 36 40 97 41 37 42
REMARK SMILES IDX 96 43 38 44 39 45 40 46 90 47 41 48 95 49 89 50 91 51 42 52
REMARK SMILES IDX 94 53 88 54 87 55 43 57 75 58 55 59 74 60 56 61 59 62 73 63
REMARK SMILES IDX 92 64 57 65 58 66 72 68 93 69 60 70 44 71 45 72 53 73 46 74
REMARK SMILES IDX 52 75 54 76 51 77 47 78 48 79 49 80 50 81 76 82 77 83 85 84
REMARK SMILES IDX 78 85 84 86 86 87 83 88 79 89 80 90 81 91 82 92 61 93 62 94
REMARK SMILES IDX 70 95 63 96 69 97 71 98 68 99 64 100 65 101 66 102 67 103
REMARK H PARENT 91 56 59 67
REMARK Flexibility Score: inf
ROOT
ATOM      1  C   UNL A   1      39.231  28.444  28.524  1.00  0.00     0.188 C 
ENDROOT
BRANCH   1   2
ATOM      2  O   UNL A   1      38.496  29.523  29.096  1.00  0.00    -0.377 OA
BRANCH   2   3
ATOM      3  C   UNL A   1      37.088  29.434  28.911  1.00  0.00     0.188 C 
BRANCH   3   4
ATOM      4  C   UNL A   1      36.630  30.050  27.573  1.00  0.00     0.188 C 
BRANCH   4   5
ATOM      5  O   UNL A   1      35.476  29.516  26.915  1.00  0.00    -0.376 OA
BRANCH   5   6
ATOM      6  C   UNL A   1      34.226  29.682  27.574  1.00  0.00     0.202 C 
BRANCH   6   7
ATOM      7  C   UNL A   1      33.136  30.121  26.582  1.00  0.00     0.261 C 
BRANCH   7   8
ATOM      8  O   UNL A   1      31.795  29.816  27.036  1.00  0.00    -0.462 OA
BRANCH   8   9
ATOM      9  C   UNL A   1      31.509  28.500  27.194  1.00  0.00     0.326 C 
ATOM     10  O   UNL A   1      31.256  27.968  28.274  1.00  0.00    -0.250 OA
BRANCH   9  11
ATOM     11  C   UNL A   1      31.506  27.687  25.895  1.00  0.00     0.249 C 
BRANCH  11  12
ATOM     12  N   UNL A   1      32.029  26.320  25.838  1.00  0.00    -0.287 N 
ATOM     13  C   UNL A   1      36.040  22.462  24.914  1.00  0.00     0.045 C 
ATOM     14  C   UNL A   1      34.696  21.799  25.027  1.00  0.00    -0.035 A 
ATOM     15  C   UNL A   1      34.651  20.398  24.918  1.00  0.00     0.051 A 
ATOM     16  C   UNL A   1      33.470  22.455  25.301  1.00  0.00     0.041 A 
ATOM     17  C   UNL A   1      33.450  19.695  24.964  1.00  0.00     0.130 A 
ATOM     18  C   UNL A   1      32.343  21.636  25.411  1.00  0.00     0.128 A 
ATOM     19  C   UNL A   1      33.072  23.823  25.465  1.00  0.00     0.098 A 
ATOM     20  N   UNL A   1      32.277  20.307  25.189  1.00  0.00    -0.220 NA
ATOM     21  S   UNL A   1      30.941  22.502  25.890  1.00  0.00    -0.108 S 
ATOM     22  C   UNL A   1      31.771  23.977  25.858  1.00  0.00     0.121 A 
ATOM     23  N   UNL A   1      33.897  24.934  25.215  1.00  0.00    -0.236 NA
ATOM     24  C   UNL A   1      31.174  25.259  26.131  1.00  0.00     0.271 A 
ATOM     25  C   UNL A   1      33.312  26.081  25.376  1.00  0.00     0.203 A 
ATOM     26  O   UNL A   1      30.026  25.437  26.531  1.00  0.00    -0.268 OA
BRANCH  17  27
ATOM     27  N   UNL A   1      33.471  18.351  24.692  1.00  0.00    -0.357 N 
ATOM     28  C   UNL A   1      34.575  17.689  24.020  1.00  0.00     0.118 C 
ATOM     29  C   UNL A   1      32.591  17.410  25.358  1.00  0.00     0.118 C 
ATOM     30  C   UNL A   1      33.954  16.346  23.651  1.00  0.00     0.023 C 
ATOM     31  C   UNL A   1      33.042  16.040  24.836  1.00  0.00     0.023 C 
ENDBRANCH  17  27
ENDBRANCH  11  12
ENDBRANCH   9  11
ENDBRANCH   8   9
ENDBRANCH   7   8
ENDBRANCH   6   7
ENDBRANCH   5   6
ENDBRANCH   4   5
ENDBRANCH   3   4
ENDBRANCH   2   3
ENDBRANCH   1   2
BRANCH   1  32
ATOM     32  C   UNL A   1      40.136  28.874  27.362  1.00  0.00     0.188 C 
BRANCH  32  33
ATOM     33  O   UNL A   1      40.624  27.760  26.607  1.00  0.00    -0.376 OA
BRANCH  33  34
ATOM     34  C   UNL A   1      41.789  27.121  27.127  1.00  0.00     0.202 C 
BRANCH  34  35
ATOM     35  C   UNL A   1      43.107  27.815  26.755  1.00  0.00     0.261 C 
BRANCH  35  36
ATOM     36  O   UNL A   1      43.511  28.871  27.638  1.00  0.00    -0.460 OA
BRANCH  36  37
ATOM     37  C   UNL A   1      44.336  29.801  27.110  1.00  0.00     0.338 C 
ATOM     38  O   UNL A   1      44.992  29.711  26.093  1.00  0.00    -0.246 OA
BRANCH  37  39
ATOM     39  C   UNL A   1      44.172  31.031  27.883  1.00  0.00     0.060 A 
ATOM     40  C   UNL A   1      43.870  30.953  29.246  1.00  0.00     0.016 A 
ATOM     41  C   UNL A   1      44.222  32.251  27.223  1.00  0.00     0.016 A 
ATOM     42  C   UNL A   1      43.586  32.112  29.957  1.00  0.00     0.010 A 
ATOM     43  C   UNL A   1      43.880  33.401  27.924  1.00  0.00     0.010 A 
ATOM     44  C   UNL A   1      43.520  33.338  29.283  1.00  0.00    -0.014 A 
BRANCH  44  45
ATOM     45  C   UNL A   1      42.935  34.507  29.982  1.00  0.00     0.031 A 
ATOM     46  C   UNL A   1      41.506  34.408  30.373  1.00  0.00     0.074 A 
ATOM     47  C   UNL A   1      43.721  35.263  30.784  1.00  0.00     0.049 A 
ATOM     48  N   UNL A   1      41.150  33.637  31.354  1.00  0.00    -0.248 NA
ATOM     49  C   UNL A   1      40.388  34.941  29.602  1.00  0.00     0.031 C 
ATOM     50  C   UNL A   1      45.058  34.849  31.248  1.00  0.00     0.029 A 
ATOM     51  N   UNL A   1      43.444  36.391  31.520  1.00  0.00    -0.354 N 
ATOM     52  C   UNL A   1      39.788  33.465  31.266  1.00  0.00     0.074 A 
ATOM     53  C   UNL A   1      39.346  34.335  30.199  1.00  0.00     0.031 C 
ATOM     54  C   UNL A   1      45.412  35.609  32.298  1.00  0.00     0.029 A 
ATOM     55  C   UNL A   1      44.406  36.639  32.492  1.00  0.00     0.049 A 
ATOM     56  H   UNL A   1      42.653  36.959  31.375  1.00  0.00     0.167 HD
ATOM     57  C   UNL A   1      39.132  32.603  32.087  1.00  0.00     0.034 A 
ATOM     58  C   UNL A   1      44.212  37.310  33.654  1.00  0.00     0.034 A 
ATOM     59  C   UNL A   1      39.944  31.964  33.090  1.00  0.00     0.049 A 
ATOM     60  C   UNL A   1      43.363  36.334  34.435  1.00  0.00     0.074 A 
ATOM     61  C   UNL A   1      40.392  30.708  33.426  1.00  0.00     0.029 A 
ATOM     62  N   UNL A   1      40.558  32.833  33.954  1.00  0.00    -0.354 N 
ATOM     63  N   UNL A   1      43.790  35.236  35.013  1.00  0.00    -0.248 NA
ATOM     64  C   UNL A   1      41.900  36.467  34.418  1.00  0.00     0.031 C 
ATOM     65  C   UNL A   1      41.431  30.890  34.400  1.00  0.00     0.029 A 
ATOM     66  C   UNL A   1      41.607  32.255  34.619  1.00  0.00     0.049 A 
ATOM     67  H   UNL A   1      40.277  33.767  34.082  1.00  0.00     0.167 HD
ATOM     68  C   UNL A   1      42.656  34.438  35.163  1.00  0.00     0.074 A 
ATOM     69  C   UNL A   1      41.529  35.323  34.981  1.00  0.00     0.031 C 
ATOM     70  C   UNL A   1      42.680  33.072  35.175  1.00  0.00     0.034 A 
BRANCH  57  71
ATOM     71  C   UNL A   1      37.661  32.570  32.168  1.00  0.00     0.023 A 
ATOM     72  C   UNL A   1      36.877  33.724  32.271  1.00  0.00     0.031 A 
ATOM     73  C   UNL A   1      37.029  31.322  32.031  1.00  0.00     0.131 A 
ATOM     74  C   UNL A   1      35.480  33.598  32.224  1.00  0.00     0.055 A 
ATOM     75  C   UNL A   1      35.644  31.203  31.978  1.00  0.00     0.041 A 
ATOM     76  F   UNL A   1      37.764  30.201  31.925  1.00  0.00    -0.206 F 
ATOM     77  C   UNL A   1      34.863  32.349  32.071  1.00  0.00     0.022 A 
BRANCH  74  78
ATOM     78  S   UNL A   1      34.403  35.054  32.324  1.00  0.00     0.124 S 
ATOM     79  O   UNL A   1      34.302  35.461  30.924  1.00  0.00    -0.237 OA
ATOM     80  O   UNL A   1      33.188  34.488  32.901  1.00  0.00    -0.237 OA
ATOM     81  O   UNL A   1      35.138  35.972  33.188  1.00  0.00    -0.744 OA
ENDBRANCH  74  78
ENDBRANCH  57  71
BRANCH  58  82
ATOM     82  C   UNL A   1      43.898  38.760  33.448  1.00  0.00     0.023 A 
ATOM     83  C   UNL A   1      43.389  39.309  32.268  1.00  0.00     0.031 A 
ATOM     84  C   UNL A   1      44.168  39.672  34.499  1.00  0.00     0.131 A 
ATOM     85  C   UNL A   1      43.384  40.699  32.077  1.00  0.00     0.055 A 
ATOM     86  C   UNL A   1      44.088  41.058  34.336  1.00  0.00     0.041 A 
ATOM     87  F   UNL A   1      44.537  39.225  35.712  1.00  0.00    -0.206 F 
ATOM     88  C   UNL A   1      43.732  41.580  33.101  1.00  0.00     0.022 A 
BRANCH  85  89
ATOM     89  S   UNL A   1      43.000  41.376  30.440  1.00  0.00     0.124 S 
ATOM     90  O   UNL A   1      43.198  40.226  29.563  1.00  0.00    -0.237 OA
ATOM     91  O   UNL A   1      41.617  41.800  30.628  1.00  0.00    -0.237 OA
ATOM     92  O   UNL A   1      43.977  42.450  30.289  1.00  0.00    -0.744 OA
ENDBRANCH  85  89
ENDBRANCH  58  82
BRANCH  70  93
ATOM     93  C   UNL A   1      43.950  32.440  35.652  1.00  0.00     0.023 A 
ATOM     94  C   UNL A   1      44.911  31.909  34.774  1.00  0.00     0.031 A 
ATOM     95  C   UNL A   1      44.136  32.247  37.035  1.00  0.00     0.131 A 
ATOM     96  C   UNL A   1      45.992  31.177  35.288  1.00  0.00     0.055 A 
ATOM     97  C   UNL A   1      45.236  31.560  37.543  1.00  0.00     0.041 A 
ATOM     98  F   UNL A   1      43.215  32.676  37.915  1.00  0.00    -0.206 F 
ATOM     99  C   UNL A   1      46.167  31.013  36.667  1.00  0.00     0.022 A 
BRANCH  96 100
ATOM    100  S   UNL A   1      47.179  30.356  34.191  1.00  0.00     0.124 S 
ATOM    101  O   UNL A   1      47.945  31.481  33.656  1.00  0.00    -0.237 OA
ATOM    102  O   UNL A   1      47.906  29.499  35.124  1.00  0.00    -0.237 OA
ATOM    103  O   UNL A   1      46.342  29.658  33.221  1.00  0.00    -0.744 OA
ENDBRANCH  96 100
ENDBRANCH  70  93
ENDBRANCH  44  45
ENDBRANCH  37  39
ENDBRANCH  36  37
ENDBRANCH  35  36
ENDBRANCH  34  35
ENDBRANCH  33  34
ENDBRANCH  32  33
ENDBRANCH   1  32
TORSDOF 25
ENDMDL
MODEL 2
REMARK VINA RESULT:      -8.8      1.826      2.129
REMARK SMILES Cc1cc(N2CCCC2)nc2sc3c(=O)n(CC(=O)OCCOCCOCCOCCOC(=O)c4ccc(-c5c6nc(c(-c7cc(S(=O)(=O)[O-])ccc7F)c7ccc([nH]7)c(-c7cc(S(=O)(=O)[O-])ccc7F)c7nc(c(-c8cc(S(=O)(=O)[O-])ccc8F)c8ccc5[nH]8)C=C7)C=C6)cc4)cnc3c12
REMARK SMILES IDX 27 1 26 2 25 3 24 4 23 5 22 6 21 7 20 8 18 9 19 10 17 11
REMARK SMILES IDX 16 12 1 13 2 14 3 15 101 16 4 17 11 18 100 19 10 20 12 21
REMARK SMILES IDX 13 22 99 23 14 24 98 25 15 26 5 27 6 28 9 29 7 30 8 31 28 32
REMARK SMILES IDX 29 33 30 34 31 35 32 36 33 37 34 38 35 39 36 40 97 41 37 42
REMARK SMILES IDX 96 43 38 44 39 45 40 46 90 47 41 48 95 49 89 50 91 51 42 52
REMARK SMILES IDX 94 53 88 54 87 55 43 57 75 58 55 59 74 60 56 61 59 62 73 63
REMARK SMILES IDX 92 64 57 65 58 66 72 68 93 69 60 70 44 71 45 72 53 73 46 74
REMARK SMILES IDX 52 75 54 76 51 77 47 78 48 79 49 80 50 81 76 82 77 83 85 84
REMARK SMILES IDX 78 85 84 86 86 87 83 88 79 89 80 90 81 91 82 92 61 93 62 94
REMARK SMILES IDX 70 95 63 96 69 97 71 98 68 99 64 100 65 101 66 102 67 103
REMARK H PARENT 91 56 59 67
REMARK Flexibility Score: inf
ROOT
ATOM      1  C   UNL A   1      39.020  28.551  29.340  1.00  0.00     0.188 C 
ENDROOT
BRANCH   1   2
ATOM      2  O   UNL A   1      38.082  29.446  29.929  1.00  0.00    -0.377 OA
BRANCH   2   3
ATOM      3  C   UNL A   1      36.761  29.330  29.415  1.00  0.00     0.188 C 
BRANCH   3   4
ATOM      4  C   UNL A   1      36.613  29.966  28.018  1.00  0.00     0.188 C 
BRANCH   4   5
ATOM      5  O   UNL A   1      35.603  29.478  27.129  1.00  0.00    -0.376 OA
BRANCH   5   6
ATOM      6  C   UNL A   1      34.260  29.522  27.596  1.00  0.00     0.202 C 
BRANCH   6   7
ATOM      7  C   UNL A   1      33.330  30.137  26.537  1.00  0.00     0.261 C 
BRANCH   7   8
ATOM      8  O   UNL A   1      31.928  29.872  26.787  1.00  0.00    -0.462 OA
BRANCH   8   9
ATOM      9  C   UNL A   1      31.599  28.574  26.996  1.00  0.00     0.326 C 
ATOM     10  O   UNL A   1      31.340  28.091  28.098  1.00  0.00    -0.250 OA
BRANCH   9  11
ATOM     11  C   UNL A   1      31.553  27.714  25.728  1.00  0.00     0.249 C 
BRANCH  11  12
ATOM     12  N   UNL A   1      32.055  26.338  25.709  1.00  0.00    -0.287 N 
ATOM     13  C   UNL A   1      36.001  22.394  24.884  1.00  0.00     0.045 C 
ATOM     14  C   UNL A   1      34.648  21.755  25.021  1.00  0.00    -0.035 A 
ATOM     15  C   UNL A   1      34.582  20.352  24.953  1.00  0.00     0.051 A 
ATOM     16  C   UNL A   1      33.434  22.437  25.280  1.00  0.00     0.041 A 
ATOM     17  C   UNL A   1      33.370  19.669  25.024  1.00  0.00     0.130 A 
ATOM     18  C   UNL A   1      32.294  21.640  25.418  1.00  0.00     0.128 A 
ATOM     19  C   UNL A   1      33.057  23.815  25.406  1.00  0.00     0.098 A 
ATOM     20  N   UNL A   1      32.207  20.306  25.235  1.00  0.00    -0.220 NA
ATOM     21  S   UNL A   1      30.908  22.541  25.877  1.00  0.00    -0.108 S 
ATOM     22  C   UNL A   1      31.760  24.001  25.798  1.00  0.00     0.121 A 
ATOM     23  N   UNL A   1      33.898  24.906  25.120  1.00  0.00    -0.236 NA
ATOM     24  C   UNL A   1      31.185  25.300  26.036  1.00  0.00     0.271 A 
ATOM     25  C   UNL A   1      33.332  26.066  25.250  1.00  0.00     0.203 A 
ATOM     26  O   UNL A   1      30.041  25.507  26.435  1.00  0.00    -0.268 OA
BRANCH  17  27
ATOM     27  N   UNL A   1      33.368  18.318  24.791  1.00  0.00    -0.357 N 
ATOM     28  C   UNL A   1      32.738  17.356  25.678  1.00  0.00     0.118 C 
ATOM     29  C   UNL A   1      33.659  17.754  23.487  1.00  0.00     0.118 C 
ATOM     30  C   UNL A   1      33.327  16.040  25.178  1.00  0.00     0.023 C 
ATOM     31  C   UNL A   1      33.427  16.248  23.670  1.00  0.00     0.023 C 
ENDBRANCH  17  27
ENDBRANCH  11  12
ENDBRANCH   9  11
ENDBRANCH   8   9
ENDBRANCH   7   8
ENDBRANCH   6   7
ENDBRANCH   5   6
ENDBRANCH   4   5
ENDBRANCH   3   4
ENDBRANCH   2   3
ENDBRANCH   1   2
BRANCH   1  32
ATOM     32  C   UNL A   1      40.177  29.265  28.627  1.00  0.00     0.188 C 
BRANCH  32  33
ATOM     33  O   UNL A   1      40.875  28.404  27.720  1.00  0.00    -0.376 OA
BRANCH  33  34
ATOM     34  C   UNL A   1      41.670  27.383  28.322  1.00  0.00     0.202 C 
BRANCH  34  35
ATOM     35  C   UNL A   1      43.179  27.669  28.308  1.00  0.00     0.261 C 
BRANCH  35  36
ATOM     36  O   UNL A   1      43.675  28.383  29.450  1.00  0.00    -0.460 OA
BRANCH  36  37
ATOM     37  C   UNL A   1      44.805  29.097  29.256  1.00  0.00     0.338 C 
ATOM     38  O   UNL A   1      45.774  28.778  28.599  1.00  0.00    -0.246 OA
BRANCH  37  39
ATOM     39  C   UNL A   1      44.596  30.424  29.834  1.00  0.00     0.060 A 
ATOM     40  C   UNL A   1      44.109  30.539  31.140  1.00  0.00     0.016 A 
ATOM     41  C   UNL A   1      44.793  31.542  29.035  1.00  0.00     0.016 A 
ATOM     42  C   UNL A   1      43.787  31.790  31.648  1.00  0.00     0.010 A 
ATOM     43  C   UNL A   1      44.415  32.785  29.527  1.00  0.00     0.010 A 
ATOM     44  C   UNL A   1      43.872  32.916  30.819  1.00  0.00    -0.014 A 
BRANCH  44  45
ATOM     45  C   UNL A   1      43.253  34.185  31.272  1.00  0.00     0.031 A 
ATOM     46  C   UNL A   1      41.784  34.175  31.489  1.00  0.00     0.074 A 
ATOM     47  C   UNL A   1      43.965  35.028  32.056  1.00  0.00     0.049 A 
ATOM     48  N   UNL A   1      41.281  33.557  32.514  1.00  0.00    -0.248 NA
ATOM     49  C   UNL A   1      40.791  34.619  30.518  1.00  0.00     0.031 C 
ATOM     50  C   UNL A   1      45.218  34.653  32.737  1.00  0.00     0.029 A 
ATOM     51  N   UNL A   1      43.647  36.254  32.591  1.00  0.00    -0.354 N 
ATOM     52  C   UNL A   1      39.934  33.407  32.279  1.00  0.00     0.074 A 
ATOM     53  C   UNL A   1      39.660  34.128  31.056  1.00  0.00     0.031 C 
ATOM     54  C   UNL A   1      45.472  35.544  33.711  1.00  0.00     0.029 A 
ATOM     55  C   UNL A   1      44.493  36.613  33.633  1.00  0.00     0.049 A 
ATOM     56  H   UNL A   1      42.903  36.814  32.271  1.00  0.00     0.167 HD
ATOM     57  C   UNL A   1      39.148  32.684  33.121  1.00  0.00     0.034 A 
ATOM     58  C   UNL A   1      44.186  37.446  34.658  1.00  0.00     0.034 A 
ATOM     59  C   UNL A   1      39.806  32.173  34.295  1.00  0.00     0.049 A 
ATOM     60  C   UNL A   1      43.209  36.609  35.452  1.00  0.00     0.074 A 
ATOM     61  C   UNL A   1      40.158  30.967  34.854  1.00  0.00     0.029 A 
ATOM     62  N   UNL A   1      40.344  33.141  35.104  1.00  0.00    -0.354 N 
ATOM     63  N   UNL A   1      43.518  35.593  36.224  1.00  0.00    -0.248 NA
ATOM     64  C   UNL A   1      41.765  36.772  35.233  1.00  0.00     0.031 C 
ATOM     65  C   UNL A   1      41.077  31.260  35.918  1.00  0.00     0.029 A 
ATOM     66  C   UNL A   1      41.281  32.639  35.968  1.00  0.00     0.049 A 
ATOM     67  H   UNL A   1      40.088  34.090  35.066  1.00  0.00     0.167 HD
ATOM     68  C   UNL A   1      42.343  34.852  36.337  1.00  0.00     0.074 A 
ATOM     69  C   UNL A   1      41.283  35.727  35.895  1.00  0.00     0.031 C 
ATOM     70  C   UNL A   1      42.309  33.500  36.539  1.00  0.00     0.034 A 
BRANCH  57  71
ATOM     71  C   UNL A   1      37.678  32.697  33.019  1.00  0.00     0.023 A 
ATOM     72  C   UNL A   1      36.910  33.850  33.211  1.00  0.00     0.031 A 
ATOM     73  C   UNL A   1      37.044  31.511  32.609  1.00  0.00     0.131 A 
ATOM     74  C   UNL A   1      35.528  33.788  32.978  1.00  0.00     0.055 A 
ATOM     75  C   UNL A   1      35.674  31.457  32.373  1.00  0.00     0.041 A 
ATOM     76  F   UNL A   1      37.764  30.392  32.414  1.00  0.00    -0.206 F 
ATOM     77  C   UNL A   1      34.910  32.603  32.554  1.00  0.00     0.022 A 
BRANCH  74  78
ATOM     78  S   UNL A   1      34.476  35.251  33.180  1.00  0.00     0.124 S 
ATOM     79  O   UNL A   1      34.466  35.427  34.631  1.00  0.00    -0.237 OA
ATOM     80  O   UNL A   1      35.219  36.260  32.432  1.00  0.00    -0.237 OA
ATOM     81  O   UNL A   1      33.202  34.848  32.593  1.00  0.00    -0.744 OA
ENDBRANCH  74  78
ENDBRANCH  57  71
BRANCH  58  82
ATOM     82  C   UNL A   1      43.958  38.860  34.219  1.00  0.00     0.023 A 
ATOM     83  C   UNL A   1      43.300  39.236  33.044  1.00  0.00     0.031 A 
ATOM     84  C   UNL A   1      44.475  39.912  35.014  1.00  0.00     0.131 A 
ATOM     85  C   UNL A   1      43.373  40.559  32.584  1.00  0.00     0.055 A 
ATOM     86  C   UNL A   1      44.480  41.245  34.592  1.00  0.00     0.041 A 
ATOM     87  F   UNL A   1      45.009  39.658  36.221  1.00  0.00    -0.206 F 
ATOM     88  C   UNL A   1      43.961  41.569  33.347  1.00  0.00     0.022 A 
BRANCH  85  89
ATOM     89  S   UNL A   1      42.771  40.963  30.923  1.00  0.00     0.124 S 
ATOM     90  O   UNL A   1      43.184  39.802  30.141  1.00  0.00    -0.237 OA
ATOM     91  O   UNL A   1      41.337  41.087  31.166  1.00  0.00    -0.237 OA
ATOM     92  O   UNL A   1      43.469  42.206  30.611  1.00  0.00    -0.744 OA
ENDBRANCH  85  89
ENDBRANCH  58  82
BRANCH  70  93
ATOM     93  C   UNL A   1      43.486  32.912  37.254  1.00  0.00     0.023 A 
ATOM     94  C   UNL A   1      43.627  32.960  38.652  1.00  0.00     0.031 A 
ATOM     95  C   UNL A   1      44.560  32.407  36.495  1.00  0.00     0.131 A 
ATOM     96  C   UNL A   1      44.831  32.549  39.243  1.00  0.00     0.055 A 
ATOM     97  C   UNL A   1      45.735  31.955  37.090  1.00  0.00     0.041 A 
ATOM     98  F   UNL A   1      44.503  32.399  35.152  1.00  0.00    -0.206 F 
ATOM     99  C   UNL A   1      45.879  32.033  38.471  1.00  0.00     0.022 A 
BRANCH  96 100
ATOM    100  S   UNL A   1      45.112  32.722  41.026  1.00  0.00     0.124 S 
ATOM    101  O   UNL A   1      44.113  31.817  41.593  1.00  0.00    -0.237 OA
ATOM    102  O   UNL A   1      46.497  32.275  41.155  1.00  0.00    -0.237 OA
ATOM    103  O   UNL A   1      44.884  34.139  41.284  1.00  0.00    -0.744 OA
ENDBRANCH  96 100
ENDBRANCH  70  93
ENDBRANCH  44  45
ENDBRANCH  37  39
ENDBRANCH  36  37
ENDBRANCH  35  36
ENDBRANCH  34  35
ENDBRANCH  33  34
ENDBRANCH  32  33
ENDBRANCH   1  32
TORSDOF 25
ENDMDL
MODEL 3
REMARK VINA RESULT:      -8.6      5.901      9.650
REMARK SMILES Cc1cc(N2CCCC2)nc2sc3c(=O)n(CC(=O)OCCOCCOCCOCCOC(=O)c4ccc(-c5c6nc(c(-c7cc(S(=O)(=O)[O-])ccc7F)c7ccc([nH]7)c(-c7cc(S(=O)(=O)[O-])ccc7F)c7nc(c(-c8cc(S(=O)(=O)[O-])ccc8F)c8ccc5[nH]8)C=C7)C=C6)cc4)cnc3c12
REMARK SMILES IDX 27 1 26 2 25 3 24 4 23 5 22 6 21 7 20 8 18 9 19 10 17 11
REMARK SMILES IDX 16 12 1 13 2 14 3 15 101 16 4 17 11 18 100 19 10 20 12 21
REMARK SMILES IDX 13 22 99 23 14 24 98 25 15 26 5 27 6 28 9 29 7 30 8 31 28 32
REMARK SMILES IDX 29 33 30 34 31 35 32 36 33 37 34 38 35 39 36 40 97 41 37 42
REMARK SMILES IDX 96 43 38 44 39 45 40 46 90 47 41 48 95 49 89 50 91 51 42 52
REMARK SMILES IDX 94 53 88 54 87 55 43 57 75 58 55 59 74 60 56 61 59 62 73 63
REMARK SMILES IDX 92 64 57 65 58 66 72 68 93 69 60 70 44 71 45 72 53 73 46 74
REMARK SMILES IDX 52 75 54 76 51 77 47 78 48 79 49 80 50 81 76 82 77 83 85 84
REMARK SMILES IDX 78 85 84 86 86 87 83 88 79 89 80 90 81 91 82 92 61 93 62 94
REMARK SMILES IDX 70 95 63 96 69 97 71 98 68 99 64 100 65 101 66 102 67 103
REMARK H PARENT 91 56 59 67
REMARK Flexibility Score: inf
ROOT
ATOM      1  C   UNL A   1      38.822  28.188  29.453  1.00  0.00     0.188 C 
ENDROOT
BRANCH   1   2
ATOM      2  O   UNL A   1      38.446  29.558  29.554  1.00  0.00    -0.377 OA
BRANCH   2   3
ATOM      3  C   UNL A   1      37.081  29.814  29.242  1.00  0.00     0.188 C 
BRANCH   3   4
ATOM      4  C   UNL A   1      36.818  29.840  27.722  1.00  0.00     0.188 C 
BRANCH   4   5
ATOM      5  O   UNL A   1      35.645  29.203  27.204  1.00  0.00    -0.376 OA
BRANCH   5   6
ATOM      6  C   UNL A   1      34.396  29.626  27.737  1.00  0.00     0.202 C 
BRANCH   6   7
ATOM      7  C   UNL A   1      33.456  30.107  26.619  1.00  0.00     0.261 C 
BRANCH   7   8
ATOM      8  O   UNL A   1      32.056  29.880  26.914  1.00  0.00    -0.462 OA
BRANCH   8   9
ATOM      9  C   UNL A   1      31.691  28.587  27.095  1.00  0.00     0.326 C 
ATOM     10  O   UNL A   1      31.385  28.097  28.180  1.00  0.00    -0.250 OA
BRANCH   9  11
ATOM     11  C   UNL A   1      31.670  27.744  25.815  1.00  0.00     0.249 C 
BRANCH  11  12
ATOM     12  N   UNL A   1      32.154  26.362  25.792  1.00  0.00    -0.287 N 
ATOM     13  C   UNL A   1      36.072  22.375  25.034  1.00  0.00     0.045 C 
ATOM     14  C   UNL A   1      34.707  21.753  25.120  1.00  0.00    -0.035 A 
ATOM     15  C   UNL A   1      34.624  20.352  25.030  1.00  0.00     0.051 A 
ATOM     16  C   UNL A   1      33.494  22.448  25.350  1.00  0.00     0.041 A 
ATOM     17  C   UNL A   1      33.402  19.685  25.054  1.00  0.00     0.130 A 
ATOM     18  C   UNL A   1      32.340  21.665  25.442  1.00  0.00     0.128 A 
ATOM     19  C   UNL A   1      33.132  23.830  25.484  1.00  0.00     0.098 A 
ATOM     20  N   UNL A   1      32.241  20.335  25.238  1.00  0.00    -0.220 NA
ATOM     21  S   UNL A   1      30.952  22.579  25.871  1.00  0.00    -0.108 S 
ATOM     22  C   UNL A   1      31.826  24.028  25.839  1.00  0.00     0.121 A 
ATOM     23  N   UNL A   1      33.996  24.913  25.240  1.00  0.00    -0.236 NA
ATOM     24  C   UNL A   1      31.261  25.331  26.078  1.00  0.00     0.271 A 
ATOM     25  C   UNL A   1      33.441  26.078  25.369  1.00  0.00     0.203 A 
ATOM     26  O   UNL A   1      30.108  25.548  26.443  1.00  0.00    -0.268 OA
BRANCH  17  27
ATOM     27  N   UNL A   1      33.390  18.337  24.802  1.00  0.00    -0.357 N 
ATOM     28  C   UNL A   1      32.828  17.359  25.717  1.00  0.00     0.118 C 
ATOM     29  C   UNL A   1      33.589  17.793  23.473  1.00  0.00     0.118 C 
ATOM     30  C   UNL A   1      33.386  16.054  25.158  1.00  0.00     0.023 C 
ATOM     31  C   UNL A   1      33.378  16.284  23.649  1.00  0.00     0.023 C 
ENDBRANCH  17  27
ENDBRANCH  11  12
ENDBRANCH   9  11
ENDBRANCH   8   9
ENDBRANCH   7   8
ENDBRANCH   6   7
ENDBRANCH   5   6
ENDBRANCH   4   5
ENDBRANCH   3   4
ENDBRANCH   2   3
ENDBRANCH   1   2
BRANCH   1  32
ATOM     32  C   UNL A   1      40.053  27.960  28.565  1.00  0.00     0.188 C 
BRANCH  32  33
ATOM     33  O   UNL A   1      39.927  26.794  27.743  1.00  0.00    -0.376 OA
BRANCH  33  34
ATOM     34  C   UNL A   1      39.727  25.564  28.438  1.00  0.00     0.202 C 
BRANCH  34  35
ATOM     35  C   UNL A   1      40.729  24.461  28.067  1.00  0.00     0.261 C 
BRANCH  35  36
ATOM     36  O   UNL A   1      41.954  24.472  28.816  1.00  0.00    -0.460 OA
BRANCH  36  37
ATOM     37  C   UNL A   1      42.826  23.479  28.537  1.00  0.00     0.338 C 
ATOM     38  O   UNL A   1      42.614  22.284  28.561  1.00  0.00    -0.246 OA
BRANCH  37  39
ATOM     39  C   UNL A   1      44.047  24.093  28.018  1.00  0.00     0.060 A 
ATOM     40  C   UNL A   1      44.733  25.031  28.797  1.00  0.00     0.016 A 
ATOM     41  C   UNL A   1      44.444  23.804  26.720  1.00  0.00     0.016 A 
ATOM     42  C   UNL A   1      45.817  25.712  28.261  1.00  0.00     0.010 A 
ATOM     43  C   UNL A   1      45.493  24.529  26.169  1.00  0.00     0.010 A 
ATOM     44  C   UNL A   1      46.162  25.516  26.917  1.00  0.00    -0.014 A 
BRANCH  44  45
ATOM     45  C   UNL A   1      47.119  26.452  26.281  1.00  0.00     0.031 A 
ATOM     46  C   UNL A   1      46.852  27.903  26.452  1.00  0.00     0.074 A 
ATOM     47  C   UNL A   1      48.420  26.095  26.167  1.00  0.00     0.049 A 
ATOM     48  N   UNL A   1      47.051  28.472  27.601  1.00  0.00    -0.248 NA
ATOM     49  C   UNL A   1      46.157  28.746  25.485  1.00  0.00     0.031 C 
ATOM     50  C   UNL A   1      49.024  24.958  26.885  1.00  0.00     0.029 A 
ATOM     51  N   UNL A   1      49.494  26.752  25.613  1.00  0.00    -0.354 N 
ATOM     52  C   UNL A   1      46.405  29.686  27.573  1.00  0.00     0.074 A 
ATOM     53  C   UNL A   1      45.909  29.842  26.224  1.00  0.00     0.031 C 
ATOM     54  C   UNL A   1      50.362  25.089  26.866  1.00  0.00     0.029 A 
ATOM     55  C   UNL A   1      50.710  26.224  26.030  1.00  0.00     0.049 A 
ATOM     56  H   UNL A   1      49.409  27.511  24.992  1.00  0.00     0.167 HD
ATOM     57  C   UNL A   1      46.326  30.468  28.683  1.00  0.00     0.034 A 
ATOM     58  C   UNL A   1      51.888  26.891  26.097  1.00  0.00     0.034 A 
ATOM     59  C   UNL A   1      47.029  29.975  29.838  1.00  0.00     0.049 A 
ATOM     60  C   UNL A   1      51.648  27.824  27.262  1.00  0.00     0.074 A 
ATOM     61  C   UNL A   1      46.761  29.512  31.106  1.00  0.00     0.029 A 
ATOM     62  N   UNL A   1      48.377  29.815  29.650  1.00  0.00    -0.354 N 
ATOM     63  N   UNL A   1      51.642  27.484  28.529  1.00  0.00    -0.248 NA
ATOM     64  C   UNL A   1      51.184  29.196  27.012  1.00  0.00     0.031 C 
ATOM     65  C   UNL A   1      47.972  28.905  31.585  1.00  0.00     0.029 A 
ATOM     66  C   UNL A   1      48.943  28.993  30.588  1.00  0.00     0.049 A 
ATOM     67  H   UNL A   1      48.882  30.241  28.920  1.00  0.00     0.167 HD
ATOM     68  C   UNL A   1      50.918  28.487  29.172  1.00  0.00     0.074 A 
ATOM     69  C   UNL A   1      50.858  29.587  28.238  1.00  0.00     0.031 C 
ATOM     70  C   UNL A   1      50.192  28.293  30.314  1.00  0.00     0.034 A 
BRANCH  57  71
ATOM     71  C   UNL A   1      45.844  31.859  28.623  1.00  0.00     0.023 A 
ATOM     72  C   UNL A   1      46.403  32.825  27.780  1.00  0.00     0.031 A 
ATOM     73  C   UNL A   1      44.704  32.187  29.380  1.00  0.00     0.131 A 
ATOM     74  C   UNL A   1      45.802  34.090  27.709  1.00  0.00     0.055 A 
ATOM     75  C   UNL A   1      44.108  33.440  29.300  1.00  0.00     0.041 A 
ATOM     76  F   UNL A   1      44.148  31.272  30.193  1.00  0.00    -0.206 F 
ATOM     77  C   UNL A   1      44.656  34.399  28.456  1.00  0.00     0.022 A 
BRANCH  74  78
ATOM     78  S   UNL A   1      46.457  35.380  26.616  1.00  0.00     0.124 S 
ATOM     79  O   UNL A   1      47.661  35.806  27.327  1.00  0.00    -0.237 OA
ATOM     80  O   UNL A   1      46.688  34.638  25.381  1.00  0.00    -0.237 OA
ATOM     81  O   UNL A   1      45.384  36.368  26.561  1.00  0.00    -0.744 OA
ENDBRANCH  74  78
ENDBRANCH  57  71
BRANCH  58  82
ATOM     82  C   UNL A   1      52.408  27.300  24.753  1.00  0.00     0.023 A 
ATOM     83  C   UNL A   1      51.684  28.023  23.801  1.00  0.00     0.031 A 
ATOM     84  C   UNL A   1      53.715  26.901  24.377  1.00  0.00     0.131 A 
ATOM     85  C   UNL A   1      52.150  28.122  22.481  1.00  0.00     0.055 A 
ATOM     86  C   UNL A   1      54.213  27.069  23.082  1.00  0.00     0.041 A 
ATOM     87  F   UNL A   1      54.533  26.315  25.269  1.00  0.00    -0.206 F 
ATOM     88  C   UNL A   1      53.409  27.648  22.112  1.00  0.00     0.022 A 
BRANCH  85  89
ATOM     89  S   UNL A   1      51.066  28.803  21.198  1.00  0.00     0.124 S 
ATOM     90  O   UNL A   1      51.571  30.163  21.040  1.00  0.00    -0.237 OA
ATOM     91  O   UNL A   1      51.336  27.893  20.090  1.00  0.00    -0.237 OA
ATOM     92  O   UNL A   1      49.738  28.696  21.795  1.00  0.00    -0.744 OA
ENDBRANCH  85  89
ENDBRANCH  58  82
BRANCH  70  93
ATOM     93  C   UNL A   1      50.664  27.194  31.215  1.00  0.00     0.023 A 
ATOM     94  C   UNL A   1      51.789  27.325  32.047  1.00  0.00     0.031 A 
ATOM     95  C   UNL A   1      50.042  25.933  31.132  1.00  0.00     0.131 A 
ATOM     96  C   UNL A   1      52.280  26.203  32.732  1.00  0.00     0.055 A 
ATOM     97  C   UNL A   1      50.504  24.835  31.852  1.00  0.00     0.041 A 
ATOM     98  F   UNL A   1      49.003  25.737  30.302  1.00  0.00    -0.206 F 
ATOM     99  C   UNL A   1      51.634  24.964  32.650  1.00  0.00     0.022 A 
BRANCH  96 100
ATOM    100  S   UNL A   1      53.807  26.289  33.707  1.00  0.00     0.124 S 
ATOM    101  O   UNL A   1      53.451  27.227  34.770  1.00  0.00    -0.237 OA
ATOM    102  O   UNL A   1      53.968  24.900  34.133  1.00  0.00    -0.237 OA
ATOM    103  O   UNL A   1      54.804  26.773  32.759  1.00  0.00    -0.744 OA
ENDBRANCH  96 100
ENDBRANCH  70  93
ENDBRANCH  44  45
ENDBRANCH  37  39
ENDBRANCH  36  37
ENDBRANCH  35  36
ENDBRANCH  34  35
ENDBRANCH  33  34
ENDBRANCH  32  33
ENDBRANCH   1  32
TORSDOF 25
ENDMDL
