MODEL 1
REMARK VINA RESULT:      -9.7      0.000      0.000
REMARK SMILES COc1cc(Cl)c(C)cc1N1C(=O)C[C@H](Nc2cc(C(=O)OCCOCCOCCOCCOC(=O)c3ccc(-c4c5nc(c(-c6cc(S(=O)(=O)[O-])ccc6F)c6ccc([nH]6)c(-c6cc(S(=O)(=O)[O-])ccc6F)c6nc(c(-c7cc(S(=O)(=O)[O-])ccc7F)c7ccc4[nH]7)C=C6)C=C5)cc3)ccc2C)C1=O
REMARK SMILES IDX 27 1 26 2 25 3 24 4 23 5 22 6 20 7 21 8 19 9 17 10 18 11
REMARK SMILES IDX 102 12 101 13 103 14 100 15 16 16 15 18 11 19 12 20 104 21
REMARK SMILES IDX 13 22 14 23 105 24 10 25 3 26 4 27 5 28 9 29 6 30 7 31 8 32
REMARK SMILES IDX 2 33 1 34 28 35 29 36 30 37 31 38 32 39 33 40 34 41 35 42
REMARK SMILES IDX 36 43 37 44 38 45 99 46 39 47 98 48 40 49 41 50 42 51 92 52
REMARK SMILES IDX 43 53 97 54 91 55 93 56 44 57 96 58 90 59 89 60 45 62 77 63
REMARK SMILES IDX 57 64 76 65 58 66 61 67 75 68 94 69 59 70 60 71 74 73 95 74
REMARK SMILES IDX 62 75 46 76 47 77 55 78 48 79 54 80 56 81 53 82 49 83 50 84
REMARK SMILES IDX 51 85 52 86 78 87 79 88 87 89 80 90 86 91 88 92 85 93 81 94
REMARK SMILES IDX 82 95 83 96 84 97 63 98 64 99 72 100 65 101 71 102 73 103
REMARK SMILES IDX 70 104 66 105 67 106 68 107 69 108
REMARK H PARENT 16 17 93 61 61 72
REMARK Flexibility Score: inf
ROOT
ATOM      1  C   UNL A   1      30.504  25.485  26.140  1.00  0.00     0.188 C 
ENDROOT
BRANCH   1   2
ATOM      2  C   UNL A   1      30.707  23.970  26.278  1.00  0.00     0.188 C 
BRANCH   2   3
ATOM      3  O   UNL A   1      31.912  23.362  25.835  1.00  0.00    -0.376 OA
BRANCH   3   4
ATOM      4  C   UNL A   1      33.104  23.911  26.397  1.00  0.00     0.202 C 
BRANCH   4   5
ATOM      5  C   UNL A   1      34.188  22.904  26.764  1.00  0.00     0.261 C 
BRANCH   5   6
ATOM      6  O   UNL A   1      34.141  21.790  25.868  1.00  0.00    -0.460 OA
BRANCH   6   7
ATOM      7  C   UNL A   1      34.886  21.942  24.756  1.00  0.00     0.338 C 
ATOM      8  O   UNL A   1      34.650  22.636  23.797  1.00  0.00    -0.246 OA
BRANCH   7   9
ATOM      9  C   UNL A   1      36.240  21.432  25.070  1.00  0.00     0.062 A 
ATOM     10  C   UNL A   1      38.604  21.645  25.649  1.00  0.00     0.038 A 
ATOM     11  C   UNL A   1      37.343  22.227  25.435  1.00  0.00     0.041 A 
ATOM     12  C   UNL A   1      38.721  20.250  25.453  1.00  0.00    -0.028 A 
ATOM     13  C   UNL A   1      37.635  19.488  24.984  1.00  0.00     0.006 A 
ATOM     14  C   UNL A   1      39.942  19.465  25.835  1.00  0.00     0.046 C 
ATOM     15  C   UNL A   1      36.401  20.074  24.802  1.00  0.00     0.016 A 
BRANCH  10  16
ATOM     16  N   UNL A   1      39.754  22.430  25.818  1.00  0.00    -0.373 N 
ATOM     17  H   UNL A   1      40.351  22.583  25.051  1.00  0.00     0.161 HD
BRANCH  16  18
ATOM     18  C   UNL A   1      40.085  23.031  27.122  1.00  0.00     0.179 C 
ATOM     19  N   UNL A   1      41.986  24.335  27.664  1.00  0.00    -0.245 N 
ATOM     20  C   UNL A   1      42.254  23.090  28.158  1.00  0.00     0.236 C 
ATOM     21  C   UNL A   1      40.781  24.389  27.002  1.00  0.00     0.256 C 
ATOM     22  O   UNL A   1      43.228  22.739  28.814  1.00  0.00    -0.274 OA
ATOM     23  C   UNL A   1      41.111  22.172  27.846  1.00  0.00     0.136 C 
ATOM     24  O   UNL A   1      40.318  25.337  26.385  1.00  0.00    -0.272 OA
BRANCH  19  25
ATOM     25  C   UNL A   1      42.824  25.453  27.898  1.00  0.00     0.094 A 
ATOM     26  C   UNL A   1      43.629  25.993  26.882  1.00  0.00     0.144 A 
ATOM     27  C   UNL A   1      44.457  27.092  27.135  1.00  0.00     0.069 A 
ATOM     28  C   UNL A   1      44.475  27.681  28.400  1.00  0.00     0.047 A 
ATOM     29  C   UNL A   1      42.830  26.076  29.160  1.00  0.00     0.035 A 
ATOM     30  Cl  UNL A   1      45.495  29.059  28.641  1.00  0.00    -0.084 Cl
ATOM     31  C   UNL A   1      43.670  27.176  29.433  1.00  0.00    -0.030 A 
ATOM     32  C   UNL A   1      43.713  27.762  30.818  1.00  0.00     0.046 C 
BRANCH  26  33
ATOM     33  O   UNL A   1      43.637  25.508  25.599  1.00  0.00    -0.495 OA
ATOM     34  C   UNL A   1      44.745  24.638  25.365  1.00  0.00     0.278 C 
ENDBRANCH  26  33
ENDBRANCH  19  25
ENDBRANCH  16  18
ENDBRANCH  10  16
ENDBRANCH   7   9
ENDBRANCH   6   7
ENDBRANCH   5   6
ENDBRANCH   4   5
ENDBRANCH   3   4
ENDBRANCH   2   3
ENDBRANCH   1   2
BRANCH   1  35
ATOM     35  O   UNL A   1      30.709  26.052  24.857  1.00  0.00    -0.377 OA
BRANCH  35  36
ATOM     36  C   UNL A   1      31.446  27.277  24.946  1.00  0.00     0.188 C 
BRANCH  36  37
ATOM     37  C   UNL A   1      31.336  27.833  26.352  1.00  0.00     0.188 C 
BRANCH  37  38
ATOM     38  O   UNL A   1      31.483  29.241  26.495  1.00  0.00    -0.376 OA
BRANCH  38  39
ATOM     39  C   UNL A   1      32.454  29.909  25.710  1.00  0.00     0.202 C 
BRANCH  39  40
ATOM     40  C   UNL A   1      33.886  29.842  26.260  1.00  0.00     0.261 C 
BRANCH  40  41
ATOM     41  O   UNL A   1      33.884  30.191  27.661  1.00  0.00    -0.460 OA
BRANCH  41  42
ATOM     42  C   UNL A   1      34.289  31.460  27.959  1.00  0.00     0.338 C 
ATOM     43  O   UNL A   1      33.574  32.446  27.926  1.00  0.00    -0.246 OA
BRANCH  42  44
ATOM     44  C   UNL A   1      35.779  31.495  28.109  1.00  0.00     0.060 A 
ATOM     45  C   UNL A   1      36.470  30.347  28.543  1.00  0.00     0.016 A 
ATOM     46  C   UNL A   1      36.408  32.730  28.168  1.00  0.00     0.016 A 
ATOM     47  C   UNL A   1      37.692  30.471  29.234  1.00  0.00     0.010 A 
ATOM     48  C   UNL A   1      37.561  32.848  28.924  1.00  0.00     0.010 A 
ATOM     49  C   UNL A   1      38.189  31.742  29.527  1.00  0.00    -0.014 A 
BRANCH  49  50
ATOM     50  C   UNL A   1      39.160  32.076  30.608  1.00  0.00     0.031 A 
ATOM     51  C   UNL A   1      40.583  31.588  30.464  1.00  0.00     0.074 A 
ATOM     52  C   UNL A   1      38.865  33.105  31.458  1.00  0.00     0.049 A 
ATOM     53  N   UNL A   1      41.568  31.925  31.220  1.00  0.00    -0.248 NA
ATOM     54  C   UNL A   1      41.039  30.691  29.394  1.00  0.00     0.031 C 
ATOM     55  C   UNL A   1      39.806  33.994  32.149  1.00  0.00     0.029 A 
ATOM     56  N   UNL A   1      37.632  33.636  31.851  1.00  0.00    -0.354 N 
ATOM     57  C   UNL A   1      42.767  31.607  30.596  1.00  0.00     0.074 A 
ATOM     58  C   UNL A   1      42.373  30.780  29.489  1.00  0.00     0.031 C 
ATOM     59  C   UNL A   1      39.170  34.897  32.908  1.00  0.00     0.029 A 
ATOM     60  C   UNL A   1      37.814  34.442  33.000  1.00  0.00     0.049 A 
ATOM     61  H   UNL A   1      36.773  33.473  31.400  1.00  0.00     0.167 HD
ATOM     62  C   UNL A   1      43.925  32.186  31.047  1.00  0.00     0.034 A 
ATOM     63  C   UNL A   1      37.276  34.072  34.199  1.00  0.00     0.034 A 
ATOM     64  C   UNL A   1      43.689  32.911  32.310  1.00  0.00     0.049 A 
ATOM     65  C   UNL A   1      38.390  33.505  35.101  1.00  0.00     0.074 A 
ATOM     66  C   UNL A   1      43.945  34.189  32.773  1.00  0.00     0.029 A 
ATOM     67  N   UNL A   1      42.904  32.306  33.290  1.00  0.00    -0.354 N 
ATOM     68  N   UNL A   1      39.505  32.974  34.630  1.00  0.00    -0.248 NA
ATOM     69  C   UNL A   1      38.484  33.736  36.545  1.00  0.00     0.031 C 
ATOM     70  C   UNL A   1      43.151  34.391  33.944  1.00  0.00     0.029 A 
ATOM     71  C   UNL A   1      42.494  33.205  34.245  1.00  0.00     0.049 A 
ATOM     72  H   UNL A   1      42.672  31.349  33.298  1.00  0.00     0.167 HD
ATOM     73  C   UNL A   1      40.467  32.948  35.606  1.00  0.00     0.074 A 
ATOM     74  C   UNL A   1      39.759  33.379  36.803  1.00  0.00     0.031 C 
ATOM     75  C   UNL A   1      41.810  32.720  35.428  1.00  0.00     0.034 A 
BRANCH  62  76
ATOM     76  C   UNL A   1      45.274  32.275  30.323  1.00  0.00     0.023 A 
ATOM     77  C   UNL A   1      45.323  32.850  29.026  1.00  0.00     0.031 A 
ATOM     78  C   UNL A   1      46.499  31.726  30.762  1.00  0.00     0.131 A 
ATOM     79  C   UNL A   1      46.494  32.836  28.235  1.00  0.00     0.055 A 
ATOM     80  C   UNL A   1      47.682  31.764  29.998  1.00  0.00     0.041 A 
ATOM     81  F   UNL A   1      46.612  31.079  31.929  1.00  0.00    -0.206 F 
ATOM     82  C   UNL A   1      47.683  32.310  28.723  1.00  0.00     0.022 A 
BRANCH  79  83
ATOM     83  S   UNL A   1      46.439  33.483  26.534  1.00  0.00     0.124 S 
ATOM     84  O   UNL A   1      47.757  33.126  26.022  1.00  0.00    -0.237 OA
ATOM     85  O   UNL A   1      45.305  32.768  25.960  1.00  0.00    -0.237 OA
ATOM     86  O   UNL A   1      46.223  34.919  26.724  1.00  0.00    -0.744 OA
ENDBRANCH  79  83
ENDBRANCH  62  76
BRANCH  63  87
ATOM     87  C   UNL A   1      35.809  33.801  33.988  1.00  0.00     0.023 A 
ATOM     88  C   UNL A   1      35.022  34.994  33.884  1.00  0.00     0.031 A 
ATOM     89  C   UNL A   1      35.416  32.711  33.191  1.00  0.00     0.131 A 
ATOM     90  C   UNL A   1      34.115  35.161  32.816  1.00  0.00     0.055 A 
ATOM     91  C   UNL A   1      34.481  32.877  32.153  1.00  0.00     0.041 A 
ATOM     92  F   UNL A   1      36.089  31.552  33.240  1.00  0.00    -0.206 F 
ATOM     93  C   UNL A   1      33.885  34.119  31.919  1.00  0.00     0.022 A 
BRANCH  90  94
ATOM     94  S   UNL A   1      33.420  36.815  32.452  1.00  0.00     0.124 S 
ATOM     95  O   UNL A   1      32.046  36.690  32.925  1.00  0.00    -0.237 OA
ATOM     96  O   UNL A   1      34.281  37.721  33.204  1.00  0.00    -0.237 OA
ATOM     97  O   UNL A   1      33.569  36.933  31.001  1.00  0.00    -0.744 OA
ENDBRANCH  90  94
ENDBRANCH  63  87
BRANCH  75  98
ATOM     98  C   UNL A   1      42.649  31.963  36.434  1.00  0.00     0.023 A 
ATOM     99  C   UNL A   1      43.127  30.686  36.152  1.00  0.00     0.031 A 
ATOM    100  C   UNL A   1      43.140  32.554  37.631  1.00  0.00     0.131 A 
ATOM    101  C   UNL A   1      43.948  30.006  37.056  1.00  0.00     0.055 A 
ATOM    102  C   UNL A   1      44.045  31.915  38.479  1.00  0.00     0.041 A 
ATOM    103  F   UNL A   1      42.793  33.789  38.023  1.00  0.00    -0.206 F 
ATOM    104  C   UNL A   1      44.440  30.617  38.205  1.00  0.00     0.022 A 
BRANCH 101 105
ATOM    105  S   UNL A   1      44.244  28.262  36.716  1.00  0.00     0.124 S 
ATOM    106  O   UNL A   1      45.651  28.128  37.089  1.00  0.00    -0.237 OA
ATOM    107  O   UNL A   1      43.290  27.604  37.602  1.00  0.00    -0.237 OA
ATOM    108  O   UNL A   1      43.962  28.138  35.289  1.00  0.00    -0.744 OA
ENDBRANCH 101 105
ENDBRANCH  75  98
ENDBRANCH  49  50
ENDBRANCH  42  44
ENDBRANCH  41  42
ENDBRANCH  40  41
ENDBRANCH  39  40
ENDBRANCH  38  39
ENDBRANCH  37  38
ENDBRANCH  36  37
ENDBRANCH  35  36
ENDBRANCH   1  35
TORSDOF 27
ENDMDL
MODEL 2
REMARK VINA RESULT:      -9.6      4.938     11.827
REMARK SMILES COc1cc(Cl)c(C)cc1N1C(=O)C[C@H](Nc2cc(C(=O)OCCOCCOCCOCCOC(=O)c3ccc(-c4c5nc(c(-c6cc(S(=O)(=O)[O-])ccc6F)c6ccc([nH]6)c(-c6cc(S(=O)(=O)[O-])ccc6F)c6nc(c(-c7cc(S(=O)(=O)[O-])ccc7F)c7ccc4[nH]7)C=C6)C=C5)cc3)ccc2C)C1=O
REMARK SMILES IDX 27 1 26 2 25 3 24 4 23 5 22 6 20 7 21 8 19 9 17 10 18 11
REMARK SMILES IDX 102 12 101 13 103 14 100 15 16 16 15 18 11 19 12 20 104 21
REMARK SMILES IDX 13 22 14 23 105 24 10 25 3 26 4 27 5 28 9 29 6 30 7 31 8 32
REMARK SMILES IDX 2 33 1 34 28 35 29 36 30 37 31 38 32 39 33 40 34 41 35 42
REMARK SMILES IDX 36 43 37 44 38 45 99 46 39 47 98 48 40 49 41 50 42 51 92 52
REMARK SMILES IDX 43 53 97 54 91 55 93 56 44 57 96 58 90 59 89 60 45 62 77 63
REMARK SMILES IDX 57 64 76 65 58 66 61 67 75 68 94 69 59 70 60 71 74 73 95 74
REMARK SMILES IDX 62 75 46 76 47 77 55 78 48 79 54 80 56 81 53 82 49 83 50 84
REMARK SMILES IDX 51 85 52 86 78 87 79 88 87 89 80 90 86 91 88 92 85 93 81 94
REMARK SMILES IDX 82 95 83 96 84 97 63 98 64 99 72 100 65 101 71 102 73 103
REMARK SMILES IDX 70 104 66 105 67 106 68 107 69 108
REMARK H PARENT 16 17 93 61 61 72
REMARK Flexibility Score: inf
ROOT
ATOM      1  C   UNL A   1      40.095  23.696  27.540  1.00  0.00     0.188 C 
ENDROOT
BRANCH   1   2
ATOM      2  C   UNL A   1      40.489  25.012  28.226  1.00  0.00     0.188 C 
BRANCH   2   3
ATOM      3  O   UNL A   1      39.510  26.004  28.497  1.00  0.00    -0.376 OA
BRANCH   3   4
ATOM      4  C   UNL A   1      40.026  27.238  28.995  1.00  0.00     0.202 C 
BRANCH   4   5
ATOM      5  C   UNL A   1      40.424  28.263  27.939  1.00  0.00     0.261 C 
BRANCH   5   6
ATOM      6  O   UNL A   1      39.518  29.369  27.968  1.00  0.00    -0.460 OA
BRANCH   6   7
ATOM      7  C   UNL A   1      39.445  29.994  29.159  1.00  0.00     0.338 C 
ATOM      8  O   UNL A   1      40.332  30.164  29.961  1.00  0.00    -0.246 OA
BRANCH   7   9
ATOM      9  C   UNL A   1      38.199  30.794  29.152  1.00  0.00     0.062 A 
ATOM     10  C   UNL A   1      35.995  31.445  28.325  1.00  0.00     0.038 A 
ATOM     11  C   UNL A   1      37.104  30.584  28.292  1.00  0.00     0.041 A 
ATOM     12  C   UNL A   1      36.040  32.535  29.224  1.00  0.00    -0.028 A 
ATOM     13  C   UNL A   1      37.186  32.792  29.999  1.00  0.00     0.006 A 
ATOM     14  C   UNL A   1      34.858  33.413  29.513  1.00  0.00     0.046 C 
ATOM     15  C   UNL A   1      38.256  31.923  29.968  1.00  0.00     0.016 A 
BRANCH  10  16
ATOM     16  N   UNL A   1      34.986  31.378  27.353  1.00  0.00    -0.373 N 
ATOM     17  H   UNL A   1      35.082  31.896  26.521  1.00  0.00     0.161 HD
BRANCH  16  18
ATOM     18  C   UNL A   1      33.786  30.547  27.552  1.00  0.00     0.179 C 
ATOM     19  N   UNL A   1      32.896  28.928  26.070  1.00  0.00    -0.245 N 
ATOM     20  C   UNL A   1      32.113  30.035  25.903  1.00  0.00     0.236 C 
ATOM     21  C   UNL A   1      33.921  29.141  26.963  1.00  0.00     0.256 C 
ATOM     22  O   UNL A   1      31.114  30.146  25.202  1.00  0.00    -0.274 OA
ATOM     23  C   UNL A   1      32.611  31.137  26.788  1.00  0.00     0.136 C 
ATOM     24  O   UNL A   1      34.826  28.369  27.247  1.00  0.00    -0.272 OA
BRANCH  19  25
ATOM     25  C   UNL A   1      32.611  27.684  25.457  1.00  0.00     0.094 A 
ATOM     26  C   UNL A   1      33.233  27.295  24.259  1.00  0.00     0.144 A 
ATOM     27  C   UNL A   1      32.932  26.066  23.663  1.00  0.00     0.069 A 
ATOM     28  C   UNL A   1      32.021  25.198  24.267  1.00  0.00     0.047 A 
ATOM     29  C   UNL A   1      31.718  26.784  26.069  1.00  0.00     0.035 A 
ATOM     30  Cl  UNL A   1      31.716  23.677  23.498  1.00  0.00    -0.084 Cl
ATOM     31  C   UNL A   1      31.394  25.547  25.473  1.00  0.00    -0.030 A 
ATOM     32  C   UNL A   1      30.370  24.651  26.114  1.00  0.00     0.046 C 
BRANCH  26  33
ATOM     33  O   UNL A   1      34.174  28.064  23.624  1.00  0.00    -0.495 OA
ATOM     34  C   UNL A   1      33.594  28.888  22.611  1.00  0.00     0.278 C 
ENDBRANCH  26  33
ENDBRANCH  19  25
ENDBRANCH  16  18
ENDBRANCH  10  16
ENDBRANCH   7   9
ENDBRANCH   6   7
ENDBRANCH   5   6
ENDBRANCH   4   5
ENDBRANCH   3   4
ENDBRANCH   2   3
ENDBRANCH   1   2
BRANCH   1  35
ATOM     35  O   UNL A   1      41.098  22.702  27.422  1.00  0.00    -0.377 OA
BRANCH  35  36
ATOM     36  C   UNL A   1      41.625  22.656  26.091  1.00  0.00     0.188 C 
BRANCH  36  37
ATOM     37  C   UNL A   1      42.483  21.417  25.929  1.00  0.00     0.188 C 
BRANCH  37  38
ATOM     38  O   UNL A   1      43.869  21.556  26.223  1.00  0.00    -0.376 OA
BRANCH  38  39
ATOM     39  C   UNL A   1      44.760  21.881  25.172  1.00  0.00     0.202 C 
BRANCH  39  40
ATOM     40  C   UNL A   1      45.570  23.167  25.387  1.00  0.00     0.261 C 
BRANCH  40  41
ATOM     41  O   UNL A   1      44.683  24.243  25.759  1.00  0.00    -0.460 OA
BRANCH  41  42
ATOM     42  C   UNL A   1      45.203  25.175  26.610  1.00  0.00     0.338 C 
ATOM     43  O   UNL A   1      45.714  26.226  26.267  1.00  0.00    -0.246 OA
BRANCH  42  44
ATOM     44  C   UNL A   1      45.257  24.618  27.999  1.00  0.00     0.060 A 
ATOM     45  C   UNL A   1      44.119  24.000  28.555  1.00  0.00     0.016 A 
ATOM     46  C   UNL A   1      46.284  25.029  28.837  1.00  0.00     0.016 A 
ATOM     47  C   UNL A   1      43.921  23.998  29.951  1.00  0.00     0.010 A 
ATOM     48  C   UNL A   1      46.039  25.101  30.196  1.00  0.00     0.010 A 
ATOM     49  C   UNL A   1      44.835  24.655  30.775  1.00  0.00    -0.014 A 
BRANCH  49  50
ATOM     50  C   UNL A   1      44.570  25.157  32.153  1.00  0.00     0.031 A 
ATOM     51  C   UNL A   1      43.867  26.485  32.306  1.00  0.00     0.074 A 
ATOM     52  C   UNL A   1      44.599  24.267  33.191  1.00  0.00     0.049 A 
ATOM     53  N   UNL A   1      43.426  26.974  33.412  1.00  0.00    -0.248 NA
ATOM     54  C   UNL A   1      43.547  27.378  31.185  1.00  0.00     0.031 C 
ATOM     55  C   UNL A   1      43.836  24.326  34.443  1.00  0.00     0.029 A 
ATOM     56  N   UNL A   1      45.284  23.055  33.331  1.00  0.00    -0.354 N 
ATOM     57  C   UNL A   1      42.525  27.996  33.145  1.00  0.00     0.074 A 
ATOM     58  C   UNL A   1      42.690  28.247  31.739  1.00  0.00     0.031 C 
ATOM     59  C   UNL A   1      44.110  23.284  35.240  1.00  0.00     0.029 A 
ATOM     60  C   UNL A   1      45.287  22.674  34.695  1.00  0.00     0.049 A 
ATOM     61  H   UNL A   1      45.698  22.547  32.597  1.00  0.00     0.167 HD
ATOM     62  C   UNL A   1      41.679  28.413  34.141  1.00  0.00     0.034 A 
ATOM     63  C   UNL A   1      46.454  22.641  35.402  1.00  0.00     0.034 A 
ATOM     64  C   UNL A   1      42.056  27.808  35.432  1.00  0.00     0.049 A 
ATOM     65  C   UNL A   1      46.526  23.877  36.321  1.00  0.00     0.074 A 
ATOM     66  C   UNL A   1      41.391  27.098  36.416  1.00  0.00     0.029 A 
ATOM     67  N   UNL A   1      43.405  27.758  35.778  1.00  0.00    -0.354 N 
ATOM     68  N   UNL A   1      45.878  25.002  36.074  1.00  0.00    -0.248 NA
ATOM     69  C   UNL A   1      47.067  23.867  37.682  1.00  0.00     0.031 C 
ATOM     70  C   UNL A   1      42.378  26.475  37.240  1.00  0.00     0.029 A 
ATOM     71  C   UNL A   1      43.635  26.888  36.816  1.00  0.00     0.049 A 
ATOM     72  H   UNL A   1      44.108  28.284  35.333  1.00  0.00     0.167 HD
ATOM     73  C   UNL A   1      45.774  25.750  37.218  1.00  0.00     0.074 A 
ATOM     74  C   UNL A   1      46.587  25.024  38.182  1.00  0.00     0.031 C 
ATOM     75  C   UNL A   1      44.954  26.835  37.418  1.00  0.00     0.034 A 
BRANCH  62  76
ATOM     76  C   UNL A   1      40.396  29.240  33.997  1.00  0.00     0.023 A 
ATOM     77  C   UNL A   1      40.163  30.312  34.899  1.00  0.00     0.031 A 
ATOM     78  C   UNL A   1      39.324  28.979  33.116  1.00  0.00     0.131 A 
ATOM     79  C   UNL A   1      38.944  31.026  34.928  1.00  0.00     0.055 A 
ATOM     80  C   UNL A   1      38.132  29.729  33.104  1.00  0.00     0.041 A 
ATOM     81  F   UNL A   1      39.347  27.957  32.251  1.00  0.00    -0.206 F 
ATOM     82  C   UNL A   1      37.930  30.751  34.019  1.00  0.00     0.022 A 
BRANCH  79  83
ATOM     83  S   UNL A   1      38.679  32.303  36.197  1.00  0.00     0.124 S 
ATOM     84  O   UNL A   1      39.689  33.298  35.854  1.00  0.00    -0.237 OA
ATOM     85  O   UNL A   1      37.289  32.687  35.974  1.00  0.00    -0.237 OA
ATOM     86  O   UNL A   1      38.922  31.591  37.453  1.00  0.00    -0.744 OA
ENDBRANCH  79  83
ENDBRANCH  62  76
BRANCH  63  87
ATOM     87  C   UNL A   1      47.442  21.804  34.633  1.00  0.00     0.023 A 
ATOM     88  C   UNL A   1      48.474  22.575  34.006  1.00  0.00     0.031 A 
ATOM     89  C   UNL A   1      47.809  20.540  35.130  1.00  0.00     0.131 A 
ATOM     90  C   UNL A   1      49.830  22.223  34.170  1.00  0.00     0.055 A 
ATOM     91  C   UNL A   1      49.164  20.180  35.254  1.00  0.00     0.041 A 
ATOM     92  F   UNL A   1      46.901  19.747  35.717  1.00  0.00    -0.206 F 
ATOM     93  C   UNL A   1      50.176  21.050  34.841  1.00  0.00     0.022 A 
BRANCH  90  94
ATOM     94  S   UNL A   1      51.149  23.412  33.725  1.00  0.00     0.124 S 
ATOM     95  O   UNL A   1      50.795  24.585  34.517  1.00  0.00    -0.237 OA
ATOM     96  O   UNL A   1      52.375  22.721  34.108  1.00  0.00    -0.237 OA
ATOM     97  O   UNL A   1      50.991  23.568  32.279  1.00  0.00    -0.744 OA
ENDBRANCH  90  94
ENDBRANCH  63  87
BRANCH  75  98
ATOM     98  C   UNL A   1      45.364  28.022  38.260  1.00  0.00     0.023 A 
ATOM     99  C   UNL A   1      45.151  28.033  39.636  1.00  0.00     0.031 A 
ATOM    100  C   UNL A   1      46.132  29.104  37.747  1.00  0.00     0.131 A 
ATOM    101  C   UNL A   1      45.578  29.104  40.426  1.00  0.00     0.055 A 
ATOM    102  C   UNL A   1      46.651  30.118  38.554  1.00  0.00     0.041 A 
ATOM    103  F   UNL A   1      46.445  29.218  36.448  1.00  0.00    -0.206 F 
ATOM    104  C   UNL A   1      46.355  30.136  39.906  1.00  0.00     0.022 A 
BRANCH 101 105
ATOM    105  S   UNL A   1      44.976  29.141  42.122  1.00  0.00     0.124 S 
ATOM    106  O   UNL A   1      46.030  29.904  42.788  1.00  0.00    -0.237 OA
ATOM    107  O   UNL A   1      43.694  29.823  41.986  1.00  0.00    -0.237 OA
ATOM    108  O   UNL A   1      44.900  27.730  42.490  1.00  0.00    -0.744 OA
ENDBRANCH 101 105
ENDBRANCH  75  98
ENDBRANCH  49  50
ENDBRANCH  42  44
ENDBRANCH  41  42
ENDBRANCH  40  41
ENDBRANCH  39  40
ENDBRANCH  38  39
ENDBRANCH  37  38
ENDBRANCH  36  37
ENDBRANCH  35  36
ENDBRANCH   1  35
TORSDOF 27
ENDMDL
MODEL 3
REMARK VINA RESULT:      -9.6      1.900      2.399
REMARK SMILES COc1cc(Cl)c(C)cc1N1C(=O)C[C@H](Nc2cc(C(=O)OCCOCCOCCOCCOC(=O)c3ccc(-c4c5nc(c(-c6cc(S(=O)(=O)[O-])ccc6F)c6ccc([nH]6)c(-c6cc(S(=O)(=O)[O-])ccc6F)c6nc(c(-c7cc(S(=O)(=O)[O-])ccc7F)c7ccc4[nH]7)C=C6)C=C5)cc3)ccc2C)C1=O
REMARK SMILES IDX 27 1 26 2 25 3 24 4 23 5 22 6 20 7 21 8 19 9 17 10 18 11
REMARK SMILES IDX 102 12 101 13 103 14 100 15 16 16 15 18 11 19 12 20 104 21
REMARK SMILES IDX 13 22 14 23 105 24 10 25 3 26 4 27 5 28 9 29 6 30 7 31 8 32
REMARK SMILES IDX 2 33 1 34 28 35 29 36 30 37 31 38 32 39 33 40 34 41 35 42
REMARK SMILES IDX 36 43 37 44 38 45 99 46 39 47 98 48 40 49 41 50 42 51 92 52
REMARK SMILES IDX 43 53 97 54 91 55 93 56 44 57 96 58 90 59 89 60 45 62 77 63
REMARK SMILES IDX 57 64 76 65 58 66 61 67 75 68 94 69 59 70 60 71 74 73 95 74
REMARK SMILES IDX 62 75 46 76 47 77 55 78 48 79 54 80 56 81 53 82 49 83 50 84
REMARK SMILES IDX 51 85 52 86 78 87 79 88 87 89 80 90 86 91 88 92 85 93 81 94
REMARK SMILES IDX 82 95 83 96 84 97 63 98 64 99 72 100 65 101 71 102 73 103
REMARK SMILES IDX 70 104 66 105 67 106 68 107 69 108
REMARK H PARENT 16 17 93 61 61 72
REMARK Flexibility Score: inf
ROOT
ATOM      1  C   UNL A   1      30.734  24.463  25.123  1.00  0.00     0.188 C 
ENDROOT
BRANCH   1   2
ATOM      2  C   UNL A   1      31.455  23.152  24.780  1.00  0.00     0.188 C 
BRANCH   2   3
ATOM      3  O   UNL A   1      32.821  22.971  25.123  1.00  0.00    -0.376 OA
BRANCH   3   4
ATOM      4  C   UNL A   1      33.108  21.768  25.835  1.00  0.00     0.202 C 
BRANCH   4   5
ATOM      5  C   UNL A   1      34.514  21.661  26.416  1.00  0.00     0.261 C 
BRANCH   5   6
ATOM      6  O   UNL A   1      35.349  20.905  25.534  1.00  0.00    -0.460 OA
BRANCH   6   7
ATOM      7  C   UNL A   1      36.207  21.650  24.811  1.00  0.00     0.338 C 
ATOM      8  O   UNL A   1      35.965  22.641  24.166  1.00  0.00    -0.246 OA
BRANCH   7   9
ATOM      9  C   UNL A   1      37.573  21.292  25.258  1.00  0.00     0.062 A 
ATOM     10  C   UNL A   1      39.871  21.762  25.938  1.00  0.00     0.038 A 
ATOM     11  C   UNL A   1      38.587  22.211  25.587  1.00  0.00     0.041 A 
ATOM     12  C   UNL A   1      40.105  20.368  25.917  1.00  0.00    -0.028 A 
ATOM     13  C   UNL A   1      39.112  19.471  25.482  1.00  0.00     0.006 A 
ATOM     14  C   UNL A   1      41.354  19.735  26.457  1.00  0.00     0.046 C 
ATOM     15  C   UNL A   1      37.852  19.929  25.162  1.00  0.00     0.016 A 
BRANCH  10  16
ATOM     16  N   UNL A   1      40.946  22.653  26.077  1.00  0.00    -0.373 N 
ATOM     17  H   UNL A   1      41.613  22.720  25.356  1.00  0.00     0.161 HD
BRANCH  16  18
ATOM     18  C   UNL A   1      41.096  23.489  27.281  1.00  0.00     0.179 C 
ATOM     19  N   UNL A   1      43.113  24.154  28.328  1.00  0.00    -0.245 N 
ATOM     20  C   UNL A   1      42.636  23.126  29.090  1.00  0.00     0.236 C 
ATOM     21  C   UNL A   1      42.322  24.404  27.230  1.00  0.00     0.256 C 
ATOM     22  O   UNL A   1      43.102  22.692  30.138  1.00  0.00    -0.274 OA
ATOM     23  C   UNL A   1      41.360  22.613  28.495  1.00  0.00     0.136 C 
ATOM     24  O   UNL A   1      42.540  25.199  26.328  1.00  0.00    -0.272 OA
BRANCH  19  25
ATOM     25  C   UNL A   1      44.245  24.923  28.694  1.00  0.00     0.094 A 
ATOM     26  C   UNL A   1      45.496  24.723  28.089  1.00  0.00     0.144 A 
ATOM     27  C   UNL A   1      46.605  25.487  28.470  1.00  0.00     0.069 A 
ATOM     28  C   UNL A   1      46.474  26.476  29.446  1.00  0.00     0.047 A 
ATOM     29  C   UNL A   1      44.122  25.944  29.654  1.00  0.00     0.035 A 
ATOM     30  Cl  UNL A   1      47.874  27.409  29.850  1.00  0.00    -0.084 Cl
ATOM     31  C   UNL A   1      45.234  26.712  30.059  1.00  0.00    -0.030 A 
ATOM     32  C   UNL A   1      45.081  27.737  31.150  1.00  0.00     0.046 C 
BRANCH  26  33
ATOM     33  O   UNL A   1      45.704  23.808  27.088  1.00  0.00    -0.495 OA
ATOM     34  C   UNL A   1      46.922  24.054  26.385  1.00  0.00     0.278 C 
ENDBRANCH  26  33
ENDBRANCH  19  25
ENDBRANCH  16  18
ENDBRANCH  10  16
ENDBRANCH   7   9
ENDBRANCH   6   7
ENDBRANCH   5   6
ENDBRANCH   4   5
ENDBRANCH   3   4
ENDBRANCH   2   3
ENDBRANCH   1   2
BRANCH   1  35
ATOM     35  O   UNL A   1      30.229  25.226  24.040  1.00  0.00    -0.377 OA
BRANCH  35  36
ATOM     36  C   UNL A   1      30.789  26.544  24.032  1.00  0.00     0.188 C 
BRANCH  36  37
ATOM     37  C   UNL A   1      31.458  26.818  25.365  1.00  0.00     0.188 C 
BRANCH  37  38
ATOM     38  O   UNL A   1      31.446  28.166  25.821  1.00  0.00    -0.376 OA
BRANCH  38  39
ATOM     39  C   UNL A   1      32.315  29.102  25.208  1.00  0.00     0.202 C 
BRANCH  39  40
ATOM     40  C   UNL A   1      33.807  28.872  25.482  1.00  0.00     0.261 C 
BRANCH  40  41
ATOM     41  O   UNL A   1      34.037  28.815  26.906  1.00  0.00    -0.460 OA
BRANCH  41  42
ATOM     42  C   UNL A   1      34.550  29.947  27.471  1.00  0.00     0.338 C 
ATOM     43  O   UNL A   1      34.083  31.064  27.342  1.00  0.00    -0.246 OA
BRANCH  42  44
ATOM     44  C   UNL A   1      35.885  29.648  28.080  1.00  0.00     0.060 A 
ATOM     45  C   UNL A   1      35.978  29.309  29.444  1.00  0.00     0.016 A 
ATOM     46  C   UNL A   1      37.026  30.053  27.401  1.00  0.00     0.016 A 
ATOM     47  C   UNL A   1      37.155  29.588  30.168  1.00  0.00     0.010 A 
ATOM     48  C   UNL A   1      38.142  30.404  28.138  1.00  0.00     0.010 A 
ATOM     49  C   UNL A   1      38.210  30.246  29.535  1.00  0.00    -0.014 A 
BRANCH  49  50
ATOM     50  C   UNL A   1      39.290  31.022  30.209  1.00  0.00     0.031 A 
ATOM     51  C   UNL A   1      40.702  30.489  30.138  1.00  0.00     0.074 A 
ATOM     52  C   UNL A   1      39.062  32.335  30.511  1.00  0.00     0.049 A 
ATOM     53  N   UNL A   1      41.758  31.116  30.524  1.00  0.00    -0.248 NA
ATOM     54  C   UNL A   1      41.060  29.187  29.561  1.00  0.00     0.031 C 
ATOM     55  C   UNL A   1      40.046  33.421  30.590  1.00  0.00     0.029 A 
ATOM     56  N   UNL A   1      37.866  33.017  30.760  1.00  0.00    -0.354 N 
ATOM     57  C   UNL A   1      42.884  30.515  29.979  1.00  0.00     0.074 A 
ATOM     58  C   UNL A   1      42.392  29.276  29.441  1.00  0.00     0.031 C 
ATOM     59  C   UNL A   1      39.473  34.588  30.913  1.00  0.00     0.029 A 
ATOM     60  C   UNL A   1      38.154  34.262  31.370  1.00  0.00     0.049 A 
ATOM     61  H   UNL A   1      36.966  32.683  30.544  1.00  0.00     0.167 HD
ATOM     62  C   UNL A   1      44.067  31.209  29.965  1.00  0.00     0.034 A 
ATOM     63  C   UNL A   1      37.776  34.505  32.658  1.00  0.00     0.034 A 
ATOM     64  C   UNL A   1      43.956  32.444  30.763  1.00  0.00     0.049 A 
ATOM     65  C   UNL A   1      39.008  34.398  33.578  1.00  0.00     0.074 A 
ATOM     66  C   UNL A   1      44.220  33.784  30.544  1.00  0.00     0.029 A 
ATOM     67  N   UNL A   1      43.316  32.385  32.000  1.00  0.00    -0.354 N 
ATOM     68  N   UNL A   1      40.077  33.682  33.276  1.00  0.00    -0.248 NA
ATOM     69  C   UNL A   1      39.264  35.272  34.725  1.00  0.00     0.031 C 
ATOM     70  C   UNL A   1      43.564  34.528  31.573  1.00  0.00     0.029 A 
ATOM     71  C   UNL A   1      42.989  33.635  32.468  1.00  0.00     0.049 A 
ATOM     72  H   UNL A   1      43.120  31.548  32.480  1.00  0.00     0.167 HD
ATOM     73  C   UNL A   1      41.149  34.090  34.028  1.00  0.00     0.074 A 
ATOM     74  C   UNL A   1      40.573  35.046  34.962  1.00  0.00     0.031 C 
ATOM     75  C   UNL A   1      42.469  33.774  33.815  1.00  0.00     0.034 A 
BRANCH  62  76
ATOM     76  C   UNL A   1      45.316  30.918  29.125  1.00  0.00     0.023 A 
ATOM     77  C   UNL A   1      45.185  30.149  27.939  1.00  0.00     0.031 A 
ATOM     78  C   UNL A   1      46.649  31.238  29.466  1.00  0.00     0.131 A 
ATOM     79  C   UNL A   1      46.302  29.713  27.191  1.00  0.00     0.055 A 
ATOM     80  C   UNL A   1      47.760  30.854  28.688  1.00  0.00     0.041 A 
ATOM     81  F   UNL A   1      46.958  31.894  30.591  1.00  0.00    -0.206 F 
ATOM     82  C   UNL A   1      47.593  30.080  27.550  1.00  0.00     0.022 A 
BRANCH  79  83
ATOM     83  S   UNL A   1      46.054  28.626  25.752  1.00  0.00     0.124 S 
ATOM     84  O   UNL A   1      44.621  28.358  25.808  1.00  0.00    -0.237 OA
ATOM     85  O   UNL A   1      46.515  29.457  24.645  1.00  0.00    -0.237 OA
ATOM     86  O   UNL A   1      46.905  27.473  26.046  1.00  0.00    -0.744 OA
ENDBRANCH  79  83
ENDBRANCH  62  76
BRANCH  63  87
ATOM     87  C   UNL A   1      36.304  34.203  32.778  1.00  0.00     0.023 A 
ATOM     88  C   UNL A   1      35.498  34.937  31.849  1.00  0.00     0.031 A 
ATOM     89  C   UNL A   1      35.892  32.893  33.078  1.00  0.00     0.131 A 
ATOM     90  C   UNL A   1      34.543  34.273  31.051  1.00  0.00     0.055 A 
ATOM     91  C   UNL A   1      34.910  32.250  32.301  1.00  0.00     0.041 A 
ATOM     92  F   UNL A   1      36.581  32.142  33.949  1.00  0.00    -0.206 F 
ATOM     93  C   UNL A   1      34.288  32.915  31.242  1.00  0.00     0.022 A 
BRANCH  90  94
ATOM     94  S   UNL A   1      33.811  35.117  29.600  1.00  0.00     0.124 S 
ATOM     95  O   UNL A   1      34.933  35.173  28.669  1.00  0.00    -0.237 OA
ATOM     96  O   UNL A   1      32.702  34.247  29.222  1.00  0.00    -0.237 OA
ATOM     97  O   UNL A   1      33.385  36.409  30.139  1.00  0.00    -0.744 OA
ENDBRANCH  90  94
ENDBRANCH  63  87
BRANCH  75  98
ATOM     98  C   UNL A   1      43.447  33.553  34.947  1.00  0.00     0.023 A 
ATOM     99  C   UNL A   1      43.293  32.486  35.829  1.00  0.00     0.031 A 
ATOM    100  C   UNL A   1      44.654  34.293  35.080  1.00  0.00     0.131 A 
ATOM    101  C   UNL A   1      44.226  32.246  36.843  1.00  0.00     0.055 A 
ATOM    102  C   UNL A   1      45.636  33.985  36.023  1.00  0.00     0.041 A 
ATOM    103  F   UNL A   1      44.958  35.330  34.285  1.00  0.00    -0.206 F 
ATOM    104  C   UNL A   1      45.414  32.965  36.932  1.00  0.00     0.022 A 
BRANCH 101 105
ATOM    105  S   UNL A   1      43.758  31.038  38.093  1.00  0.00     0.124 S 
ATOM    106  O   UNL A   1      42.394  31.459  38.409  1.00  0.00    -0.237 OA
ATOM    107  O   UNL A   1      43.878  29.776  37.372  1.00  0.00    -0.237 OA
ATOM    108  O   UNL A   1      44.737  31.248  39.156  1.00  0.00    -0.744 OA
ENDBRANCH 101 105
ENDBRANCH  75  98
ENDBRANCH  49  50
ENDBRANCH  42  44
ENDBRANCH  41  42
ENDBRANCH  40  41
ENDBRANCH  39  40
ENDBRANCH  38  39
ENDBRANCH  37  38
ENDBRANCH  36  37
ENDBRANCH  35  36
ENDBRANCH   1  35
TORSDOF 27
ENDMDL
