MODEL 1
REMARK VINA RESULT:     -10.1      0.000      0.000
REMARK SMILES CN(C(=O)N[C@@](C)(C(=O)OCCOCCOCCOCCOC(=O)c1ccc(-c2c3nc(c(-c4cc(S(=O)(=O)[O-])ccc4F)c4ccc([nH]4)c(-c4cc(S(=O)(=O)[O-])ccc4F)c4nc(c(-c5cc(S(=O)(=O)[O-])ccc5F)c5ccc2[nH]5)C=C4)C=C3)cc1)C(F)(F)F)c1ccc(F)cc1
REMARK SMILES IDX 16 1 15 2 14 3 13 4 12 5 11 6 10 7 8 8 9 9 6 10 7 11 5 12
REMARK SMILES IDX 3 13 4 14 2 16 1 17 92 18 93 19 98 20 94 21 97 22 95 23
REMARK SMILES IDX 96 24 88 25 89 26 90 27 91 28 17 29 18 30 19 31 20 32 21 33
REMARK SMILES IDX 22 34 23 35 24 36 25 37 26 38 87 39 27 40 86 41 28 42 29 43
REMARK SMILES IDX 30 44 80 45 31 46 85 47 79 48 81 49 32 50 84 51 78 52 77 53
REMARK SMILES IDX 33 55 65 56 45 57 64 58 46 59 49 60 63 61 82 62 47 63 48 64
REMARK SMILES IDX 62 66 83 67 50 68 34 69 35 70 43 71 36 72 42 73 44 74 41 75
REMARK SMILES IDX 37 76 38 77 39 78 40 79 66 80 67 81 75 82 68 83 74 84 76 85
REMARK SMILES IDX 73 86 69 87 70 88 71 89 72 90 51 91 52 92 60 93 53 94 59 95
REMARK SMILES IDX 61 96 58 97 54 98 55 99 56 100 57 101
REMARK H PARENT 5 15 81 54 49 65
REMARK Flexibility Score: inf
ROOT
ATOM      1  O   UNL A   1      34.888  30.046  27.943  1.00  0.00    -0.377 OA
ENDROOT
BRANCH   1   2
ATOM      2  C   UNL A   1      34.334  29.453  26.788  1.00  0.00     0.188 C 
BRANCH   2   3
ATOM      3  C   UNL A   1      32.798  29.519  26.725  1.00  0.00     0.188 C 
BRANCH   3   4
ATOM      4  O   UNL A   1      32.145  30.303  25.736  1.00  0.00    -0.376 OA
BRANCH   4   5
ATOM      5  C   UNL A   1      31.163  29.759  24.866  1.00  0.00     0.202 C 
BRANCH   5   6
ATOM      6  C   UNL A   1      31.508  28.956  23.591  1.00  0.00     0.261 C 
BRANCH   6   7
ATOM      7  O   UNL A   1      31.683  27.532  23.740  1.00  0.00    -0.461 OA
BRANCH   7   8
ATOM      8  C   UNL A   1      32.954  27.120  23.936  1.00  0.00     0.341 C 
ATOM      9  O   UNL A   1      33.916  27.825  23.652  1.00  0.00    -0.249 OA
BRANCH   8  10
ATOM     10  C   UNL A   1      33.058  25.637  24.386  1.00  0.00     0.232 C 
ATOM     11  C   UNL A   1      34.350  25.131  23.698  1.00  0.00     0.058 C 
BRANCH  10  12
ATOM     12  N   UNL A   1      31.980  24.616  23.888  1.00  0.00    -0.314 N 
ATOM     13  C   UNL A   1      31.369  23.409  23.945  1.00  0.00     0.322 C 
ATOM     14  O   UNL A   1      30.482  23.306  23.085  1.00  0.00    -0.248 OA
ATOM     15  H   UNL A   1      31.505  25.094  23.169  1.00  0.00     0.166 HD
BRANCH  13  16
ATOM     16  N   UNL A   1      31.602  22.403  24.853  1.00  0.00    -0.298 N 
ATOM     17  C   UNL A   1      30.991  22.298  26.157  1.00  0.00     0.155 C 
BRANCH  16  18
ATOM     18  C   UNL A   1      32.568  21.332  24.610  1.00  0.00     0.045 A 
ATOM     19  C   UNL A   1      33.876  21.353  25.118  1.00  0.00     0.029 A 
ATOM     20  C   UNL A   1      32.145  20.144  23.968  1.00  0.00     0.029 A 
ATOM     21  C   UNL A   1      34.686  20.203  25.065  1.00  0.00     0.041 A 
ATOM     22  C   UNL A   1      32.952  19.003  23.909  1.00  0.00     0.041 A 
ATOM     23  C   UNL A   1      34.210  19.036  24.481  1.00  0.00     0.123 A 
ATOM     24  F   UNL A   1      34.964  17.928  24.481  1.00  0.00    -0.207 F 
ENDBRANCH  16  18
ENDBRANCH  13  16
ENDBRANCH  10  12
BRANCH  10  25
ATOM     25  C   UNL A   1      33.364  25.775  25.880  1.00  0.00     0.422 C 
ATOM     26  F   UNL A   1      32.375  26.428  26.538  1.00  0.00    -0.168 F 
ATOM     27  F   UNL A   1      33.527  24.557  26.458  1.00  0.00    -0.168 F 
ATOM     28  F   UNL A   1      34.515  26.434  26.146  1.00  0.00    -0.168 F 
ENDBRANCH  10  25
ENDBRANCH   8  10
ENDBRANCH   7   8
ENDBRANCH   6   7
ENDBRANCH   5   6
ENDBRANCH   4   5
ENDBRANCH   3   4
ENDBRANCH   2   3
ENDBRANCH   1   2
BRANCH   1  29
ATOM     29  C   UNL A   1      35.400  31.356  27.799  1.00  0.00     0.188 C 
BRANCH  29  30
ATOM     30  C   UNL A   1      34.654  32.485  28.533  1.00  0.00     0.188 C 
BRANCH  30  31
ATOM     31  O   UNL A   1      35.482  33.583  28.900  1.00  0.00    -0.376 OA
BRANCH  31  32
ATOM     32  C   UNL A   1      35.152  34.318  30.070  1.00  0.00     0.202 C 
BRANCH  32  33
ATOM     33  C   UNL A   1      34.387  33.590  31.190  1.00  0.00     0.261 C 
BRANCH  33  34
ATOM     34  O   UNL A   1      34.814  32.257  31.514  1.00  0.00    -0.460 OA
BRANCH  34  35
ATOM     35  C   UNL A   1      35.744  32.098  32.485  1.00  0.00     0.338 C 
ATOM     36  O   UNL A   1      35.598  32.302  33.668  1.00  0.00    -0.246 OA
BRANCH  35  37
ATOM     37  C   UNL A   1      36.905  31.400  31.872  1.00  0.00     0.060 A 
ATOM     38  C   UNL A   1      38.184  31.639  32.391  1.00  0.00     0.016 A 
ATOM     39  C   UNL A   1      36.728  30.487  30.830  1.00  0.00     0.016 A 
ATOM     40  C   UNL A   1      39.293  30.976  31.860  1.00  0.00     0.010 A 
ATOM     41  C   UNL A   1      37.843  29.848  30.279  1.00  0.00     0.010 A 
ATOM     42  C   UNL A   1      39.134  30.105  30.776  1.00  0.00    -0.014 A 
BRANCH  42  43
ATOM     43  C   UNL A   1      40.327  29.602  30.049  1.00  0.00     0.031 A 
ATOM     44  C   UNL A   1      41.508  30.518  29.892  1.00  0.00     0.074 A 
ATOM     45  C   UNL A   1      40.366  28.357  29.541  1.00  0.00     0.049 A 
ATOM     46  N   UNL A   1      42.626  30.336  29.239  1.00  0.00    -0.248 NA
ATOM     47  C   UNL A   1      41.403  31.823  30.561  1.00  0.00     0.031 C 
ATOM     48  C   UNL A   1      39.302  27.364  29.662  1.00  0.00     0.029 A 
ATOM     49  N   UNL A   1      41.336  27.725  28.800  1.00  0.00    -0.354 N 
ATOM     50  C   UNL A   1      43.354  31.509  29.403  1.00  0.00     0.074 A 
ATOM     51  C   UNL A   1      42.532  32.405  30.191  1.00  0.00     0.031 C 
ATOM     52  C   UNL A   1      39.665  26.254  28.996  1.00  0.00     0.029 A 
ATOM     53  C   UNL A   1      40.964  26.475  28.362  1.00  0.00     0.049 A 
ATOM     54  H   UNL A   1      42.211  28.128  28.603  1.00  0.00     0.167 HD
ATOM     55  C   UNL A   1      44.594  31.809  28.940  1.00  0.00     0.034 A 
ATOM     56  C   UNL A   1      41.580  25.627  27.513  1.00  0.00     0.034 A 
ATOM     57  C   UNL A   1      45.386  30.908  28.139  1.00  0.00     0.049 A 
ATOM     58  C   UNL A   1      42.918  26.014  26.929  1.00  0.00     0.074 A 
ATOM     59  C   UNL A   1      46.669  31.088  27.653  1.00  0.00     0.029 A 
ATOM     60  N   UNL A   1      44.960  29.668  27.677  1.00  0.00    -0.354 N 
ATOM     61  N   UNL A   1      43.619  27.109  27.119  1.00  0.00    -0.248 NA
ATOM     62  C   UNL A   1      43.551  25.048  26.020  1.00  0.00     0.031 C 
ATOM     63  C   UNL A   1      46.978  30.008  26.820  1.00  0.00     0.029 A 
ATOM     64  C   UNL A   1      45.931  29.101  26.863  1.00  0.00     0.049 A 
ATOM     65  H   UNL A   1      44.094  29.251  27.895  1.00  0.00     0.167 HD
ATOM     66  C   UNL A   1      44.780  26.957  26.364  1.00  0.00     0.074 A 
ATOM     67  C   UNL A   1      44.694  25.654  25.734  1.00  0.00     0.031 C 
ATOM     68  C   UNL A   1      45.823  27.814  26.211  1.00  0.00     0.034 A 
BRANCH  55  69
ATOM     69  C   UNL A   1      45.121  33.196  29.228  1.00  0.00     0.023 A 
ATOM     70  C   UNL A   1      44.830  34.293  28.398  1.00  0.00     0.031 A 
ATOM     71  C   UNL A   1      45.982  33.411  30.320  1.00  0.00     0.131 A 
ATOM     72  C   UNL A   1      45.469  35.524  28.614  1.00  0.00     0.055 A 
ATOM     73  C   UNL A   1      46.538  34.663  30.586  1.00  0.00     0.041 A 
ATOM     74  F   UNL A   1      46.319  32.399  31.134  1.00  0.00    -0.206 F 
ATOM     75  C   UNL A   1      46.300  35.724  29.718  1.00  0.00     0.022 A 
BRANCH  72  76
ATOM     76  S   UNL A   1      45.350  36.799  27.327  1.00  0.00     0.124 S 
ATOM     77  O   UNL A   1      46.267  36.281  26.314  1.00  0.00    -0.237 OA
ATOM     78  O   UNL A   1      43.933  36.765  26.983  1.00  0.00    -0.237 OA
ATOM     79  O   UNL A   1      45.803  38.012  28.004  1.00  0.00    -0.744 OA
ENDBRANCH  72  76
ENDBRANCH  55  69
BRANCH  56  80
ATOM     80  C   UNL A   1      40.900  24.364  27.105  1.00  0.00     0.023 A 
ATOM     81  C   UNL A   1      41.544  23.119  27.184  1.00  0.00     0.031 A 
ATOM     82  C   UNL A   1      39.582  24.394  26.610  1.00  0.00     0.131 A 
ATOM     83  C   UNL A   1      40.875  21.959  26.757  1.00  0.00     0.055 A 
ATOM     84  C   UNL A   1      38.905  23.233  26.235  1.00  0.00     0.041 A 
ATOM     85  F   UNL A   1      38.923  25.560  26.506  1.00  0.00    -0.206 F 
ATOM     86  C   UNL A   1      39.555  22.006  26.302  1.00  0.00     0.022 A 
BRANCH  83  87
ATOM     87  S   UNL A   1      41.774  20.383  26.755  1.00  0.00     0.124 S 
ATOM     88  O   UNL A   1      42.544  20.477  27.990  1.00  0.00    -0.237 OA
ATOM     89  O   UNL A   1      40.684  19.412  26.749  1.00  0.00    -0.237 OA
ATOM     90  O   UNL A   1      42.558  20.440  25.523  1.00  0.00    -0.744 OA
ENDBRANCH  83  87
ENDBRANCH  56  80
BRANCH  68  91
ATOM     91  C   UNL A   1      46.973  27.358  25.339  1.00  0.00     0.023 A 
ATOM     92  C   UNL A   1      47.140  27.833  24.026  1.00  0.00     0.031 A 
ATOM     93  C   UNL A   1      47.916  26.437  25.831  1.00  0.00     0.131 A 
ATOM     94  C   UNL A   1      48.193  27.346  23.234  1.00  0.00     0.055 A 
ATOM     95  C   UNL A   1      49.000  26.010  25.062  1.00  0.00     0.041 A 
ATOM     96  F   UNL A   1      47.805  25.942  27.075  1.00  0.00    -0.206 F 
ATOM     97  C   UNL A   1      49.136  26.454  23.751  1.00  0.00     0.022 A 
BRANCH  94  98
ATOM     98  S   UNL A   1      48.257  27.815  21.483  1.00  0.00     0.124 S 
ATOM     99  O   UNL A   1      46.902  28.307  21.253  1.00  0.00    -0.237 OA
ATOM    100  O   UNL A   1      49.313  28.821  21.466  1.00  0.00    -0.237 OA
ATOM    101  O   UNL A   1      48.583  26.562  20.804  1.00  0.00    -0.744 OA
ENDBRANCH  94  98
ENDBRANCH  68  91
ENDBRANCH  42  43
ENDBRANCH  35  37
ENDBRANCH  34  35
ENDBRANCH  33  34
ENDBRANCH  32  33
ENDBRANCH  31  32
ENDBRANCH  30  31
ENDBRANCH  29  30
ENDBRANCH   1  29
TORSDOF 27
ENDMDL
MODEL 2
REMARK VINA RESULT:     -10.1      4.843      7.290
REMARK SMILES CN(C(=O)N[C@@](C)(C(=O)OCCOCCOCCOCCOC(=O)c1ccc(-c2c3nc(c(-c4cc(S(=O)(=O)[O-])ccc4F)c4ccc([nH]4)c(-c4cc(S(=O)(=O)[O-])ccc4F)c4nc(c(-c5cc(S(=O)(=O)[O-])ccc5F)c5ccc2[nH]5)C=C4)C=C3)cc1)C(F)(F)F)c1ccc(F)cc1
REMARK SMILES IDX 16 1 15 2 14 3 13 4 12 5 11 6 10 7 8 8 9 9 6 10 7 11 5 12
REMARK SMILES IDX 3 13 4 14 2 16 1 17 92 18 93 19 98 20 94 21 97 22 95 23
REMARK SMILES IDX 96 24 88 25 89 26 90 27 91 28 17 29 18 30 19 31 20 32 21 33
REMARK SMILES IDX 22 34 23 35 24 36 25 37 26 38 87 39 27 40 86 41 28 42 29 43
REMARK SMILES IDX 30 44 80 45 31 46 85 47 79 48 81 49 32 50 84 51 78 52 77 53
REMARK SMILES IDX 33 55 65 56 45 57 64 58 46 59 49 60 63 61 82 62 47 63 48 64
REMARK SMILES IDX 62 66 83 67 50 68 34 69 35 70 43 71 36 72 42 73 44 74 41 75
REMARK SMILES IDX 37 76 38 77 39 78 40 79 66 80 67 81 75 82 68 83 74 84 76 85
REMARK SMILES IDX 73 86 69 87 70 88 71 89 72 90 51 91 52 92 60 93 53 94 59 95
REMARK SMILES IDX 61 96 58 97 54 98 55 99 56 100 57 101
REMARK H PARENT 5 15 81 54 49 65
REMARK Flexibility Score: inf
ROOT
ATOM      1  O   UNL A   1      34.627  31.245  28.531  1.00  0.00    -0.377 OA
ENDROOT
BRANCH   1   2
ATOM      2  C   UNL A   1      34.809  30.112  27.710  1.00  0.00     0.188 C 
BRANCH   2   3
ATOM      3  C   UNL A   1      33.540  29.665  26.965  1.00  0.00     0.188 C 
BRANCH   3   4
ATOM      4  O   UNL A   1      33.626  29.044  25.690  1.00  0.00    -0.376 OA
BRANCH   4   5
ATOM      5  C   UNL A   1      32.886  29.508  24.570  1.00  0.00     0.202 C 
BRANCH   5   6
ATOM      6  C   UNL A   1      31.458  29.022  24.234  1.00  0.00     0.261 C 
BRANCH   6   7
ATOM      7  O   UNL A   1      31.040  27.768  24.810  1.00  0.00    -0.461 OA
BRANCH   7   8
ATOM      8  C   UNL A   1      30.505  26.879  23.944  1.00  0.00     0.341 C 
ATOM      9  O   UNL A   1      29.490  27.128  23.303  1.00  0.00    -0.249 OA
BRANCH   8  10
ATOM     10  C   UNL A   1      31.200  25.491  23.979  1.00  0.00     0.232 C 
ATOM     11  C   UNL A   1      30.272  24.592  23.126  1.00  0.00     0.058 C 
BRANCH  10  12
ATOM     12  N   UNL A   1      31.278  24.715  25.337  1.00  0.00    -0.314 N 
ATOM     13  C   UNL A   1      31.669  23.652  26.079  1.00  0.00     0.322 C 
ATOM     14  O   UNL A   1      31.279  23.747  27.252  1.00  0.00    -0.248 OA
ATOM     15  H   UNL A   1      30.802  25.295  25.976  1.00  0.00     0.166 HD
BRANCH  13  16
ATOM     16  N   UNL A   1      32.452  22.599  25.671  1.00  0.00    -0.298 N 
ATOM     17  C   UNL A   1      32.004  21.234  25.523  1.00  0.00     0.155 C 
BRANCH  16  18
ATOM     18  C   UNL A   1      33.881  22.742  25.392  1.00  0.00     0.045 A 
ATOM     19  C   UNL A   1      34.433  22.549  24.115  1.00  0.00     0.029 A 
ATOM     20  C   UNL A   1      34.742  23.240  26.398  1.00  0.00     0.029 A 
ATOM     21  C   UNL A   1      35.760  22.929  23.842  1.00  0.00     0.041 A 
ATOM     22  C   UNL A   1      36.063  23.612  26.128  1.00  0.00     0.041 A 
ATOM     23  C   UNL A   1      36.554  23.474  24.843  1.00  0.00     0.123 A 
ATOM     24  F   UNL A   1      37.799  23.885  24.565  1.00  0.00    -0.207 F 
ENDBRANCH  16  18
ENDBRANCH  13  16
ENDBRANCH  10  12
BRANCH  10  25
ATOM     25  C   UNL A   1      32.467  25.744  23.156  1.00  0.00     0.422 C 
ATOM     26  F   UNL A   1      32.835  24.647  22.450  1.00  0.00    -0.168 F 
ATOM     27  F   UNL A   1      32.286  26.770  22.285  1.00  0.00    -0.168 F 
ATOM     28  F   UNL A   1      33.537  26.112  23.897  1.00  0.00    -0.168 F 
ENDBRANCH  10  25
ENDBRANCH   8  10
ENDBRANCH   7   8
ENDBRANCH   6   7
ENDBRANCH   5   6
ENDBRANCH   4   5
ENDBRANCH   3   4
ENDBRANCH   2   3
ENDBRANCH   1   2
BRANCH   1  29
ATOM     29  C   UNL A   1      35.210  32.453  28.081  1.00  0.00     0.188 C 
BRANCH  29  30
ATOM     30  C   UNL A   1      34.282  33.674  27.951  1.00  0.00     0.188 C 
BRANCH  30  31
ATOM     31  O   UNL A   1      34.932  34.921  28.172  1.00  0.00    -0.376 OA
BRANCH  31  32
ATOM     32  C   UNL A   1      34.130  36.082  28.336  1.00  0.00     0.202 C 
BRANCH  32  33
ATOM     33  C   UNL A   1      32.888  35.983  29.240  1.00  0.00     0.261 C 
BRANCH  33  34
ATOM     34  O   UNL A   1      32.886  34.948  30.236  1.00  0.00    -0.460 OA
BRANCH  34  35
ATOM     35  C   UNL A   1      33.418  35.225  31.451  1.00  0.00     0.338 C 
ATOM     36  O   UNL A   1      32.921  35.900  32.323  1.00  0.00    -0.246 OA
BRANCH  35  37
ATOM     37  C   UNL A   1      34.614  34.357  31.615  1.00  0.00     0.060 A 
ATOM     38  C   UNL A   1      34.439  33.053  32.096  1.00  0.00     0.016 A 
ATOM     39  C   UNL A   1      35.885  34.808  31.254  1.00  0.00     0.016 A 
ATOM     40  C   UNL A   1      35.536  32.200  32.232  1.00  0.00     0.010 A 
ATOM     41  C   UNL A   1      36.988  33.964  31.419  1.00  0.00     0.010 A 
ATOM     42  C   UNL A   1      36.823  32.663  31.929  1.00  0.00    -0.014 A 
BRANCH  42  43
ATOM     43  C   UNL A   1      38.008  31.855  32.312  1.00  0.00     0.031 A 
ATOM     44  C   UNL A   1      38.670  32.136  33.632  1.00  0.00     0.074 A 
ATOM     45  C   UNL A   1      38.489  30.891  31.507  1.00  0.00     0.049 A 
ATOM     46  N   UNL A   1      39.754  31.620  34.150  1.00  0.00    -0.248 NA
ATOM     47  C   UNL A   1      38.016  33.144  34.478  1.00  0.00     0.031 C 
ATOM     48  C   UNL A   1      37.912  30.499  30.224  1.00  0.00     0.029 A 
ATOM     49  N   UNL A   1      39.589  30.078  31.646  1.00  0.00    -0.354 N 
ATOM     50  C   UNL A   1      39.924  32.253  35.376  1.00  0.00     0.074 A 
ATOM     51  C   UNL A   1      38.847  33.212  35.505  1.00  0.00     0.031 C 
ATOM     52  C   UNL A   1      38.678  29.538  29.678  1.00  0.00     0.029 A 
ATOM     53  C   UNL A   1      39.824  29.280  30.550  1.00  0.00     0.049 A 
ATOM     54  H   UNL A   1      40.153  30.068  32.452  1.00  0.00     0.167 HD
ATOM     55  C   UNL A   1      40.890  32.049  36.307  1.00  0.00     0.034 A 
ATOM     56  C   UNL A   1      40.864  28.471  30.264  1.00  0.00     0.034 A 
ATOM     57  C   UNL A   1      41.966  31.102  36.148  1.00  0.00     0.049 A 
ATOM     58  C   UNL A   1      41.981  28.325  31.271  1.00  0.00     0.074 A 
ATOM     59  C   UNL A   1      42.972  30.782  37.043  1.00  0.00     0.029 A 
ATOM     60  N   UNL A   1      42.198  30.343  35.007  1.00  0.00    -0.354 N 
ATOM     61  N   UNL A   1      42.116  28.897  32.445  1.00  0.00    -0.248 NA
ATOM     62  C   UNL A   1      43.083  27.421  30.914  1.00  0.00     0.031 C 
ATOM     63  C   UNL A   1      43.862  29.910  36.408  1.00  0.00     0.029 A 
ATOM     64  C   UNL A   1      43.363  29.604  35.152  1.00  0.00     0.049 A 
ATOM     65  H   UNL A   1      41.619  30.332  34.210  1.00  0.00     0.167 HD
ATOM     66  C   UNL A   1      43.310  28.411  32.973  1.00  0.00     0.074 A 
ATOM     67  C   UNL A   1      43.845  27.483  31.997  1.00  0.00     0.031 C 
ATOM     68  C   UNL A   1      43.907  28.703  34.159  1.00  0.00     0.034 A 
BRANCH  55  69
ATOM     69  C   UNL A   1      40.858  32.928  37.538  1.00  0.00     0.023 A 
ATOM     70  C   UNL A   1      40.170  32.554  38.705  1.00  0.00     0.031 A 
ATOM     71  C   UNL A   1      41.478  34.191  37.519  1.00  0.00     0.131 A 
ATOM     72  C   UNL A   1      40.034  33.469  39.762  1.00  0.00     0.055 A 
ATOM     73  C   UNL A   1      41.422  35.058  38.611  1.00  0.00     0.041 A 
ATOM     74  F   UNL A   1      42.129  34.617  36.424  1.00  0.00    -0.206 F 
ATOM     75  C   UNL A   1      40.679  34.707  39.734  1.00  0.00     0.022 A 
BRANCH  72  76
ATOM     76  S   UNL A   1      38.850  33.093  41.085  1.00  0.00     0.124 S 
ATOM     77  O   UNL A   1      38.437  31.736  40.734  1.00  0.00    -0.237 OA
ATOM     78  O   UNL A   1      39.670  33.220  42.285  1.00  0.00    -0.237 OA
ATOM     79  O   UNL A   1      37.817  34.112  40.920  1.00  0.00    -0.744 OA
ENDBRANCH  72  76
ENDBRANCH  55  69
BRANCH  56  80
ATOM     80  C   UNL A   1      40.935  27.796  28.936  1.00  0.00     0.023 A 
ATOM     81  C   UNL A   1      40.750  26.412  28.799  1.00  0.00     0.031 A 
ATOM     82  C   UNL A   1      41.206  28.543  27.773  1.00  0.00     0.131 A 
ATOM     83  C   UNL A   1      40.858  25.815  27.531  1.00  0.00     0.055 A 
ATOM     84  C   UNL A   1      41.262  27.953  26.510  1.00  0.00     0.041 A 
ATOM     85  F   UNL A   1      41.399  29.870  27.849  1.00  0.00    -0.206 F 
ATOM     86  C   UNL A   1      41.093  26.578  26.385  1.00  0.00     0.022 A 
BRANCH  83  87
ATOM     87  S   UNL A   1      40.737  24.009  27.403  1.00  0.00     0.124 S 
ATOM     88  O   UNL A   1      39.298  23.798  27.513  1.00  0.00    -0.237 OA
ATOM     89  O   UNL A   1      41.324  23.759  26.090  1.00  0.00    -0.237 OA
ATOM     90  O   UNL A   1      41.528  23.534  28.535  1.00  0.00    -0.744 OA
ENDBRANCH  83  87
ENDBRANCH  56  80
BRANCH  68  91
ATOM     91  C   UNL A   1      45.203  27.990  34.477  1.00  0.00     0.023 A 
ATOM     92  C   UNL A   1      45.222  26.748  35.138  1.00  0.00     0.031 A 
ATOM     93  C   UNL A   1      46.436  28.558  34.111  1.00  0.00     0.131 A 
ATOM     94  C   UNL A   1      46.448  26.144  35.458  1.00  0.00     0.055 A 
ATOM     95  C   UNL A   1      47.650  27.919  34.370  1.00  0.00     0.041 A 
ATOM     96  F   UNL A   1      46.483  29.746  33.484  1.00  0.00    -0.206 F 
ATOM     97  C   UNL A   1      47.661  26.712  35.060  1.00  0.00     0.022 A 
BRANCH  94  98
ATOM     98  S   UNL A   1      46.443  24.655  36.495  1.00  0.00     0.124 S 
ATOM     99  O   UNL A   1      46.845  25.190  37.792  1.00  0.00    -0.237 OA
ATOM    100  O   UNL A   1      45.059  24.205  36.390  1.00  0.00    -0.237 OA
ATOM    101  O   UNL A   1      47.427  23.786  35.852  1.00  0.00    -0.744 OA
ENDBRANCH  94  98
ENDBRANCH  68  91
ENDBRANCH  42  43
ENDBRANCH  35  37
ENDBRANCH  34  35
ENDBRANCH  33  34
ENDBRANCH  32  33
ENDBRANCH  31  32
ENDBRANCH  30  31
ENDBRANCH  29  30
ENDBRANCH   1  29
TORSDOF 27
ENDMDL
MODEL 3
REMARK VINA RESULT:      -9.8      4.574      6.134
REMARK SMILES CN(C(=O)N[C@@](C)(C(=O)OCCOCCOCCOCCOC(=O)c1ccc(-c2c3nc(c(-c4cc(S(=O)(=O)[O-])ccc4F)c4ccc([nH]4)c(-c4cc(S(=O)(=O)[O-])ccc4F)c4nc(c(-c5cc(S(=O)(=O)[O-])ccc5F)c5ccc2[nH]5)C=C4)C=C3)cc1)C(F)(F)F)c1ccc(F)cc1
REMARK SMILES IDX 16 1 15 2 14 3 13 4 12 5 11 6 10 7 8 8 9 9 6 10 7 11 5 12
REMARK SMILES IDX 3 13 4 14 2 16 1 17 92 18 93 19 98 20 94 21 97 22 95 23
REMARK SMILES IDX 96 24 88 25 89 26 90 27 91 28 17 29 18 30 19 31 20 32 21 33
REMARK SMILES IDX 22 34 23 35 24 36 25 37 26 38 87 39 27 40 86 41 28 42 29 43
REMARK SMILES IDX 30 44 80 45 31 46 85 47 79 48 81 49 32 50 84 51 78 52 77 53
REMARK SMILES IDX 33 55 65 56 45 57 64 58 46 59 49 60 63 61 82 62 47 63 48 64
REMARK SMILES IDX 62 66 83 67 50 68 34 69 35 70 43 71 36 72 42 73 44 74 41 75
REMARK SMILES IDX 37 76 38 77 39 78 40 79 66 80 67 81 75 82 68 83 74 84 76 85
REMARK SMILES IDX 73 86 69 87 70 88 71 89 72 90 51 91 52 92 60 93 53 94 59 95
REMARK SMILES IDX 61 96 58 97 54 98 55 99 56 100 57 101
REMARK H PARENT 5 15 81 54 49 65
REMARK Flexibility Score: inf
ROOT
ATOM      1  O   UNL A   1      34.894  29.888  28.142  1.00  0.00    -0.377 OA
ENDROOT
BRANCH   1   2
ATOM      2  C   UNL A   1      34.556  29.379  26.869  1.00  0.00     0.188 C 
BRANCH   2   3
ATOM      3  C   UNL A   1      33.042  29.241  26.630  1.00  0.00     0.188 C 
BRANCH   3   4
ATOM      4  O   UNL A   1      32.243  30.383  26.359  1.00  0.00    -0.376 OA
BRANCH   4   5
ATOM      5  C   UNL A   1      31.122  30.332  25.487  1.00  0.00     0.202 C 
BRANCH   5   6
ATOM      6  C   UNL A   1      31.146  29.624  24.113  1.00  0.00     0.261 C 
BRANCH   6   7
ATOM      7  O   UNL A   1      31.280  28.189  24.117  1.00  0.00    -0.461 OA
BRANCH   7   8
ATOM      8  C   UNL A   1      31.135  27.588  22.915  1.00  0.00     0.341 C 
ATOM      9  O   UNL A   1      30.295  27.956  22.102  1.00  0.00    -0.249 OA
BRANCH   8  10
ATOM     10  C   UNL A   1      32.008  26.313  22.756  1.00  0.00     0.232 C 
ATOM     11  C   UNL A   1      31.729  25.853  21.304  1.00  0.00     0.058 C 
BRANCH  10  12
ATOM     12  N   UNL A   1      31.652  25.040  23.596  1.00  0.00    -0.314 N 
ATOM     13  C   UNL A   1      31.819  23.731  23.900  1.00  0.00     0.322 C 
ATOM     14  O   UNL A   1      31.042  23.369  24.796  1.00  0.00    -0.248 OA
ATOM     15  H   UNL A   1      30.954  25.347  24.219  1.00  0.00     0.166 HD
BRANCH  13  16
ATOM     16  N   UNL A   1      32.751  22.869  23.374  1.00  0.00    -0.298 N 
ATOM     17  C   UNL A   1      33.722  23.207  22.360  1.00  0.00     0.155 C 
BRANCH  16  18
ATOM     18  C   UNL A   1      32.823  21.458  23.754  1.00  0.00     0.045 A 
ATOM     19  C   UNL A   1      33.280  21.027  25.010  1.00  0.00     0.029 A 
ATOM     20  C   UNL A   1      32.274  20.476  22.896  1.00  0.00     0.029 A 
ATOM     21  C   UNL A   1      33.106  19.691  25.418  1.00  0.00     0.041 A 
ATOM     22  C   UNL A   1      32.106  19.147  23.299  1.00  0.00     0.041 A 
ATOM     23  C   UNL A   1      32.504  18.771  24.568  1.00  0.00     0.123 A 
ATOM     24  F   UNL A   1      32.291  17.514  24.982  1.00  0.00    -0.207 F 
ENDBRANCH  16  18
ENDBRANCH  13  16
ENDBRANCH  10  12
BRANCH  10  25
ATOM     25  C   UNL A   1      33.427  26.889  22.784  1.00  0.00     0.422 C 
ATOM     26  F   UNL A   1      34.303  26.099  22.115  1.00  0.00    -0.168 F 
ATOM     27  F   UNL A   1      33.462  28.128  22.230  1.00  0.00    -0.168 F 
ATOM     28  F   UNL A   1      33.925  27.060  24.030  1.00  0.00    -0.168 F 
ENDBRANCH  10  25
ENDBRANCH   8  10
ENDBRANCH   7   8
ENDBRANCH   6   7
ENDBRANCH   5   6
ENDBRANCH   4   5
ENDBRANCH   3   4
ENDBRANCH   2   3
ENDBRANCH   1   2
BRANCH   1  29
ATOM     29  C   UNL A   1      35.458  31.185  28.175  1.00  0.00     0.188 C 
BRANCH  29  30
ATOM     30  C   UNL A   1      34.539  32.360  27.794  1.00  0.00     0.188 C 
BRANCH  30  31
ATOM     31  O   UNL A   1      35.207  33.615  27.718  1.00  0.00    -0.376 OA
BRANCH  31  32
ATOM     32  C   UNL A   1      34.472  34.792  28.025  1.00  0.00     0.202 C 
BRANCH  32  33
ATOM     33  C   UNL A   1      33.413  34.713  29.140  1.00  0.00     0.261 C 
BRANCH  33  34
ATOM     34  O   UNL A   1      33.732  33.914  30.290  1.00  0.00    -0.460 OA
BRANCH  34  35
ATOM     35  C   UNL A   1      34.583  34.424  31.212  1.00  0.00     0.338 C 
ATOM     36  O   UNL A   1      34.359  35.328  31.983  1.00  0.00    -0.246 OA
BRANCH  35  37
ATOM     37  C   UNL A   1      35.761  33.519  31.270  1.00  0.00     0.060 A 
ATOM     38  C   UNL A   1      35.634  32.291  31.932  1.00  0.00     0.016 A 
ATOM     39  C   UNL A   1      36.961  33.857  30.640  1.00  0.00     0.016 A 
ATOM     40  C   UNL A   1      36.711  31.402  31.978  1.00  0.00     0.010 A 
ATOM     41  C   UNL A   1      38.048  32.981  30.713  1.00  0.00     0.010 A 
ATOM     42  C   UNL A   1      37.937  31.759  31.401  1.00  0.00    -0.014 A 
BRANCH  42  43
ATOM     43  C   UNL A   1      39.146  30.939  31.668  1.00  0.00     0.031 A 
ATOM     44  C   UNL A   1      39.997  31.285  32.858  1.00  0.00     0.074 A 
ATOM     45  C   UNL A   1      39.483  29.907  30.874  1.00  0.00     0.049 A 
ATOM     46  N   UNL A   1      41.131  30.769  33.251  1.00  0.00    -0.248 NA
ATOM     47  C   UNL A   1      39.495  32.369  33.713  1.00  0.00     0.031 C 
ATOM     48  C   UNL A   1      38.718  29.450  29.716  1.00  0.00     0.029 A 
ATOM     49  N   UNL A   1      40.572  29.069  30.912  1.00  0.00    -0.354 N 
ATOM     50  C   UNL A   1      41.492  31.477  34.392  1.00  0.00     0.074 A 
ATOM     51  C   UNL A   1      40.467  32.478  34.605  1.00  0.00     0.031 C 
ATOM     52  C   UNL A   1      39.374  28.430  29.137  1.00  0.00     0.029 A 
ATOM     53  C   UNL A   1      40.627  28.193  29.854  1.00  0.00     0.049 A 
ATOM     54  H   UNL A   1      41.246  29.094  31.628  1.00  0.00     0.167 HD
ATOM     55  C   UNL A   1      42.576  31.304  35.189  1.00  0.00     0.034 A 
ATOM     56  C   UNL A   1      41.596  27.332  29.481  1.00  0.00     0.034 A 
ATOM     57  C   UNL A   1      43.596  30.313  34.947  1.00  0.00     0.049 A 
ATOM     58  C   UNL A   1      42.843  27.216  30.326  1.00  0.00     0.074 A 
ATOM     59  C   UNL A   1      44.712  30.020  35.710  1.00  0.00     0.029 A 
ATOM     60  N   UNL A   1      43.643  29.472  33.841  1.00  0.00    -0.354 N 
ATOM     61  N   UNL A   1      43.159  27.861  31.426  1.00  0.00    -0.248 NA
ATOM     62  C   UNL A   1      43.860  26.254  29.882  1.00  0.00     0.031 C 
ATOM     63  C   UNL A   1      45.481  29.079  35.018  1.00  0.00     0.029 A 
ATOM     64  C   UNL A   1      44.799  28.705  33.871  1.00  0.00     0.049 A 
ATOM     65  H   UNL A   1      42.955  29.427  33.137  1.00  0.00     0.167 HD
ATOM     66  C   UNL A   1      44.405  27.372  31.812  1.00  0.00     0.074 A 
ATOM     67  C   UNL A   1      44.772  26.363  30.838  1.00  0.00     0.031 C 
ATOM     68  C   UNL A   1      45.173  27.723  32.877  1.00  0.00     0.034 A 
BRANCH  55  69
ATOM     69  C   UNL A   1      42.743  32.264  36.346  1.00  0.00     0.023 A 
ATOM     70  C   UNL A   1      42.210  31.998  37.619  1.00  0.00     0.031 A 
ATOM     71  C   UNL A   1      43.394  33.495  36.152  1.00  0.00     0.131 A 
ATOM     72  C   UNL A   1      42.251  32.986  38.616  1.00  0.00     0.055 A 
ATOM     73  C   UNL A   1      43.517  34.435  37.177  1.00  0.00     0.041 A 
ATOM     74  F   UNL A   1      43.901  33.820  34.952  1.00  0.00    -0.206 F 
ATOM     75  C   UNL A   1      42.925  34.192  38.413  1.00  0.00     0.022 A 
BRANCH  72  76
ATOM     76  S   UNL A   1      41.250  32.749  40.111  1.00  0.00     0.124 S 
ATOM     77  O   UNL A   1      41.901  31.593  40.722  1.00  0.00    -0.237 OA
ATOM     78  O   UNL A   1      41.419  34.019  40.808  1.00  0.00    -0.237 OA
ATOM     79  O   UNL A   1      39.909  32.495  39.589  1.00  0.00    -0.744 OA
ENDBRANCH  72  76
ENDBRANCH  55  69
BRANCH  56  80
ATOM     80  C   UNL A   1      41.459  26.567  28.208  1.00  0.00     0.023 A 
ATOM     81  C   UNL A   1      41.107  25.209  28.195  1.00  0.00     0.031 A 
ATOM     82  C   UNL A   1      41.696  27.198  26.971  1.00  0.00     0.131 A 
ATOM     83  C   UNL A   1      41.022  24.521  26.972  1.00  0.00     0.055 A 
ATOM     84  C   UNL A   1      41.560  26.524  25.758  1.00  0.00     0.041 A 
ATOM     85  F   UNL A   1      42.043  28.495  26.927  1.00  0.00    -0.206 F 
ATOM     86  C   UNL A   1      41.227  25.174  25.754  1.00  0.00     0.022 A 
BRANCH  83  87
ATOM     87  S   UNL A   1      40.688  22.738  26.994  1.00  0.00     0.124 S 
ATOM     88  O   UNL A   1      41.551  22.260  25.919  1.00  0.00    -0.237 OA
ATOM     89  O   UNL A   1      41.086  22.372  28.349  1.00  0.00    -0.237 OA
ATOM     90  O   UNL A   1      39.254  22.657  26.727  1.00  0.00    -0.744 OA
ENDBRANCH  83  87
ENDBRANCH  56  80
BRANCH  68  91
ATOM     91  C   UNL A   1      46.484  26.989  33.058  1.00  0.00     0.023 A 
ATOM     92  C   UNL A   1      46.575  25.812  33.822  1.00  0.00     0.031 A 
ATOM     93  C   UNL A   1      47.659  27.474  32.455  1.00  0.00     0.131 A 
ATOM     94  C   UNL A   1      47.821  25.190  34.005  1.00  0.00     0.055 A 
ATOM     95  C   UNL A   1      48.882  26.812  32.584  1.00  0.00     0.041 A 
ATOM     96  F   UNL A   1      47.637  28.598  31.720  1.00  0.00    -0.206 F 
ATOM     97  C   UNL A   1      48.970  25.671  33.373  1.00  0.00     0.022 A 
BRANCH  94  98
ATOM     98  S   UNL A   1      47.940  23.800  35.165  1.00  0.00     0.124 S 
ATOM     99  O   UNL A   1      48.582  22.778  34.346  1.00  0.00    -0.237 OA
ATOM    100  O   UNL A   1      48.752  24.359  36.241  1.00  0.00    -0.237 OA
ATOM    101  O   UNL A   1      46.548  23.527  35.517  1.00  0.00    -0.744 OA
ENDBRANCH  94  98
ENDBRANCH  68  91
ENDBRANCH  42  43
ENDBRANCH  35  37
ENDBRANCH  34  35
ENDBRANCH  33  34
ENDBRANCH  32  33
ENDBRANCH  31  32
ENDBRANCH  30  31
ENDBRANCH  29  30
ENDBRANCH   1  29
TORSDOF 27
ENDMDL
