MODEL 1
REMARK VINA RESULT:      -8.1      0.000      0.000
REMARK SMILES CCC[NH2+][C@@]1(C(=O)OCCOCCOCCOCCOC(=O)c2ccc(-c3c4nc(c(-c5cc(S(=O)(=O)[O-])ccc5F)c5ccc([nH]5)c(-c5cc(S(=O)(=O)[O-])ccc5F)c5nc(c(-c6cc(S(=O)(=O)[O-])ccc6F)c6ccc3[nH]6)C=C5)C=C4)cc2)CC[C@@H](Sc2ccc(Cl)cc2)C1
REMARK SMILES IDX 14 1 13 2 12 3 11 4 10 5 9 6 8 7 6 8 7 9 5 10 86 11 97 12
REMARK SMILES IDX 87 13 88 14 4 15 3 18 2 19 1 20 89 21 90 22 91 23 96 24
REMARK SMILES IDX 92 25 95 26 93 27 94 28 15 29 16 30 17 31 18 32 19 33 20 34
REMARK SMILES IDX 21 35 22 36 23 37 24 38 85 39 25 40 84 41 26 42 27 43 28 44
REMARK SMILES IDX 78 45 29 46 83 47 77 48 79 49 30 50 82 51 76 52 75 53 31 55
REMARK SMILES IDX 63 56 43 57 62 58 44 59 47 60 61 61 80 62 45 63 46 64 60 66
REMARK SMILES IDX 81 67 48 68 32 69 33 70 41 71 34 72 40 73 42 74 39 75 35 76
REMARK SMILES IDX 36 77 37 78 38 79 64 80 65 81 73 82 66 83 72 84 74 85 71 86
REMARK SMILES IDX 67 87 68 88 69 89 70 90 49 91 50 92 58 93 51 94 57 95 59 96
REMARK SMILES IDX 56 97 52 98 53 99 54 100 55 101
REMARK H PARENT 4 16 4 17 79 54 47 65
REMARK Flexibility Score: inf
ROOT
ATOM      1  O   UNL A   1      37.978  22.309  25.945  1.00  0.00    -0.377 OA
ENDROOT
BRANCH   1   2
ATOM      2  C   UNL A   1      36.612  22.453  25.625  1.00  0.00     0.188 C 
BRANCH   2   3
ATOM      3  C   UNL A   1      35.849  21.150  25.373  1.00  0.00     0.188 C 
BRANCH   3   4
ATOM      4  O   UNL A   1      34.438  21.177  25.331  1.00  0.00    -0.376 OA
BRANCH   4   5
ATOM      5  C   UNL A   1      33.695  21.093  26.541  1.00  0.00     0.202 C 
BRANCH   5   6
ATOM      6  C   UNL A   1      33.353  22.309  27.440  1.00  0.00     0.261 C 
BRANCH   6   7
ATOM      7  O   UNL A   1      33.153  23.601  26.821  1.00  0.00    -0.459 OA
BRANCH   7   8
ATOM      8  C   UNL A   1      31.882  24.080  26.820  1.00  0.00     0.368 C 
ATOM      9  O   UNL A   1      30.929  23.487  27.326  1.00  0.00    -0.245 OA
BRANCH   8  10
ATOM     10  C   UNL A   1      31.692  25.478  26.132  1.00  0.00     0.195 C 
ATOM     11  C   UNL A   1      30.390  25.397  25.308  1.00  0.00     0.082 C 
ATOM     12  C   UNL A   1      32.701  25.958  25.069  1.00  0.00     0.096 C 
ATOM     13  C   UNL A   1      30.822  24.881  23.938  1.00  0.00     0.022 C 
ATOM     14  C   UNL A   1      32.213  25.459  23.710  1.00  0.00     0.059 C 
BRANCH  10  15
ATOM     15  N   UNL A   1      31.475  26.501  27.226  1.00  0.00    -0.332 N 
ATOM     16  H   UNL A   1      30.540  26.366  27.610  1.00  0.00     0.347 HD
ATOM     17  H   UNL A   1      32.210  26.354  27.917  1.00  0.00     0.347 HD
BRANCH  15  18
ATOM     18  C   UNL A   1      31.592  27.891  26.776  1.00  0.00     0.261 C 
BRANCH  18  19
ATOM     19  C   UNL A   1      32.801  28.652  27.326  1.00  0.00     0.058 C 
ATOM     20  C   UNL A   1      32.706  30.158  27.137  1.00  0.00     0.010 C 
ENDBRANCH  18  19
ENDBRANCH  15  18
ENDBRANCH  10  15
BRANCH  14  21
ATOM     21  S   UNL A   1      32.382  26.708  22.363  1.00  0.00    -0.122 SA
BRANCH  21  22
ATOM     22  C   UNL A   1      31.222  27.983  22.817  1.00  0.00     0.008 A 
ATOM     23  C   UNL A   1      29.918  27.925  22.317  1.00  0.00     0.016 A 
ATOM     24  C   UNL A   1      31.606  29.092  23.580  1.00  0.00     0.016 A 
ATOM     25  C   UNL A   1      28.994  28.929  22.626  1.00  0.00     0.021 A 
ATOM     26  C   UNL A   1      30.680  30.083  23.912  1.00  0.00     0.021 A 
ATOM     27  C   UNL A   1      29.376  29.997  23.436  1.00  0.00     0.041 A 
ATOM     28  Cl  UNL A   1      28.237  31.224  23.833  1.00  0.00    -0.084 Cl
ENDBRANCH  21  22
ENDBRANCH  14  21
ENDBRANCH   8  10
ENDBRANCH   7   8
ENDBRANCH   6   7
ENDBRANCH   5   6
ENDBRANCH   4   5
ENDBRANCH   3   4
ENDBRANCH   2   3
ENDBRANCH   1   2
BRANCH   1  29
ATOM     29  C   UNL A   1      38.720  23.498  26.187  1.00  0.00     0.188 C 
BRANCH  29  30
ATOM     30  C   UNL A   1      39.569  23.590  27.470  1.00  0.00     0.188 C 
BRANCH  30  31
ATOM     31  O   UNL A   1      40.734  24.397  27.341  1.00  0.00    -0.376 OA
BRANCH  31  32
ATOM     32  C   UNL A   1      41.726  24.040  26.390  1.00  0.00     0.202 C 
BRANCH  32  33
ATOM     33  C   UNL A   1      42.321  22.623  26.424  1.00  0.00     0.261 C 
BRANCH  33  34
ATOM     34  O   UNL A   1      43.280  22.334  27.452  1.00  0.00    -0.460 OA
BRANCH  34  35
ATOM     35  C   UNL A   1      44.406  23.076  27.533  1.00  0.00     0.338 C 
ATOM     36  O   UNL A   1      45.112  23.436  26.606  1.00  0.00    -0.246 OA
BRANCH  35  37
ATOM     37  C   UNL A   1      44.495  23.567  28.927  1.00  0.00     0.060 A 
ATOM     38  C   UNL A   1      45.422  24.570  29.246  1.00  0.00     0.016 A 
ATOM     39  C   UNL A   1      43.617  23.087  29.901  1.00  0.00     0.016 A 
ATOM     40  C   UNL A   1      45.464  25.104  30.537  1.00  0.00     0.010 A 
ATOM     41  C   UNL A   1      43.687  23.595  31.201  1.00  0.00     0.010 A 
ATOM     42  C   UNL A   1      44.616  24.599  31.529  1.00  0.00    -0.014 A 
BRANCH  42  43
ATOM     43  C   UNL A   1      44.793  24.997  32.947  1.00  0.00     0.031 A 
ATOM     44  C   UNL A   1      44.357  26.376  33.357  1.00  0.00     0.074 A 
ATOM     45  C   UNL A   1      45.350  24.162  33.844  1.00  0.00     0.049 A 
ATOM     46  N   UNL A   1      44.535  27.000  34.492  1.00  0.00    -0.248 NA
ATOM     47  C   UNL A   1      43.624  27.157  32.348  1.00  0.00     0.031 C 
ATOM     48  C   UNL A   1      45.745  22.779  33.581  1.00  0.00     0.029 A 
ATOM     49  N   UNL A   1      45.699  24.365  35.158  1.00  0.00    -0.354 N 
ATOM     50  C   UNL A   1      43.957  28.254  34.327  1.00  0.00     0.074 A 
ATOM     51  C   UNL A   1      43.430  28.304  32.981  1.00  0.00     0.031 C 
ATOM     52  C   UNL A   1      46.304  22.266  34.692  1.00  0.00     0.029 A 
ATOM     53  C   UNL A   1      46.359  23.298  35.726  1.00  0.00     0.049 A 
ATOM     54  H   UNL A   1      45.497  25.196  35.646  1.00  0.00     0.167 HD
ATOM     55  C   UNL A   1      43.882  29.270  35.219  1.00  0.00     0.034 A 
ATOM     56  C   UNL A   1      46.977  23.190  36.921  1.00  0.00     0.034 A 
ATOM     57  C   UNL A   1      44.418  29.201  36.556  1.00  0.00     0.049 A 
ATOM     58  C   UNL A   1      46.985  24.387  37.850  1.00  0.00     0.074 A 
ATOM     59  C   UNL A   1      44.358  30.159  37.553  1.00  0.00     0.029 A 
ATOM     60  N   UNL A   1      45.133  28.131  37.074  1.00  0.00    -0.354 N 
ATOM     61  N   UNL A   1      46.409  25.559  37.697  1.00  0.00    -0.248 NA
ATOM     62  C   UNL A   1      47.733  24.251  39.108  1.00  0.00     0.031 C 
ATOM     63  C   UNL A   1      45.115  29.708  38.637  1.00  0.00     0.029 A 
ATOM     64  C   UNL A   1      45.571  28.430  38.353  1.00  0.00     0.049 A 
ATOM     65  H   UNL A   1      45.305  27.285  36.601  1.00  0.00     0.167 HD
ATOM     66  C   UNL A   1      46.702  26.281  38.852  1.00  0.00     0.074 A 
ATOM     67  C   UNL A   1      47.485  25.410  39.701  1.00  0.00     0.031 C 
ATOM     68  C   UNL A   1      46.358  27.552  39.184  1.00  0.00     0.034 A 
BRANCH  55  69
ATOM     69  C   UNL A   1      43.264  30.565  34.764  1.00  0.00     0.023 A 
ATOM     70  C   UNL A   1      41.887  30.817  34.878  1.00  0.00     0.031 A 
ATOM     71  C   UNL A   1      44.079  31.578  34.228  1.00  0.00     0.131 A 
ATOM     72  C   UNL A   1      41.362  32.038  34.426  1.00  0.00     0.055 A 
ATOM     73  C   UNL A   1      43.563  32.815  33.845  1.00  0.00     0.041 A 
ATOM     74  F   UNL A   1      45.398  31.379  34.069  1.00  0.00    -0.206 F 
ATOM     75  C   UNL A   1      42.194  33.049  33.937  1.00  0.00     0.022 A 
BRANCH  72  76
ATOM     76  S   UNL A   1      39.562  32.252  34.391  1.00  0.00     0.124 S 
ATOM     77  O   UNL A   1      39.106  30.881  34.171  1.00  0.00    -0.237 OA
ATOM     78  O   UNL A   1      39.285  32.813  35.708  1.00  0.00    -0.237 OA
ATOM     79  O   UNL A   1      39.346  33.160  33.267  1.00  0.00    -0.744 OA
ENDBRANCH  72  76
ENDBRANCH  55  69
BRANCH  56  80
ATOM     80  C   UNL A   1      47.712  21.946  37.305  1.00  0.00     0.023 A 
ATOM     81  C   UNL A   1      48.975  21.659  36.763  1.00  0.00     0.031 A 
ATOM     82  C   UNL A   1      47.116  20.972  38.127  1.00  0.00     0.131 A 
ATOM     83  C   UNL A   1      49.568  20.406  36.989  1.00  0.00     0.055 A 
ATOM     84  C   UNL A   1      47.743  19.757  38.410  1.00  0.00     0.041 A 
ATOM     85  F   UNL A   1      45.903  21.183  38.663  1.00  0.00    -0.206 F 
ATOM     86  C   UNL A   1      48.969  19.459  37.823  1.00  0.00     0.022 A 
BRANCH  83  87
ATOM     87  S   UNL A   1      51.069  19.980  36.063  1.00  0.00     0.124 S 
ATOM     88  O   UNL A   1      52.030  20.932  36.607  1.00  0.00    -0.237 OA
ATOM     89  O   UNL A   1      51.266  18.583  36.434  1.00  0.00    -0.237 OA
ATOM     90  O   UNL A   1      50.684  20.206  34.671  1.00  0.00    -0.744 OA
ENDBRANCH  83  87
ENDBRANCH  56  80
BRANCH  68  91
ATOM     91  C   UNL A   1      46.796  28.060  40.537  1.00  0.00     0.023 A 
ATOM     92  C   UNL A   1      47.966  28.822  40.695  1.00  0.00     0.031 A 
ATOM     93  C   UNL A   1      46.022  27.792  41.680  1.00  0.00     0.131 A 
ATOM     94  C   UNL A   1      48.353  29.252  41.973  1.00  0.00     0.055 A 
ATOM     95  C   UNL A   1      46.378  28.276  42.940  1.00  0.00     0.041 A 
ATOM     96  F   UNL A   1      44.897  27.065  41.589  1.00  0.00    -0.206 F 
ATOM     97  C   UNL A   1      47.555  29.003  43.093  1.00  0.00     0.022 A 
BRANCH  94  98
ATOM     98  S   UNL A   1      49.954  30.079  42.168  1.00  0.00     0.124 S 
ATOM     99  O   UNL A   1      50.576  29.290  43.226  1.00  0.00    -0.237 OA
ATOM    100  O   UNL A   1      50.544  29.939  40.840  1.00  0.00    -0.237 OA
ATOM    101  O   UNL A   1      49.593  31.445  42.543  1.00  0.00    -0.744 OA
ENDBRANCH  94  98
ENDBRANCH  68  91
ENDBRANCH  42  43
ENDBRANCH  35  37
ENDBRANCH  34  35
ENDBRANCH  33  34
ENDBRANCH  32  33
ENDBRANCH  31  32
ENDBRANCH  30  31
ENDBRANCH  29  30
ENDBRANCH   1  29
TORSDOF 28
ENDMDL
MODEL 2
REMARK VINA RESULT:      -7.8      7.608     11.312
REMARK SMILES CCC[NH2+][C@@]1(C(=O)OCCOCCOCCOCCOC(=O)c2ccc(-c3c4nc(c(-c5cc(S(=O)(=O)[O-])ccc5F)c5ccc([nH]5)c(-c5cc(S(=O)(=O)[O-])ccc5F)c5nc(c(-c6cc(S(=O)(=O)[O-])ccc6F)c6ccc3[nH]6)C=C5)C=C4)cc2)CC[C@@H](Sc2ccc(Cl)cc2)C1
REMARK SMILES IDX 14 1 13 2 12 3 11 4 10 5 9 6 8 7 6 8 7 9 5 10 86 11 97 12
REMARK SMILES IDX 87 13 88 14 4 15 3 18 2 19 1 20 89 21 90 22 91 23 96 24
REMARK SMILES IDX 92 25 95 26 93 27 94 28 15 29 16 30 17 31 18 32 19 33 20 34
REMARK SMILES IDX 21 35 22 36 23 37 24 38 85 39 25 40 84 41 26 42 27 43 28 44
REMARK SMILES IDX 78 45 29 46 83 47 77 48 79 49 30 50 82 51 76 52 75 53 31 55
REMARK SMILES IDX 63 56 43 57 62 58 44 59 47 60 61 61 80 62 45 63 46 64 60 66
REMARK SMILES IDX 81 67 48 68 32 69 33 70 41 71 34 72 40 73 42 74 39 75 35 76
REMARK SMILES IDX 36 77 37 78 38 79 64 80 65 81 73 82 66 83 72 84 74 85 71 86
REMARK SMILES IDX 67 87 68 88 69 89 70 90 49 91 50 92 58 93 51 94 57 95 59 96
REMARK SMILES IDX 56 97 52 98 53 99 54 100 55 101
REMARK H PARENT 4 16 4 17 79 54 47 65
REMARK Flexibility Score: inf
ROOT
ATOM      1  O   UNL A   1      37.738  21.673  25.848  1.00  0.00    -0.377 OA
ENDROOT
BRANCH   1   2
ATOM      2  C   UNL A   1      36.594  22.026  25.103  1.00  0.00     0.188 C 
BRANCH   2   3
ATOM      3  C   UNL A   1      36.847  22.418  23.645  1.00  0.00     0.188 C 
BRANCH   3   4
ATOM      4  O   UNL A   1      35.951  23.302  23.006  1.00  0.00    -0.376 OA
BRANCH   4   5
ATOM      5  C   UNL A   1      34.550  23.072  23.093  1.00  0.00     0.202 C 
BRANCH   5   6
ATOM      6  C   UNL A   1      33.484  23.881  22.311  1.00  0.00     0.261 C 
BRANCH   6   7
ATOM      7  O   UNL A   1      33.792  25.235  21.907  1.00  0.00    -0.459 OA
BRANCH   7   8
ATOM      8  C   UNL A   1      32.754  25.976  21.439  1.00  0.00     0.368 C 
ATOM      9  O   UNL A   1      32.433  26.029  20.251  1.00  0.00    -0.245 OA
BRANCH   8  10
ATOM     10  C   UNL A   1      31.952  26.772  22.529  1.00  0.00     0.195 C 
ATOM     11  C   UNL A   1      32.908  27.845  23.092  1.00  0.00     0.082 C 
ATOM     12  C   UNL A   1      31.491  26.062  23.818  1.00  0.00     0.096 C 
ATOM     13  C   UNL A   1      33.631  27.161  24.250  1.00  0.00     0.022 C 
ATOM     14  C   UNL A   1      32.613  26.197  24.847  1.00  0.00     0.059 C 
BRANCH  10  15
ATOM     15  N   UNL A   1      30.820  27.493  21.830  1.00  0.00    -0.332 N 
ATOM     16  H   UNL A   1      31.215  28.056  21.078  1.00  0.00     0.347 HD
ATOM     17  H   UNL A   1      30.179  26.776  21.491  1.00  0.00     0.347 HD
BRANCH  15  18
ATOM     18  C   UNL A   1      30.042  28.373  22.705  1.00  0.00     0.261 C 
BRANCH  18  19
ATOM     19  C   UNL A   1      29.792  29.780  22.156  1.00  0.00     0.058 C 
ATOM     20  C   UNL A   1      29.235  30.745  23.192  1.00  0.00     0.010 C 
ENDBRANCH  18  19
ENDBRANCH  15  18
ENDBRANCH  10  15
BRANCH  14  21
ATOM     21  S   UNL A   1      32.009  26.577  26.549  1.00  0.00    -0.122 SA
BRANCH  21  22
ATOM     22  C   UNL A   1      32.678  28.194  26.885  1.00  0.00     0.008 A 
ATOM     23  C   UNL A   1      31.883  29.321  26.651  1.00  0.00     0.016 A 
ATOM     24  C   UNL A   1      34.007  28.375  27.284  1.00  0.00     0.016 A 
ATOM     25  C   UNL A   1      32.392  30.605  26.871  1.00  0.00     0.021 A 
ATOM     26  C   UNL A   1      34.511  29.654  27.529  1.00  0.00     0.021 A 
ATOM     27  C   UNL A   1      33.699  30.766  27.324  1.00  0.00     0.041 A 
ATOM     28  Cl  UNL A   1      34.321  32.344  27.614  1.00  0.00    -0.084 Cl
ENDBRANCH  21  22
ENDBRANCH  14  21
ENDBRANCH   8  10
ENDBRANCH   7   8
ENDBRANCH   6   7
ENDBRANCH   5   6
ENDBRANCH   4   5
ENDBRANCH   3   4
ENDBRANCH   2   3
ENDBRANCH   1   2
BRANCH   1  29
ATOM     29  C   UNL A   1      38.726  22.676  26.042  1.00  0.00     0.188 C 
BRANCH  29  30
ATOM     30  C   UNL A   1      40.168  22.241  26.369  1.00  0.00     0.188 C 
BRANCH  30  31
ATOM     31  O   UNL A   1      40.819  23.059  27.333  1.00  0.00    -0.376 OA
BRANCH  31  32
ATOM     32  C   UNL A   1      40.071  24.049  28.025  1.00  0.00     0.202 C 
BRANCH  32  33
ATOM     33  C   UNL A   1      40.160  25.514  27.564  1.00  0.00     0.261 C 
BRANCH  33  34
ATOM     34  O   UNL A   1      41.470  26.060  27.351  1.00  0.00    -0.460 OA
BRANCH  34  35
ATOM     35  C   UNL A   1      41.910  26.247  26.087  1.00  0.00     0.338 C 
ATOM     36  O   UNL A   1      41.227  26.442  25.097  1.00  0.00    -0.246 OA
BRANCH  35  37
ATOM     37  C   UNL A   1      43.381  26.401  26.165  1.00  0.00     0.060 A 
ATOM     38  C   UNL A   1      44.168  25.311  26.564  1.00  0.00     0.016 A 
ATOM     39  C   UNL A   1      43.986  27.599  25.779  1.00  0.00     0.016 A 
ATOM     40  C   UNL A   1      45.562  25.413  26.564  1.00  0.00     0.010 A 
ATOM     41  C   UNL A   1      45.378  27.711  25.817  1.00  0.00     0.010 A 
ATOM     42  C   UNL A   1      46.173  26.623  26.218  1.00  0.00    -0.014 A 
BRANCH  42  43
ATOM     43  C   UNL A   1      47.630  26.817  26.419  1.00  0.00     0.031 A 
ATOM     44  C   UNL A   1      48.497  27.001  25.205  1.00  0.00     0.074 A 
ATOM     45  C   UNL A   1      48.174  26.805  27.650  1.00  0.00     0.049 A 
ATOM     46  N   UNL A   1      49.800  27.046  25.114  1.00  0.00    -0.248 NA
ATOM     47  C   UNL A   1      47.796  27.151  23.919  1.00  0.00     0.031 C 
ATOM     48  C   UNL A   1      47.428  26.706  28.904  1.00  0.00     0.029 A 
ATOM     49  N   UNL A   1      49.489  26.856  28.048  1.00  0.00    -0.354 N 
ATOM     50  C   UNL A   1      50.078  27.207  23.761  1.00  0.00     0.074 A 
ATOM     51  C   UNL A   1      48.808  27.244  23.069  1.00  0.00     0.031 C 
ATOM     52  C   UNL A   1      48.299  26.680  29.930  1.00  0.00     0.029 A 
ATOM     53  C   UNL A   1      49.663  26.703  29.405  1.00  0.00     0.049 A 
ATOM     54  H   UNL A   1      50.236  26.990  27.420  1.00  0.00     0.167 HD
ATOM     55  C   UNL A   1      51.285  27.307  23.156  1.00  0.00     0.034 A 
ATOM     56  C   UNL A   1      50.793  26.548  30.128  1.00  0.00     0.034 A 
ATOM     57  C   UNL A   1      52.540  27.264  23.863  1.00  0.00     0.049 A 
ATOM     58  C   UNL A   1      52.126  26.540  29.408  1.00  0.00     0.074 A 
ATOM     59  C   UNL A   1      53.818  27.399  23.350  1.00  0.00     0.029 A 
ATOM     60  N   UNL A   1      52.680  27.044  25.226  1.00  0.00    -0.354 N 
ATOM     61  N   UNL A   1      52.379  26.723  28.131  1.00  0.00    -0.248 NA
ATOM     62  C   UNL A   1      53.324  26.293  30.224  1.00  0.00     0.031 C 
ATOM     63  C   UNL A   1      54.729  27.168  24.383  1.00  0.00     0.029 A 
ATOM     64  C   UNL A   1      54.022  26.980  25.560  1.00  0.00     0.049 A 
ATOM     65  H   UNL A   1      51.934  26.948  25.862  1.00  0.00     0.167 HD
ATOM     66  C   UNL A   1      53.764  26.645  28.003  1.00  0.00     0.074 A 
ATOM     67  C   UNL A   1      54.294  26.420  29.330  1.00  0.00     0.031 C 
ATOM     68  C   UNL A   1      54.534  26.748  26.889  1.00  0.00     0.034 A 
BRANCH  55  69
ATOM     69  C   UNL A   1      51.316  27.402  21.653  1.00  0.00     0.023 A 
ATOM     70  C   UNL A   1      51.387  26.264  20.833  1.00  0.00     0.031 A 
ATOM     71  C   UNL A   1      51.249  28.662  21.032  1.00  0.00     0.131 A 
ATOM     72  C   UNL A   1      51.425  26.412  19.437  1.00  0.00     0.055 A 
ATOM     73  C   UNL A   1      51.218  28.799  19.644  1.00  0.00     0.041 A 
ATOM     74  F   UNL A   1      51.210  29.784  21.768  1.00  0.00    -0.206 F 
ATOM     75  C   UNL A   1      51.313  27.669  18.837  1.00  0.00     0.022 A 
BRANCH  72  76
ATOM     76  S   UNL A   1      51.728  24.945  18.416  1.00  0.00     0.124 S 
ATOM     77  O   UNL A   1      53.171  25.027  18.200  1.00  0.00    -0.237 OA
ATOM     78  O   UNL A   1      51.272  23.860  19.277  1.00  0.00    -0.237 OA
ATOM     79  O   UNL A   1      50.913  25.182  17.226  1.00  0.00    -0.744 OA
ENDBRANCH  72  76
ENDBRANCH  55  69
BRANCH  56  80
ATOM     80  C   UNL A   1      50.743  26.312  31.604  1.00  0.00     0.023 A 
ATOM     81  C   UNL A   1      50.780  27.386  32.507  1.00  0.00     0.031 A 
ATOM     82  C   UNL A   1      50.772  25.009  32.135  1.00  0.00     0.131 A 
ATOM     83  C   UNL A   1      50.917  27.142  33.883  1.00  0.00     0.055 A 
ATOM     84  C   UNL A   1      50.834  24.770  33.509  1.00  0.00     0.041 A 
ATOM     85  F   UNL A   1      50.753  23.941  31.321  1.00  0.00    -0.206 F 
ATOM     86  C   UNL A   1      50.927  25.842  34.393  1.00  0.00     0.022 A 
BRANCH  83  87
ATOM     87  S   UNL A   1      51.224  28.550  34.985  1.00  0.00     0.124 S 
ATOM     88  O   UNL A   1      52.000  27.926  36.050  1.00  0.00    -0.237 OA
ATOM     89  O   UNL A   1      51.950  29.465  34.111  1.00  0.00    -0.237 OA
ATOM     90  O   UNL A   1      49.880  28.984  35.364  1.00  0.00    -0.744 OA
ENDBRANCH  83  87
ENDBRANCH  56  80
BRANCH  68  91
ATOM     91  C   UNL A   1      56.030  26.654  27.066  1.00  0.00     0.023 A 
ATOM     92  C   UNL A   1      56.695  25.416  27.085  1.00  0.00     0.031 A 
ATOM     93  C   UNL A   1      56.803  27.822  27.200  1.00  0.00     0.131 A 
ATOM     94  C   UNL A   1      58.084  25.372  27.279  1.00  0.00     0.055 A 
ATOM     95  C   UNL A   1      58.192  27.773  27.329  1.00  0.00     0.041 A 
ATOM     96  F   UNL A   1      56.221  29.032  27.193  1.00  0.00    -0.206 F 
ATOM     97  C   UNL A   1      58.839  26.543  27.379  1.00  0.00     0.022 A 
BRANCH  94  98
ATOM     98  S   UNL A   1      58.885  23.757  27.476  1.00  0.00     0.124 S 
ATOM     99  O   UNL A   1      58.144  23.186  28.596  1.00  0.00    -0.237 OA
ATOM    100  O   UNL A   1      58.656  23.132  26.177  1.00  0.00    -0.237 OA
ATOM    101  O   UNL A   1      60.277  24.097  27.762  1.00  0.00    -0.744 OA
ENDBRANCH  94  98
ENDBRANCH  68  91
ENDBRANCH  42  43
ENDBRANCH  35  37
ENDBRANCH  34  35
ENDBRANCH  33  34
ENDBRANCH  32  33
ENDBRANCH  31  32
ENDBRANCH  30  31
ENDBRANCH  29  30
ENDBRANCH   1  29
TORSDOF 28
ENDMDL
MODEL 3
REMARK VINA RESULT:      -7.8      7.290      9.919
REMARK SMILES CCC[NH2+][C@@]1(C(=O)OCCOCCOCCOCCOC(=O)c2ccc(-c3c4nc(c(-c5cc(S(=O)(=O)[O-])ccc5F)c5ccc([nH]5)c(-c5cc(S(=O)(=O)[O-])ccc5F)c5nc(c(-c6cc(S(=O)(=O)[O-])ccc6F)c6ccc3[nH]6)C=C5)C=C4)cc2)CC[C@@H](Sc2ccc(Cl)cc2)C1
REMARK SMILES IDX 14 1 13 2 12 3 11 4 10 5 9 6 8 7 6 8 7 9 5 10 86 11 97 12
REMARK SMILES IDX 87 13 88 14 4 15 3 18 2 19 1 20 89 21 90 22 91 23 96 24
REMARK SMILES IDX 92 25 95 26 93 27 94 28 15 29 16 30 17 31 18 32 19 33 20 34
REMARK SMILES IDX 21 35 22 36 23 37 24 38 85 39 25 40 84 41 26 42 27 43 28 44
REMARK SMILES IDX 78 45 29 46 83 47 77 48 79 49 30 50 82 51 76 52 75 53 31 55
REMARK SMILES IDX 63 56 43 57 62 58 44 59 47 60 61 61 80 62 45 63 46 64 60 66
REMARK SMILES IDX 81 67 48 68 32 69 33 70 41 71 34 72 40 73 42 74 39 75 35 76
REMARK SMILES IDX 36 77 37 78 38 79 64 80 65 81 73 82 66 83 72 84 74 85 71 86
REMARK SMILES IDX 67 87 68 88 69 89 70 90 49 91 50 92 58 93 51 94 57 95 59 96
REMARK SMILES IDX 56 97 52 98 53 99 54 100 55 101
REMARK H PARENT 4 16 4 17 79 54 47 65
REMARK Flexibility Score: inf
ROOT
ATOM      1  O   UNL A   1      37.228  22.479  26.069  1.00  0.00    -0.377 OA
ENDROOT
BRANCH   1   2
ATOM      2  C   UNL A   1      36.202  22.889  25.193  1.00  0.00     0.188 C 
BRANCH   2   3
ATOM      3  C   UNL A   1      36.449  22.614  23.708  1.00  0.00     0.188 C 
BRANCH   3   4
ATOM      4  O   UNL A   1      35.613  23.225  22.748  1.00  0.00    -0.376 OA
BRANCH   4   5
ATOM      5  C   UNL A   1      34.207  23.016  22.802  1.00  0.00     0.202 C 
BRANCH   5   6
ATOM      6  C   UNL A   1      33.180  23.767  21.916  1.00  0.00     0.261 C 
BRANCH   6   7
ATOM      7  O   UNL A   1      33.435  25.148  21.567  1.00  0.00    -0.459 OA
BRANCH   7   8
ATOM      8  C   UNL A   1      32.345  25.918  21.316  1.00  0.00     0.368 C 
ATOM      9  O   UNL A   1      31.786  25.973  20.221  1.00  0.00    -0.245 OA
BRANCH   8  10
ATOM     10  C   UNL A   1      31.812  26.746  22.539  1.00  0.00     0.195 C 
ATOM     11  C   UNL A   1      32.999  27.583  23.063  1.00  0.00     0.082 C 
ATOM     12  C   UNL A   1      31.357  26.021  23.821  1.00  0.00     0.096 C 
ATOM     13  C   UNL A   1      33.693  26.687  24.085  1.00  0.00     0.022 C 
ATOM     14  C   UNL A   1      32.579  25.868  24.725  1.00  0.00     0.059 C 
BRANCH  10  15
ATOM     15  N   UNL A   1      30.769  27.711  22.020  1.00  0.00    -0.332 N 
ATOM     16  H   UNL A   1      30.946  27.871  21.028  1.00  0.00     0.347 HD
ATOM     17  H   UNL A   1      29.860  27.282  22.193  1.00  0.00     0.347 HD
BRANCH  15  18
ATOM     18  C   UNL A   1      30.761  29.007  22.702  1.00  0.00     0.261 C 
BRANCH  18  19
ATOM     19  C   UNL A   1      29.543  29.888  22.410  1.00  0.00     0.058 C 
ATOM     20  C   UNL A   1      28.221  29.239  22.791  1.00  0.00     0.010 C 
ENDBRANCH  18  19
ENDBRANCH  15  18
ENDBRANCH  10  15
BRANCH  14  21
ATOM     21  S   UNL A   1      32.223  26.201  26.505  1.00  0.00    -0.122 SA
BRANCH  21  22
ATOM     22  C   UNL A   1      32.580  27.938  26.692  1.00  0.00     0.008 A 
ATOM     23  C   UNL A   1      33.790  28.324  27.276  1.00  0.00     0.016 A 
ATOM     24  C   UNL A   1      31.642  28.923  26.362  1.00  0.00     0.016 A 
ATOM     25  C   UNL A   1      34.083  29.678  27.470  1.00  0.00     0.021 A 
ATOM     26  C   UNL A   1      31.942  30.277  26.530  1.00  0.00     0.021 A 
ATOM     27  C   UNL A   1      33.163  30.650  27.081  1.00  0.00     0.041 A 
ATOM     28  Cl  UNL A   1      33.529  32.317  27.300  1.00  0.00    -0.084 Cl
ENDBRANCH  21  22
ENDBRANCH  14  21
ENDBRANCH   8  10
ENDBRANCH   7   8
ENDBRANCH   6   7
ENDBRANCH   5   6
ENDBRANCH   4   5
ENDBRANCH   3   4
ENDBRANCH   2   3
ENDBRANCH   1   2
BRANCH   1  29
ATOM     29  C   UNL A   1      38.381  23.308  26.157  1.00  0.00     0.188 C 
BRANCH  29  30
ATOM     30  C   UNL A   1      39.671  22.717  26.759  1.00  0.00     0.188 C 
BRANCH  30  31
ATOM     31  O   UNL A   1      40.415  23.633  27.553  1.00  0.00    -0.376 OA
BRANCH  31  32
ATOM     32  C   UNL A   1      39.819  24.862  27.943  1.00  0.00     0.202 C 
BRANCH  32  33
ATOM     33  C   UNL A   1      40.234  26.157  27.225  1.00  0.00     0.261 C 
BRANCH  33  34
ATOM     34  O   UNL A   1      41.637  26.455  27.159  1.00  0.00    -0.460 OA
BRANCH  34  35
ATOM     35  C   UNL A   1      42.351  26.037  26.093  1.00  0.00     0.338 C 
ATOM     36  O   UNL A   1      41.919  25.754  24.988  1.00  0.00    -0.246 OA
BRANCH  35  37
ATOM     37  C   UNL A   1      43.780  26.208  26.442  1.00  0.00     0.060 A 
ATOM     38  C   UNL A   1      44.647  25.108  26.358  1.00  0.00     0.016 A 
ATOM     39  C   UNL A   1      44.277  27.468  26.784  1.00  0.00     0.016 A 
ATOM     40  C   UNL A   1      46.013  25.269  26.604  1.00  0.00     0.010 A 
ATOM     41  C   UNL A   1      45.637  27.618  27.068  1.00  0.00     0.010 A 
ATOM     42  C   UNL A   1      46.511  26.519  26.988  1.00  0.00    -0.014 A 
BRANCH  42  43
ATOM     43  C   UNL A   1      47.910  26.661  27.460  1.00  0.00     0.031 A 
ATOM     44  C   UNL A   1      48.963  27.046  26.459  1.00  0.00     0.074 A 
ATOM     45  C   UNL A   1      48.242  26.429  28.744  1.00  0.00     0.049 A 
ATOM     46  N   UNL A   1      50.261  27.095  26.596  1.00  0.00    -0.248 NA
ATOM     47  C   UNL A   1      48.482  27.425  25.120  1.00  0.00     0.031 C 
ATOM     48  C   UNL A   1      47.300  26.119  29.819  1.00  0.00     0.029 A 
ATOM     49  N   UNL A   1      49.471  26.397  29.358  1.00  0.00    -0.354 N 
ATOM     50  C   UNL A   1      50.757  27.487  25.358  1.00  0.00     0.074 A 
ATOM     51  C   UNL A   1      49.619  27.657  24.481  1.00  0.00     0.031 C 
ATOM     52  C   UNL A   1      47.988  25.906  30.955  1.00  0.00     0.029 A 
ATOM     53  C   UNL A   1      49.420  26.007  30.678  1.00  0.00     0.049 A 
ATOM     54  H   UNL A   1      50.309  26.632  28.898  1.00  0.00     0.167 HD
ATOM     55  C   UNL A   1      52.046  27.680  24.989  1.00  0.00     0.034 A 
ATOM     56  C   UNL A   1      50.417  25.718  31.542  1.00  0.00     0.034 A 
ATOM     57  C   UNL A   1      53.166  27.502  25.878  1.00  0.00     0.049 A 
ATOM     58  C   UNL A   1      51.851  25.824  31.064  1.00  0.00     0.074 A 
ATOM     59  C   UNL A   1      54.509  27.713  25.617  1.00  0.00     0.029 A 
ATOM     60  N   UNL A   1      53.081  27.047  27.186  1.00  0.00    -0.354 N 
ATOM     61  N   UNL A   1      52.309  26.225  29.899  1.00  0.00    -0.248 NA
ATOM     62  C   UNL A   1      52.902  25.428  32.013  1.00  0.00     0.031 C 
ATOM     63  C   UNL A   1      55.240  27.297  26.732  1.00  0.00     0.029 A 
ATOM     64  C   UNL A   1      54.351  26.913  27.723  1.00  0.00     0.049 A 
ATOM     65  H   UNL A   1      52.243  26.847  27.661  1.00  0.00     0.167 HD
ATOM     66  C   UNL A   1      53.698  26.158  29.993  1.00  0.00     0.074 A 
ATOM     67  C   UNL A   1      54.004  25.700  31.330  1.00  0.00     0.031 C 
ATOM     68  C   UNL A   1      54.639  26.447  29.058  1.00  0.00     0.034 A 
BRANCH  55  69
ATOM     69  C   UNL A   1      52.324  28.036  23.553  1.00  0.00     0.023 A 
ATOM     70  C   UNL A   1      52.198  29.349  23.070  1.00  0.00     0.031 A 
ATOM     71  C   UNL A   1      52.748  27.039  22.657  1.00  0.00     0.131 A 
ATOM     72  C   UNL A   1      52.459  29.622  21.717  1.00  0.00     0.055 A 
ATOM     73  C   UNL A   1      53.073  27.328  21.332  1.00  0.00     0.041 A 
ATOM     74  F   UNL A   1      52.857  25.762  23.058  1.00  0.00    -0.206 F 
ATOM     75  C   UNL A   1      52.922  28.626  20.852  1.00  0.00     0.022 A 
BRANCH  72  76
ATOM     76  S   UNL A   1      52.086  31.276  21.076  1.00  0.00     0.124 S 
ATOM     77  O   UNL A   1      52.043  32.066  22.304  1.00  0.00    -0.237 OA
ATOM     78  O   UNL A   1      53.215  31.533  20.190  1.00  0.00    -0.237 OA
ATOM     79  O   UNL A   1      50.797  31.103  20.410  1.00  0.00    -0.744 OA
ENDBRANCH  72  76
ENDBRANCH  55  69
BRANCH  56  80
ATOM     80  C   UNL A   1      50.127  25.228  32.924  1.00  0.00     0.023 A 
ATOM     81  C   UNL A   1      50.179  23.859  33.229  1.00  0.00     0.031 A 
ATOM     82  C   UNL A   1      49.685  26.106  33.931  1.00  0.00     0.131 A 
ATOM     83  C   UNL A   1      49.729  23.399  34.477  1.00  0.00     0.055 A 
ATOM     84  C   UNL A   1      49.307  25.652  35.196  1.00  0.00     0.041 A 
ATOM     85  F   UNL A   1      49.600  27.425  33.696  1.00  0.00    -0.206 F 
ATOM     86  C   UNL A   1      49.309  24.287  35.469  1.00  0.00     0.022 A 
BRANCH  83  87
ATOM     87  S   UNL A   1      49.566  21.610  34.733  1.00  0.00     0.124 S 
ATOM     88  O   UNL A   1      50.693  21.337  35.617  1.00  0.00    -0.237 OA
ATOM     89  O   UNL A   1      48.240  21.510  35.331  1.00  0.00    -0.237 OA
ATOM     90  O   UNL A   1      49.684  21.062  33.383  1.00  0.00    -0.744 OA
ENDBRANCH  83  87
ENDBRANCH  56  80
BRANCH  68  91
ATOM     91  C   UNL A   1      56.087  26.310  29.463  1.00  0.00     0.023 A 
ATOM     92  C   UNL A   1      56.758  27.331  30.158  1.00  0.00     0.031 A 
ATOM     93  C   UNL A   1      56.800  25.135  29.165  1.00  0.00     0.131 A 
ATOM     94  C   UNL A   1      58.112  27.176  30.493  1.00  0.00     0.055 A 
ATOM     95  C   UNL A   1      58.128  24.961  29.557  1.00  0.00     0.041 A 
ATOM     96  F   UNL A   1      56.211  24.128  28.500  1.00  0.00    -0.206 F 
ATOM     97  C   UNL A   1      58.795  25.989  30.216  1.00  0.00     0.022 A 
BRANCH  94  98
ATOM     98  S   UNL A   1      58.993  28.579  31.229  1.00  0.00     0.124 S 
ATOM     99  O   UNL A   1      60.278  27.980  31.577  1.00  0.00    -0.237 OA
ATOM    100  O   UNL A   1      59.017  29.545  30.135  1.00  0.00    -0.237 OA
ATOM    101  O   UNL A   1      58.155  28.954  32.367  1.00  0.00    -0.744 OA
ENDBRANCH  94  98
ENDBRANCH  68  91
ENDBRANCH  42  43
ENDBRANCH  35  37
ENDBRANCH  34  35
ENDBRANCH  33  34
ENDBRANCH  32  33
ENDBRANCH  31  32
ENDBRANCH  30  31
ENDBRANCH  29  30
ENDBRANCH   1  29
TORSDOF 28
ENDMDL
