MODEL 1
REMARK VINA RESULT:      -9.5      0.000      0.000
REMARK SMILES O=C(OCCOCCOCCOCCOC(=O)[C@H]1CCCC[N@H+]1Cc1ccc(F)cc1Cl)c1ccc(-c2c3nc(c(-c4cc(S(=O)(=O)[O-])ccc4F)c4ccc([nH]4)c(-c4cc(S(=O)(=O)[O-])ccc4F)c4nc(c(-c5cc(S(=O)(=O)[O-])ccc5F)c5ccc2[nH]5)C=C4)C=C3)cc1
REMARK SMILES IDX 8 1 7 2 6 3 5 4 4 5 3 6 2 7 1 8 33 9 34 10 95 11 35 12 94 13
REMARK SMILES IDX 36 14 37 15 38 16 88 17 39 18 93 19 87 20 89 21 40 22 92 23
REMARK SMILES IDX 86 24 85 25 41 27 73 28 53 29 72 30 54 31 57 32 71 33 90 34
REMARK SMILES IDX 55 35 56 36 70 38 91 39 58 40 42 41 43 42 51 43 44 44 50 45
REMARK SMILES IDX 52 46 49 47 45 48 46 49 47 50 48 51 74 52 75 53 83 54 76 55
REMARK SMILES IDX 82 56 84 57 81 58 77 59 78 60 79 61 80 62 59 63 60 64 68 65
REMARK SMILES IDX 61 66 67 67 69 68 66 69 62 70 63 71 64 72 65 73 9 74 10 75
REMARK SMILES IDX 11 76 12 77 13 78 14 79 15 80 16 81 17 82 18 83 19 84 23 85
REMARK SMILES IDX 20 86 22 87 21 89 24 90 25 91 26 92 31 93 27 94 30 95 32 96
REMARK SMILES IDX 28 97 29 98
REMARK H PARENT 89 26 57 37 23 88
REMARK Flexibility Score: inf
ROOT
ATOM      1  C   UNL A   1      33.861  34.201  28.214  1.00  0.00     0.188 C 
ENDROOT
BRANCH   1   2
ATOM      2  C   UNL A   1      34.022  33.955  29.695  1.00  0.00     0.188 C 
BRANCH   2   3
ATOM      3  O   UNL A   1      34.808  32.807  29.937  1.00  0.00    -0.376 OA
BRANCH   3   4
ATOM      4  C   UNL A   1      36.082  32.731  29.305  1.00  0.00     0.202 C 
BRANCH   4   5
ATOM      5  C   UNL A   1      36.674  31.347  29.529  1.00  0.00     0.261 C 
BRANCH   5   6
ATOM      6  O   UNL A   1      37.793  31.468  30.438  1.00  0.00    -0.460 OA
BRANCH   6   7
ATOM      7  C   UNL A   1      37.597  30.965  31.690  1.00  0.00     0.338 C 
ATOM      8  O   UNL A   1      36.633  31.201  32.405  1.00  0.00    -0.246 OA
BRANCH   7   9
ATOM      9  C   UNL A   1      38.804  30.204  32.140  1.00  0.00     0.060 A 
ATOM     10  C   UNL A   1      39.992  30.890  32.438  1.00  0.00     0.016 A 
ATOM     11  C   UNL A   1      38.739  28.826  32.377  1.00  0.00     0.016 A 
ATOM     12  C   UNL A   1      41.080  30.251  32.989  1.00  0.00     0.010 A 
ATOM     13  C   UNL A   1      39.892  28.143  32.792  1.00  0.00     0.010 A 
ATOM     14  C   UNL A   1      41.070  28.863  33.062  1.00  0.00    -0.014 A 
BRANCH  14  15
ATOM     15  C   UNL A   1      42.416  28.270  32.958  1.00  0.00     0.031 A 
ATOM     16  C   UNL A   1      43.071  27.919  34.270  1.00  0.00     0.074 A 
ATOM     17  C   UNL A   1      42.872  27.774  31.796  1.00  0.00     0.049 A 
ATOM     18  N   UNL A   1      44.238  27.391  34.505  1.00  0.00    -0.248 NA
ATOM     19  C   UNL A   1      42.266  28.146  35.488  1.00  0.00     0.031 C 
ATOM     20  C   UNL A   1      42.147  27.797  30.525  1.00  0.00     0.029 A 
ATOM     21  N   UNL A   1      44.033  27.110  31.506  1.00  0.00    -0.354 N 
ATOM     22  C   UNL A   1      44.312  27.257  35.889  1.00  0.00     0.074 A 
ATOM     23  C   UNL A   1      43.066  27.715  36.444  1.00  0.00     0.031 C 
ATOM     24  C   UNL A   1      42.894  27.192  29.586  1.00  0.00     0.029 A 
ATOM     25  C   UNL A   1      44.180  26.823  30.169  1.00  0.00     0.049 A 
ATOM     26  H   UNL A   1      44.698  26.863  32.188  1.00  0.00     0.167 HD
ATOM     27  C   UNL A   1      45.359  26.824  36.624  1.00  0.00     0.034 A 
ATOM     28  C   UNL A   1      45.269  26.386  29.505  1.00  0.00     0.034 A 
ATOM     29  C   UNL A   1      46.592  26.414  36.019  1.00  0.00     0.049 A 
ATOM     30  C   UNL A   1      46.511  26.119  30.332  1.00  0.00     0.074 A 
ATOM     31  C   UNL A   1      47.786  26.081  36.624  1.00  0.00     0.029 A 
ATOM     32  N   UNL A   1      46.785  26.300  34.646  1.00  0.00    -0.354 N 
ATOM     33  N   UNL A   1      46.653  26.150  31.640  1.00  0.00    -0.248 NA
ATOM     34  C   UNL A   1      47.737  25.782  29.603  1.00  0.00     0.031 C 
ATOM     35  C   UNL A   1      48.726  25.860  35.614  1.00  0.00     0.029 A 
ATOM     36  C   UNL A   1      48.091  25.942  34.382  1.00  0.00     0.049 A 
ATOM     37  H   UNL A   1      46.091  26.452  33.964  1.00  0.00     0.167 HD
ATOM     38  C   UNL A   1      47.977  25.801  31.889  1.00  0.00     0.074 A 
ATOM     39  C   UNL A   1      48.582  25.549  30.596  1.00  0.00     0.031 C 
ATOM     40  C   UNL A   1      48.641  25.697  33.070  1.00  0.00     0.034 A 
BRANCH  27  41
ATOM     41  C   UNL A   1      45.251  26.957  38.121  1.00  0.00     0.023 A 
ATOM     42  C   UNL A   1      45.632  28.119  38.812  1.00  0.00     0.031 A 
ATOM     43  C   UNL A   1      44.832  25.846  38.876  1.00  0.00     0.131 A 
ATOM     44  C   UNL A   1      45.636  28.123  40.218  1.00  0.00     0.055 A 
ATOM     45  C   UNL A   1      44.760  25.884  40.268  1.00  0.00     0.041 A 
ATOM     46  F   UNL A   1      44.512  24.691  38.270  1.00  0.00    -0.206 F 
ATOM     47  C   UNL A   1      45.173  27.024  40.948  1.00  0.00     0.022 A 
BRANCH  44  48
ATOM     48  S   UNL A   1      46.390  29.526  41.087  1.00  0.00     0.124 S 
ATOM     49  O   UNL A   1      46.108  30.627  40.169  1.00  0.00    -0.237 OA
ATOM     50  O   UNL A   1      45.663  29.546  42.351  1.00  0.00    -0.237 OA
ATOM     51  O   UNL A   1      47.800  29.151  41.185  1.00  0.00    -0.744 OA
ENDBRANCH  44  48
ENDBRANCH  27  41
BRANCH  28  52
ATOM     52  C   UNL A   1      45.301  26.314  28.011  1.00  0.00     0.023 A 
ATOM     53  C   UNL A   1      45.098  25.105  27.325  1.00  0.00     0.031 A 
ATOM     54  C   UNL A   1      45.665  27.440  27.245  1.00  0.00     0.131 A 
ATOM     55  C   UNL A   1      45.327  25.036  25.939  1.00  0.00     0.055 A 
ATOM     56  C   UNL A   1      45.812  27.384  25.858  1.00  0.00     0.041 A 
ATOM     57  F   UNL A   1      45.906  28.621  27.836  1.00  0.00    -0.206 F 
ATOM     58  C   UNL A   1      45.665  26.170  25.199  1.00  0.00     0.022 A 
BRANCH  55  59
ATOM     59  S   UNL A   1      45.338  23.405  25.141  1.00  0.00     0.124 S 
ATOM     60  O   UNL A   1      46.102  22.615  26.099  1.00  0.00    -0.237 OA
ATOM     61  O   UNL A   1      43.915  23.103  25.049  1.00  0.00    -0.237 OA
ATOM     62  O   UNL A   1      46.007  23.655  23.865  1.00  0.00    -0.744 OA
ENDBRANCH  55  59
ENDBRANCH  28  52
BRANCH  40  63
ATOM     63  C   UNL A   1      50.070  25.227  33.010  1.00  0.00     0.023 A 
ATOM     64  C   UNL A   1      50.400  23.864  33.000  1.00  0.00     0.031 A 
ATOM     65  C   UNL A   1      51.112  26.169  32.943  1.00  0.00     0.131 A 
ATOM     66  C   UNL A   1      51.746  23.480  32.992  1.00  0.00     0.055 A 
ATOM     67  C   UNL A   1      52.445  25.779  32.847  1.00  0.00     0.041 A 
ATOM     68  F   UNL A   1      50.846  27.486  32.951  1.00  0.00    -0.206 F 
ATOM     69  C   UNL A   1      52.769  24.426  32.888  1.00  0.00     0.022 A 
BRANCH  66  70
ATOM     70  S   UNL A   1      52.145  21.730  33.240  1.00  0.00     0.124 S 
ATOM     71  O   UNL A   1      50.915  21.076  32.802  1.00  0.00    -0.237 OA
ATOM     72  O   UNL A   1      53.305  21.548  32.375  1.00  0.00    -0.237 OA
ATOM     73  O   UNL A   1      52.419  21.641  34.672  1.00  0.00    -0.744 OA
ENDBRANCH  66  70
ENDBRANCH  40  63
ENDBRANCH  14  15
ENDBRANCH   7   9
ENDBRANCH   6   7
ENDBRANCH   5   6
ENDBRANCH   4   5
ENDBRANCH   3   4
ENDBRANCH   2   3
ENDBRANCH   1   2
BRANCH   1  74
ATOM     74  O   UNL A   1      32.495  34.266  27.776  1.00  0.00    -0.377 OA
BRANCH  74  75
ATOM     75  C   UNL A   1      31.932  32.957  27.050  1.00  0.00     0.188 C 
BRANCH  75  76
ATOM     76  C   UNL A   1      32.745  30.933  26.992  1.00  0.00     0.188 C 
BRANCH  76  77
ATOM     77  O   UNL A   1      34.131  30.370  27.278  1.00  0.00    -0.376 OA
BRANCH  77  78
ATOM     78  C   UNL A   1      34.481  28.991  27.229  1.00  0.00     0.202 C 
BRANCH  78  79
ATOM     79  C   UNL A   1      33.933  27.931  26.235  1.00  0.00     0.261 C 
BRANCH  79  80
ATOM     80  O   UNL A   1      32.818  27.087  26.564  1.00  0.00    -0.459 OA
BRANCH  80  81
ATOM     81  C   UNL A   1      31.707  27.198  25.777  1.00  0.00     0.364 C 
ATOM     82  O   UNL A   1      31.311  28.276  25.353  1.00  0.00    -0.245 OA
BRANCH  81  83
ATOM     83  C   UNL A   1      31.070  25.792  25.491  1.00  0.00     0.295 C 
ATOM     84  C   UNL A   1      30.098  25.967  24.323  1.00  0.00     0.078 C 
ATOM     85  N   UNL A   1      31.981  24.688  25.079  1.00  0.00    -0.319 N 
ATOM     86  C   UNL A   1      30.833  26.303  23.021  1.00  0.00     0.013 C 
ATOM     87  C   UNL A   1      32.868  25.035  23.979  1.00  0.00     0.263 C 
ATOM     88  H   UNL A   1      31.291  24.035  24.707  1.00  0.00     0.349 HD
ATOM     89  C   UNL A   1      32.029  25.384  22.749  1.00  0.00     0.062 C 
BRANCH  85  90
ATOM     90  C   UNL A   1      32.540  23.786  26.080  1.00  0.00     0.301 C 
BRANCH  90  91
ATOM     91  C   UNL A   1      33.121  22.542  25.496  1.00  0.00     0.025 A 
ATOM     92  C   UNL A   1      31.974  21.196  25.133  1.00  0.00     0.014 A 
ATOM     93  C   UNL A   1      34.901  22.267  25.398  1.00  0.00     0.052 A 
ATOM     94  C   UNL A   1      32.619  19.550  24.752  1.00  0.00     0.040 A 
ATOM     95  C   UNL A   1      35.548  20.633  25.022  1.00  0.00     0.060 A 
ATOM     96  Cl  UNL A   1      36.006  23.553  25.682  1.00  0.00    -0.084 Cl
ATOM     97  C   UNL A   1      34.410  19.280  24.669  1.00  0.00     0.124 A 
ATOM     98  F   UNL A   1      34.878  18.088  24.283  1.00  0.00    -0.207 F 
ENDBRANCH  90  91
ENDBRANCH  85  90
ENDBRANCH  81  83
ENDBRANCH  80  81
ENDBRANCH  79  80
ENDBRANCH  78  79
ENDBRANCH  77  78
ENDBRANCH  76  77
ENDBRANCH  75  76
ENDBRANCH  74  75
ENDBRANCH   1  74
TORSDOF 25
ENDMDL
MODEL 2
REMARK VINA RESULT:      -9.0      6.349      9.619
REMARK SMILES O=C(OCCOCCOCCOCCOC(=O)[C@H]1CCCC[N@H+]1Cc1ccc(F)cc1Cl)c1ccc(-c2c3nc(c(-c4cc(S(=O)(=O)[O-])ccc4F)c4ccc([nH]4)c(-c4cc(S(=O)(=O)[O-])ccc4F)c4nc(c(-c5cc(S(=O)(=O)[O-])ccc5F)c5ccc2[nH]5)C=C4)C=C3)cc1
REMARK SMILES IDX 8 1 7 2 6 3 5 4 4 5 3 6 2 7 1 8 33 9 34 10 95 11 35 12 94 13
REMARK SMILES IDX 36 14 37 15 38 16 88 17 39 18 93 19 87 20 89 21 40 22 92 23
REMARK SMILES IDX 86 24 85 25 41 27 73 28 53 29 72 30 54 31 57 32 71 33 90 34
REMARK SMILES IDX 55 35 56 36 70 38 91 39 58 40 42 41 43 42 51 43 44 44 50 45
REMARK SMILES IDX 52 46 49 47 45 48 46 49 47 50 48 51 74 52 75 53 83 54 76 55
REMARK SMILES IDX 82 56 84 57 81 58 77 59 78 60 79 61 80 62 59 63 60 64 68 65
REMARK SMILES IDX 61 66 67 67 69 68 66 69 62 70 63 71 64 72 65 73 9 74 10 75
REMARK SMILES IDX 11 76 12 77 13 78 14 79 15 80 16 81 17 82 18 83 19 84 23 85
REMARK SMILES IDX 20 86 22 87 21 89 24 90 25 91 26 92 31 93 27 94 30 95 32 96
REMARK SMILES IDX 28 97 29 98
REMARK H PARENT 89 26 57 37 23 88
REMARK Flexibility Score: inf
ROOT
ATOM      1  C   UNL A   1      37.360  33.526  29.801  1.00  0.00     0.188 C 
ENDROOT
BRANCH   1   2
ATOM      2  C   UNL A   1      37.289  33.059  31.235  1.00  0.00     0.188 C 
BRANCH   2   3
ATOM      3  O   UNL A   1      36.046  32.446  31.508  1.00  0.00    -0.376 OA
BRANCH   3   4
ATOM      4  C   UNL A   1      36.045  31.300  32.354  1.00  0.00     0.202 C 
BRANCH   4   5
ATOM      5  C   UNL A   1      36.306  30.056  31.517  1.00  0.00     0.261 C 
BRANCH   5   6
ATOM      6  O   UNL A   1      37.044  29.107  32.322  1.00  0.00    -0.460 OA
BRANCH   6   7
ATOM      7  C   UNL A   1      38.159  28.579  31.742  1.00  0.00     0.338 C 
ATOM      8  O   UNL A   1      38.409  27.386  31.647  1.00  0.00    -0.246 OA
BRANCH   7   9
ATOM      9  C   UNL A   1      39.120  29.665  31.374  1.00  0.00     0.060 A 
ATOM     10  C   UNL A   1      39.288  30.022  30.026  1.00  0.00     0.016 A 
ATOM     11  C   UNL A   1      39.775  30.411  32.360  1.00  0.00     0.016 A 
ATOM     12  C   UNL A   1      40.051  31.106  29.654  1.00  0.00     0.010 A 
ATOM     13  C   UNL A   1      40.674  31.418  31.979  1.00  0.00     0.010 A 
ATOM     14  C   UNL A   1      40.831  31.734  30.618  1.00  0.00    -0.014 A 
BRANCH  14  15
ATOM     15  C   UNL A   1      42.065  32.324  30.066  1.00  0.00     0.031 A 
ATOM     16  C   UNL A   1      43.154  31.342  29.719  1.00  0.00     0.074 A 
ATOM     17  C   UNL A   1      42.087  33.583  29.599  1.00  0.00     0.049 A 
ATOM     18  N   UNL A   1      44.340  31.550  29.223  1.00  0.00    -0.248 NA
ATOM     19  C   UNL A   1      42.832  29.911  29.906  1.00  0.00     0.031 C 
ATOM     20  C   UNL A   1      40.955  34.511  29.616  1.00  0.00     0.029 A 
ATOM     21  N   UNL A   1      43.083  34.284  28.973  1.00  0.00    -0.354 N 
ATOM     22  C   UNL A   1      44.906  30.287  29.074  1.00  0.00     0.074 A 
ATOM     23  C   UNL A   1      43.930  29.314  29.487  1.00  0.00     0.031 C 
ATOM     24  C   UNL A   1      41.331  35.669  29.045  1.00  0.00     0.029 A 
ATOM     25  C   UNL A   1      42.748  35.592  28.707  1.00  0.00     0.049 A 
ATOM     26  H   UNL A   1      43.953  33.890  28.737  1.00  0.00     0.167 HD
ATOM     27  C   UNL A   1      46.157  29.984  28.663  1.00  0.00     0.034 A 
ATOM     28  C   UNL A   1      43.538  36.610  28.311  1.00  0.00     0.034 A 
ATOM     29  C   UNL A   1      47.102  30.999  28.297  1.00  0.00     0.049 A 
ATOM     30  C   UNL A   1      44.999  36.287  28.072  1.00  0.00     0.074 A 
ATOM     31  C   UNL A   1      48.440  30.868  27.992  1.00  0.00     0.029 A 
ATOM     32  N   UNL A   1      46.793  32.352  28.206  1.00  0.00    -0.354 N 
ATOM     33  N   UNL A   1      45.599  35.116  28.090  1.00  0.00    -0.248 NA
ATOM     34  C   UNL A   1      45.891  37.413  27.780  1.00  0.00     0.031 C 
ATOM     35  C   UNL A   1      48.962  32.151  27.812  1.00  0.00     0.029 A 
ATOM     36  C   UNL A   1      47.926  33.073  27.891  1.00  0.00     0.049 A 
ATOM     37  H   UNL A   1      45.898  32.738  28.346  1.00  0.00     0.167 HD
ATOM     38  C   UNL A   1      46.933  35.364  27.778  1.00  0.00     0.074 A 
ATOM     39  C   UNL A   1      47.040  36.793  27.560  1.00  0.00     0.031 C 
ATOM     40  C   UNL A   1      47.977  34.500  27.678  1.00  0.00     0.034 A 
BRANCH  27  41
ATOM     41  C   UNL A   1      46.588  28.545  28.774  1.00  0.00     0.023 A 
ATOM     42  C   UNL A   1      46.362  27.601  27.757  1.00  0.00     0.031 A 
ATOM     43  C   UNL A   1      47.167  28.097  29.975  1.00  0.00     0.131 A 
ATOM     44  C   UNL A   1      46.666  26.248  27.985  1.00  0.00     0.055 A 
ATOM     45  C   UNL A   1      47.541  26.767  30.163  1.00  0.00     0.041 A 
ATOM     46  F   UNL A   1      47.352  28.944  31.001  1.00  0.00    -0.206 F 
ATOM     47  C   UNL A   1      47.283  25.831  29.168  1.00  0.00     0.022 A 
BRANCH  44  48
ATOM     48  S   UNL A   1      46.114  25.013  26.776  1.00  0.00     0.124 S 
ATOM     49  O   UNL A   1      45.957  25.827  25.573  1.00  0.00    -0.237 OA
ATOM     50  O   UNL A   1      47.219  24.062  26.763  1.00  0.00    -0.237 OA
ATOM     51  O   UNL A   1      44.865  24.509  27.346  1.00  0.00    -0.744 OA
ENDBRANCH  44  48
ENDBRANCH  27  41
BRANCH  28  52
ATOM     52  C   UNL A   1      43.036  38.018  28.259  1.00  0.00     0.023 A 
ATOM     53  C   UNL A   1      43.224  38.910  29.327  1.00  0.00     0.031 A 
ATOM     54  C   UNL A   1      42.241  38.458  27.180  1.00  0.00     0.131 A 
ATOM     55  C   UNL A   1      42.574  40.157  29.325  1.00  0.00     0.055 A 
ATOM     56  C   UNL A   1      41.662  39.728  27.148  1.00  0.00     0.041 A 
ATOM     57  F   UNL A   1      41.991  37.648  26.139  1.00  0.00    -0.206 F 
ATOM     58  C   UNL A   1      41.810  40.578  28.236  1.00  0.00     0.022 A 
BRANCH  55  59
ATOM     59  S   UNL A   1      42.606  41.155  30.841  1.00  0.00     0.124 S 
ATOM     60  O   UNL A   1      41.183  41.323  31.112  1.00  0.00    -0.237 OA
ATOM     61  O   UNL A   1      43.336  40.290  31.760  1.00  0.00    -0.237 OA
ATOM     62  O   UNL A   1      43.311  42.369  30.435  1.00  0.00    -0.744 OA
ENDBRANCH  55  59
ENDBRANCH  28  52
BRANCH  40  63
ATOM     63  C   UNL A   1      49.300  35.077  27.252  1.00  0.00     0.023 A 
ATOM     64  C   UNL A   1      50.221  35.582  28.182  1.00  0.00     0.031 A 
ATOM     65  C   UNL A   1      49.645  35.098  25.889  1.00  0.00     0.131 A 
ATOM     66  C   UNL A   1      51.417  36.151  27.729  1.00  0.00     0.055 A 
ATOM     67  C   UNL A   1      50.874  35.586  25.453  1.00  0.00     0.041 A 
ATOM     68  F   UNL A   1      48.796  34.627  24.960  1.00  0.00    -0.206 F 
ATOM     69  C   UNL A   1      51.762  36.132  26.375  1.00  0.00     0.022 A 
BRANCH  66  70
ATOM     70  S   UNL A   1      52.463  37.024  28.924  1.00  0.00     0.124 S 
ATOM     71  O   UNL A   1      52.297  38.414  28.510  1.00  0.00    -0.237 OA
ATOM     72  O   UNL A   1      51.851  36.661  30.198  1.00  0.00    -0.237 OA
ATOM     73  O   UNL A   1      53.790  36.461  28.691  1.00  0.00    -0.744 OA
ENDBRANCH  66  70
ENDBRANCH  40  63
ENDBRANCH  14  15
ENDBRANCH   7   9
ENDBRANCH   6   7
ENDBRANCH   5   6
ENDBRANCH   4   5
ENDBRANCH   3   4
ENDBRANCH   2   3
ENDBRANCH   1   2
BRANCH   1  74
ATOM     74  O   UNL A   1      37.038  32.512  28.837  1.00  0.00    -0.377 OA
BRANCH  74  75
ATOM     75  C   UNL A   1      35.618  32.662  28.117  1.00  0.00     0.188 C 
BRANCH  75  76
ATOM     76  C   UNL A   1      34.073  31.165  27.747  1.00  0.00     0.188 C 
BRANCH  76  77
ATOM     77  O   UNL A   1      32.717  31.232  27.056  1.00  0.00    -0.376 OA
BRANCH  77  78
ATOM     78  C   UNL A   1      31.856  30.122  26.834  1.00  0.00     0.202 C 
BRANCH  78  79
ATOM     79  C   UNL A   1      31.893  29.145  25.627  1.00  0.00     0.261 C 
BRANCH  79  80
ATOM     80  O   UNL A   1      31.433  27.788  25.734  1.00  0.00    -0.459 OA
BRANCH  80  81
ATOM     81  C   UNL A   1      30.945  27.211  24.597  1.00  0.00     0.364 C 
ATOM     82  O   UNL A   1      30.243  27.822  23.802  1.00  0.00    -0.245 OA
BRANCH  81  83
ATOM     83  C   UNL A   1      31.427  25.723  24.462  1.00  0.00     0.295 C 
ATOM     84  C   UNL A   1      30.998  25.233  23.079  1.00  0.00     0.078 C 
ATOM     85  N   UNL A   1      32.892  25.459  24.534  1.00  0.00    -0.319 N 
ATOM     86  C   UNL A   1      31.753  25.961  21.961  1.00  0.00     0.013 C 
ATOM     87  C   UNL A   1      33.684  26.293  23.643  1.00  0.00     0.263 C 
ATOM     88  H   UNL A   1      32.908  24.515  24.146  1.00  0.00     0.349 HD
ATOM     89  C   UNL A   1      33.266  26.022  22.196  1.00  0.00     0.062 C 
BRANCH  85  90
ATOM     90  C   UNL A   1      33.517  25.125  25.808  1.00  0.00     0.301 C 
BRANCH  90  91
ATOM     91  C   UNL A   1      34.216  23.808  25.798  1.00  0.00     0.025 A 
ATOM     92  C   UNL A   1      36.020  23.841  25.743  1.00  0.00     0.014 A 
ATOM     93  C   UNL A   1      33.331  22.252  25.579  1.00  0.00     0.052 A 
ATOM     94  C   UNL A   1      36.932  22.320  25.385  1.00  0.00     0.040 A 
ATOM     95  C   UNL A   1      34.231  20.737  25.221  1.00  0.00     0.060 A 
ATOM     96  Cl  UNL A   1      31.616  22.193  25.689  1.00  0.00    -0.084 Cl
ATOM     97  C   UNL A   1      36.032  20.763  25.153  1.00  0.00     0.124 A 
ATOM     98  F   UNL A   1      36.717  19.626  24.995  1.00  0.00    -0.207 F 
ENDBRANCH  90  91
ENDBRANCH  85  90
ENDBRANCH  81  83
ENDBRANCH  80  81
ENDBRANCH  79  80
ENDBRANCH  78  79
ENDBRANCH  77  78
ENDBRANCH  76  77
ENDBRANCH  75  76
ENDBRANCH  74  75
ENDBRANCH   1  74
TORSDOF 25
ENDMDL
MODEL 3
REMARK VINA RESULT:      -8.9      4.950      7.471
REMARK SMILES O=C(OCCOCCOCCOCCOC(=O)[C@H]1CCCC[N@H+]1Cc1ccc(F)cc1Cl)c1ccc(-c2c3nc(c(-c4cc(S(=O)(=O)[O-])ccc4F)c4ccc([nH]4)c(-c4cc(S(=O)(=O)[O-])ccc4F)c4nc(c(-c5cc(S(=O)(=O)[O-])ccc5F)c5ccc2[nH]5)C=C4)C=C3)cc1
REMARK SMILES IDX 8 1 7 2 6 3 5 4 4 5 3 6 2 7 1 8 33 9 34 10 95 11 35 12 94 13
REMARK SMILES IDX 36 14 37 15 38 16 88 17 39 18 93 19 87 20 89 21 40 22 92 23
REMARK SMILES IDX 86 24 85 25 41 27 73 28 53 29 72 30 54 31 57 32 71 33 90 34
REMARK SMILES IDX 55 35 56 36 70 38 91 39 58 40 42 41 43 42 51 43 44 44 50 45
REMARK SMILES IDX 52 46 49 47 45 48 46 49 47 50 48 51 74 52 75 53 83 54 76 55
REMARK SMILES IDX 82 56 84 57 81 58 77 59 78 60 79 61 80 62 59 63 60 64 68 65
REMARK SMILES IDX 61 66 67 67 69 68 66 69 62 70 63 71 64 72 65 73 9 74 10 75
REMARK SMILES IDX 11 76 12 77 13 78 14 79 15 80 16 81 17 82 18 83 19 84 23 85
REMARK SMILES IDX 20 86 22 87 21 89 24 90 25 91 26 92 31 93 27 94 30 95 32 96
REMARK SMILES IDX 28 97 29 98
REMARK H PARENT 89 26 57 37 23 88
REMARK Flexibility Score: inf
ROOT
ATOM      1  C   UNL A   1      40.306  22.054  27.176  1.00  0.00     0.188 C 
ENDROOT
BRANCH   1   2
ATOM      2  C   UNL A   1      41.070  23.334  26.935  1.00  0.00     0.188 C 
BRANCH   2   3
ATOM      3  O   UNL A   1      40.478  24.417  27.620  1.00  0.00    -0.376 OA
BRANCH   3   4
ATOM      4  C   UNL A   1      39.802  25.402  26.845  1.00  0.00     0.202 C 
BRANCH   4   5
ATOM      5  C   UNL A   1      40.614  26.689  26.845  1.00  0.00     0.261 C 
BRANCH   5   6
ATOM      6  O   UNL A   1      41.626  26.594  25.817  1.00  0.00    -0.460 OA
BRANCH   6   7
ATOM      7  C   UNL A   1      42.329  27.735  25.569  1.00  0.00     0.338 C 
ATOM      8  O   UNL A   1      42.005  28.609  24.778  1.00  0.00    -0.246 OA
BRANCH   7   9
ATOM      9  C   UNL A   1      43.643  27.703  26.284  1.00  0.00     0.060 A 
ATOM     10  C   UNL A   1      44.470  26.573  26.176  1.00  0.00     0.016 A 
ATOM     11  C   UNL A   1      44.117  28.827  26.971  1.00  0.00     0.016 A 
ATOM     12  C   UNL A   1      45.744  26.555  26.698  1.00  0.00     0.010 A 
ATOM     13  C   UNL A   1      45.350  28.759  27.636  1.00  0.00     0.010 A 
ATOM     14  C   UNL A   1      46.142  27.601  27.521  1.00  0.00    -0.014 A 
BRANCH  14  15
ATOM     15  C   UNL A   1      47.118  27.190  28.547  1.00  0.00     0.031 A 
ATOM     16  C   UNL A   1      46.528  26.610  29.807  1.00  0.00     0.074 A 
ATOM     17  C   UNL A   1      48.418  27.031  28.248  1.00  0.00     0.049 A 
ATOM     18  N   UNL A   1      47.120  26.164  30.878  1.00  0.00    -0.248 NA
ATOM     19  C   UNL A   1      45.058  26.461  29.836  1.00  0.00     0.031 C 
ATOM     20  C   UNL A   1      49.020  27.278  26.936  1.00  0.00     0.029 A 
ATOM     21  N   UNL A   1      49.458  26.576  29.012  1.00  0.00    -0.354 N 
ATOM     22  C   UNL A   1      46.097  25.717  31.708  1.00  0.00     0.074 A 
ATOM     23  C   UNL A   1      44.851  25.901  31.012  1.00  0.00     0.031 C 
ATOM     24  C   UNL A   1      50.332  26.989  26.997  1.00  0.00     0.029 A 
ATOM     25  C   UNL A   1      50.674  26.627  28.369  1.00  0.00     0.049 A 
ATOM     26  H   UNL A   1      49.347  26.245  29.932  1.00  0.00     0.167 HD
ATOM     27  C   UNL A   1      46.201  25.233  32.965  1.00  0.00     0.034 A 
ATOM     28  C   UNL A   1      51.913  26.472  28.876  1.00  0.00     0.034 A 
ATOM     29  C   UNL A   1      47.468  25.105  33.624  1.00  0.00     0.049 A 
ATOM     30  C   UNL A   1      52.012  26.148  30.353  1.00  0.00     0.074 A 
ATOM     31  C   UNL A   1      47.733  24.763  34.934  1.00  0.00     0.029 A 
ATOM     32  N   UNL A   1      48.693  25.336  33.008  1.00  0.00    -0.354 N 
ATOM     33  N   UNL A   1      51.044  25.884  31.206  1.00  0.00    -0.248 NA
ATOM     34  C   UNL A   1      53.354  26.119  30.940  1.00  0.00     0.031 C 
ATOM     35  C   UNL A   1      49.111  24.882  35.134  1.00  0.00     0.029 A 
ATOM     36  C   UNL A   1      49.716  25.186  33.921  1.00  0.00     0.049 A 
ATOM     37  H   UNL A   1      48.812  25.573  32.060  1.00  0.00     0.167 HD
ATOM     38  C   UNL A   1      51.667  25.625  32.423  1.00  0.00     0.074 A 
ATOM     39  C   UNL A   1      53.092  25.746  32.184  1.00  0.00     0.031 C 
ATOM     40  C   UNL A   1      51.124  25.314  33.629  1.00  0.00     0.034 A 
BRANCH  27  41
ATOM     41  C   UNL A   1      44.920  24.998  33.722  1.00  0.00     0.023 A 
ATOM     42  C   UNL A   1      44.274  26.006  34.457  1.00  0.00     0.031 A 
ATOM     43  C   UNL A   1      44.385  23.698  33.771  1.00  0.00     0.131 A 
ATOM     44  C   UNL A   1      43.160  25.683  35.251  1.00  0.00     0.055 A 
ATOM     45  C   UNL A   1      43.232  23.401  34.496  1.00  0.00     0.041 A 
ATOM     46  F   UNL A   1      44.995  22.684  33.134  1.00  0.00    -0.206 F 
ATOM     47  C   UNL A   1      42.618  24.394  35.250  1.00  0.00     0.022 A 
BRANCH  44  48
ATOM     48  S   UNL A   1      42.514  26.930  36.400  1.00  0.00     0.124 S 
ATOM     49  O   UNL A   1      42.723  26.277  37.691  1.00  0.00    -0.237 OA
ATOM     50  O   UNL A   1      43.360  28.085  36.125  1.00  0.00    -0.237 OA
ATOM     51  O   UNL A   1      41.115  27.072  36.001  1.00  0.00    -0.744 OA
ENDBRANCH  44  48
ENDBRANCH  27  41
BRANCH  28  52
ATOM     52  C   UNL A   1      53.135  26.757  28.061  1.00  0.00     0.023 A 
ATOM     53  C   UNL A   1      53.822  25.740  27.379  1.00  0.00     0.031 A 
ATOM     54  C   UNL A   1      53.713  28.044  28.056  1.00  0.00     0.131 A 
ATOM     55  C   UNL A   1      55.069  26.007  26.786  1.00  0.00     0.055 A 
ATOM     56  C   UNL A   1      54.912  28.322  27.397  1.00  0.00     0.041 A 
ATOM     57  F   UNL A   1      53.129  29.058  28.714  1.00  0.00    -0.206 F 
ATOM     58  C   UNL A   1      55.609  27.295  26.776  1.00  0.00     0.022 A 
BRANCH  55  59
ATOM     59  S   UNL A   1      56.056  24.613  26.171  1.00  0.00     0.124 S 
ATOM     60  O   UNL A   1      55.046  23.568  26.054  1.00  0.00    -0.237 OA
ATOM     61  O   UNL A   1      56.580  25.143  24.917  1.00  0.00    -0.237 OA
ATOM     62  O   UNL A   1      57.048  24.407  27.224  1.00  0.00    -0.744 OA
ENDBRANCH  55  59
ENDBRANCH  28  52
BRANCH  40  63
ATOM     63  C   UNL A   1      52.081  25.020  34.753  1.00  0.00     0.023 A 
ATOM     64  C   UNL A   1      52.520  26.022  35.631  1.00  0.00     0.031 A 
ATOM     65  C   UNL A   1      52.540  23.706  34.952  1.00  0.00     0.131 A 
ATOM     66  C   UNL A   1      53.448  25.705  36.630  1.00  0.00     0.055 A 
ATOM     67  C   UNL A   1      53.394  23.382  36.002  1.00  0.00     0.041 A 
ATOM     68  F   UNL A   1      52.149  22.713  34.136  1.00  0.00    -0.206 F 
ATOM     69  C   UNL A   1      53.867  24.388  36.839  1.00  0.00     0.022 A 
BRANCH  66  70
ATOM     70  S   UNL A   1      54.190  27.059  37.578  1.00  0.00     0.124 S 
ATOM     71  O   UNL A   1      53.903  26.657  38.952  1.00  0.00    -0.237 OA
ATOM     72  O   UNL A   1      55.590  26.994  37.173  1.00  0.00    -0.237 OA
ATOM     73  O   UNL A   1      53.465  28.239  37.112  1.00  0.00    -0.744 OA
ENDBRANCH  66  70
ENDBRANCH  40  63
ENDBRANCH  14  15
ENDBRANCH   7   9
ENDBRANCH   6   7
ENDBRANCH   5   6
ENDBRANCH   4   5
ENDBRANCH   3   4
ENDBRANCH   2   3
ENDBRANCH   1   2
BRANCH   1  74
ATOM     74  O   UNL A   1      39.793  21.443  25.982  1.00  0.00    -0.377 OA
BRANCH  74  75
ATOM     75  C   UNL A   1      38.235  21.666  25.699  1.00  0.00     0.188 C 
BRANCH  75  76
ATOM     76  C   UNL A   1      37.140  23.505  25.278  1.00  0.00     0.188 C 
BRANCH  76  77
ATOM     77  O   UNL A   1      35.727  23.772  24.775  1.00  0.00    -0.376 OA
BRANCH  77  78
ATOM     78  C   UNL A   1      35.275  23.547  23.445  1.00  0.00     0.202 C 
BRANCH  78  79
ATOM     79  C   UNL A   1      34.007  22.758  23.018  1.00  0.00     0.261 C 
BRANCH  79  80
ATOM     80  O   UNL A   1      32.690  23.319  23.128  1.00  0.00    -0.459 OA
BRANCH  80  81
ATOM     81  C   UNL A   1      31.925  22.898  24.178  1.00  0.00     0.364 C 
ATOM     82  O   UNL A   1      32.059  21.791  24.682  1.00  0.00    -0.245 OA
BRANCH  81  83
ATOM     83  C   UNL A   1      30.920  24.014  24.634  1.00  0.00     0.295 C 
ATOM     84  C   UNL A   1      30.893  24.000  26.163  1.00  0.00     0.078 C 
ATOM     85  N   UNL A   1      31.231  25.423  24.261  1.00  0.00    -0.319 N 
ATOM     86  C   UNL A   1      32.232  24.454  26.756  1.00  0.00     0.013 C 
ATOM     87  C   UNL A   1      32.583  25.838  24.605  1.00  0.00     0.263 C 
ATOM     88  H   UNL A   1      30.602  25.906  24.903  1.00  0.00     0.349 HD
ATOM     89  C   UNL A   1      32.768  25.741  26.121  1.00  0.00     0.062 C 
BRANCH  85  90
ATOM     90  C   UNL A   1      30.688  25.995  23.035  1.00  0.00     0.301 C 
BRANCH  90  91
ATOM     91  C   UNL A   1      29.936  27.265  23.256  1.00  0.00     0.025 A 
ATOM     92  C   UNL A   1      28.162  27.122  23.558  1.00  0.00     0.014 A 
ATOM     93  C   UNL A   1      30.681  28.883  22.976  1.00  0.00     0.052 A 
ATOM     94  C   UNL A   1      27.123  28.601  23.496  1.00  0.00     0.040 A 
ATOM     95  C   UNL A   1      29.654  30.357  22.912  1.00  0.00     0.060 A 
ATOM     96  Cl  UNL A   1      32.378  29.042  22.748  1.00  0.00    -0.084 Cl
ATOM     97  C   UNL A   1      27.880  30.222  23.200  1.00  0.00     0.124 A 
ATOM     98  F   UNL A   1      27.121  31.322  23.262  1.00  0.00    -0.207 F 
ENDBRANCH  90  91
ENDBRANCH  85  90
ENDBRANCH  81  83
ENDBRANCH  80  81
ENDBRANCH  79  80
ENDBRANCH  78  79
ENDBRANCH  77  78
ENDBRANCH  76  77
ENDBRANCH  75  76
ENDBRANCH  74  75
ENDBRANCH   1  74
TORSDOF 25
ENDMDL
