MODEL 1
REMARK VINA RESULT:     -11.1      0.000      0.000
REMARK SMILES Cc1ccc(NC(=O)C[C@@H](C(=O)OCCOCCOCCOCCOC(=O)c2ccc(-c3c4nc(c(-c5cc(S(=O)(=O)[O-])ccc5F)c5ccc([nH]5)c(-c5cc(S(=O)(=O)[O-])ccc5F)c5nc(c(-c6cc(S(=O)(=O)[O-])ccc6F)c6ccc3[nH]6)C=C5)C=C4)cc2)[NH+]2CCOCC2)cc1
REMARK SMILES IDX 19 1 18 2 17 3 16 4 15 5 14 6 13 7 11 8 12 9 10 10 9 11 7 12
REMARK SMILES IDX 6 13 8 15 5 16 1 17 2 18 3 19 98 20 4 21 97 22 91 23 92 24
REMARK SMILES IDX 96 25 93 27 95 28 94 29 20 30 21 31 22 32 23 33 24 34 25 35
REMARK SMILES IDX 26 36 27 37 28 38 29 39 90 40 30 41 89 42 31 43 32 44 33 45
REMARK SMILES IDX 83 46 34 47 88 48 82 49 84 50 35 51 87 52 81 53 80 54 36 56
REMARK SMILES IDX 68 57 48 58 67 59 49 60 52 61 66 62 85 63 50 64 51 65 65 67
REMARK SMILES IDX 86 68 53 69 37 70 38 71 46 72 39 73 45 74 47 75 44 76 40 77
REMARK SMILES IDX 41 78 42 79 43 80 69 81 70 82 78 83 71 84 77 85 79 86 76 87
REMARK SMILES IDX 72 88 73 89 74 90 75 91 54 92 55 93 63 94 56 95 62 96 64 97
REMARK SMILES IDX 61 98 57 99 58 100 59 101 60 102
REMARK H PARENT 6 14 91 26 84 55 52 66
REMARK Flexibility Score: inf
ROOT
ATOM      1  O   UNL A   1      33.814  29.718  26.612  1.00  0.00    -0.377 OA
ENDROOT
BRANCH   1   2
ATOM      2  C   UNL A   1      32.587  29.088  26.269  1.00  0.00     0.188 C 
BRANCH   2   3
ATOM      3  C   UNL A   1      31.556  29.684  25.153  1.00  0.00     0.188 C 
BRANCH   3   4
ATOM      4  O   UNL A   1      31.316  28.897  23.466  1.00  0.00    -0.376 OA
BRANCH   4   5
ATOM      5  C   UNL A   1      32.541  27.535  22.575  1.00  0.00     0.202 C 
BRANCH   5   6
ATOM      6  C   UNL A   1      32.992  26.248  21.806  1.00  0.00     0.261 C 
BRANCH   6   7
ATOM      7  O   UNL A   1      34.051  25.455  22.221  1.00  0.00    -0.459 OA
BRANCH   7   8
ATOM      8  C   UNL A   1      33.528  24.475  22.930  1.00  0.00     0.365 C 
ATOM      9  O   UNL A   1      32.599  23.790  22.519  1.00  0.00    -0.245 OA
BRANCH   8  10
ATOM     10  C   UNL A   1      34.094  24.577  24.322  1.00  0.00     0.304 C 
BRANCH  10  11
ATOM     11  C   UNL A   1      35.526  23.990  24.526  1.00  0.00     0.177 C 
BRANCH  11  12
ATOM     12  C   UNL A   1      35.889  22.474  24.696  1.00  0.00     0.231 C 
ATOM     13  N   UNL A   1      37.039  21.882  25.181  1.00  0.00    -0.326 N 
ATOM     14  H   UNL A   1      37.090  20.922  24.970  1.00  0.00     0.169 HD
ATOM     15  O   UNL A   1      35.001  21.671  24.346  1.00  0.00    -0.274 OA
BRANCH  13  16
ATOM     16  C   UNL A   1      38.189  22.352  25.929  1.00  0.00     0.041 A 
ATOM     17  C   UNL A   1      42.568  23.737  28.228  1.00  0.00     0.044 C 
ATOM     18  C   UNL A   1      41.276  23.545  27.398  1.00  0.00    -0.051 A 
ATOM     19  C   UNL A   1      41.224  21.626  26.965  1.00  0.00     0.005 A 
ATOM     20  C   UNL A   1      39.978  25.051  27.226  1.00  0.00     0.005 A 
ATOM     21  C   UNL A   1      39.599  20.986  25.997  1.00  0.00     0.026 A 
ATOM     22  C   UNL A   1      38.209  24.217  26.606  1.00  0.00     0.026 A 
ENDBRANCH  13  16
ENDBRANCH  11  12
ENDBRANCH  10  11
BRANCH  10  23
ATOM     23  N   UNL A   1      32.962  24.023  25.120  1.00  0.00    -0.319 N 
ATOM     24  C   UNL A   1      33.412  23.785  26.557  1.00  0.00     0.291 C 
ATOM     25  C   UNL A   1      31.824  24.958  25.241  1.00  0.00     0.291 C 
ATOM     26  H   UNL A   1      32.676  23.175  24.631  1.00  0.00     0.348 HD
ATOM     27  C   UNL A   1      32.351  23.002  27.279  1.00  0.00     0.221 C 
ATOM     28  C   UNL A   1      30.728  24.211  26.000  1.00  0.00     0.221 C 
ATOM     29  O   UNL A   1      31.124  23.749  27.304  1.00  0.00    -0.370 OA
ENDBRANCH  10  23
ENDBRANCH   8  10
ENDBRANCH   7   8
ENDBRANCH   6   7
ENDBRANCH   5   6
ENDBRANCH   4   5
ENDBRANCH   3   4
ENDBRANCH   2   3
ENDBRANCH   1   2
BRANCH   1  30
ATOM     30  C   UNL A   1      33.649  30.943  27.284  1.00  0.00     0.188 C 
BRANCH  30  31
ATOM     31  C   UNL A   1      34.817  31.229  28.134  1.00  0.00     0.188 C 
BRANCH  31  32
ATOM     32  O   UNL A   1      34.477  32.490  28.689  1.00  0.00    -0.376 OA
BRANCH  32  33
ATOM     33  C   UNL A   1      33.698  33.390  27.942  1.00  0.00     0.202 C 
BRANCH  33  34
ATOM     34  C   UNL A   1      33.716  34.654  28.749  1.00  0.00     0.261 C 
BRANCH  34  35
ATOM     35  O   UNL A   1      33.252  34.306  30.100  1.00  0.00    -0.460 OA
BRANCH  35  36
ATOM     36  C   UNL A   1      33.831  34.955  31.160  1.00  0.00     0.338 C 
ATOM     37  O   UNL A   1      33.694  36.157  31.360  1.00  0.00    -0.246 OA
BRANCH  36  38
ATOM     38  C   UNL A   1      34.748  34.096  32.016  1.00  0.00     0.060 A 
ATOM     39  C   UNL A   1      35.925  34.671  32.405  1.00  0.00     0.016 A 
ATOM     40  C   UNL A   1      34.695  32.698  32.072  1.00  0.00     0.016 A 
ATOM     41  C   UNL A   1      37.066  33.850  32.354  1.00  0.00     0.010 A 
ATOM     42  C   UNL A   1      35.891  31.851  32.056  1.00  0.00     0.010 A 
ATOM     43  C   UNL A   1      37.319  32.250  31.913  1.00  0.00    -0.014 A 
BRANCH  43  44
ATOM     44  C   UNL A   1      39.348  31.337  32.132  1.00  0.00     0.031 A 
ATOM     45  C   UNL A   1      39.721  29.511  31.768  1.00  0.00     0.074 A 
ATOM     46  C   UNL A   1      40.516  31.484  33.310  1.00  0.00     0.049 A 
ATOM     47  N   UNL A   1      40.923  29.067  31.501  1.00  0.00    -0.248 NA
ATOM     48  C   UNL A   1      38.827  28.422  31.224  1.00  0.00     0.031 C 
ATOM     49  C   UNL A   1      41.917  32.246  33.163  1.00  0.00     0.029 A 
ATOM     50  N   UNL A   1      40.390  32.028  34.663  1.00  0.00    -0.354 N 
ATOM     51  C   UNL A   1      40.904  28.295  30.301  1.00  0.00     0.074 A 
ATOM     52  C   UNL A   1      39.547  27.856  30.232  1.00  0.00     0.031 C 
ATOM     53  C   UNL A   1      42.426  32.906  34.208  1.00  0.00     0.029 A 
ATOM     54  C   UNL A   1      41.478  32.723  35.208  1.00  0.00     0.049 A 
ATOM     55  H   UNL A   1      39.560  31.908  35.178  1.00  0.00     0.167 HD
ATOM     56  C   UNL A   1      42.028  28.268  29.481  1.00  0.00     0.034 A 
ATOM     57  C   UNL A   1      41.756  32.666  36.505  1.00  0.00     0.034 A 
ATOM     58  C   UNL A   1      43.222  28.744  30.262  1.00  0.00     0.049 A 
ATOM     59  C   UNL A   1      42.474  31.155  36.197  1.00  0.00     0.074 A 
ATOM     60  C   UNL A   1      44.312  29.590  30.096  1.00  0.00     0.029 A 
ATOM     61  N   UNL A   1      43.215  28.485  31.634  1.00  0.00    -0.354 N 
ATOM     62  N   UNL A   1      42.632  30.530  35.004  1.00  0.00    -0.248 NA
ATOM     63  C   UNL A   1      43.414  30.580  37.136  1.00  0.00     0.031 C 
ATOM     64  C   UNL A   1      44.801  29.950  31.419  1.00  0.00     0.029 A 
ATOM     65  C   UNL A   1      44.039  29.295  32.390  1.00  0.00     0.049 A 
ATOM     66  H   UNL A   1      42.661  27.776  32.035  1.00  0.00     0.167 HD
ATOM     67  C   UNL A   1      43.689  29.645  34.941  1.00  0.00     0.074 A 
ATOM     68  C   UNL A   1      44.113  29.729  36.356  1.00  0.00     0.031 C 
ATOM     69  C   UNL A   1      44.197  28.941  33.818  1.00  0.00     0.034 A 
BRANCH  56  70
ATOM     70  C   UNL A   1      42.133  27.977  27.928  1.00  0.00     0.023 A 
ATOM     71  C   UNL A   1      43.196  27.154  27.459  1.00  0.00     0.031 A 
ATOM     72  C   UNL A   1      41.334  28.472  26.868  1.00  0.00     0.131 A 
ATOM     73  C   UNL A   1      43.419  26.820  26.097  1.00  0.00     0.055 A 
ATOM     74  C   UNL A   1      41.533  28.116  25.496  1.00  0.00     0.041 A 
ATOM     75  F   UNL A   1      40.327  29.329  27.091  1.00  0.00    -0.206 F 
ATOM     76  C   UNL A   1      42.570  27.275  25.104  1.00  0.00     0.022 A 
BRANCH  73  77
ATOM     77  S   UNL A   1      44.821  25.725  25.682  1.00  0.00     0.124 S 
ATOM     78  O   UNL A   1      44.149  24.597  25.046  1.00  0.00    -0.237 OA
ATOM     79  O   UNL A   1      45.623  26.570  24.805  1.00  0.00    -0.237 OA
ATOM     80  O   UNL A   1      45.429  25.434  26.980  1.00  0.00    -0.744 OA
ENDBRANCH  73  77
ENDBRANCH  56  70
BRANCH  57  81
ATOM     81  C   UNL A   1      40.425  33.475  36.955  1.00  0.00     0.023 A 
ATOM     82  C   UNL A   1      39.344  32.759  37.701  1.00  0.00     0.031 A 
ATOM     83  C   UNL A   1      40.392  34.867  37.144  1.00  0.00     0.131 A 
ATOM     84  C   UNL A   1      38.444  33.417  38.620  1.00  0.00     0.055 A 
ATOM     85  C   UNL A   1      39.539  35.487  38.104  1.00  0.00     0.041 A 
ATOM     86  F   UNL A   1      41.315  35.642  36.566  1.00  0.00    -0.206 F 
ATOM     87  C   UNL A   1      38.602  34.775  38.860  1.00  0.00     0.022 A 
BRANCH  84  88
ATOM     88  S   UNL A   1      37.173  32.539  39.709  1.00  0.00     0.124 S 
ATOM     89  O   UNL A   1      37.721  31.197  39.846  1.00  0.00    -0.237 OA
ATOM     90  O   UNL A   1      37.153  33.354  40.914  1.00  0.00    -0.237 OA
ATOM     91  O   UNL A   1      35.945  32.607  38.911  1.00  0.00    -0.744 OA
ENDBRANCH  84  88
ENDBRANCH  57  81
BRANCH  69  92
ATOM     92  C   UNL A   1      44.865  27.553  33.934  1.00  0.00     0.023 A 
ATOM     93  C   UNL A   1      44.226  26.583  34.653  1.00  0.00     0.031 A 
ATOM     94  C   UNL A   1      46.045  27.082  33.273  1.00  0.00     0.131 A 
ATOM     95  C   UNL A   1      44.596  25.248  34.651  1.00  0.00     0.055 A 
ATOM     96  C   UNL A   1      46.439  25.739  33.260  1.00  0.00     0.041 A 
ATOM     97  F   UNL A   1      46.893  27.862  32.589  1.00  0.00    -0.206 F 
ATOM     98  C   UNL A   1      45.696  24.797  33.946  1.00  0.00     0.022 A 
BRANCH  95  99
ATOM     99  S   UNL A   1      43.503  24.208  35.617  1.00  0.00     0.124 S 
ATOM    100  O   UNL A   1      44.216  22.931  35.608  1.00  0.00    -0.237 OA
ATOM    101  O   UNL A   1      43.494  24.904  36.902  1.00  0.00    -0.237 OA
ATOM    102  O   UNL A   1      42.256  24.240  34.865  1.00  0.00    -0.744 OA
ENDBRANCH  95  99
ENDBRANCH  69  92
ENDBRANCH  43  44
ENDBRANCH  36  38
ENDBRANCH  35  36
ENDBRANCH  34  35
ENDBRANCH  33  34
ENDBRANCH  32  33
ENDBRANCH  31  32
ENDBRANCH  30  31
ENDBRANCH   1  30
TORSDOF 27
ENDMDL
MODEL 2
REMARK VINA RESULT:     -10.3      1.816      2.132
REMARK SMILES Cc1ccc(NC(=O)C[C@@H](C(=O)OCCOCCOCCOCCOC(=O)c2ccc(-c3c4nc(c(-c5cc(S(=O)(=O)[O-])ccc5F)c5ccc([nH]5)c(-c5cc(S(=O)(=O)[O-])ccc5F)c5nc(c(-c6cc(S(=O)(=O)[O-])ccc6F)c6ccc3[nH]6)C=C5)C=C4)cc2)[NH+]2CCOCC2)cc1
REMARK SMILES IDX 19 1 18 2 17 3 16 4 15 5 14 6 13 7 11 8 12 9 10 10 9 11 7 12
REMARK SMILES IDX 6 13 8 15 5 16 1 17 2 18 3 19 98 20 4 21 97 22 91 23 92 24
REMARK SMILES IDX 96 25 93 27 95 28 94 29 20 30 21 31 22 32 23 33 24 34 25 35
REMARK SMILES IDX 26 36 27 37 28 38 29 39 90 40 30 41 89 42 31 43 32 44 33 45
REMARK SMILES IDX 83 46 34 47 88 48 82 49 84 50 35 51 87 52 81 53 80 54 36 56
REMARK SMILES IDX 68 57 48 58 67 59 49 60 52 61 66 62 85 63 50 64 51 65 65 67
REMARK SMILES IDX 86 68 53 69 37 70 38 71 46 72 39 73 45 74 47 75 44 76 40 77
REMARK SMILES IDX 41 78 42 79 43 80 69 81 70 82 78 83 71 84 77 85 79 86 76 87
REMARK SMILES IDX 72 88 73 89 74 90 75 91 54 92 55 93 63 94 56 95 62 96 64 97
REMARK SMILES IDX 61 98 57 99 58 100 59 101 60 102
REMARK H PARENT 6 14 91 26 84 55 52 66
REMARK Flexibility Score: inf
ROOT
ATOM      1  O   UNL A   1      33.827  30.940  27.191  1.00  0.00    -0.377 OA
ENDROOT
BRANCH   1   2
ATOM      2  C   UNL A   1      32.580  30.264  27.114  1.00  0.00     0.188 C 
BRANCH   2   3
ATOM      3  C   UNL A   1      31.702  30.160  25.742  1.00  0.00     0.188 C 
BRANCH   3   4
ATOM      4  O   UNL A   1      32.175  29.037  24.315  1.00  0.00    -0.376 OA
BRANCH   4   5
ATOM      5  C   UNL A   1      33.038  27.196  24.451  1.00  0.00     0.202 C 
BRANCH   5   6
ATOM      6  C   UNL A   1      33.889  25.941  24.058  1.00  0.00     0.261 C 
BRANCH   6   7
ATOM      7  O   UNL A   1      34.703  25.273  24.960  1.00  0.00    -0.459 OA
BRANCH   7   8
ATOM      8  C   UNL A   1      34.941  24.086  24.440  1.00  0.00     0.365 C 
ATOM      9  O   UNL A   1      34.945  23.887  23.231  1.00  0.00    -0.245 OA
BRANCH   8  10
ATOM     10  C   UNL A   1      34.924  23.090  25.569  1.00  0.00     0.304 C 
BRANCH  10  11
ATOM     11  C   UNL A   1      36.317  22.624  26.097  1.00  0.00     0.177 C 
BRANCH  11  12
ATOM     12  C   UNL A   1      37.440  21.927  25.253  1.00  0.00     0.231 C 
ATOM     13  N   UNL A   1      38.814  21.987  25.378  1.00  0.00    -0.326 N 
ATOM     14  H   UNL A   1      39.284  21.637  24.586  1.00  0.00     0.169 HD
ATOM     15  O   UNL A   1      37.035  21.198  24.326  1.00  0.00    -0.274 OA
BRANCH  13  16
ATOM     16  C   UNL A   1      39.726  22.449  26.408  1.00  0.00     0.041 A 
ATOM     17  C   UNL A   1      43.352  23.886  29.748  1.00  0.00     0.044 C 
ATOM     18  C   UNL A   1      42.288  23.697  28.640  1.00  0.00    -0.051 A 
ATOM     19  C   UNL A   1      42.549  21.860  27.986  1.00  0.00     0.005 A 
ATOM     20  C   UNL A   1      40.886  25.091  28.368  1.00  0.00     0.005 A 
ATOM     21  C   UNL A   1      41.242  21.218  26.620  1.00  0.00     0.026 A 
ATOM     22  C   UNL A   1      39.390  24.196  27.284  1.00  0.00     0.026 A 
ENDBRANCH  13  16
ENDBRANCH  11  12
ENDBRANCH  10  11
BRANCH  10  23
ATOM     23  N   UNL A   1      33.977  22.073  25.025  1.00  0.00    -0.319 N 
ATOM     24  C   UNL A   1      33.940  20.859  25.945  1.00  0.00     0.291 C 
ATOM     25  C   UNL A   1      32.578  22.546  24.980  1.00  0.00     0.291 C 
ATOM     26  H   UNL A   1      34.314  21.868  24.084  1.00  0.00     0.348 HD
ATOM     27  C   UNL A   1      33.185  19.751  25.264  1.00  0.00     0.221 C 
ATOM     28  C   UNL A   1      31.766  21.433  24.321  1.00  0.00     0.221 C 
ATOM     29  O   UNL A   1      31.834  20.168  25.004  1.00  0.00    -0.370 OA
ENDBRANCH  10  23
ENDBRANCH   8  10
ENDBRANCH   7   8
ENDBRANCH   6   7
ENDBRANCH   5   6
ENDBRANCH   4   5
ENDBRANCH   3   4
ENDBRANCH   2   3
ENDBRANCH   1   2
BRANCH   1  30
ATOM     30  C   UNL A   1      33.718  32.275  27.624  1.00  0.00     0.188 C 
BRANCH  30  31
ATOM     31  C   UNL A   1      34.395  32.457  28.919  1.00  0.00     0.188 C 
BRANCH  31  32
ATOM     32  O   UNL A   1      33.616  33.480  29.519  1.00  0.00    -0.376 OA
BRANCH  32  33
ATOM     33  C   UNL A   1      33.346  34.657  28.801  1.00  0.00     0.202 C 
BRANCH  33  34
ATOM     34  C   UNL A   1      33.070  35.682  29.861  1.00  0.00     0.261 C 
BRANCH  34  35
ATOM     35  O   UNL A   1      32.905  34.955  31.128  1.00  0.00    -0.460 OA
BRANCH  35  36
ATOM     36  C   UNL A   1      33.636  35.382  32.208  1.00  0.00     0.338 C 
ATOM     37  O   UNL A   1      33.669  36.553  32.568  1.00  0.00    -0.246 OA
BRANCH  36  38
ATOM     38  C   UNL A   1      34.492  34.312  32.867  1.00  0.00     0.060 A 
ATOM     39  C   UNL A   1      35.608  34.752  33.521  1.00  0.00     0.016 A 
ATOM     40  C   UNL A   1      34.477  32.958  32.511  1.00  0.00     0.016 A 
ATOM     41  C   UNL A   1      36.773  33.982  33.350  1.00  0.00     0.010 A 
ATOM     42  C   UNL A   1      35.694  32.154  32.372  1.00  0.00     0.010 A 
ATOM     43  C   UNL A   1      37.116  32.579  32.494  1.00  0.00    -0.014 A 
BRANCH  43  44
ATOM     44  C   UNL A   1      39.142  31.645  32.643  1.00  0.00     0.031 A 
ATOM     45  C   UNL A   1      39.497  29.836  32.187  1.00  0.00     0.074 A 
ATOM     46  C   UNL A   1      40.325  31.728  33.811  1.00  0.00     0.049 A 
ATOM     47  N   UNL A   1      40.694  29.398  31.884  1.00  0.00    -0.248 NA
ATOM     48  C   UNL A   1      38.590  28.780  31.603  1.00  0.00     0.031 C 
ATOM     49  C   UNL A   1      41.730  32.487  33.683  1.00  0.00     0.029 A 
ATOM     50  N   UNL A   1      40.220  32.207  35.191  1.00  0.00    -0.354 N 
ATOM     51  C   UNL A   1      40.655  28.685  30.649  1.00  0.00     0.074 A 
ATOM     52  C   UNL A   1      39.293  28.258  30.576  1.00  0.00     0.031 C 
ATOM     53  C   UNL A   1      42.256  33.093  34.752  1.00  0.00     0.029 A 
ATOM     54  C   UNL A   1      41.319  32.868  35.754  1.00  0.00     0.049 A 
ATOM     55  H   UNL A   1      39.395  32.067  35.710  1.00  0.00     0.167 HD
ATOM     56  C   UNL A   1      41.768  28.690  29.813  1.00  0.00     0.034 A 
ATOM     57  C   UNL A   1      41.613  32.747  37.043  1.00  0.00     0.034 A 
ATOM     58  C   UNL A   1      42.974  29.121  30.601  1.00  0.00     0.049 A 
ATOM     59  C   UNL A   1      42.317  31.248  36.654  1.00  0.00     0.074 A 
ATOM     60  C   UNL A   1      44.068  29.967  30.462  1.00  0.00     0.029 A 
ATOM     61  N   UNL A   1      42.983  28.796  31.959  1.00  0.00    -0.354 N 
ATOM     62  N   UNL A   1      42.456  30.681  35.431  1.00  0.00    -0.248 NA
ATOM     63  C   UNL A   1      43.264  30.623  37.552  1.00  0.00     0.031 C 
ATOM     64  C   UNL A   1      44.575  30.260  31.794  1.00  0.00     0.029 A 
ATOM     65  C   UNL A   1      43.822  29.564  32.742  1.00  0.00     0.049 A 
ATOM     66  H   UNL A   1      42.430  28.072  32.332  1.00  0.00     0.167 HD
ATOM     67  C   UNL A   1      43.506  29.793  35.312  1.00  0.00     0.074 A 
ATOM     68  C   UNL A   1      43.949  29.807  36.723  1.00  0.00     0.031 C 
ATOM     69  C   UNL A   1      43.995  29.141  34.150  1.00  0.00     0.034 A 
BRANCH  56  70
ATOM     70  C   UNL A   1      41.852  28.474  28.247  1.00  0.00     0.023 A 
ATOM     71  C   UNL A   1      43.057  27.955  27.695  1.00  0.00     0.031 A 
ATOM     72  C   UNL A   1      40.894  28.778  27.249  1.00  0.00     0.131 A 
ATOM     73  C   UNL A   1      43.276  27.722  26.311  1.00  0.00     0.055 A 
ATOM     74  C   UNL A   1      41.095  28.517  25.856  1.00  0.00     0.041 A 
ATOM     75  F   UNL A   1      39.720  29.348  27.555  1.00  0.00    -0.206 F 
ATOM     76  C   UNL A   1      42.285  27.974  25.380  1.00  0.00     0.022 A 
BRANCH  73  77
ATOM     77  S   UNL A   1      44.881  27.025  25.784  1.00  0.00     0.124 S 
ATOM     78  O   UNL A   1      45.711  27.247  26.963  1.00  0.00    -0.237 OA
ATOM     79  O   UNL A   1      44.536  25.638  25.495  1.00  0.00    -0.237 OA
ATOM     80  O   UNL A   1      45.239  27.827  24.614  1.00  0.00    -0.744 OA
ENDBRANCH  73  77
ENDBRANCH  56  70
BRANCH  57  81
ATOM     81  C   UNL A   1      40.293  33.541  37.548  1.00  0.00     0.023 A 
ATOM     82  C   UNL A   1      39.246  32.811  38.327  1.00  0.00     0.031 A 
ATOM     83  C   UNL A   1      40.256  34.931  37.751  1.00  0.00     0.131 A 
ATOM     84  C   UNL A   1      38.375  33.453  39.284  1.00  0.00     0.055 A 
ATOM     85  C   UNL A   1      39.435  35.537  38.747  1.00  0.00     0.041 A 
ATOM     86  F   UNL A   1      41.152  35.719  37.147  1.00  0.00    -0.206 F 
ATOM     87  C   UNL A   1      38.531  34.811  39.530  1.00  0.00     0.022 A 
BRANCH  84  88
ATOM     88  S   UNL A   1      37.151  32.557  40.411  1.00  0.00     0.124 S 
ATOM     89  O   UNL A   1      37.284  33.264  41.677  1.00  0.00    -0.237 OA
ATOM     90  O   UNL A   1      35.884  32.712  39.714  1.00  0.00    -0.237 OA
ATOM     91  O   UNL A   1      37.665  31.183  40.436  1.00  0.00    -0.744 OA
ENDBRANCH  84  88
ENDBRANCH  57  81
BRANCH  69  92
ATOM     92  C   UNL A   1      44.655  27.745  34.190  1.00  0.00     0.023 A 
ATOM     93  C   UNL A   1      45.761  27.528  33.418  1.00  0.00     0.031 A 
ATOM     94  C   UNL A   1      44.334  26.639  35.041  1.00  0.00     0.131 A 
ATOM     95  C   UNL A   1      46.573  26.410  33.526  1.00  0.00     0.055 A 
ATOM     96  C   UNL A   1      45.138  25.499  35.164  1.00  0.00     0.041 A 
ATOM     97  F   UNL A   1      43.244  26.572  35.817  1.00  0.00    -0.206 F 
ATOM     98  C   UNL A   1      46.289  25.385  34.407  1.00  0.00     0.022 A 
BRANCH  95  99
ATOM     99  S   UNL A   1      47.999  26.462  32.443  1.00  0.00     0.124 S 
ATOM    100  O   UNL A   1      48.662  27.692  32.876  1.00  0.00    -0.237 OA
ATOM    101  O   UNL A   1      48.689  25.226  32.804  1.00  0.00    -0.237 OA
ATOM    102  O   UNL A   1      47.409  26.499  31.111  1.00  0.00    -0.744 OA
ENDBRANCH  95  99
ENDBRANCH  69  92
ENDBRANCH  43  44
ENDBRANCH  36  38
ENDBRANCH  35  36
ENDBRANCH  34  35
ENDBRANCH  33  34
ENDBRANCH  32  33
ENDBRANCH  31  32
ENDBRANCH  30  31
ENDBRANCH   1  30
TORSDOF 27
ENDMDL
MODEL 3
REMARK VINA RESULT:      -9.5      3.483      6.162
REMARK SMILES Cc1ccc(NC(=O)C[C@@H](C(=O)OCCOCCOCCOCCOC(=O)c2ccc(-c3c4nc(c(-c5cc(S(=O)(=O)[O-])ccc5F)c5ccc([nH]5)c(-c5cc(S(=O)(=O)[O-])ccc5F)c5nc(c(-c6cc(S(=O)(=O)[O-])ccc6F)c6ccc3[nH]6)C=C5)C=C4)cc2)[NH+]2CCOCC2)cc1
REMARK SMILES IDX 19 1 18 2 17 3 16 4 15 5 14 6 13 7 11 8 12 9 10 10 9 11 7 12
REMARK SMILES IDX 6 13 8 15 5 16 1 17 2 18 3 19 98 20 4 21 97 22 91 23 92 24
REMARK SMILES IDX 96 25 93 27 95 28 94 29 20 30 21 31 22 32 23 33 24 34 25 35
REMARK SMILES IDX 26 36 27 37 28 38 29 39 90 40 30 41 89 42 31 43 32 44 33 45
REMARK SMILES IDX 83 46 34 47 88 48 82 49 84 50 35 51 87 52 81 53 80 54 36 56
REMARK SMILES IDX 68 57 48 58 67 59 49 60 52 61 66 62 85 63 50 64 51 65 65 67
REMARK SMILES IDX 86 68 53 69 37 70 38 71 46 72 39 73 45 74 47 75 44 76 40 77
REMARK SMILES IDX 41 78 42 79 43 80 69 81 70 82 78 83 71 84 77 85 79 86 76 87
REMARK SMILES IDX 72 88 73 89 74 90 75 91 54 92 55 93 63 94 56 95 62 96 64 97
REMARK SMILES IDX 61 98 57 99 58 100 59 101 60 102
REMARK H PARENT 6 14 91 26 84 55 52 66
REMARK Flexibility Score: inf
ROOT
ATOM      1  O   UNL A   1      34.194  30.728  27.663  1.00  0.00    -0.377 OA
ENDROOT
BRANCH   1   2
ATOM      2  C   UNL A   1      32.862  30.523  27.214  1.00  0.00     0.188 C 
BRANCH   2   3
ATOM      3  C   UNL A   1      32.497  29.823  25.785  1.00  0.00     0.188 C 
BRANCH   3   4
ATOM      4  O   UNL A   1      33.552  28.475  25.015  1.00  0.00    -0.376 OA
BRANCH   4   5
ATOM      5  C   UNL A   1      33.733  26.552  25.665  1.00  0.00     0.202 C 
BRANCH   5   6
ATOM      6  C   UNL A   1      34.223  25.066  25.736  1.00  0.00     0.261 C 
BRANCH   6   7
ATOM      7  O   UNL A   1      33.537  24.081  26.430  1.00  0.00    -0.459 OA
BRANCH   7   8
ATOM      8  C   UNL A   1      34.391  23.096  26.622  1.00  0.00     0.365 C 
ATOM      9  O   UNL A   1      34.599  22.614  27.729  1.00  0.00    -0.245 OA
BRANCH   8  10
ATOM     10  C   UNL A   1      35.169  22.923  25.345  1.00  0.00     0.304 C 
BRANCH  10  11
ATOM     11  C   UNL A   1      34.543  21.965  24.283  1.00  0.00     0.177 C 
BRANCH  11  12
ATOM     12  C   UNL A   1      33.024  21.603  24.145  1.00  0.00     0.231 C 
ATOM     13  N   UNL A   1      31.917  22.425  24.059  1.00  0.00    -0.326 N 
ATOM     14  H   UNL A   1      31.072  21.941  24.205  1.00  0.00     0.169 HD
ATOM     15  O   UNL A   1      32.769  20.383  24.097  1.00  0.00    -0.274 OA
BRANCH  13  16
ATOM     16  C   UNL A   1      31.714  23.839  23.805  1.00  0.00     0.041 A 
ATOM     17  C   UNL A   1      31.035  28.725  22.379  1.00  0.00     0.044 C 
ATOM     18  C   UNL A   1      30.975  27.238  22.803  1.00  0.00    -0.051 A 
ATOM     19  C   UNL A   1      32.454  26.369  21.840  1.00  0.00     0.005 A 
ATOM     20  C   UNL A   1      29.741  26.677  24.269  1.00  0.00     0.005 A 
ATOM     21  C   UNL A   1      32.762  24.440  22.256  1.00  0.00     0.026 A 
ATOM     22  C   UNL A   1      30.401  24.841  24.903  1.00  0.00     0.026 A 
ENDBRANCH  13  16
ENDBRANCH  11  12
ENDBRANCH  10  11
BRANCH  10  23
ATOM     23  N   UNL A   1      36.525  22.618  25.888  1.00  0.00    -0.319 N 
ATOM     24  C   UNL A   1      37.219  21.594  24.998  1.00  0.00     0.291 C 
ATOM     25  C   UNL A   1      37.430  23.786  25.882  1.00  0.00     0.291 C 
ATOM     26  H   UNL A   1      36.366  22.295  26.842  1.00  0.00     0.348 HD
ATOM     27  C   UNL A   1      38.466  21.112  25.685  1.00  0.00     0.221 C 
ATOM     28  C   UNL A   1      38.728  23.331  26.546  1.00  0.00     0.221 C 
ATOM     29  O   UNL A   1      39.364  22.214  25.897  1.00  0.00    -0.370 OA
ENDBRANCH  10  23
ENDBRANCH   8  10
ENDBRANCH   7   8
ENDBRANCH   6   7
ENDBRANCH   5   6
ENDBRANCH   4   5
ENDBRANCH   3   4
ENDBRANCH   2   3
ENDBRANCH   1   2
BRANCH   1  30
ATOM     30  C   UNL A   1      34.384  31.961  28.315  1.00  0.00     0.188 C 
BRANCH  30  31
ATOM     31  C   UNL A   1      35.725  32.498  28.027  1.00  0.00     0.188 C 
BRANCH  31  32
ATOM     32  O   UNL A   1      36.455  32.101  29.177  1.00  0.00    -0.376 OA
BRANCH  32  33
ATOM     33  C   UNL A   1      37.779  32.542  29.345  1.00  0.00     0.202 C 
BRANCH  33  34
ATOM     34  C   UNL A   1      38.552  31.291  29.638  1.00  0.00     0.261 C 
BRANCH  34  35
ATOM     35  O   UNL A   1      37.598  30.174  29.578  1.00  0.00    -0.460 OA
BRANCH  35  36
ATOM     36  C   UNL A   1      37.473  29.382  30.692  1.00  0.00     0.338 C 
ATOM     37  O   UNL A   1      36.575  29.527  31.513  1.00  0.00    -0.246 OA
BRANCH  36  38
ATOM     38  C   UNL A   1      38.594  28.375  30.892  1.00  0.00     0.060 A 
ATOM     39  C   UNL A   1      39.218  28.402  32.107  1.00  0.00     0.016 A 
ATOM     40  C   UNL A   1      39.295  27.755  29.851  1.00  0.00     0.016 A 
ATOM     41  C   UNL A   1      40.618  28.260  32.091  1.00  0.00     0.010 A 
ATOM     42  C   UNL A   1      40.749  27.578  29.860  1.00  0.00     0.010 A 
ATOM     43  C   UNL A   1      41.744  28.048  30.864  1.00  0.00    -0.014 A 
BRANCH  43  44
ATOM     44  C   UNL A   1      43.900  27.736  31.366  1.00  0.00     0.031 A 
ATOM     45  C   UNL A   1      44.887  26.202  30.838  1.00  0.00     0.074 A 
ATOM     46  C   UNL A   1      44.766  27.982  32.766  1.00  0.00     0.049 A 
ATOM     47  N   UNL A   1      46.194  26.184  30.764  1.00  0.00    -0.248 NA
ATOM     48  C   UNL A   1      44.482  25.029  29.977  1.00  0.00     0.031 C 
ATOM     49  C   UNL A   1      45.856  29.129  33.016  1.00  0.00     0.029 A 
ATOM     50  N   UNL A   1      44.268  28.192  34.127  1.00  0.00    -0.354 N 
ATOM     51  C   UNL A   1      46.606  25.689  29.491  1.00  0.00     0.074 A 
ATOM     52  C   UNL A   1      45.487  24.899  29.085  1.00  0.00     0.031 C 
ATOM     53  C   UNL A   1      45.962  29.691  34.224  1.00  0.00     0.029 A 
ATOM     54  C   UNL A   1      44.981  29.052  34.974  1.00  0.00     0.049 A 
ATOM     55  H   UNL A   1      43.452  27.740  34.440  1.00  0.00     0.167 HD
ATOM     56  C   UNL A   1      47.790  26.147  28.922  1.00  0.00     0.034 A 
ATOM     57  C   UNL A   1      45.063  28.826  36.279  1.00  0.00     0.034 A 
ATOM     58  C   UNL A   1      48.636  26.786  29.989  1.00  0.00     0.049 A 
ATOM     59  C   UNL A   1      46.263  27.676  35.920  1.00  0.00     0.074 A 
ATOM     60  C   UNL A   1      49.410  27.926  30.168  1.00  0.00     0.029 A 
ATOM     61  N   UNL A   1      48.504  26.275  31.282  1.00  0.00    -0.354 N 
ATOM     62  N   UNL A   1      46.792  27.369  34.710  1.00  0.00    -0.248 NA
ATOM     63  C   UNL A   1      47.183  27.227  36.943  1.00  0.00     0.031 C 
ATOM     64  C   UNL A   1      49.551  28.147  31.600  1.00  0.00     0.029 A 
ATOM     65  C   UNL A   1      48.901  27.125  32.294  1.00  0.00     0.049 A 
ATOM     66  H   UNL A   1      48.151  25.372  31.459  1.00  0.00     0.167 HD
ATOM     67  C   UNL A   1      48.073  26.856  34.743  1.00  0.00     0.074 A 
ATOM     68  C   UNL A   1      48.228  26.783  36.212  1.00  0.00     0.031 C 
ATOM     69  C   UNL A   1      48.944  26.561  33.662  1.00  0.00     0.034 A 
BRANCH  56  70
ATOM     70  C   UNL A   1      48.218  26.207  27.398  1.00  0.00     0.023 A 
ATOM     71  C   UNL A   1      47.432  26.982  26.500  1.00  0.00     0.031 A 
ATOM     72  C   UNL A   1      49.280  25.539  26.740  1.00  0.00     0.131 A 
ATOM     73  C   UNL A   1      47.690  27.116  25.110  1.00  0.00     0.055 A 
ATOM     74  C   UNL A   1      49.565  25.693  25.346  1.00  0.00     0.041 A 
ATOM     75  F   UNL A   1      50.091  24.697  27.396  1.00  0.00    -0.206 F 
ATOM     76  C   UNL A   1      48.779  26.494  24.524  1.00  0.00     0.022 A 
BRANCH  73  77
ATOM     77  S   UNL A   1      46.587  28.175  24.112  1.00  0.00     0.124 S 
ATOM     78  O   UNL A   1      45.310  27.479  24.226  1.00  0.00    -0.237 OA
ATOM     79  O   UNL A   1      46.681  29.456  24.802  1.00  0.00    -0.237 OA
ATOM     80  O   UNL A   1      47.191  28.148  22.780  1.00  0.00    -0.744 OA
ENDBRANCH  73  77
ENDBRANCH  56  70
BRANCH  57  81
ATOM     81  C   UNL A   1      43.491  29.113  36.555  1.00  0.00     0.023 A 
ATOM     82  C   UNL A   1      42.944  30.489  36.343  1.00  0.00     0.031 A 
ATOM     83  C   UNL A   1      42.501  28.117  36.503  1.00  0.00     0.131 A 
ATOM     84  C   UNL A   1      41.567  30.752  35.994  1.00  0.00     0.055 A 
ATOM     85  C   UNL A   1      41.162  28.390  36.092  1.00  0.00     0.041 A 
ATOM     86  F   UNL A   1      42.838  26.831  36.643  1.00  0.00    -0.206 F 
ATOM     87  C   UNL A   1      40.704  29.681  35.806  1.00  0.00     0.022 A 
BRANCH  84  88
ATOM     88  S   UNL A   1      40.864  32.450  35.555  1.00  0.00     0.124 S 
ATOM     89  O   UNL A   1      39.605  32.489  36.285  1.00  0.00    -0.237 OA
ATOM     90  O   UNL A   1      41.902  33.364  36.007  1.00  0.00    -0.237 OA
ATOM     91  O   UNL A   1      40.710  32.382  34.098  1.00  0.00    -0.744 OA
ENDBRANCH  84  88
ENDBRANCH  57  81
BRANCH  69  92
ATOM     92  C   UNL A   1      49.995  25.430  33.719  1.00  0.00     0.023 A 
ATOM     93  C   UNL A   1      49.581  24.178  34.075  1.00  0.00     0.031 A 
ATOM     94  C   UNL A   1      51.370  25.481  33.325  1.00  0.00     0.131 A 
ATOM     95  C   UNL A   1      50.363  23.041  33.950  1.00  0.00     0.055 A 
ATOM     96  C   UNL A   1      52.180  24.345  33.195  1.00  0.00     0.041 A 
ATOM     97  F   UNL A   1      52.032  26.607  33.027  1.00  0.00    -0.206 F 
ATOM     98  C   UNL A   1      51.667  23.098  33.496  1.00  0.00     0.022 A 
BRANCH  95  99
ATOM     99  S   UNL A   1      49.505  21.536  34.410  1.00  0.00     0.124 S 
ATOM    100  O   UNL A   1      48.124  22.003  34.534  1.00  0.00    -0.237 OA
ATOM    101  O   UNL A   1      49.769  20.682  33.254  1.00  0.00    -0.237 OA
ATOM    102  O   UNL A   1      50.153  21.145  35.654  1.00  0.00    -0.744 OA
ENDBRANCH  95  99
ENDBRANCH  69  92
ENDBRANCH  43  44
ENDBRANCH  36  38
ENDBRANCH  35  36
ENDBRANCH  34  35
ENDBRANCH  33  34
ENDBRANCH  32  33
ENDBRANCH  31  32
ENDBRANCH  30  31
ENDBRANCH   1  30
TORSDOF 27
ENDMDL
