MODEL 1
REMARK VINA RESULT:     -10.4      0.000      0.000
REMARK SMILES NS(=O)(=O)c1ccc(-n2ccnc2-c2ccc(O)c(C(=O)OCCOCCOCCOCCOC(=O)c3ccc(-c4c5nc(c(-c6cc(S(=O)(=O)[O-])ccc6F)c6ccc([nH]6)c(-c6cc(S(=O)(=O)[O-])ccc6F)c6nc(c(-c7cc(S(=O)(=O)[O-])ccc7F)c7ccc4[nH]7)C=C6)C=C5)cc3)c2)cc1
REMARK SMILES IDX 27 1 26 2 25 3 24 4 23 5 22 6 20 7 21 8 19 9 14 10 15 11
REMARK SMILES IDX 100 12 16 13 17 14 13 15 9 16 10 17 11 18 12 19 8 20 5 21
REMARK SMILES IDX 6 22 102 23 7 24 101 25 2 26 3 27 4 28 1 29 18 32 28 34
REMARK SMILES IDX 29 35 30 36 31 37 32 38 33 39 34 40 35 41 36 42 37 43 38 44
REMARK SMILES IDX 99 45 39 46 98 47 40 48 41 49 42 50 92 51 43 52 97 53 91 54
REMARK SMILES IDX 93 55 44 56 96 57 90 58 89 59 45 61 77 62 57 63 76 64 58 65
REMARK SMILES IDX 61 66 75 67 94 68 59 69 60 70 74 72 95 73 62 74 46 75 47 76
REMARK SMILES IDX 55 77 48 78 54 79 56 80 53 81 49 82 50 83 51 84 52 85 78 86
REMARK SMILES IDX 79 87 87 88 80 89 86 90 88 91 85 92 81 93 82 94 83 95 84 96
REMARK SMILES IDX 63 97 64 98 72 99 65 100 71 101 73 102 70 103 66 104 67 105
REMARK SMILES IDX 68 106 69 107
REMARK H PARENT 1 30 1 31 18 33 93 60 61 71
REMARK Flexibility Score: inf
ROOT
ATOM      1  C   UNL A   1      33.600  27.048  22.553  1.00  0.00     0.188 C 
ENDROOT
BRANCH   1   2
ATOM      2  C   UNL A   1      33.261  25.896  21.580  1.00  0.00     0.188 C 
BRANCH   2   3
ATOM      3  O   UNL A   1      33.352  24.525  21.950  1.00  0.00    -0.376 OA
BRANCH   3   4
ATOM      4  C   UNL A   1      34.048  24.081  23.101  1.00  0.00     0.202 C 
BRANCH   4   5
ATOM      5  C   UNL A   1      35.548  23.742  23.087  1.00  0.00     0.261 C 
BRANCH   5   6
ATOM      6  O   UNL A   1      36.280  23.996  24.285  1.00  0.00    -0.460 OA
BRANCH   6   7
ATOM      7  C   UNL A   1      35.909  23.272  25.362  1.00  0.00     0.342 C 
ATOM      8  O   UNL A   1      35.198  23.635  26.286  1.00  0.00    -0.246 OA
BRANCH   7   9
ATOM      9  C   UNL A   1      36.294  21.856  25.162  1.00  0.00     0.102 A 
ATOM     10  C   UNL A   1      35.677  19.521  24.841  1.00  0.00     0.019 A 
ATOM     11  C   UNL A   1      37.032  19.177  24.841  1.00  0.00     0.016 A 
ATOM     12  C   UNL A   1      35.321  20.857  25.094  1.00  0.00     0.031 A 
ATOM     13  C   UNL A   1      38.013  20.161  24.994  1.00  0.00     0.048 A 
ATOM     14  C   UNL A   1      37.644  21.499  25.114  1.00  0.00     0.130 A 
BRANCH  10  15
ATOM     15  C   UNL A   1      34.650  18.516  24.528  1.00  0.00     0.144 A 
ATOM     16  N   UNL A   1      33.273  18.725  24.648  1.00  0.00    -0.300 N 
ATOM     17  C   UNL A   1      32.670  17.499  24.507  1.00  0.00     0.113 A 
ATOM     18  C   UNL A   1      33.676  16.638  24.139  1.00  0.00     0.132 A 
ATOM     19  N   UNL A   1      34.887  17.277  24.132  1.00  0.00    -0.236 NA
BRANCH  16  20
ATOM     20  C   UNL A   1      32.617  19.953  24.916  1.00  0.00     0.047 A 
ATOM     21  C   UNL A   1      31.731  22.544  25.385  1.00  0.00     0.082 A 
ATOM     22  C   UNL A   1      31.724  22.042  24.081  1.00  0.00     0.024 A 
ATOM     23  C   UNL A   1      32.158  21.750  26.458  1.00  0.00     0.024 A 
ATOM     24  C   UNL A   1      32.163  20.741  23.846  1.00  0.00     0.028 A 
ATOM     25  C   UNL A   1      32.585  20.439  26.228  1.00  0.00     0.028 A 
BRANCH  21  26
ATOM     26  S   UNL A   1      31.207  24.209  25.657  1.00  0.00     0.238 S 
ATOM     27  O   UNL A   1      30.335  24.231  26.795  1.00  0.00    -0.207 OA
ATOM     28  O   UNL A   1      30.845  24.799  24.379  1.00  0.00    -0.207 OA
BRANCH  26  29
ATOM     29  N   UNL A   1      32.611  25.010  26.116  1.00  0.00    -0.225 NA
ATOM     30  H   UNL A   1      32.545  25.276  27.099  1.00  0.00     0.137 HD
ATOM     31  H   UNL A   1      32.727  25.847  25.546  1.00  0.00     0.137 HD
ENDBRANCH  26  29
ENDBRANCH  21  26
ENDBRANCH  16  20
ENDBRANCH  10  15
BRANCH  14  32
ATOM     32  O   UNL A   1      38.663  22.407  25.235  1.00  0.00    -0.507 OA
ATOM     33  H   UNL A   1      38.483  23.324  25.168  1.00  0.00     0.293 HD
ENDBRANCH  14  32
ENDBRANCH   7   9
ENDBRANCH   6   7
ENDBRANCH   5   6
ENDBRANCH   4   5
ENDBRANCH   3   4
ENDBRANCH   2   3
ENDBRANCH   1   2
BRANCH   1  34
ATOM     34  O   UNL A   1      32.493  27.501  23.314  1.00  0.00    -0.377 OA
BRANCH  34  35
ATOM     35  C   UNL A   1      32.746  28.638  24.139  1.00  0.00     0.188 C 
BRANCH  35  36
ATOM     36  C   UNL A   1      33.612  28.454  25.417  1.00  0.00     0.188 C 
BRANCH  36  37
ATOM     37  O   UNL A   1      33.458  29.470  26.397  1.00  0.00    -0.376 OA
BRANCH  37  38
ATOM     38  C   UNL A   1      34.356  29.678  27.473  1.00  0.00     0.202 C 
BRANCH  38  39
ATOM     39  C   UNL A   1      34.526  31.094  28.014  1.00  0.00     0.261 C 
BRANCH  39  40
ATOM     40  O   UNL A   1      35.873  31.500  28.082  1.00  0.00    -0.460 OA
BRANCH  40  41
ATOM     41  C   UNL A   1      36.593  30.864  29.028  1.00  0.00     0.338 C 
ATOM     42  O   UNL A   1      36.250  30.608  30.167  1.00  0.00    -0.246 OA
BRANCH  41  43
ATOM     43  C   UNL A   1      37.918  30.598  28.466  1.00  0.00     0.060 A 
ATOM     44  C   UNL A   1      37.981  29.510  27.601  1.00  0.00     0.016 A 
ATOM     45  C   UNL A   1      39.030  31.091  29.166  1.00  0.00     0.016 A 
ATOM     46  C   UNL A   1      39.058  28.678  27.743  1.00  0.00     0.010 A 
ATOM     47  C   UNL A   1      40.087  30.246  29.328  1.00  0.00     0.010 A 
ATOM     48  C   UNL A   1      40.015  29.002  28.711  1.00  0.00    -0.014 A 
BRANCH  48  49
ATOM     49  C   UNL A   1      41.019  28.024  29.026  1.00  0.00     0.031 A 
ATOM     50  C   UNL A   1      41.368  28.085  30.453  1.00  0.00     0.074 A 
ATOM     51  C   UNL A   1      41.465  27.136  28.119  1.00  0.00     0.049 A 
ATOM     52  N   UNL A   1      42.402  28.652  30.975  1.00  0.00    -0.248 NA
ATOM     53  C   UNL A   1      40.306  27.762  31.424  1.00  0.00     0.031 C 
ATOM     54  C   UNL A   1      40.965  26.869  26.768  1.00  0.00     0.029 A 
ATOM     55  N   UNL A   1      42.438  26.205  28.267  1.00  0.00    -0.354 N 
ATOM     56  C   UNL A   1      42.242  28.481  32.341  1.00  0.00     0.074 A 
ATOM     57  C   UNL A   1      40.844  28.240  32.546  1.00  0.00     0.031 C 
ATOM     58  C   UNL A   1      41.483  25.697  26.325  1.00  0.00     0.029 A 
ATOM     59  C   UNL A   1      42.443  25.204  27.300  1.00  0.00     0.049 A 
ATOM     60  H   UNL A   1      43.090  26.233  29.002  1.00  0.00     0.167 HD
ATOM     61  C   UNL A   1      43.312  28.197  33.128  1.00  0.00     0.034 A 
ATOM     62  C   UNL A   1      43.129  24.028  27.367  1.00  0.00     0.034 A 
ATOM     63  C   UNL A   1      44.547  28.531  32.449  1.00  0.00     0.049 A 
ATOM     64  C   UNL A   1      44.210  24.232  28.375  1.00  0.00     0.074 A 
ATOM     65  C   UNL A   1      45.068  29.694  31.917  1.00  0.00     0.029 A 
ATOM     66  N   UNL A   1      45.253  27.502  31.858  1.00  0.00    -0.354 N 
ATOM     67  N   UNL A   1      45.197  25.069  28.195  1.00  0.00    -0.248 NA
ATOM     68  C   UNL A   1      43.909  23.935  29.771  1.00  0.00     0.031 C 
ATOM     69  C   UNL A   1      45.706  29.297  30.705  1.00  0.00     0.029 A 
ATOM     70  C   UNL A   1      45.628  27.906  30.598  1.00  0.00     0.049 A 
ATOM     71  H   UNL A   1      45.454  26.630  32.268  1.00  0.00     0.167 HD
ATOM     72  C   UNL A   1      45.352  25.723  29.411  1.00  0.00     0.074 A 
ATOM     73  C   UNL A   1      44.586  24.924  30.367  1.00  0.00     0.031 C 
ATOM     74  C   UNL A   1      45.823  27.007  29.471  1.00  0.00     0.034 A 
BRANCH  61  75
ATOM     75  C   UNL A   1      43.256  27.249  34.306  1.00  0.00     0.023 A 
ATOM     76  C   UNL A   1      43.942  26.032  34.160  1.00  0.00     0.031 A 
ATOM     77  C   UNL A   1      42.379  27.327  35.416  1.00  0.00     0.131 A 
ATOM     78  C   UNL A   1      43.665  24.944  35.004  1.00  0.00     0.055 A 
ATOM     79  C   UNL A   1      42.157  26.263  36.291  1.00  0.00     0.041 A 
ATOM     80  F   UNL A   1      41.615  28.391  35.683  1.00  0.00    -0.206 F 
ATOM     81  C   UNL A   1      42.775  25.049  36.067  1.00  0.00     0.022 A 
BRANCH  78  82
ATOM     82  S   UNL A   1      44.362  23.335  34.569  1.00  0.00     0.124 S 
ATOM     83  O   UNL A   1      44.339  22.650  35.857  1.00  0.00    -0.237 OA
ATOM     84  O   UNL A   1      43.412  22.862  33.568  1.00  0.00    -0.237 OA
ATOM     85  O   UNL A   1      45.689  23.670  34.062  1.00  0.00    -0.744 OA
ENDBRANCH  78  82
ENDBRANCH  61  75
BRANCH  62  86
ATOM     86  C   UNL A   1      42.619  22.687  26.949  1.00  0.00     0.023 A 
ATOM     87  C   UNL A   1      43.389  21.731  26.248  1.00  0.00     0.031 A 
ATOM     88  C   UNL A   1      41.373  22.243  27.450  1.00  0.00     0.131 A 
ATOM     89  C   UNL A   1      42.898  20.411  26.066  1.00  0.00     0.055 A 
ATOM     90  C   UNL A   1      40.892  20.945  27.265  1.00  0.00     0.041 A 
ATOM     91  F   UNL A   1      40.607  23.041  28.212  1.00  0.00    -0.206 F 
ATOM     92  C   UNL A   1      41.656  20.020  26.575  1.00  0.00     0.022 A 
BRANCH  89  93
ATOM     93  S   UNL A   1      43.891  19.146  25.201  1.00  0.00     0.124 S 
ATOM     94  O   UNL A   1      43.967  19.678  23.845  1.00  0.00    -0.237 OA
ATOM     95  O   UNL A   1      45.131  19.146  25.969  1.00  0.00    -0.237 OA
ATOM     96  O   UNL A   1      43.089  17.929  25.335  1.00  0.00    -0.744 OA
ENDBRANCH  89  93
ENDBRANCH  62  86
BRANCH  74  97
ATOM     97  C   UNL A   1      46.433  27.607  28.215  1.00  0.00     0.023 A 
ATOM     98  C   UNL A   1      47.746  27.361  27.743  1.00  0.00     0.031 A 
ATOM     99  C   UNL A   1      45.581  28.368  27.395  1.00  0.00     0.131 A 
ATOM    100  C   UNL A   1      48.156  27.881  26.497  1.00  0.00     0.055 A 
ATOM    101  C   UNL A   1      45.983  28.857  26.153  1.00  0.00     0.041 A 
ATOM    102  F   UNL A   1      44.316  28.613  27.773  1.00  0.00    -0.206 F 
ATOM    103  C   UNL A   1      47.275  28.620  25.701  1.00  0.00     0.022 A 
BRANCH 100 104
ATOM    104  S   UNL A   1      49.855  27.620  25.884  1.00  0.00     0.124 S 
ATOM    105  O   UNL A   1      50.687  28.073  26.993  1.00  0.00    -0.237 OA
ATOM    106  O   UNL A   1      49.875  26.186  25.613  1.00  0.00    -0.237 OA
ATOM    107  O   UNL A   1      49.919  28.464  24.690  1.00  0.00    -0.744 OA
ENDBRANCH 100 104
ENDBRANCH  74  97
ENDBRANCH  48  49
ENDBRANCH  41  43
ENDBRANCH  40  41
ENDBRANCH  39  40
ENDBRANCH  38  39
ENDBRANCH  37  38
ENDBRANCH  36  37
ENDBRANCH  35  36
ENDBRANCH  34  35
ENDBRANCH   1  34
TORSDOF 28
ENDMDL
MODEL 2
REMARK VINA RESULT:     -10.4      3.133      7.850
REMARK SMILES NS(=O)(=O)c1ccc(-n2ccnc2-c2ccc(O)c(C(=O)OCCOCCOCCOCCOC(=O)c3ccc(-c4c5nc(c(-c6cc(S(=O)(=O)[O-])ccc6F)c6ccc([nH]6)c(-c6cc(S(=O)(=O)[O-])ccc6F)c6nc(c(-c7cc(S(=O)(=O)[O-])ccc7F)c7ccc4[nH]7)C=C6)C=C5)cc3)c2)cc1
REMARK SMILES IDX 27 1 26 2 25 3 24 4 23 5 22 6 20 7 21 8 19 9 14 10 15 11
REMARK SMILES IDX 100 12 16 13 17 14 13 15 9 16 10 17 11 18 12 19 8 20 5 21
REMARK SMILES IDX 6 22 102 23 7 24 101 25 2 26 3 27 4 28 1 29 18 32 28 34
REMARK SMILES IDX 29 35 30 36 31 37 32 38 33 39 34 40 35 41 36 42 37 43 38 44
REMARK SMILES IDX 99 45 39 46 98 47 40 48 41 49 42 50 92 51 43 52 97 53 91 54
REMARK SMILES IDX 93 55 44 56 96 57 90 58 89 59 45 61 77 62 57 63 76 64 58 65
REMARK SMILES IDX 61 66 75 67 94 68 59 69 60 70 74 72 95 73 62 74 46 75 47 76
REMARK SMILES IDX 55 77 48 78 54 79 56 80 53 81 49 82 50 83 51 84 52 85 78 86
REMARK SMILES IDX 79 87 87 88 80 89 86 90 88 91 85 92 81 93 82 94 83 95 84 96
REMARK SMILES IDX 63 97 64 98 72 99 65 100 71 101 73 102 70 103 66 104 67 105
REMARK SMILES IDX 68 106 69 107
REMARK H PARENT 1 30 1 31 18 33 93 60 61 71
REMARK Flexibility Score: inf
ROOT
ATOM      1  C   UNL A   1      30.360  28.405  23.983  1.00  0.00     0.188 C 
ENDROOT
BRANCH   1   2
ATOM      2  C   UNL A   1      30.482  26.871  23.845  1.00  0.00     0.188 C 
BRANCH   2   3
ATOM      3  O   UNL A   1      29.639  25.965  24.549  1.00  0.00    -0.376 OA
BRANCH   3   4
ATOM      4  C   UNL A   1      29.739  25.745  25.944  1.00  0.00     0.202 C 
BRANCH   4   5
ATOM      5  C   UNL A   1      31.083  25.515  26.656  1.00  0.00     0.261 C 
BRANCH   5   6
ATOM      6  O   UNL A   1      31.338  24.200  27.149  1.00  0.00    -0.460 OA
BRANCH   6   7
ATOM      7  C   UNL A   1      31.197  23.202  26.250  1.00  0.00     0.342 C 
ATOM      8  O   UNL A   1      30.242  22.452  26.123  1.00  0.00    -0.246 OA
BRANCH   7   9
ATOM      9  C   UNL A   1      32.287  23.281  25.250  1.00  0.00     0.102 A 
ATOM     10  C   UNL A   1      34.662  23.314  24.708  1.00  0.00     0.019 A 
ATOM     11  C   UNL A   1      34.337  23.486  23.359  1.00  0.00     0.016 A 
ATOM     12  C   UNL A   1      33.623  23.304  25.654  1.00  0.00     0.031 A 
ATOM     13  C   UNL A   1      33.001  23.549  22.954  1.00  0.00     0.048 A 
ATOM     14  C   UNL A   1      31.981  23.406  23.892  1.00  0.00     0.130 A 
BRANCH  10  15
ATOM     15  C   UNL A   1      36.057  23.094  25.120  1.00  0.00     0.144 A 
ATOM     16  N   UNL A   1      36.644  21.837  25.287  1.00  0.00    -0.300 N 
ATOM     17  C   UNL A   1      37.853  22.041  25.906  1.00  0.00     0.113 A 
ATOM     18  C   UNL A   1      38.025  23.404  25.929  1.00  0.00     0.132 A 
ATOM     19  N   UNL A   1      36.925  24.043  25.422  1.00  0.00    -0.236 NA
BRANCH  16  20
ATOM     20  C   UNL A   1      36.086  20.581  24.939  1.00  0.00     0.047 A 
ATOM     21  C   UNL A   1      34.929  18.067  24.694  1.00  0.00     0.082 A 
ATOM     22  C   UNL A   1      34.114  19.202  24.669  1.00  0.00     0.024 A 
ATOM     23  C   UNL A   1      36.320  18.183  24.820  1.00  0.00     0.024 A 
ATOM     24  C   UNL A   1      34.695  20.463  24.786  1.00  0.00     0.028 A 
ATOM     25  C   UNL A   1      36.907  19.448  24.923  1.00  0.00     0.028 A 
BRANCH  21  26
ATOM     26  S   UNL A   1      34.171  16.474  24.584  1.00  0.00     0.238 S 
ATOM     27  O   UNL A   1      32.837  16.569  25.099  1.00  0.00    -0.207 OA
ATOM     28  O   UNL A   1      35.121  15.474  25.042  1.00  0.00    -0.207 OA
BRANCH  26  29
ATOM     29  N   UNL A   1      34.028  16.202  22.932  1.00  0.00    -0.225 NA
ATOM     30  H   UNL A   1      34.956  16.169  22.511  1.00  0.00     0.137 HD
ATOM     31  H   UNL A   1      33.490  16.957  22.509  1.00  0.00     0.137 HD
ENDBRANCH  26  29
ENDBRANCH  21  26
ENDBRANCH  16  20
ENDBRANCH  10  15
BRANCH  14  32
ATOM     32  O   UNL A   1      30.698  23.454  23.415  1.00  0.00    -0.507 OA
ATOM     33  H   UNL A   1      30.116  24.130  23.704  1.00  0.00     0.293 HD
ENDBRANCH  14  32
ENDBRANCH   7   9
ENDBRANCH   6   7
ENDBRANCH   5   6
ENDBRANCH   4   5
ENDBRANCH   3   4
ENDBRANCH   2   3
ENDBRANCH   1   2
BRANCH   1  34
ATOM     34  O   UNL A   1      31.144  28.952  25.029  1.00  0.00    -0.377 OA
BRANCH  34  35
ATOM     35  C   UNL A   1      32.508  28.528  25.053  1.00  0.00     0.188 C 
BRANCH  35  36
ATOM     36  C   UNL A   1      33.335  28.752  26.349  1.00  0.00     0.188 C 
BRANCH  36  37
ATOM     37  O   UNL A   1      34.157  29.911  26.343  1.00  0.00    -0.376 OA
BRANCH  37  38
ATOM     38  C   UNL A   1      34.114  30.919  27.338  1.00  0.00     0.202 C 
BRANCH  38  39
ATOM     39  C   UNL A   1      35.082  30.822  28.512  1.00  0.00     0.261 C 
BRANCH  39  40
ATOM     40  O   UNL A   1      36.038  29.799  28.355  1.00  0.00    -0.460 OA
BRANCH  40  41
ATOM     41  C   UNL A   1      37.286  30.150  28.723  1.00  0.00     0.338 C 
ATOM     42  O   UNL A   1      37.634  31.193  29.244  1.00  0.00    -0.246 OA
BRANCH  41  43
ATOM     43  C   UNL A   1      38.186  29.074  28.304  1.00  0.00     0.060 A 
ATOM     44  C   UNL A   1      38.455  28.122  29.282  1.00  0.00     0.016 A 
ATOM     45  C   UNL A   1      39.040  29.328  27.220  1.00  0.00     0.016 A 
ATOM     46  C   UNL A   1      39.756  27.709  29.391  1.00  0.00     0.010 A 
ATOM     47  C   UNL A   1      40.340  28.940  27.348  1.00  0.00     0.010 A 
ATOM     48  C   UNL A   1      40.691  28.246  28.500  1.00  0.00    -0.014 A 
BRANCH  48  49
ATOM     49  C   UNL A   1      42.085  27.999  28.752  1.00  0.00     0.031 A 
ATOM     50  C   UNL A   1      42.540  26.818  28.003  1.00  0.00     0.074 A 
ATOM     51  C   UNL A   1      42.838  28.826  29.498  1.00  0.00     0.049 A 
ATOM     52  N   UNL A   1      42.711  25.625  28.464  1.00  0.00    -0.248 NA
ATOM     53  C   UNL A   1      42.499  26.893  26.531  1.00  0.00     0.031 C 
ATOM     54  C   UNL A   1      42.494  30.141  30.045  1.00  0.00     0.029 A 
ATOM     55  N   UNL A   1      44.137  28.685  29.853  1.00  0.00    -0.354 N 
ATOM     56  C   UNL A   1      43.089  24.876  27.361  1.00  0.00     0.074 A 
ATOM     57  C   UNL A   1      42.633  25.605  26.214  1.00  0.00     0.031 C 
ATOM     58  C   UNL A   1      43.628  30.764  30.454  1.00  0.00     0.029 A 
ATOM     59  C   UNL A   1      44.748  29.846  30.317  1.00  0.00     0.049 A 
ATOM     60  H   UNL A   1      44.612  27.827  29.788  1.00  0.00     0.167 HD
ATOM     61  C   UNL A   1      44.047  23.919  27.476  1.00  0.00     0.034 A 
ATOM     62  C   UNL A   1      46.087  30.035  30.482  1.00  0.00     0.034 A 
ATOM     63  C   UNL A   1      44.235  23.551  28.864  1.00  0.00     0.049 A 
ATOM     64  C   UNL A   1      46.697  28.676  30.555  1.00  0.00     0.074 A 
ATOM     65  C   UNL A   1      43.406  23.038  29.844  1.00  0.00     0.029 A 
ATOM     66  N   UNL A   1      45.309  24.099  29.535  1.00  0.00    -0.354 N 
ATOM     67  N   UNL A   1      46.456  27.844  31.534  1.00  0.00    -0.248 NA
ATOM     68  C   UNL A   1      47.116  28.045  29.309  1.00  0.00     0.031 C 
ATOM     69  C   UNL A   1      43.777  23.720  31.040  1.00  0.00     0.029 A 
ATOM     70  C   UNL A   1      44.870  24.544  30.760  1.00  0.00     0.049 A 
ATOM     71  H   UNL A   1      46.231  24.160  29.196  1.00  0.00     0.167 HD
ATOM     72  C   UNL A   1      46.271  26.607  30.931  1.00  0.00     0.074 A 
ATOM     73  C   UNL A   1      46.773  26.777  29.567  1.00  0.00     0.031 C 
ATOM     74  C   UNL A   1      45.455  25.660  31.487  1.00  0.00     0.034 A 
BRANCH  61  75
ATOM     75  C   UNL A   1      45.082  23.638  26.408  1.00  0.00     0.023 A 
ATOM     76  C   UNL A   1      46.095  24.597  26.253  1.00  0.00     0.031 A 
ATOM     77  C   UNL A   1      44.993  22.670  25.377  1.00  0.00     0.131 A 
ATOM     78  C   UNL A   1      46.873  24.640  25.085  1.00  0.00     0.055 A 
ATOM     79  C   UNL A   1      45.814  22.678  24.249  1.00  0.00     0.041 A 
ATOM     80  F   UNL A   1      44.063  21.710  25.340  1.00  0.00    -0.206 F 
ATOM     81  C   UNL A   1      46.739  23.689  24.079  1.00  0.00     0.022 A 
BRANCH  78  82
ATOM     82  S   UNL A   1      47.943  26.074  24.829  1.00  0.00     0.124 S 
ATOM     83  O   UNL A   1      47.657  26.407  23.438  1.00  0.00    -0.237 OA
ATOM     84  O   UNL A   1      47.438  27.003  25.834  1.00  0.00    -0.237 OA
ATOM     85  O   UNL A   1      49.280  25.544  25.083  1.00  0.00    -0.744 OA
ENDBRANCH  78  82
ENDBRANCH  61  75
BRANCH  62  86
ATOM     86  C   UNL A   1      46.849  31.274  30.137  1.00  0.00     0.023 A 
ATOM     87  C   UNL A   1      47.356  31.559  28.849  1.00  0.00     0.031 A 
ATOM     88  C   UNL A   1      46.898  32.331  31.077  1.00  0.00     0.131 A 
ATOM     89  C   UNL A   1      47.889  32.842  28.557  1.00  0.00     0.055 A 
ATOM     90  C   UNL A   1      47.428  33.590  30.787  1.00  0.00     0.041 A 
ATOM     91  F   UNL A   1      46.356  32.198  32.298  1.00  0.00    -0.206 F 
ATOM     92  C   UNL A   1      47.922  33.853  29.522  1.00  0.00     0.022 A 
BRANCH  89  93
ATOM     93  S   UNL A   1      48.512  33.248  26.889  1.00  0.00     0.124 S 
ATOM     94  O   UNL A   1      47.281  33.437  26.129  1.00  0.00    -0.237 OA
ATOM     95  O   UNL A   1      49.312  34.441  27.137  1.00  0.00    -0.237 OA
ATOM     96  O   UNL A   1      49.285  32.062  26.513  1.00  0.00    -0.744 OA
ENDBRANCH  89  93
ENDBRANCH  62  86
BRANCH  74  97
ATOM     97  C   UNL A   1      44.972  25.877  32.912  1.00  0.00     0.023 A 
ATOM     98  C   UNL A   1      43.965  26.791  33.305  1.00  0.00     0.031 A 
ATOM     99  C   UNL A   1      45.481  25.010  33.895  1.00  0.00     0.131 A 
ATOM    100  C   UNL A   1      43.516  26.814  34.643  1.00  0.00     0.055 A 
ATOM    101  C   UNL A   1      45.016  25.019  35.210  1.00  0.00     0.041 A 
ATOM    102  F   UNL A   1      46.419  24.101  33.579  1.00  0.00    -0.206 F 
ATOM    103  C   UNL A   1      44.035  25.924  35.590  1.00  0.00     0.022 A 
BRANCH 100 104
ATOM    104  S   UNL A   1      42.253  28.012  35.190  1.00  0.00     0.124 S 
ATOM    105  O   UNL A   1      41.000  27.400  34.767  1.00  0.00    -0.237 OA
ATOM    106  O   UNL A   1      42.482  28.074  36.631  1.00  0.00    -0.237 OA
ATOM    107  O   UNL A   1      42.609  29.234  34.467  1.00  0.00    -0.744 OA
ENDBRANCH 100 104
ENDBRANCH  74  97
ENDBRANCH  48  49
ENDBRANCH  41  43
ENDBRANCH  40  41
ENDBRANCH  39  40
ENDBRANCH  38  39
ENDBRANCH  37  38
ENDBRANCH  36  37
ENDBRANCH  35  36
ENDBRANCH  34  35
ENDBRANCH   1  34
TORSDOF 28
ENDMDL
MODEL 3
REMARK VINA RESULT:     -10.3      2.661      4.197
REMARK SMILES NS(=O)(=O)c1ccc(-n2ccnc2-c2ccc(O)c(C(=O)OCCOCCOCCOCCOC(=O)c3ccc(-c4c5nc(c(-c6cc(S(=O)(=O)[O-])ccc6F)c6ccc([nH]6)c(-c6cc(S(=O)(=O)[O-])ccc6F)c6nc(c(-c7cc(S(=O)(=O)[O-])ccc7F)c7ccc4[nH]7)C=C6)C=C5)cc3)c2)cc1
REMARK SMILES IDX 27 1 26 2 25 3 24 4 23 5 22 6 20 7 21 8 19 9 14 10 15 11
REMARK SMILES IDX 100 12 16 13 17 14 13 15 9 16 10 17 11 18 12 19 8 20 5 21
REMARK SMILES IDX 6 22 102 23 7 24 101 25 2 26 3 27 4 28 1 29 18 32 28 34
REMARK SMILES IDX 29 35 30 36 31 37 32 38 33 39 34 40 35 41 36 42 37 43 38 44
REMARK SMILES IDX 99 45 39 46 98 47 40 48 41 49 42 50 92 51 43 52 97 53 91 54
REMARK SMILES IDX 93 55 44 56 96 57 90 58 89 59 45 61 77 62 57 63 76 64 58 65
REMARK SMILES IDX 61 66 75 67 94 68 59 69 60 70 74 72 95 73 62 74 46 75 47 76
REMARK SMILES IDX 55 77 48 78 54 79 56 80 53 81 49 82 50 83 51 84 52 85 78 86
REMARK SMILES IDX 79 87 87 88 80 89 86 90 88 91 85 92 81 93 82 94 83 95 84 96
REMARK SMILES IDX 63 97 64 98 72 99 65 100 71 101 73 102 70 103 66 104 67 105
REMARK SMILES IDX 68 106 69 107
REMARK H PARENT 1 30 1 31 18 33 93 60 61 71
REMARK Flexibility Score: inf
ROOT
ATOM      1  C   UNL A   1      30.326  28.777  23.039  1.00  0.00     0.188 C 
ENDROOT
BRANCH   1   2
ATOM      2  C   UNL A   1      30.409  27.234  23.073  1.00  0.00     0.188 C 
BRANCH   2   3
ATOM      3  O   UNL A   1      29.390  26.421  23.644  1.00  0.00    -0.376 OA
BRANCH   3   4
ATOM      4  C   UNL A   1      29.399  26.013  25.000  1.00  0.00     0.202 C 
BRANCH   4   5
ATOM      5  C   UNL A   1      30.660  26.071  25.879  1.00  0.00     0.261 C 
BRANCH   5   6
ATOM      6  O   UNL A   1      30.955  24.917  26.663  1.00  0.00    -0.460 OA
BRANCH   6   7
ATOM      7  C   UNL A   1      30.874  23.734  26.017  1.00  0.00     0.342 C 
ATOM      8  O   UNL A   1      29.944  22.943  26.037  1.00  0.00    -0.246 OA
BRANCH   7   9
ATOM      9  C   UNL A   1      31.998  23.616  25.060  1.00  0.00     0.102 A 
ATOM     10  C   UNL A   1      34.389  23.477  24.611  1.00  0.00     0.019 A 
ATOM     11  C   UNL A   1      34.116  23.450  23.240  1.00  0.00     0.016 A 
ATOM     12  C   UNL A   1      33.321  23.652  25.507  1.00  0.00     0.031 A 
ATOM     13  C   UNL A   1      32.798  23.499  22.778  1.00  0.00     0.048 A 
ATOM     14  C   UNL A   1      31.743  23.541  23.687  1.00  0.00     0.130 A 
BRANCH  10  15
ATOM     15  C   UNL A   1      35.759  23.271  25.106  1.00  0.00     0.144 A 
ATOM     16  N   UNL A   1      36.346  22.020  25.313  1.00  0.00    -0.300 N 
ATOM     17  C   UNL A   1      37.515  22.237  26.002  1.00  0.00     0.113 A 
ATOM     18  C   UNL A   1      37.673  23.602  26.029  1.00  0.00     0.132 A 
ATOM     19  N   UNL A   1      36.599  24.229  25.455  1.00  0.00    -0.236 NA
BRANCH  16  20
ATOM     20  C   UNL A   1      35.821  20.757  24.938  1.00  0.00     0.047 A 
ATOM     21  C   UNL A   1      34.783  18.198  24.640  1.00  0.00     0.082 A 
ATOM     22  C   UNL A   1      33.910  19.279  24.789  1.00  0.00     0.024 A 
ATOM     23  C   UNL A   1      36.170  18.393  24.617  1.00  0.00     0.024 A 
ATOM     24  C   UNL A   1      34.430  20.563  24.933  1.00  0.00     0.028 A 
ATOM     25  C   UNL A   1      36.695  19.682  24.747  1.00  0.00     0.028 A 
BRANCH  21  26
ATOM     26  S   UNL A   1      34.106  16.572  24.497  1.00  0.00     0.238 S 
ATOM     27  O   UNL A   1      32.734  16.613  24.912  1.00  0.00    -0.207 OA
ATOM     28  O   UNL A   1      35.062  15.620  25.039  1.00  0.00    -0.207 OA
BRANCH  26  29
ATOM     29  N   UNL A   1      34.096  16.275  22.844  1.00  0.00    -0.225 NA
ATOM     30  H   UNL A   1      33.429  15.532  22.635  1.00  0.00     0.137 HD
ATOM     31  H   UNL A   1      35.027  15.988  22.544  1.00  0.00     0.137 HD
ENDBRANCH  26  29
ENDBRANCH  21  26
ENDBRANCH  16  20
ENDBRANCH  10  15
BRANCH  14  32
ATOM     32  O   UNL A   1      30.479  23.563  23.159  1.00  0.00    -0.507 OA
ATOM     33  H   UNL A   1      29.962  22.782  23.150  1.00  0.00     0.293 HD
ENDBRANCH  14  32
ENDBRANCH   7   9
ENDBRANCH   6   7
ENDBRANCH   5   6
ENDBRANCH   4   5
ENDBRANCH   3   4
ENDBRANCH   2   3
ENDBRANCH   1   2
BRANCH   1  34
ATOM     34  O   UNL A   1      30.825  29.404  24.207  1.00  0.00    -0.377 OA
BRANCH  34  35
ATOM     35  C   UNL A   1      32.215  29.194  24.465  1.00  0.00     0.188 C 
BRANCH  35  36
ATOM     36  C   UNL A   1      32.768  29.524  25.879  1.00  0.00     0.188 C 
BRANCH  36  37
ATOM     37  O   UNL A   1      32.696  30.894  26.246  1.00  0.00    -0.376 OA
BRANCH  37  38
ATOM     38  C   UNL A   1      33.063  31.395  27.520  1.00  0.00     0.202 C 
BRANCH  38  39
ATOM     39  C   UNL A   1      34.440  32.031  27.681  1.00  0.00     0.261 C 
BRANCH  39  40
ATOM     40  O   UNL A   1      35.193  31.459  28.725  1.00  0.00    -0.460 OA
BRANCH  40  41
ATOM     41  C   UNL A   1      36.096  30.546  28.317  1.00  0.00     0.338 C 
ATOM     42  O   UNL A   1      36.101  29.934  27.265  1.00  0.00    -0.246 OA
BRANCH  41  43
ATOM     43  C   UNL A   1      37.047  30.350  29.412  1.00  0.00     0.060 A 
ATOM     44  C   UNL A   1      38.036  31.324  29.511  1.00  0.00     0.016 A 
ATOM     45  C   UNL A   1      37.194  29.050  29.919  1.00  0.00     0.016 A 
ATOM     46  C   UNL A   1      39.307  30.881  29.760  1.00  0.00     0.010 A 
ATOM     47  C   UNL A   1      38.464  28.606  30.137  1.00  0.00     0.010 A 
ATOM     48  C   UNL A   1      39.502  29.506  29.927  1.00  0.00    -0.014 A 
BRANCH  48  49
ATOM     49  C   UNL A   1      40.852  29.012  29.958  1.00  0.00     0.031 A 
ATOM     50  C   UNL A   1      41.341  28.943  31.343  1.00  0.00     0.074 A 
ATOM     51  C   UNL A   1      41.489  28.593  28.850  1.00  0.00     0.049 A 
ATOM     52  N   UNL A   1      42.117  29.788  31.935  1.00  0.00    -0.248 NA
ATOM     53  C   UNL A   1      40.652  28.017  32.259  1.00  0.00     0.031 C 
ATOM     54  C   UNL A   1      40.957  28.401  27.499  1.00  0.00     0.029 A 
ATOM     55  N   UNL A   1      42.766  28.159  28.732  1.00  0.00    -0.354 N 
ATOM     56  C   UNL A   1      42.234  29.306  33.229  1.00  0.00     0.074 A 
ATOM     57  C   UNL A   1      41.099  28.455  33.436  1.00  0.00     0.031 C 
ATOM     58  C   UNL A   1      41.839  27.673  26.771  1.00  0.00     0.029 A 
ATOM     59  C   UNL A   1      43.043  27.462  27.560  1.00  0.00     0.049 A 
ATOM     60  H   UNL A   1      43.447  28.323  29.423  1.00  0.00     0.167 HD
ATOM     61  C   UNL A   1      43.426  29.364  33.879  1.00  0.00     0.034 A 
ATOM     62  C   UNL A   1      44.151  26.705  27.320  1.00  0.00     0.034 A 
ATOM     63  C   UNL A   1      44.309  30.317  33.239  1.00  0.00     0.049 A 
ATOM     64  C   UNL A   1      45.185  27.155  28.297  1.00  0.00     0.074 A 
ATOM     65  C   UNL A   1      44.230  31.670  32.969  1.00  0.00     0.029 A 
ATOM     66  N   UNL A   1      45.282  29.825  32.393  1.00  0.00    -0.354 N 
ATOM     67  N   UNL A   1      45.710  28.352  28.272  1.00  0.00    -0.248 NA
ATOM     68  C   UNL A   1      45.230  26.497  29.598  1.00  0.00     0.031 C 
ATOM     69  C   UNL A   1      44.798  31.824  31.670  1.00  0.00     0.029 A 
ATOM     70  C   UNL A   1      45.279  30.583  31.246  1.00  0.00     0.049 A 
ATOM     71  H   UNL A   1      45.877  29.062  32.580  1.00  0.00     0.167 HD
ATOM     72  C   UNL A   1      45.753  28.764  29.598  1.00  0.00     0.074 A 
ATOM     73  C   UNL A   1      45.522  27.547  30.376  1.00  0.00     0.031 C 
ATOM     74  C   UNL A   1      45.664  30.088  29.933  1.00  0.00     0.034 A 
BRANCH  61  75
ATOM     75  C   UNL A   1      43.927  28.277  34.804  1.00  0.00     0.023 A 
ATOM     76  C   UNL A   1      44.344  27.083  34.196  1.00  0.00     0.031 A 
ATOM     77  C   UNL A   1      43.770  28.225  36.212  1.00  0.00     0.131 A 
ATOM     78  C   UNL A   1      44.473  25.901  34.944  1.00  0.00     0.055 A 
ATOM     79  C   UNL A   1      43.964  27.062  36.959  1.00  0.00     0.041 A 
ATOM     80  F   UNL A   1      43.340  29.254  36.948  1.00  0.00    -0.206 F 
ATOM     81  C   UNL A   1      44.283  25.880  36.321  1.00  0.00     0.022 A 
BRANCH  78  82
ATOM     82  S   UNL A   1      44.719  24.352  34.046  1.00  0.00     0.124 S 
ATOM     83  O   UNL A   1      44.286  24.721  32.703  1.00  0.00    -0.237 OA
ATOM     84  O   UNL A   1      46.149  24.129  34.227  1.00  0.00    -0.237 OA
ATOM     85  O   UNL A   1      43.846  23.415  34.749  1.00  0.00    -0.744 OA
ENDBRANCH  78  82
ENDBRANCH  61  75
BRANCH  62  86
ATOM     86  C   UNL A   1      44.178  25.383  26.625  1.00  0.00     0.023 A 
ATOM     87  C   UNL A   1      43.345  24.293  26.965  1.00  0.00     0.031 A 
ATOM     88  C   UNL A   1      44.919  25.255  25.426  1.00  0.00     0.131 A 
ATOM     89  C   UNL A   1      43.292  23.145  26.130  1.00  0.00     0.055 A 
ATOM     90  C   UNL A   1      44.867  24.123  24.611  1.00  0.00     0.041 A 
ATOM     91  F   UNL A   1      45.666  26.270  24.962  1.00  0.00    -0.206 F 
ATOM     92  C   UNL A   1      44.047  23.063  24.957  1.00  0.00     0.022 A 
BRANCH  89  93
ATOM     93  S   UNL A   1      42.192  21.742  26.525  1.00  0.00     0.124 S 
ATOM     94  O   UNL A   1      42.574  21.416  27.894  1.00  0.00    -0.237 OA
ATOM     95  O   UNL A   1      40.867  22.324  26.341  1.00  0.00    -0.237 OA
ATOM     96  O   UNL A   1      42.557  20.729  25.533  1.00  0.00    -0.744 OA
ENDBRANCH  89  93
ENDBRANCH  62  86
BRANCH  74  97
ATOM     97  C   UNL A   1      45.793  31.119  28.824  1.00  0.00     0.023 A 
ATOM     98  C   UNL A   1      47.013  31.640  28.328  1.00  0.00     0.031 A 
ATOM     99  C   UNL A   1      44.611  31.489  28.158  1.00  0.00     0.131 A 
ATOM    100  C   UNL A   1      47.009  32.503  27.211  1.00  0.00     0.055 A 
ATOM    101  C   UNL A   1      44.615  32.322  27.040  1.00  0.00     0.041 A 
ATOM    102  F   UNL A   1      43.424  31.008  28.563  1.00  0.00    -0.206 F 
ATOM    103  C   UNL A   1      45.814  32.836  26.565  1.00  0.00     0.022 A 
BRANCH 100 104
ATOM    104  S   UNL A   1      48.560  33.227  26.578  1.00  0.00     0.124 S 
ATOM    105  O   UNL A   1      48.932  34.186  27.612  1.00  0.00    -0.237 OA
ATOM    106  O   UNL A   1      49.424  32.057  26.450  1.00  0.00    -0.237 OA
ATOM    107  O   UNL A   1      48.160  33.829  25.305  1.00  0.00    -0.744 OA
ENDBRANCH 100 104
ENDBRANCH  74  97
ENDBRANCH  48  49
ENDBRANCH  41  43
ENDBRANCH  40  41
ENDBRANCH  39  40
ENDBRANCH  38  39
ENDBRANCH  37  38
ENDBRANCH  36  37
ENDBRANCH  35  36
ENDBRANCH  34  35
ENDBRANCH   1  34
TORSDOF 28
ENDMDL
