MODEL 1
REMARK VINA RESULT:      -9.0      0.000      0.000
REMARK SMILES O=C(OCCOCCOCCOCCOC(=O)c1ccccc1C(=O)OC[C@@H]1C[C@H]2CC[C@@H]1C2)c1ccc(-c2c3nc(c(-c4cc(S(=O)(=O)[O-])ccc4F)c4ccc([nH]4)c(-c4cc(S(=O)(=O)[O-])ccc4F)c4nc(c(-c5cc(S(=O)(=O)[O-])ccc5F)c5ccc2[nH]5)C=C4)C=C3)cc1
REMARK SMILES IDX 10 1 9 2 8 3 7 4 6 5 5 6 4 7 3 8 2 9 1 10 35 11 36 12 97 13
REMARK SMILES IDX 37 14 96 15 38 16 39 17 40 18 90 19 41 20 95 21 89 22 91 23
REMARK SMILES IDX 42 24 94 25 88 26 87 27 43 29 75 30 55 31 74 32 56 33 59 34
REMARK SMILES IDX 73 35 92 36 57 37 58 38 72 40 93 41 60 42 44 43 45 44 53 45
REMARK SMILES IDX 46 46 52 47 54 48 51 49 47 50 48 51 49 52 50 53 76 54 77 55
REMARK SMILES IDX 85 56 78 57 84 58 86 59 83 60 79 61 80 62 81 63 82 64 61 65
REMARK SMILES IDX 62 66 70 67 63 68 69 69 71 70 68 71 64 72 65 73 66 74 67 75
REMARK SMILES IDX 11 76 12 77 13 78 14 79 15 80 16 81 17 82 18 83 19 84 23 85
REMARK SMILES IDX 20 86 22 87 21 88 24 89 25 90 26 91 27 92 28 93 29 94 33 95
REMARK SMILES IDX 30 96 32 97 34 98 31 99
REMARK H PARENT 91 28 59 39
REMARK Flexibility Score: inf
ROOT
ATOM      1  C   UNL A   1      41.029  21.553  26.013  1.00  0.00     0.188 C 
ENDROOT
BRANCH   1   2
ATOM      2  O   UNL A   1      41.395  20.176  25.967  1.00  0.00    -0.377 OA
BRANCH   2   3
ATOM      3  C   UNL A   1      42.773  19.880  26.188  1.00  0.00     0.188 C 
BRANCH   3   4
ATOM      4  C   UNL A   1      43.177  18.418  25.996  1.00  0.00     0.188 C 
BRANCH   4   5
ATOM      5  O   UNL A   1      44.190  18.275  25.000  1.00  0.00    -0.376 OA
BRANCH   5   6
ATOM      6  C   UNL A   1      44.541  19.455  24.276  1.00  0.00     0.202 C 
BRANCH   6   7
ATOM      7  C   UNL A   1      45.663  20.283  24.903  1.00  0.00     0.261 C 
BRANCH   7   8
ATOM      8  O   UNL A   1      45.754  21.600  24.341  1.00  0.00    -0.460 OA
BRANCH   8   9
ATOM      9  C   UNL A   1      44.771  22.530  24.238  1.00  0.00     0.338 C 
ATOM     10  O   UNL A   1      44.072  22.515  23.224  1.00  0.00    -0.246 OA
BRANCH   9  11
ATOM     11  C   UNL A   1      44.483  23.584  25.264  1.00  0.00     0.060 A 
ATOM     12  C   UNL A   1      44.602  24.962  25.076  1.00  0.00     0.016 A 
ATOM     13  C   UNL A   1      44.011  23.141  26.512  1.00  0.00     0.016 A 
ATOM     14  C   UNL A   1      44.354  25.869  26.090  1.00  0.00     0.010 A 
ATOM     15  C   UNL A   1      43.753  24.045  27.550  1.00  0.00     0.010 A 
ATOM     16  C   UNL A   1      43.981  25.409  27.346  1.00  0.00    -0.014 A 
BRANCH  16  17
ATOM     17  C   UNL A   1      44.164  26.358  28.456  1.00  0.00     0.031 A 
ATOM     18  C   UNL A   1      42.940  27.091  28.923  1.00  0.00     0.074 A 
ATOM     19  C   UNL A   1      45.314  26.370  29.151  1.00  0.00     0.049 A 
ATOM     20  N   UNL A   1      42.807  27.977  29.869  1.00  0.00    -0.248 NA
ATOM     21  C   UNL A   1      41.680  26.757  28.231  1.00  0.00     0.031 C 
ATOM     22  C   UNL A   1      46.476  25.523  28.869  1.00  0.00     0.029 A 
ATOM     23  N   UNL A   1      45.677  27.076  30.263  1.00  0.00    -0.354 N 
ATOM     24  C   UNL A   1      41.462  28.337  29.856  1.00  0.00     0.074 A 
ATOM     25  C   UNL A   1      40.823  27.580  28.807  1.00  0.00     0.031 C 
ATOM     26  C   UNL A   1      47.415  25.743  29.805  1.00  0.00     0.029 A 
ATOM     27  C   UNL A   1      46.952  26.800  30.697  1.00  0.00     0.049 A 
ATOM     28  H   UNL A   1      45.082  27.720  30.711  1.00  0.00     0.167 HD
ATOM     29  C   UNL A   1      40.832  29.233  30.651  1.00  0.00     0.034 A 
ATOM     30  C   UNL A   1      47.663  27.378  31.684  1.00  0.00     0.034 A 
ATOM     31  C   UNL A   1      41.525  29.961  31.682  1.00  0.00     0.049 A 
ATOM     32  C   UNL A   1      46.981  28.472  32.471  1.00  0.00     0.074 A 
ATOM     33  C   UNL A   1      41.057  30.968  32.503  1.00  0.00     0.029 A 
ATOM     34  N   UNL A   1      42.859  29.750  32.024  1.00  0.00    -0.354 N 
ATOM     35  N   UNL A   1      45.741  28.906  32.379  1.00  0.00    -0.248 NA
ATOM     36  C   UNL A   1      47.787  29.157  33.483  1.00  0.00     0.031 C 
ATOM     37  C   UNL A   1      42.126  31.414  33.288  1.00  0.00     0.029 A 
ATOM     38  C   UNL A   1      43.238  30.625  33.026  1.00  0.00     0.049 A 
ATOM     39  H   UNL A   1      43.447  29.075  31.614  1.00  0.00     0.167 HD
ATOM     40  C   UNL A   1      45.610  29.894  33.348  1.00  0.00     0.074 A 
ATOM     41  C   UNL A   1      46.896  29.976  34.019  1.00  0.00     0.031 C 
ATOM     42  C   UNL A   1      44.536  30.664  33.664  1.00  0.00     0.034 A 
BRANCH  29  43
ATOM     43  C   UNL A   1      39.390  29.543  30.319  1.00  0.00     0.023 A 
ATOM     44  C   UNL A   1      38.997  30.756  29.723  1.00  0.00     0.031 A 
ATOM     45  C   UNL A   1      38.378  28.658  30.732  1.00  0.00     0.131 A 
ATOM     46  C   UNL A   1      37.634  31.092  29.653  1.00  0.00     0.055 A 
ATOM     47  C   UNL A   1      37.024  28.958  30.573  1.00  0.00     0.041 A 
ATOM     48  F   UNL A   1      38.688  27.502  31.340  1.00  0.00    -0.206 F 
ATOM     49  C   UNL A   1      36.645  30.190  30.051  1.00  0.00     0.022 A 
BRANCH  46  50
ATOM     50  S   UNL A   1      37.179  32.795  29.219  1.00  0.00     0.124 S 
ATOM     51  O   UNL A   1      38.490  33.422  29.063  1.00  0.00    -0.237 OA
ATOM     52  O   UNL A   1      36.410  32.616  27.993  1.00  0.00    -0.237 OA
ATOM     53  O   UNL A   1      36.411  33.253  30.376  1.00  0.00    -0.744 OA
ENDBRANCH  46  50
ENDBRANCH  29  43
BRANCH  30  54
ATOM     54  C   UNL A   1      49.085  26.998  31.936  1.00  0.00     0.023 A 
ATOM     55  C   UNL A   1      49.423  25.963  32.822  1.00  0.00     0.031 A 
ATOM     56  C   UNL A   1      50.140  27.710  31.333  1.00  0.00     0.131 A 
ATOM     57  C   UNL A   1      50.773  25.699  33.113  1.00  0.00     0.055 A 
ATOM     58  C   UNL A   1      51.481  27.405  31.578  1.00  0.00     0.041 A 
ATOM     59  F   UNL A   1      49.884  28.720  30.484  1.00  0.00    -0.206 F 
ATOM     60  C   UNL A   1      51.804  26.402  32.485  1.00  0.00     0.022 A 
BRANCH  57  61
ATOM     61  S   UNL A   1      51.166  24.483  34.401  1.00  0.00     0.124 S 
ATOM     62  O   UNL A   1      49.837  24.039  34.805  1.00  0.00    -0.237 OA
ATOM     63  O   UNL A   1      51.970  23.513  33.665  1.00  0.00    -0.237 OA
ATOM     64  O   UNL A   1      51.893  25.265  35.398  1.00  0.00    -0.744 OA
ENDBRANCH  57  61
ENDBRANCH  30  54
BRANCH  42  65
ATOM     65  C   UNL A   1      44.701  31.604  34.830  1.00  0.00     0.023 A 
ATOM     66  C   UNL A   1      44.254  31.272  36.119  1.00  0.00     0.031 A 
ATOM     67  C   UNL A   1      45.309  32.856  34.636  1.00  0.00     0.131 A 
ATOM     68  C   UNL A   1      44.356  32.213  37.151  1.00  0.00     0.055 A 
ATOM     69  C   UNL A   1      45.478  33.759  35.685  1.00  0.00     0.041 A 
ATOM     70  F   UNL A   1      45.752  33.221  33.422  1.00  0.00    -0.206 F 
ATOM     71  C   UNL A   1      44.984  33.446  36.948  1.00  0.00     0.022 A 
BRANCH  68  72
ATOM     72  S   UNL A   1      43.545  31.854  38.732  1.00  0.00     0.124 S 
ATOM     73  O   UNL A   1      43.512  33.170  39.361  1.00  0.00    -0.237 OA
ATOM     74  O   UNL A   1      42.256  31.318  38.306  1.00  0.00    -0.237 OA
ATOM     75  O   UNL A   1      44.442  30.887  39.363  1.00  0.00    -0.744 OA
ENDBRANCH  68  72
ENDBRANCH  42  65
ENDBRANCH  16  17
ENDBRANCH   9  11
ENDBRANCH   8   9
ENDBRANCH   7   8
ENDBRANCH   6   7
ENDBRANCH   5   6
ENDBRANCH   4   5
ENDBRANCH   3   4
ENDBRANCH   2   3
ENDBRANCH   1   2
BRANCH   1  76
ATOM     76  C   UNL A   1      39.614  21.949  26.515  1.00  0.00     0.188 C 
BRANCH  76  77
ATOM     77  O   UNL A   1      39.487  23.325  26.829  1.00  0.00    -0.376 OA
BRANCH  77  78
ATOM     78  C   UNL A   1      38.266  23.979  26.513  1.00  0.00     0.202 C 
BRANCH  78  79
ATOM     79  C   UNL A   1      37.248  23.325  25.560  1.00  0.00     0.261 C 
BRANCH  79  80
ATOM     80  O   UNL A   1      35.891  23.428  26.003  1.00  0.00    -0.460 OA
BRANCH  80  81
ATOM     81  C   UNL A   1      34.924  23.934  25.215  1.00  0.00     0.339 C 
ATOM     82  O   UNL A   1      34.921  24.999  24.627  1.00  0.00    -0.246 OA
BRANCH  81  83
ATOM     83  C   UNL A   1      33.904  22.869  25.053  1.00  0.00     0.074 A 
ATOM     84  C   UNL A   1      34.311  21.705  24.374  1.00  0.00     0.016 A 
ATOM     85  C   UNL A   1      32.619  22.925  25.622  1.00  0.00     0.074 A 
ATOM     86  C   UNL A   1      33.456  20.604  24.284  1.00  0.00     0.001 A 
ATOM     87  C   UNL A   1      31.747  21.833  25.466  1.00  0.00     0.016 A 
ATOM     88  C   UNL A   1      32.170  20.673  24.816  1.00  0.00     0.001 A 
BRANCH  85  89
ATOM     89  C   UNL A   1      32.087  24.076  26.385  1.00  0.00     0.339 C 
ATOM     90  O   UNL A   1      31.607  23.977  27.504  1.00  0.00    -0.246 OA
BRANCH  89  91
ATOM     91  O   UNL A   1      32.206  25.206  25.664  1.00  0.00    -0.462 OA
BRANCH  91  92
ATOM     92  C   UNL A   1      32.109  26.454  26.358  1.00  0.00     0.237 C 
BRANCH  92  93
ATOM     93  C   UNL A   1      31.198  27.388  25.560  1.00  0.00     0.030 C 
ATOM     94  C   UNL A   1      30.527  26.739  24.328  1.00  0.00     0.011 C 
ATOM     95  C   UNL A   1      31.999  28.553  24.942  1.00  0.00    -0.004 C 
ATOM     96  C   UNL A   1      30.901  27.714  23.199  1.00  0.00    -0.010 C 
ATOM     97  C   UNL A   1      31.002  29.671  24.611  1.00  0.00     0.004 C 
ATOM     98  C   UNL A   1      32.354  28.025  23.554  1.00  0.00     0.007 C 
ATOM     99  C   UNL A   1      30.210  29.072  23.441  1.00  0.00     0.004 C 
ENDBRANCH  92  93
ENDBRANCH  91  92
ENDBRANCH  89  91
ENDBRANCH  85  89
ENDBRANCH  81  83
ENDBRANCH  80  81
ENDBRANCH  79  80
ENDBRANCH  78  79
ENDBRANCH  77  78
ENDBRANCH  76  77
ENDBRANCH   1  76
TORSDOF 27
ENDMDL
MODEL 2
REMARK VINA RESULT:      -8.7      3.207      8.383
REMARK SMILES O=C(OCCOCCOCCOCCOC(=O)c1ccccc1C(=O)OC[C@@H]1C[C@H]2CC[C@@H]1C2)c1ccc(-c2c3nc(c(-c4cc(S(=O)(=O)[O-])ccc4F)c4ccc([nH]4)c(-c4cc(S(=O)(=O)[O-])ccc4F)c4nc(c(-c5cc(S(=O)(=O)[O-])ccc5F)c5ccc2[nH]5)C=C4)C=C3)cc1
REMARK SMILES IDX 10 1 9 2 8 3 7 4 6 5 5 6 4 7 3 8 2 9 1 10 35 11 36 12 97 13
REMARK SMILES IDX 37 14 96 15 38 16 39 17 40 18 90 19 41 20 95 21 89 22 91 23
REMARK SMILES IDX 42 24 94 25 88 26 87 27 43 29 75 30 55 31 74 32 56 33 59 34
REMARK SMILES IDX 73 35 92 36 57 37 58 38 72 40 93 41 60 42 44 43 45 44 53 45
REMARK SMILES IDX 46 46 52 47 54 48 51 49 47 50 48 51 49 52 50 53 76 54 77 55
REMARK SMILES IDX 85 56 78 57 84 58 86 59 83 60 79 61 80 62 81 63 82 64 61 65
REMARK SMILES IDX 62 66 70 67 63 68 69 69 71 70 68 71 64 72 65 73 66 74 67 75
REMARK SMILES IDX 11 76 12 77 13 78 14 79 15 80 16 81 17 82 18 83 19 84 23 85
REMARK SMILES IDX 20 86 22 87 21 88 24 89 25 90 26 91 27 92 28 93 29 94 33 95
REMARK SMILES IDX 30 96 32 97 34 98 31 99
REMARK H PARENT 91 28 59 39
REMARK Flexibility Score: inf
ROOT
ATOM      1  C   UNL A   1      40.395  20.241  26.170  1.00  0.00     0.188 C 
ENDROOT
BRANCH   1   2
ATOM      2  O   UNL A   1      41.692  20.358  25.589  1.00  0.00    -0.377 OA
BRANCH   2   3
ATOM      3  C   UNL A   1      42.749  20.729  26.473  1.00  0.00     0.188 C 
BRANCH   3   4
ATOM      4  C   UNL A   1      43.773  21.714  25.907  1.00  0.00     0.188 C 
BRANCH   4   5
ATOM      5  O   UNL A   1      43.230  23.029  25.782  1.00  0.00    -0.376 OA
BRANCH   5   6
ATOM      6  C   UNL A   1      43.818  23.867  24.787  1.00  0.00     0.202 C 
BRANCH   6   7
ATOM      7  C   UNL A   1      45.158  23.374  24.241  1.00  0.00     0.261 C 
BRANCH   7   8
ATOM      8  O   UNL A   1      46.216  24.323  24.438  1.00  0.00    -0.460 OA
BRANCH   8   9
ATOM      9  C   UNL A   1      46.174  25.477  25.151  1.00  0.00     0.338 C 
ATOM     10  O   UNL A   1      45.954  26.522  24.539  1.00  0.00    -0.246 OA
BRANCH   9  11
ATOM     11  C   UNL A   1      46.393  25.572  26.632  1.00  0.00     0.060 A 
ATOM     12  C   UNL A   1      46.183  24.548  27.557  1.00  0.00     0.016 A 
ATOM     13  C   UNL A   1      46.897  26.791  27.120  1.00  0.00     0.016 A 
ATOM     14  C   UNL A   1      46.373  24.731  28.914  1.00  0.00     0.010 A 
ATOM     15  C   UNL A   1      47.097  26.993  28.490  1.00  0.00     0.010 A 
ATOM     16  C   UNL A   1      46.779  25.971  29.390  1.00  0.00    -0.014 A 
BRANCH  16  17
ATOM     17  C   UNL A   1      46.536  26.219  30.821  1.00  0.00     0.031 A 
ATOM     18  C   UNL A   1      47.651  25.870  31.762  1.00  0.00     0.074 A 
ATOM     19  C   UNL A   1      45.470  26.939  31.208  1.00  0.00     0.049 A 
ATOM     20  N   UNL A   1      47.715  25.979  33.059  1.00  0.00    -0.248 NA
ATOM     21  C   UNL A   1      48.881  25.339  31.144  1.00  0.00     0.031 C 
ATOM     22  C   UNL A   1      44.452  27.489  30.308  1.00  0.00     0.029 A 
ATOM     23  N   UNL A   1      45.093  27.379  32.447  1.00  0.00    -0.354 N 
ATOM     24  C   UNL A   1      48.969  25.490  33.414  1.00  0.00     0.074 A 
ATOM     25  C   UNL A   1      49.631  25.080  32.199  1.00  0.00     0.031 C 
ATOM     26  C   UNL A   1      43.579  28.215  31.027  1.00  0.00     0.029 A 
ATOM     27  C   UNL A   1      43.931  28.113  32.439  1.00  0.00     0.049 A 
ATOM     28  H   UNL A   1      45.606  27.188  33.266  1.00  0.00     0.167 HD
ATOM     29  C   UNL A   1      49.504  25.389  34.653  1.00  0.00     0.034 A 
ATOM     30  C   UNL A   1      43.224  28.606  33.474  1.00  0.00     0.034 A 
ATOM     31  C   UNL A   1      48.792  25.814  35.830  1.00  0.00     0.049 A 
ATOM     32  C   UNL A   1      43.775  28.361  34.859  1.00  0.00     0.074 A 
ATOM     33  C   UNL A   1      49.151  25.691  37.157  1.00  0.00     0.029 A 
ATOM     34  N   UNL A   1      47.552  26.450  35.806  1.00  0.00    -0.354 N 
ATOM     35  N   UNL A   1      44.906  27.786  35.208  1.00  0.00    -0.248 NA
ATOM     36  C   UNL A   1      42.958  28.821  35.984  1.00  0.00     0.031 C 
ATOM     37  C   UNL A   1      48.097  26.184  37.936  1.00  0.00     0.029 A 
ATOM     38  C   UNL A   1      47.121  26.701  37.095  1.00  0.00     0.049 A 
ATOM     39  H   UNL A   1      47.056  26.687  34.989  1.00  0.00     0.167 HD
ATOM     40  C   UNL A   1      44.952  27.847  36.597  1.00  0.00     0.074 A 
ATOM     41  C   UNL A   1      43.738  28.529  37.012  1.00  0.00     0.031 C 
ATOM     42  C   UNL A   1      45.900  27.389  37.456  1.00  0.00     0.034 A 
BRANCH  29  43
ATOM     43  C   UNL A   1      50.833  24.677  34.765  1.00  0.00     0.023 A 
ATOM     44  C   UNL A   1      50.932  23.278  34.878  1.00  0.00     0.031 A 
ATOM     45  C   UNL A   1      52.013  25.431  34.897  1.00  0.00     0.131 A 
ATOM     46  C   UNL A   1      52.163  22.689  35.216  1.00  0.00     0.055 A 
ATOM     47  C   UNL A   1      53.250  24.831  35.140  1.00  0.00     0.041 A 
ATOM     48  F   UNL A   1      51.978  26.772  34.836  1.00  0.00    -0.206 F 
ATOM     49  C   UNL A   1      53.326  23.454  35.323  1.00  0.00     0.022 A 
BRANCH  46  50
ATOM     50  S   UNL A   1      52.186  20.941  35.706  1.00  0.00     0.124 S 
ATOM     51  O   UNL A   1      53.616  20.642  35.671  1.00  0.00    -0.237 OA
ATOM     52  O   UNL A   1      51.575  20.974  37.030  1.00  0.00    -0.237 OA
ATOM     53  O   UNL A   1      51.393  20.282  34.670  1.00  0.00    -0.744 OA
ENDBRANCH  46  50
ENDBRANCH  29  43
BRANCH  30  54
ATOM     54  C   UNL A   1      41.919  29.299  33.257  1.00  0.00     0.023 A 
ATOM     55  C   UNL A   1      40.722  28.582  33.111  1.00  0.00     0.031 A 
ATOM     56  C   UNL A   1      41.858  30.701  33.135  1.00  0.00     0.131 A 
ATOM     57  C   UNL A   1      39.528  29.260  32.809  1.00  0.00     0.055 A 
ATOM     58  C   UNL A   1      40.659  31.377  32.895  1.00  0.00     0.041 A 
ATOM     59  F   UNL A   1      42.970  31.445  33.254  1.00  0.00    -0.206 F 
ATOM     60  C   UNL A   1      39.486  30.653  32.715  1.00  0.00     0.022 A 
BRANCH  57  61
ATOM     61  S   UNL A   1      38.041  28.287  32.442  1.00  0.00     0.124 S 
ATOM     62  O   UNL A   1      37.902  28.490  31.004  1.00  0.00    -0.237 OA
ATOM     63  O   UNL A   1      38.443  26.950  32.866  1.00  0.00    -0.237 OA
ATOM     64  O   UNL A   1      37.010  28.917  33.264  1.00  0.00    -0.744 OA
ENDBRANCH  57  61
ENDBRANCH  30  54
BRANCH  42  65
ATOM     65  C   UNL A   1      45.681  27.681  38.917  1.00  0.00     0.023 A 
ATOM     66  C   UNL A   1      46.140  28.866  39.513  1.00  0.00     0.031 A 
ATOM     67  C   UNL A   1      45.008  26.746  39.723  1.00  0.00     0.131 A 
ATOM     68  C   UNL A   1      45.986  29.054  40.893  1.00  0.00     0.055 A 
ATOM     69  C   UNL A   1      44.789  26.974  41.081  1.00  0.00     0.041 A 
ATOM     70  F   UNL A   1      44.550  25.597  39.201  1.00  0.00    -0.206 F 
ATOM     71  C   UNL A   1      45.294  28.126  41.677  1.00  0.00     0.022 A 
BRANCH  68  72
ATOM     72  S   UNL A   1      46.809  30.469  41.671  1.00  0.00     0.124 S 
ATOM     73  O   UNL A   1      47.714  30.910  40.614  1.00  0.00    -0.237 OA
ATOM     74  O   UNL A   1      45.689  31.358  41.963  1.00  0.00    -0.237 OA
ATOM     75  O   UNL A   1      47.460  29.884  42.841  1.00  0.00    -0.744 OA
ENDBRANCH  68  72
ENDBRANCH  42  65
ENDBRANCH  16  17
ENDBRANCH   9  11
ENDBRANCH   8   9
ENDBRANCH   7   8
ENDBRANCH   6   7
ENDBRANCH   5   6
ENDBRANCH   4   5
ENDBRANCH   3   4
ENDBRANCH   2   3
ENDBRANCH   1   2
BRANCH   1  76
ATOM     76  C   UNL A   1      39.379  21.404  26.006  1.00  0.00     0.188 C 
BRANCH  76  77
ATOM     77  O   UNL A   1      38.190  21.029  25.333  1.00  0.00    -0.376 OA
BRANCH  77  78
ATOM     78  C   UNL A   1      37.400  22.051  24.740  1.00  0.00     0.202 C 
BRANCH  78  79
ATOM     79  C   UNL A   1      36.868  23.223  25.585  1.00  0.00     0.261 C 
BRANCH  79  80
ATOM     80  O   UNL A   1      35.721  23.869  25.024  1.00  0.00    -0.460 OA
BRANCH  80  81
ATOM     81  C   UNL A   1      34.484  23.672  25.517  1.00  0.00     0.339 C 
ATOM     82  O   UNL A   1      33.993  24.158  26.518  1.00  0.00    -0.246 OA
BRANCH  81  83
ATOM     83  C   UNL A   1      33.748  22.865  24.513  1.00  0.00     0.074 A 
ATOM     84  C   UNL A   1      33.627  21.488  24.778  1.00  0.00     0.016 A 
ATOM     85  C   UNL A   1      33.093  23.415  23.397  1.00  0.00     0.074 A 
ATOM     86  C   UNL A   1      32.846  20.674  23.954  1.00  0.00     0.001 A 
ATOM     87  C   UNL A   1      32.363  22.570  22.540  1.00  0.00     0.016 A 
ATOM     88  C   UNL A   1      32.227  21.212  22.827  1.00  0.00     0.001 A 
BRANCH  85  89
ATOM     89  C   UNL A   1      33.116  24.848  23.030  1.00  0.00     0.339 C 
ATOM     90  O   UNL A   1      33.895  25.322  22.217  1.00  0.00    -0.246 OA
BRANCH  89  91
ATOM     91  O   UNL A   1      32.178  25.520  23.723  1.00  0.00    -0.462 OA
BRANCH  91  92
ATOM     92  C   UNL A   1      32.025  26.917  23.457  1.00  0.00     0.237 C 
BRANCH  92  93
ATOM     93  C   UNL A   1      31.624  27.622  24.754  1.00  0.00     0.030 C 
ATOM     94  C   UNL A   1      31.443  29.152  24.629  1.00  0.00     0.011 C 
ATOM     95  C   UNL A   1      32.730  27.493  25.823  1.00  0.00    -0.004 C 
ATOM     96  C   UNL A   1      32.347  29.682  25.754  1.00  0.00    -0.010 C 
ATOM     97  C   UNL A   1      32.082  27.758  27.188  1.00  0.00     0.004 C 
ATOM     98  C   UNL A   1      33.556  28.760  25.614  1.00  0.00     0.007 C 
ATOM     99  C   UNL A   1      31.772  29.259  27.121  1.00  0.00     0.004 C 
ENDBRANCH  92  93
ENDBRANCH  91  92
ENDBRANCH  89  91
ENDBRANCH  85  89
ENDBRANCH  81  83
ENDBRANCH  80  81
ENDBRANCH  79  80
ENDBRANCH  78  79
ENDBRANCH  77  78
ENDBRANCH  76  77
ENDBRANCH   1  76
TORSDOF 27
ENDMDL
MODEL 3
REMARK VINA RESULT:      -8.6      1.680      1.908
REMARK SMILES O=C(OCCOCCOCCOCCOC(=O)c1ccccc1C(=O)OC[C@@H]1C[C@H]2CC[C@@H]1C2)c1ccc(-c2c3nc(c(-c4cc(S(=O)(=O)[O-])ccc4F)c4ccc([nH]4)c(-c4cc(S(=O)(=O)[O-])ccc4F)c4nc(c(-c5cc(S(=O)(=O)[O-])ccc5F)c5ccc2[nH]5)C=C4)C=C3)cc1
REMARK SMILES IDX 10 1 9 2 8 3 7 4 6 5 5 6 4 7 3 8 2 9 1 10 35 11 36 12 97 13
REMARK SMILES IDX 37 14 96 15 38 16 39 17 40 18 90 19 41 20 95 21 89 22 91 23
REMARK SMILES IDX 42 24 94 25 88 26 87 27 43 29 75 30 55 31 74 32 56 33 59 34
REMARK SMILES IDX 73 35 92 36 57 37 58 38 72 40 93 41 60 42 44 43 45 44 53 45
REMARK SMILES IDX 46 46 52 47 54 48 51 49 47 50 48 51 49 52 50 53 76 54 77 55
REMARK SMILES IDX 85 56 78 57 84 58 86 59 83 60 79 61 80 62 81 63 82 64 61 65
REMARK SMILES IDX 62 66 70 67 63 68 69 69 71 70 68 71 64 72 65 73 66 74 67 75
REMARK SMILES IDX 11 76 12 77 13 78 14 79 15 80 16 81 17 82 18 83 19 84 23 85
REMARK SMILES IDX 20 86 22 87 21 88 24 89 25 90 26 91 27 92 28 93 29 94 33 95
REMARK SMILES IDX 30 96 32 97 34 98 31 99
REMARK H PARENT 91 28 59 39
REMARK Flexibility Score: inf
ROOT
ATOM      1  C   UNL A   1      40.770  21.301  25.826  1.00  0.00     0.188 C 
ENDROOT
BRANCH   1   2
ATOM      2  O   UNL A   1      41.198  19.966  26.082  1.00  0.00    -0.377 OA
BRANCH   2   3
ATOM      3  C   UNL A   1      42.591  19.786  26.334  1.00  0.00     0.188 C 
BRANCH   3   4
ATOM      4  C   UNL A   1      43.094  18.343  26.287  1.00  0.00     0.188 C 
BRANCH   4   5
ATOM      5  O   UNL A   1      44.048  18.148  25.243  1.00  0.00    -0.376 OA
BRANCH   5   6
ATOM      6  C   UNL A   1      44.353  19.289  24.440  1.00  0.00     0.202 C 
BRANCH   6   7
ATOM      7  C   UNL A   1      45.532  20.126  24.937  1.00  0.00     0.261 C 
BRANCH   7   8
ATOM      8  O   UNL A   1      45.608  21.406  24.293  1.00  0.00    -0.460 OA
BRANCH   8   9
ATOM      9  C   UNL A   1      44.676  22.393  24.293  1.00  0.00     0.338 C 
ATOM     10  O   UNL A   1      43.912  22.460  23.330  1.00  0.00    -0.246 OA
BRANCH   9  11
ATOM     11  C   UNL A   1      44.520  23.418  25.376  1.00  0.00     0.060 A 
ATOM     12  C   UNL A   1      44.537  24.803  25.199  1.00  0.00     0.016 A 
ATOM     13  C   UNL A   1      44.295  22.936  26.677  1.00  0.00     0.016 A 
ATOM     14  C   UNL A   1      44.425  25.683  26.260  1.00  0.00     0.010 A 
ATOM     15  C   UNL A   1      44.177  23.812  27.763  1.00  0.00     0.010 A 
ATOM     16  C   UNL A   1      44.299  25.189  27.551  1.00  0.00    -0.014 A 
BRANCH  16  17
ATOM     17  C   UNL A   1      44.626  26.132  28.633  1.00  0.00     0.031 A 
ATOM     18  C   UNL A   1      43.467  26.779  29.334  1.00  0.00     0.074 A 
ATOM     19  C   UNL A   1      45.881  26.208  29.106  1.00  0.00     0.049 A 
ATOM     20  N   UNL A   1      43.457  27.641  30.311  1.00  0.00    -0.248 NA
ATOM     21  C   UNL A   1      42.124  26.375  28.877  1.00  0.00     0.031 C 
ATOM     22  C   UNL A   1      47.021  25.441  28.595  1.00  0.00     0.029 A 
ATOM     23  N   UNL A   1      46.400  26.921  30.150  1.00  0.00    -0.354 N 
ATOM     24  C   UNL A   1      42.114  27.915  30.553  1.00  0.00     0.074 A 
ATOM     25  C   UNL A   1      41.339  27.134  29.620  1.00  0.00     0.031 C 
ATOM     26  C   UNL A   1      48.101  25.708  29.348  1.00  0.00     0.029 A 
ATOM     27  C   UNL A   1      47.747  26.721  30.337  1.00  0.00     0.049 A 
ATOM     28  H   UNL A   1      45.860  27.519  30.716  1.00  0.00     0.167 HD
ATOM     29  C   UNL A   1      41.588  28.758  31.472  1.00  0.00     0.034 A 
ATOM     30  C   UNL A   1      48.592  27.329  31.191  1.00  0.00     0.034 A 
ATOM     31  C   UNL A   1      42.414  29.515  32.377  1.00  0.00     0.049 A 
ATOM     32  C   UNL A   1      48.001  28.366  32.117  1.00  0.00     0.074 A 
ATOM     33  C   UNL A   1      42.045  30.478  33.295  1.00  0.00     0.029 A 
ATOM     34  N   UNL A   1      43.798  29.384  32.464  1.00  0.00    -0.354 N 
ATOM     35  N   UNL A   1      46.742  28.721  32.264  1.00  0.00    -0.248 NA
ATOM     36  C   UNL A   1      48.937  29.088  32.982  1.00  0.00     0.031 C 
ATOM     37  C   UNL A   1      43.212  30.981  33.882  1.00  0.00     0.029 A 
ATOM     38  C   UNL A   1      44.301  30.268  33.402  1.00  0.00     0.049 A 
ATOM     39  H   UNL A   1      44.340  28.755  31.936  1.00  0.00     0.167 HD
ATOM     40  C   UNL A   1      46.732  29.686  33.266  1.00  0.00     0.074 A 
ATOM     41  C   UNL A   1      48.112  29.841  33.692  1.00  0.00     0.031 C 
ATOM     42  C   UNL A   1      45.690  30.381  33.792  1.00  0.00     0.034 A 
BRANCH  29  43
ATOM     43  C   UNL A   1      40.094  28.980  31.417  1.00  0.00     0.023 A 
ATOM     44  C   UNL A   1      39.513  30.027  30.677  1.00  0.00     0.031 A 
ATOM     45  C   UNL A   1      39.248  28.206  32.232  1.00  0.00     0.131 A 
ATOM     46  C   UNL A   1      38.152  30.333  30.848  1.00  0.00     0.055 A 
ATOM     47  C   UNL A   1      37.878  28.457  32.324  1.00  0.00     0.041 A 
ATOM     48  F   UNL A   1      39.747  27.217  32.990  1.00  0.00    -0.206 F 
ATOM     49  C   UNL A   1      37.326  29.540  31.647  1.00  0.00     0.022 A 
BRANCH  46  50
ATOM     50  S   UNL A   1      37.519  31.894  30.168  1.00  0.00     0.124 S 
ATOM     51  O   UNL A   1      38.096  32.872  31.088  1.00  0.00    -0.237 OA
ATOM     52  O   UNL A   1      38.062  31.895  28.815  1.00  0.00    -0.237 OA
ATOM     53  O   UNL A   1      36.068  31.745  30.259  1.00  0.00    -0.744 OA
ENDBRANCH  46  50
ENDBRANCH  29  43
BRANCH  30  54
ATOM     54  C   UNL A   1      50.056  27.037  31.170  1.00  0.00     0.023 A 
ATOM     55  C   UNL A   1      50.633  26.107  32.048  1.00  0.00     0.031 A 
ATOM     56  C   UNL A   1      50.918  27.734  30.300  1.00  0.00     0.131 A 
ATOM     57  C   UNL A   1      52.028  25.931  32.069  1.00  0.00     0.055 A 
ATOM     58  C   UNL A   1      52.297  27.512  30.282  1.00  0.00     0.041 A 
ATOM     59  F   UNL A   1      50.430  28.646  29.442  1.00  0.00    -0.206 F 
ATOM     60  C   UNL A   1      52.861  26.616  31.181  1.00  0.00     0.022 A 
BRANCH  57  61
ATOM     61  S   UNL A   1      52.753  24.862  33.343  1.00  0.00     0.124 S 
ATOM     62  O   UNL A   1      52.117  25.370  34.553  1.00  0.00    -0.237 OA
ATOM     63  O   UNL A   1      52.328  23.537  32.903  1.00  0.00    -0.237 OA
ATOM     64  O   UNL A   1      54.186  25.125  33.233  1.00  0.00    -0.744 OA
ENDBRANCH  57  61
ENDBRANCH  30  54
BRANCH  42  65
ATOM     65  C   UNL A   1      46.010  31.313  34.931  1.00  0.00     0.023 A 
ATOM     66  C   UNL A   1      46.335  32.662  34.716  1.00  0.00     0.031 A 
ATOM     67  C   UNL A   1      46.000  30.832  36.252  1.00  0.00     0.131 A 
ATOM     68  C   UNL A   1      46.707  33.467  35.800  1.00  0.00     0.055 A 
ATOM     69  C   UNL A   1      46.295  31.659  37.335  1.00  0.00     0.041 A 
ATOM     70  F   UNL A   1      45.697  29.549  36.510  1.00  0.00    -0.206 F 
ATOM     71  C   UNL A   1      46.668  32.981  37.110  1.00  0.00     0.022 A 
BRANCH  68  72
ATOM     72  S   UNL A   1      47.361  35.124  35.463  1.00  0.00     0.124 S 
ATOM     73  O   UNL A   1      47.536  35.659  36.809  1.00  0.00    -0.237 OA
ATOM     74  O   UNL A   1      48.588  34.831  34.729  1.00  0.00    -0.237 OA
ATOM     75  O   UNL A   1      46.303  35.754  34.677  1.00  0.00    -0.744 OA
ENDBRANCH  68  72
ENDBRANCH  42  65
ENDBRANCH  16  17
ENDBRANCH   9  11
ENDBRANCH   8   9
ENDBRANCH   7   8
ENDBRANCH   6   7
ENDBRANCH   5   6
ENDBRANCH   4   5
ENDBRANCH   3   4
ENDBRANCH   2   3
ENDBRANCH   1   2
BRANCH   1  76
ATOM     76  C   UNL A   1      39.510  21.849  26.549  1.00  0.00     0.188 C 
BRANCH  76  77
ATOM     77  O   UNL A   1      39.625  23.204  26.944  1.00  0.00    -0.376 OA
BRANCH  77  78
ATOM     78  C   UNL A   1      38.496  24.052  26.785  1.00  0.00     0.202 C 
BRANCH  78  79
ATOM     79  C   UNL A   1      37.478  23.802  25.657  1.00  0.00     0.261 C 
BRANCH  79  80
ATOM     80  O   UNL A   1      36.134  23.624  26.118  1.00  0.00    -0.460 OA
BRANCH  80  81
ATOM     81  C   UNL A   1      35.075  23.870  25.327  1.00  0.00     0.339 C 
ATOM     82  O   UNL A   1      34.833  24.882  24.696  1.00  0.00    -0.246 OA
BRANCH  81  83
ATOM     83  C   UNL A   1      34.313  22.601  25.226  1.00  0.00     0.074 A 
ATOM     84  C   UNL A   1      34.982  21.509  24.641  1.00  0.00     0.016 A 
ATOM     85  C   UNL A   1      33.028  22.416  25.768  1.00  0.00     0.074 A 
ATOM     86  C   UNL A   1      34.387  20.245  24.618  1.00  0.00     0.001 A 
ATOM     87  C   UNL A   1      32.417  21.152  25.678  1.00  0.00     0.016 A 
ATOM     88  C   UNL A   1      33.100  20.070  25.122  1.00  0.00     0.001 A 
BRANCH  85  89
ATOM     89  C   UNL A   1      32.237  23.473  26.435  1.00  0.00     0.339 C 
ATOM     90  O   UNL A   1      31.947  23.449  27.622  1.00  0.00    -0.246 OA
BRANCH  89  91
ATOM     91  O   UNL A   1      31.894  24.426  25.549  1.00  0.00    -0.462 OA
BRANCH  91  92
ATOM     92  C   UNL A   1      31.619  25.737  26.051  1.00  0.00     0.237 C 
BRANCH  92  93
ATOM     93  C   UNL A   1      30.814  26.505  25.002  1.00  0.00     0.030 C 
ATOM     94  C   UNL A   1      30.543  25.723  23.696  1.00  0.00     0.011 C 
ATOM     95  C   UNL A   1      31.584  27.747  24.507  1.00  0.00    -0.004 C 
ATOM     96  C   UNL A   1      31.048  26.699  22.620  1.00  0.00    -0.010 C 
ATOM     97  C   UNL A   1      30.561  28.701  23.878  1.00  0.00     0.004 C 
ATOM     98  C   UNL A   1      32.323  27.222  23.278  1.00  0.00     0.007 C 
ATOM     99  C   UNL A   1      30.153  27.955  22.601  1.00  0.00     0.004 C 
ENDBRANCH  92  93
ENDBRANCH  91  92
ENDBRANCH  89  91
ENDBRANCH  85  89
ENDBRANCH  81  83
ENDBRANCH  80  81
ENDBRANCH  79  80
ENDBRANCH  78  79
ENDBRANCH  77  78
ENDBRANCH  76  77
ENDBRANCH   1  76
TORSDOF 27
ENDMDL
