MODEL 1
REMARK VINA RESULT:      -8.7      0.000      0.000
REMARK SMILES C[C@@H](C(=O)OCCOCCOCCOCCOC(=O)c1ccc(-c2c3nc(c(-c4cc(S(=O)(=O)[O-])ccc4F)c4ccc([nH]4)c(-c4cc(S(=O)(=O)[O-])ccc4F)c4nc(c(-c5cc(S(=O)(=O)[O-])ccc5F)c5ccc2[nH]5)C=C4)C=C3)cc1)c1ccc(-c2ccccc2)cc1
REMARK SMILES IDX 12 1 11 2 10 3 9 4 8 5 7 6 6 7 5 8 3 9 4 10 2 11 1 12 83 13
REMARK SMILES IDX 84 14 94 15 85 16 93 17 86 18 87 19 88 20 92 21 89 22 91 23
REMARK SMILES IDX 90 24 13 25 14 26 15 27 16 28 17 29 18 30 19 31 20 32 21 33
REMARK SMILES IDX 82 34 22 35 81 36 23 37 24 38 25 39 75 40 26 41 80 42 74 43
REMARK SMILES IDX 76 44 27 45 79 46 73 47 72 48 28 50 60 51 40 52 59 53 41 54
REMARK SMILES IDX 44 55 58 56 77 57 42 58 43 59 57 61 78 62 45 63 29 64 30 65
REMARK SMILES IDX 38 66 31 67 37 68 39 69 36 70 32 71 33 72 34 73 35 74 61 75
REMARK SMILES IDX 62 76 70 77 63 78 69 79 71 80 68 81 64 82 65 83 66 84 67 85
REMARK SMILES IDX 46 86 47 87 55 88 48 89 54 90 56 91 53 92 49 93 50 94 51 95
REMARK SMILES IDX 52 96
REMARK H PARENT 76 49 44 60
REMARK Flexibility Score: inf
ROOT
ATOM      1  C   UNL A   1      35.019  34.894  34.145  1.00  0.00     0.188 C 
ENDROOT
BRANCH   1   2
ATOM      2  O   UNL A   1      34.998  36.005  33.262  1.00  0.00    -0.377 OA
BRANCH   2   3
ATOM      3  C   UNL A   1      33.875  36.853  33.353  1.00  0.00     0.188 C 
BRANCH   3   4
ATOM      4  C   UNL A   1      33.706  37.838  32.178  1.00  0.00     0.188 C 
BRANCH   4   5
ATOM      5  O   UNL A   1      32.813  37.542  31.117  1.00  0.00    -0.376 OA
BRANCH   5   6
ATOM      6  C   UNL A   1      32.755  36.224  30.590  1.00  0.00     0.202 C 
BRANCH   6   7
ATOM      7  C   UNL A   1      33.458  35.846  29.268  1.00  0.00     0.261 C 
BRANCH   7   8
ATOM      8  O   UNL A   1      32.999  34.659  28.588  1.00  0.00    -0.463 OA
BRANCH   8   9
ATOM      9  C   UNL A   1      33.609  33.491  28.914  1.00  0.00     0.313 C 
ATOM     10  O   UNL A   1      33.994  33.219  30.048  1.00  0.00    -0.252 OA
BRANCH   9  11
ATOM     11  C   UNL A   1      33.776  32.509  27.732  1.00  0.00     0.126 C 
ATOM     12  C   UNL A   1      32.553  31.735  27.224  1.00  0.00     0.025 C 
BRANCH  11  13
ATOM     13  C   UNL A   1      35.007  31.624  27.947  1.00  0.00    -0.034 A 
ATOM     14  C   UNL A   1      36.306  32.134  28.090  1.00  0.00     0.005 A 
ATOM     15  C   UNL A   1      34.858  30.235  27.878  1.00  0.00     0.005 A 
ATOM     16  C   UNL A   1      37.424  31.289  28.083  1.00  0.00     0.009 A 
ATOM     17  C   UNL A   1      35.973  29.391  27.906  1.00  0.00     0.009 A 
ATOM     18  C   UNL A   1      37.277  29.900  27.980  1.00  0.00    -0.018 A 
BRANCH  18  19
ATOM     19  C   UNL A   1      38.447  29.003  27.936  1.00  0.00    -0.018 A 
ATOM     20  C   UNL A   1      38.567  27.916  28.817  1.00  0.00     0.009 A 
ATOM     21  C   UNL A   1      39.478  29.207  27.002  1.00  0.00     0.009 A 
ATOM     22  C   UNL A   1      39.666  27.054  28.755  1.00  0.00     0.001 A 
ATOM     23  C   UNL A   1      40.575  28.345  26.935  1.00  0.00     0.001 A 
ATOM     24  C   UNL A   1      40.666  27.266  27.810  1.00  0.00     0.000 A 
ENDBRANCH  18  19
ENDBRANCH  11  13
ENDBRANCH   9  11
ENDBRANCH   8   9
ENDBRANCH   7   8
ENDBRANCH   6   7
ENDBRANCH   5   6
ENDBRANCH   4   5
ENDBRANCH   3   4
ENDBRANCH   2   3
ENDBRANCH   1   2
BRANCH   1  25
ATOM     25  C   UNL A   1      34.334  33.596  33.679  1.00  0.00     0.188 C 
BRANCH  25  26
ATOM     26  O   UNL A   1      35.222  32.489  33.541  1.00  0.00    -0.376 OA
BRANCH  26  27
ATOM     27  C   UNL A   1      36.548  32.732  33.094  1.00  0.00     0.202 C 
BRANCH  27  28
ATOM     28  C   UNL A   1      36.865  32.426  31.620  1.00  0.00     0.261 C 
BRANCH  28  29
ATOM     29  O   UNL A   1      37.938  31.506  31.369  1.00  0.00    -0.460 OA
BRANCH  29  30
ATOM     30  C   UNL A   1      37.730  30.203  31.653  1.00  0.00     0.338 C 
ATOM     31  O   UNL A   1      36.704  29.572  31.463  1.00  0.00    -0.246 OA
BRANCH  30  32
ATOM     32  C   UNL A   1      39.032  29.611  32.032  1.00  0.00     0.060 A 
ATOM     33  C   UNL A   1      40.168  30.431  32.047  1.00  0.00     0.016 A 
ATOM     34  C   UNL A   1      39.127  28.266  32.396  1.00  0.00     0.016 A 
ATOM     35  C   UNL A   1      41.410  29.900  32.394  1.00  0.00     0.010 A 
ATOM     36  C   UNL A   1      40.378  27.728  32.715  1.00  0.00     0.010 A 
ATOM     37  C   UNL A   1      41.530  28.534  32.682  1.00  0.00    -0.014 A 
BRANCH  37  38
ATOM     38  C   UNL A   1      42.876  27.911  32.722  1.00  0.00     0.031 A 
ATOM     39  C   UNL A   1      43.452  27.567  34.070  1.00  0.00     0.074 A 
ATOM     40  C   UNL A   1      43.559  27.627  31.599  1.00  0.00     0.049 A 
ATOM     41  N   UNL A   1      44.624  27.073  34.375  1.00  0.00    -0.248 NA
ATOM     42  C   UNL A   1      42.585  27.823  35.231  1.00  0.00     0.031 C 
ATOM     43  C   UNL A   1      43.078  27.854  30.238  1.00  0.00     0.029 A 
ATOM     44  N   UNL A   1      44.809  27.086  31.428  1.00  0.00    -0.354 N 
ATOM     45  C   UNL A   1      44.638  26.967  35.762  1.00  0.00     0.074 A 
ATOM     46  C   UNL A   1      43.373  27.483  36.238  1.00  0.00     0.031 C 
ATOM     47  C   UNL A   1      44.028  27.461  29.369  1.00  0.00     0.029 A 
ATOM     48  C   UNL A   1      45.200  26.999  30.112  1.00  0.00     0.049 A 
ATOM     49  H   UNL A   1      45.374  26.789  32.177  1.00  0.00     0.167 HD
ATOM     50  C   UNL A   1      45.616  26.479  36.564  1.00  0.00     0.034 A 
ATOM     51  C   UNL A   1      46.379  26.618  29.574  1.00  0.00     0.034 A 
ATOM     52  C   UNL A   1      46.876  25.980  36.072  1.00  0.00     0.049 A 
ATOM     53  C   UNL A   1      47.494  26.177  30.496  1.00  0.00     0.074 A 
ATOM     54  C   UNL A   1      47.932  25.451  36.794  1.00  0.00     0.029 A 
ATOM     55  N   UNL A   1      47.260  25.964  34.737  1.00  0.00    -0.354 N 
ATOM     56  N   UNL A   1      47.497  26.077  31.806  1.00  0.00    -0.248 NA
ATOM     57  C   UNL A   1      48.764  25.793  29.865  1.00  0.00     0.031 C 
ATOM     58  C   UNL A   1      48.984  25.198  35.908  1.00  0.00     0.029 A 
ATOM     59  C   UNL A   1      48.552  25.475  34.621  1.00  0.00     0.049 A 
ATOM     60  H   UNL A   1      46.698  26.257  33.985  1.00  0.00     0.167 HD
ATOM     61  C   UNL A   1      48.755  25.580  32.148  1.00  0.00     0.074 A 
ATOM     62  C   UNL A   1      49.476  25.392  30.908  1.00  0.00     0.031 C 
ATOM     63  C   UNL A   1      49.264  25.298  33.375  1.00  0.00     0.034 A 
BRANCH  50  64
ATOM     64  C   UNL A   1      45.380  26.526  38.054  1.00  0.00     0.023 A 
ATOM     65  C   UNL A   1      45.480  27.722  38.787  1.00  0.00     0.031 A 
ATOM     66  C   UNL A   1      45.078  25.346  38.758  1.00  0.00     0.131 A 
ATOM     67  C   UNL A   1      45.350  27.698  40.185  1.00  0.00     0.055 A 
ATOM     68  C   UNL A   1      44.864  25.345  40.138  1.00  0.00     0.041 A 
ATOM     69  F   UNL A   1      44.998  24.170  38.118  1.00  0.00    -0.206 F 
ATOM     70  C   UNL A   1      45.014  26.523  40.861  1.00  0.00     0.022 A 
BRANCH  67  71
ATOM     71  S   UNL A   1      45.775  29.193  41.120  1.00  0.00     0.124 S 
ATOM     72  O   UNL A   1      45.788  28.690  42.492  1.00  0.00    -0.237 OA
ATOM     73  O   UNL A   1      47.072  29.557  40.561  1.00  0.00    -0.237 OA
ATOM     74  O   UNL A   1      44.682  30.113  40.812  1.00  0.00    -0.744 OA
ENDBRANCH  67  71
ENDBRANCH  50  64
BRANCH  51  75
ATOM     75  C   UNL A   1      46.596  26.671  28.098  1.00  0.00     0.023 A 
ATOM     76  C   UNL A   1      46.273  25.579  27.275  1.00  0.00     0.031 A 
ATOM     77  C   UNL A   1      47.202  27.789  27.496  1.00  0.00     0.131 A 
ATOM     78  C   UNL A   1      46.605  25.607  25.911  1.00  0.00     0.055 A 
ATOM     79  C   UNL A   1      47.472  27.837  26.127  1.00  0.00     0.041 A 
ATOM     80  F   UNL A   1      47.542  28.858  28.235  1.00  0.00    -0.206 F 
ATOM     81  C   UNL A   1      47.187  26.735  25.328  1.00  0.00     0.022 A 
BRANCH  78  82
ATOM     82  S   UNL A   1      46.362  24.102  24.927  1.00  0.00     0.124 S 
ATOM     83  O   UNL A   1      47.314  24.304  23.840  1.00  0.00    -0.237 OA
ATOM     84  O   UNL A   1      46.694  23.056  25.887  1.00  0.00    -0.237 OA
ATOM     85  O   UNL A   1      44.953  24.171  24.545  1.00  0.00    -0.744 OA
ENDBRANCH  78  82
ENDBRANCH  51  75
BRANCH  63  86
ATOM     86  C   UNL A   1      50.651  24.698  33.430  1.00  0.00     0.023 A 
ATOM     87  C   UNL A   1      51.808  25.495  33.464  1.00  0.00     0.031 A 
ATOM     88  C   UNL A   1      50.814  23.300  33.450  1.00  0.00     0.131 A 
ATOM     89  C   UNL A   1      53.075  24.890  33.455  1.00  0.00     0.055 A 
ATOM     90  C   UNL A   1      52.074  22.705  33.513  1.00  0.00     0.041 A 
ATOM     91  F   UNL A   1      49.745  22.486  33.416  1.00  0.00    -0.206 F 
ATOM     92  C   UNL A   1      53.214  23.501  33.500  1.00  0.00     0.022 A 
BRANCH  89  93
ATOM     93  S   UNL A   1      54.542  25.942  33.275  1.00  0.00     0.124 S 
ATOM     94  O   UNL A   1      54.395  26.436  31.910  1.00  0.00    -0.237 OA
ATOM     95  O   UNL A   1      54.351  26.928  34.333  1.00  0.00    -0.237 OA
ATOM     96  O   UNL A   1      55.655  25.018  33.484  1.00  0.00    -0.744 OA
ENDBRANCH  89  93
ENDBRANCH  63  86
ENDBRANCH  37  38
ENDBRANCH  30  32
ENDBRANCH  29  30
ENDBRANCH  28  29
ENDBRANCH  27  28
ENDBRANCH  26  27
ENDBRANCH  25  26
ENDBRANCH   1  25
TORSDOF 25
ENDMDL
MODEL 2
REMARK VINA RESULT:      -8.5      1.795      2.041
REMARK SMILES C[C@@H](C(=O)OCCOCCOCCOCCOC(=O)c1ccc(-c2c3nc(c(-c4cc(S(=O)(=O)[O-])ccc4F)c4ccc([nH]4)c(-c4cc(S(=O)(=O)[O-])ccc4F)c4nc(c(-c5cc(S(=O)(=O)[O-])ccc5F)c5ccc2[nH]5)C=C4)C=C3)cc1)c1ccc(-c2ccccc2)cc1
REMARK SMILES IDX 12 1 11 2 10 3 9 4 8 5 7 6 6 7 5 8 3 9 4 10 2 11 1 12 83 13
REMARK SMILES IDX 84 14 94 15 85 16 93 17 86 18 87 19 88 20 92 21 89 22 91 23
REMARK SMILES IDX 90 24 13 25 14 26 15 27 16 28 17 29 18 30 19 31 20 32 21 33
REMARK SMILES IDX 82 34 22 35 81 36 23 37 24 38 25 39 75 40 26 41 80 42 74 43
REMARK SMILES IDX 76 44 27 45 79 46 73 47 72 48 28 50 60 51 40 52 59 53 41 54
REMARK SMILES IDX 44 55 58 56 77 57 42 58 43 59 57 61 78 62 45 63 29 64 30 65
REMARK SMILES IDX 38 66 31 67 37 68 39 69 36 70 32 71 33 72 34 73 35 74 61 75
REMARK SMILES IDX 62 76 70 77 63 78 69 79 71 80 68 81 64 82 65 83 66 84 67 85
REMARK SMILES IDX 46 86 47 87 55 88 48 89 54 90 56 91 53 92 49 93 50 94 51 95
REMARK SMILES IDX 52 96
REMARK H PARENT 76 49 44 60
REMARK Flexibility Score: inf
ROOT
ATOM      1  C   UNL A   1      35.054  34.940  34.068  1.00  0.00     0.188 C 
ENDROOT
BRANCH   1   2
ATOM      2  O   UNL A   1      34.972  36.020  33.151  1.00  0.00    -0.377 OA
BRANCH   2   3
ATOM      3  C   UNL A   1      33.836  36.849  33.263  1.00  0.00     0.188 C 
BRANCH   3   4
ATOM      4  C   UNL A   1      33.636  37.839  32.098  1.00  0.00     0.188 C 
BRANCH   4   5
ATOM      5  O   UNL A   1      32.876  37.464  30.960  1.00  0.00    -0.376 OA
BRANCH   5   6
ATOM      6  C   UNL A   1      32.836  36.103  30.555  1.00  0.00     0.202 C 
BRANCH   6   7
ATOM      7  C   UNL A   1      33.815  35.538  29.504  1.00  0.00     0.261 C 
BRANCH   7   8
ATOM      8  O   UNL A   1      33.368  34.417  28.715  1.00  0.00    -0.463 OA
BRANCH   8   9
ATOM      9  C   UNL A   1      33.862  33.197  29.046  1.00  0.00     0.313 C 
ATOM     10  O   UNL A   1      34.137  32.864  30.195  1.00  0.00    -0.252 OA
BRANCH   9  11
ATOM     11  C   UNL A   1      34.046  32.238  27.847  1.00  0.00     0.126 C 
ATOM     12  C   UNL A   1      32.836  31.457  27.321  1.00  0.00     0.025 C 
BRANCH  11  13
ATOM     13  C   UNL A   1      35.288  31.367  28.051  1.00  0.00    -0.034 A 
ATOM     14  C   UNL A   1      36.565  31.892  28.300  1.00  0.00     0.005 A 
ATOM     15  C   UNL A   1      35.180  29.985  27.861  1.00  0.00     0.005 A 
ATOM     16  C   UNL A   1      37.704  31.076  28.280  1.00  0.00     0.009 A 
ATOM     17  C   UNL A   1      36.314  29.167  27.876  1.00  0.00     0.009 A 
ATOM     18  C   UNL A   1      37.600  29.697  28.057  1.00  0.00    -0.018 A 
BRANCH  18  19
ATOM     19  C   UNL A   1      38.794  28.834  27.998  1.00  0.00    -0.018 A 
ATOM     20  C   UNL A   1      39.019  27.834  28.958  1.00  0.00     0.009 A 
ATOM     21  C   UNL A   1      39.743  28.984  26.972  1.00  0.00     0.009 A 
ATOM     22  C   UNL A   1      40.140  27.001  28.884  1.00  0.00     0.001 A 
ATOM     23  C   UNL A   1      40.862  28.151  26.894  1.00  0.00     0.001 A 
ATOM     24  C   UNL A   1      41.057  27.157  27.848  1.00  0.00     0.000 A 
ENDBRANCH  18  19
ENDBRANCH  11  13
ENDBRANCH   9  11
ENDBRANCH   8   9
ENDBRANCH   7   8
ENDBRANCH   6   7
ENDBRANCH   5   6
ENDBRANCH   4   5
ENDBRANCH   3   4
ENDBRANCH   2   3
ENDBRANCH   1   2
BRANCH   1  25
ATOM     25  C   UNL A   1      34.406  33.604  33.660  1.00  0.00     0.188 C 
BRANCH  25  26
ATOM     26  O   UNL A   1      35.327  32.521  33.556  1.00  0.00    -0.376 OA
BRANCH  26  27
ATOM     27  C   UNL A   1      36.648  32.791  33.111  1.00  0.00     0.202 C 
BRANCH  27  28
ATOM     28  C   UNL A   1      37.032  32.310  31.700  1.00  0.00     0.261 C 
BRANCH  28  29
ATOM     29  O   UNL A   1      38.174  31.445  31.602  1.00  0.00    -0.460 OA
BRANCH  29  30
ATOM     30  C   UNL A   1      37.986  30.127  31.826  1.00  0.00     0.338 C 
ATOM     31  O   UNL A   1      36.991  29.477  31.556  1.00  0.00    -0.246 OA
BRANCH  30  32
ATOM     32  C   UNL A   1      39.282  29.554  32.256  1.00  0.00     0.060 A 
ATOM     33  C   UNL A   1      40.413  30.381  32.272  1.00  0.00     0.016 A 
ATOM     34  C   UNL A   1      39.375  28.222  32.665  1.00  0.00     0.016 A 
ATOM     35  C   UNL A   1      41.649  29.868  32.666  1.00  0.00     0.010 A 
ATOM     36  C   UNL A   1      40.619  27.702  33.032  1.00  0.00     0.010 A 
ATOM     37  C   UNL A   1      41.768  28.513  33.001  1.00  0.00    -0.014 A 
BRANCH  37  38
ATOM     38  C   UNL A   1      43.116  27.898  33.094  1.00  0.00     0.031 A 
ATOM     39  C   UNL A   1      43.710  27.709  34.465  1.00  0.00     0.074 A 
ATOM     40  C   UNL A   1      43.785  27.490  32.002  1.00  0.00     0.049 A 
ATOM     41  N   UNL A   1      44.885  27.253  34.808  1.00  0.00    -0.248 NA
ATOM     42  C   UNL A   1      42.857  28.094  35.600  1.00  0.00     0.031 C 
ATOM     43  C   UNL A   1      43.286  27.562  30.629  1.00  0.00     0.029 A 
ATOM     44  N   UNL A   1      45.034  26.934  31.876  1.00  0.00    -0.354 N 
ATOM     45  C   UNL A   1      44.917  27.304  36.198  1.00  0.00     0.074 A 
ATOM     46  C   UNL A   1      43.658  27.870  36.629  1.00  0.00     0.031 C 
ATOM     47  C   UNL A   1      44.226  27.074  29.799  1.00  0.00     0.029 A 
ATOM     48  C   UNL A   1      45.408  26.699  30.574  1.00  0.00     0.049 A 
ATOM     49  H   UNL A   1      45.609  26.723  32.647  1.00  0.00     0.167 HD
ATOM     50  C   UNL A   1      45.906  26.909  37.038  1.00  0.00     0.034 A 
ATOM     51  C   UNL A   1      46.580  26.260  30.068  1.00  0.00     0.034 A 
ATOM     52  C   UNL A   1      47.161  26.359  36.589  1.00  0.00     0.049 A 
ATOM     53  C   UNL A   1      47.708  25.926  31.019  1.00  0.00     0.074 A 
ATOM     54  C   UNL A   1      48.226  25.914  37.353  1.00  0.00     0.029 A 
ATOM     55  N   UNL A   1      47.528  26.192  35.260  1.00  0.00    -0.354 N 
ATOM     56  N   UNL A   1      47.728  25.974  32.332  1.00  0.00    -0.248 NA
ATOM     57  C   UNL A   1      48.971  25.474  30.419  1.00  0.00     0.031 C 
ATOM     58  C   UNL A   1      49.268  25.564  36.487  1.00  0.00     0.029 A 
ATOM     59  C   UNL A   1      48.819  25.693  35.183  1.00  0.00     0.049 A 
ATOM     60  H   UNL A   1      46.955  26.398  34.486  1.00  0.00     0.167 HD
ATOM     61  C   UNL A   1      48.991  25.519  32.711  1.00  0.00     0.074 A 
ATOM     62  C   UNL A   1      49.696  25.193  31.491  1.00  0.00     0.031 C 
ATOM     63  C   UNL A   1      49.516  25.377  33.956  1.00  0.00     0.034 A 
BRANCH  50  64
ATOM     64  C   UNL A   1      45.689  27.124  38.516  1.00  0.00     0.023 A 
ATOM     65  C   UNL A   1      46.116  28.293  39.170  1.00  0.00     0.031 A 
ATOM     66  C   UNL A   1      45.068  26.126  39.290  1.00  0.00     0.131 A 
ATOM     67  C   UNL A   1      45.981  28.405  40.563  1.00  0.00     0.055 A 
ATOM     68  C   UNL A   1      44.860  26.281  40.662  1.00  0.00     0.041 A 
ATOM     69  F   UNL A   1      44.666  24.977  38.728  1.00  0.00    -0.206 F 
ATOM     70  C   UNL A   1      45.330  27.420  41.308  1.00  0.00     0.022 A 
BRANCH  67  71
ATOM     71  S   UNL A   1      46.804  29.785  41.405  1.00  0.00     0.124 S 
ATOM     72  O   UNL A   1      47.298  29.137  42.618  1.00  0.00    -0.237 OA
ATOM     73  O   UNL A   1      47.817  30.187  40.437  1.00  0.00    -0.237 OA
ATOM     74  O   UNL A   1      45.725  30.748  41.618  1.00  0.00    -0.744 OA
ENDBRANCH  67  71
ENDBRANCH  50  64
BRANCH  51  75
ATOM     75  C   UNL A   1      46.779  26.147  28.592  1.00  0.00     0.023 A 
ATOM     76  C   UNL A   1      47.243  27.236  27.836  1.00  0.00     0.031 A 
ATOM     77  C   UNL A   1      46.436  24.969  27.903  1.00  0.00     0.131 A 
ATOM     78  C   UNL A   1      47.299  27.144  26.436  1.00  0.00     0.055 A 
ATOM     79  C   UNL A   1      46.555  24.861  26.516  1.00  0.00     0.041 A 
ATOM     80  F   UNL A   1      45.977  23.900  28.574  1.00  0.00    -0.206 F 
ATOM     81  C   UNL A   1      46.974  25.959  25.772  1.00  0.00     0.022 A 
BRANCH  78  82
ATOM     82  S   UNL A   1      47.703  28.634  25.483  1.00  0.00     0.124 S 
ATOM     83  O   UNL A   1      48.597  29.335  26.397  1.00  0.00    -0.237 OA
ATOM     84  O   UNL A   1      48.319  28.071  24.287  1.00  0.00    -0.237 OA
ATOM     85  O   UNL A   1      46.402  29.266  25.274  1.00  0.00    -0.744 OA
ENDBRANCH  78  82
ENDBRANCH  51  75
BRANCH  63  86
ATOM     86  C   UNL A   1      50.904  24.788  34.061  1.00  0.00     0.023 A 
ATOM     87  C   UNL A   1      51.122  23.404  34.170  1.00  0.00     0.031 A 
ATOM     88  C   UNL A   1      52.030  25.633  34.050  1.00  0.00     0.131 A 
ATOM     89  C   UNL A   1      52.427  22.911  34.325  1.00  0.00     0.055 A 
ATOM     90  C   UNL A   1      53.330  25.131  34.133  1.00  0.00     0.041 A 
ATOM     91  F   UNL A   1      51.885  26.965  33.952  1.00  0.00    -0.206 F 
ATOM     92  C   UNL A   1      53.533  23.764  34.286  1.00  0.00     0.022 A 
BRANCH  89  93
ATOM     93  S   UNL A   1      52.656  21.147  34.685  1.00  0.00     0.124 S 
ATOM     94  O   UNL A   1      54.109  21.040  34.760  1.00  0.00    -0.237 OA
ATOM     95  O   UNL A   1      51.940  20.991  35.947  1.00  0.00    -0.237 OA
ATOM     96  O   UNL A   1      52.042  20.481  33.539  1.00  0.00    -0.744 OA
ENDBRANCH  89  93
ENDBRANCH  63  86
ENDBRANCH  37  38
ENDBRANCH  30  32
ENDBRANCH  29  30
ENDBRANCH  28  29
ENDBRANCH  27  28
ENDBRANCH  26  27
ENDBRANCH  25  26
ENDBRANCH   1  25
TORSDOF 25
ENDMDL
MODEL 3
REMARK VINA RESULT:      -7.7      3.453      9.647
REMARK SMILES C[C@@H](C(=O)OCCOCCOCCOCCOC(=O)c1ccc(-c2c3nc(c(-c4cc(S(=O)(=O)[O-])ccc4F)c4ccc([nH]4)c(-c4cc(S(=O)(=O)[O-])ccc4F)c4nc(c(-c5cc(S(=O)(=O)[O-])ccc5F)c5ccc2[nH]5)C=C4)C=C3)cc1)c1ccc(-c2ccccc2)cc1
REMARK SMILES IDX 12 1 11 2 10 3 9 4 8 5 7 6 6 7 5 8 3 9 4 10 2 11 1 12 83 13
REMARK SMILES IDX 84 14 94 15 85 16 93 17 86 18 87 19 88 20 92 21 89 22 91 23
REMARK SMILES IDX 90 24 13 25 14 26 15 27 16 28 17 29 18 30 19 31 20 32 21 33
REMARK SMILES IDX 82 34 22 35 81 36 23 37 24 38 25 39 75 40 26 41 80 42 74 43
REMARK SMILES IDX 76 44 27 45 79 46 73 47 72 48 28 50 60 51 40 52 59 53 41 54
REMARK SMILES IDX 44 55 58 56 77 57 42 58 43 59 57 61 78 62 45 63 29 64 30 65
REMARK SMILES IDX 38 66 31 67 37 68 39 69 36 70 32 71 33 72 34 73 35 74 61 75
REMARK SMILES IDX 62 76 70 77 63 78 69 79 71 80 68 81 64 82 65 83 66 84 67 85
REMARK SMILES IDX 46 86 47 87 55 88 48 89 54 90 56 91 53 92 49 93 50 94 51 95
REMARK SMILES IDX 52 96
REMARK H PARENT 76 49 44 60
REMARK Flexibility Score: inf
ROOT
ATOM      1  C   UNL A   1      40.431  28.891  26.736  1.00  0.00     0.188 C 
ENDROOT
BRANCH   1   2
ATOM      2  O   UNL A   1      40.861  27.649  27.273  1.00  0.00    -0.377 OA
BRANCH   2   3
ATOM      3  C   UNL A   1      39.967  26.567  27.134  1.00  0.00     0.188 C 
BRANCH   3   4
ATOM      4  C   UNL A   1      40.635  25.179  27.047  1.00  0.00     0.188 C 
BRANCH   4   5
ATOM      5  O   UNL A   1      39.888  24.006  27.324  1.00  0.00    -0.376 OA
BRANCH   5   6
ATOM      6  C   UNL A   1      39.606  23.085  26.280  1.00  0.00     0.202 C 
BRANCH   6   7
ATOM      7  C   UNL A   1      38.192  22.504  26.068  1.00  0.00     0.261 C 
BRANCH   7   8
ATOM      8  O   UNL A   1      37.220  23.344  25.412  1.00  0.00    -0.463 OA
BRANCH   8   9
ATOM      9  C   UNL A   1      35.984  22.818  25.219  1.00  0.00     0.313 C 
ATOM     10  O   UNL A   1      35.675  22.151  24.236  1.00  0.00    -0.252 OA
BRANCH   9  11
ATOM     11  C   UNL A   1      34.980  23.120  26.355  1.00  0.00     0.126 C 
ATOM     12  C   UNL A   1      34.413  21.957  27.180  1.00  0.00     0.025 C 
BRANCH  11  13
ATOM     13  C   UNL A   1      33.907  24.099  25.871  1.00  0.00    -0.034 A 
ATOM     14  C   UNL A   1      32.607  23.705  25.520  1.00  0.00     0.005 A 
ATOM     15  C   UNL A   1      34.264  25.432  25.647  1.00  0.00     0.005 A 
ATOM     16  C   UNL A   1      31.723  24.592  24.893  1.00  0.00     0.009 A 
ATOM     17  C   UNL A   1      33.368  26.326  25.053  1.00  0.00     0.009 A 
ATOM     18  C   UNL A   1      32.091  25.919  24.639  1.00  0.00    -0.018 A 
BRANCH  18  19
ATOM     19  C   UNL A   1      31.182  26.852  23.948  1.00  0.00    -0.018 A 
ATOM     20  C   UNL A   1      29.788  26.695  24.013  1.00  0.00     0.009 A 
ATOM     21  C   UNL A   1      31.686  27.935  23.206  1.00  0.00     0.009 A 
ATOM     22  C   UNL A   1      28.930  27.598  23.377  1.00  0.00     0.001 A 
ATOM     23  C   UNL A   1      30.831  28.839  22.573  1.00  0.00     0.001 A 
ATOM     24  C   UNL A   1      29.452  28.672  22.662  1.00  0.00     0.000 A 
ENDBRANCH  18  19
ENDBRANCH  11  13
ENDBRANCH   9  11
ENDBRANCH   8   9
ENDBRANCH   7   8
ENDBRANCH   6   7
ENDBRANCH   5   6
ENDBRANCH   4   5
ENDBRANCH   3   4
ENDBRANCH   2   3
ENDBRANCH   1   2
BRANCH   1  25
ATOM     25  C   UNL A   1      39.067  29.437  27.200  1.00  0.00     0.188 C 
BRANCH  25  26
ATOM     26  O   UNL A   1      38.878  29.401  28.612  1.00  0.00    -0.376 OA
BRANCH  26  27
ATOM     27  C   UNL A   1      37.734  28.736  29.128  1.00  0.00     0.202 C 
BRANCH  27  28
ATOM     28  C   UNL A   1      36.595  29.612  29.680  1.00  0.00     0.261 C 
BRANCH  28  29
ATOM     29  O   UNL A   1      36.237  29.412  31.056  1.00  0.00    -0.460 OA
BRANCH  29  30
ATOM     30  C   UNL A   1      36.740  30.270  31.968  1.00  0.00     0.338 C 
ATOM     31  O   UNL A   1      36.153  31.202  32.492  1.00  0.00    -0.246 OA
BRANCH  30  32
ATOM     32  C   UNL A   1      38.060  29.754  32.393  1.00  0.00     0.060 A 
ATOM     33  C   UNL A   1      39.089  30.669  32.658  1.00  0.00     0.016 A 
ATOM     34  C   UNL A   1      38.275  28.384  32.556  1.00  0.00     0.016 A 
ATOM     35  C   UNL A   1      40.347  30.212  33.053  1.00  0.00     0.010 A 
ATOM     36  C   UNL A   1      39.543  27.926  32.924  1.00  0.00     0.010 A 
ATOM     37  C   UNL A   1      40.594  28.836  33.141  1.00  0.00    -0.014 A 
BRANCH  37  38
ATOM     38  C   UNL A   1      41.993  28.349  33.233  1.00  0.00     0.031 A 
ATOM     39  C   UNL A   1      42.708  28.017  31.950  1.00  0.00     0.074 A 
ATOM     40  C   UNL A   1      42.626  28.232  34.413  1.00  0.00     0.049 A 
ATOM     41  N   UNL A   1      43.904  27.523  31.766  1.00  0.00    -0.248 NA
ATOM     42  C   UNL A   1      41.964  28.276  30.707  1.00  0.00     0.031 C 
ATOM     43  C   UNL A   1      42.060  28.584  35.714  1.00  0.00     0.029 A 
ATOM     44  N   UNL A   1      43.889  27.780  34.708  1.00  0.00    -0.354 N 
ATOM     45  C   UNL A   1      44.052  27.403  30.387  1.00  0.00     0.074 A 
ATOM     46  C   UNL A   1      42.811  27.841  29.788  1.00  0.00     0.031 C 
ATOM     47  C   UNL A   1      42.973  28.326  36.670  1.00  0.00     0.029 A 
ATOM     48  C   UNL A   1      44.168  27.750  36.054  1.00  0.00     0.049 A 
ATOM     49  H   UNL A   1      44.535  27.503  34.018  1.00  0.00     0.167 HD
ATOM     50  C   UNL A   1      45.130  26.971  29.686  1.00  0.00     0.034 A 
ATOM     51  C   UNL A   1      45.251  27.283  36.711  1.00  0.00     0.034 A 
ATOM     52  C   UNL A   1      46.355  26.525  30.302  1.00  0.00     0.049 A 
ATOM     53  C   UNL A   1      46.398  26.706  35.913  1.00  0.00     0.074 A 
ATOM     54  C   UNL A   1      47.513  26.080  29.688  1.00  0.00     0.029 A 
ATOM     55  N   UNL A   1      46.578  26.451  31.671  1.00  0.00    -0.354 N 
ATOM     56  N   UNL A   1      46.532  26.600  34.610  1.00  0.00    -0.248 NA
ATOM     57  C   UNL A   1      47.544  26.190  36.674  1.00  0.00     0.031 C 
ATOM     58  C   UNL A   1      48.399  25.654  30.683  1.00  0.00     0.029 A 
ATOM     59  C   UNL A   1      47.837  25.926  31.919  1.00  0.00     0.049 A 
ATOM     60  H   UNL A   1      45.937  26.730  32.363  1.00  0.00     0.167 HD
ATOM     61  C   UNL A   1      47.793  26.043  34.399  1.00  0.00     0.074 A 
ATOM     62  C   UNL A   1      48.381  25.847  35.707  1.00  0.00     0.031 C 
ATOM     63  C   UNL A   1      48.412  25.730  33.231  1.00  0.00     0.034 A 
BRANCH  50  64
ATOM     64  C   UNL A   1      44.998  26.900  28.185  1.00  0.00     0.023 A 
ATOM     65  C   UNL A   1      44.692  25.699  27.519  1.00  0.00     0.031 A 
ATOM     66  C   UNL A   1      45.211  28.050  27.403  1.00  0.00     0.131 A 
ATOM     67  C   UNL A   1      44.678  25.662  26.116  1.00  0.00     0.055 A 
ATOM     68  C   UNL A   1      45.110  28.023  26.011  1.00  0.00     0.041 A 
ATOM     69  F   UNL A   1      45.535  29.217  27.979  1.00  0.00    -0.206 F 
ATOM     70  C   UNL A   1      44.857  26.821  25.358  1.00  0.00     0.022 A 
BRANCH  67  71
ATOM     71  S   UNL A   1      44.575  24.048  25.293  1.00  0.00     0.124 S 
ATOM     72  O   UNL A   1      44.777  23.132  26.414  1.00  0.00    -0.237 OA
ATOM     73  O   UNL A   1      43.235  24.071  24.720  1.00  0.00    -0.237 OA
ATOM     74  O   UNL A   1      45.670  24.086  24.325  1.00  0.00    -0.744 OA
ENDBRANCH  67  71
ENDBRANCH  50  64
BRANCH  51  75
ATOM     75  C   UNL A   1      45.299  27.292  38.203  1.00  0.00     0.023 A 
ATOM     76  C   UNL A   1      45.886  28.359  38.905  1.00  0.00     0.031 A 
ATOM     77  C   UNL A   1      44.827  26.198  38.950  1.00  0.00     0.131 A 
ATOM     78  C   UNL A   1      46.033  28.284  40.299  1.00  0.00     0.055 A 
ATOM     79  C   UNL A   1      44.918  26.157  40.343  1.00  0.00     0.041 A 
ATOM     80  F   UNL A   1      44.266  25.146  38.332  1.00  0.00    -0.206 F 
ATOM     81  C   UNL A   1      45.538  27.198  41.025  1.00  0.00     0.022 A 
BRANCH  78  82
ATOM     82  S   UNL A   1      46.979  29.582  41.144  1.00  0.00     0.124 S 
ATOM     83  O   UNL A   1      45.928  30.531  41.494  1.00  0.00    -0.237 OA
ATOM     84  O   UNL A   1      47.578  28.848  42.252  1.00  0.00    -0.237 OA
ATOM     85  O   UNL A   1      47.917  30.039  40.120  1.00  0.00    -0.744 OA
ENDBRANCH  78  82
ENDBRANCH  51  75
BRANCH  63  86
ATOM     86  C   UNL A   1      49.823  25.196  33.315  1.00  0.00     0.023 A 
ATOM     87  C   UNL A   1      50.106  23.820  33.259  1.00  0.00     0.031 A 
ATOM     88  C   UNL A   1      50.906  26.085  33.452  1.00  0.00     0.131 A 
ATOM     89  C   UNL A   1      51.429  23.371  33.401  1.00  0.00     0.055 A 
ATOM     90  C   UNL A   1      52.225  25.636  33.520  1.00  0.00     0.041 A 
ATOM     91  F   UNL A   1      50.699  27.411  33.515  1.00  0.00    -0.206 F 
ATOM     92  C   UNL A   1      52.491  24.271  33.510  1.00  0.00     0.022 A 
BRANCH  89  93
ATOM     93  S   UNL A   1      51.733  21.588  33.547  1.00  0.00     0.124 S 
ATOM     94  O   UNL A   1      51.830  21.182  32.149  1.00  0.00    -0.237 OA
ATOM     95  O   UNL A   1      52.975  21.545  34.311  1.00  0.00    -0.237 OA
ATOM     96  O   UNL A   1      50.553  21.096  34.256  1.00  0.00    -0.744 OA
ENDBRANCH  89  93
ENDBRANCH  63  86
ENDBRANCH  37  38
ENDBRANCH  30  32
ENDBRANCH  29  30
ENDBRANCH  28  29
ENDBRANCH  27  28
ENDBRANCH  26  27
ENDBRANCH  25  26
ENDBRANCH   1  25
TORSDOF 25
ENDMDL
