MODEL 1
REMARK VINA RESULT:      -9.1      0.000      0.000
REMARK SMILES CCCOC(=O)c1c(NC(=O)[C@@H]2CC=CC[C@H]2C(=O)OCCOCCOCCOCCOC(=O)c2ccc(-c3c4nc(c(-c5cc(S(=O)(=O)[O-])ccc5F)c5ccc([nH]5)c(-c5cc(S(=O)(=O)[O-])ccc5F)c5nc(c(-c6cc(S(=O)(=O)[O-])ccc6F)c6ccc3[nH]6)C=C5)C=C4)cc2)sc2c1CCCC2
REMARK SMILES IDX 24 1 23 2 22 3 21 4 20 5 18 6 19 7 17 8 12 9 13 10 14 11
REMARK SMILES IDX 16 12 15 13 10 14 9 15 11 17 8 18 7 19 100 20 98 21 99 22
REMARK SMILES IDX 101 23 104 24 102 25 103 26 5 27 6 28 4 29 3 30 2 31 1 32
REMARK SMILES IDX 25 33 26 34 27 35 28 36 29 37 30 38 31 39 32 40 33 41 34 42
REMARK SMILES IDX 35 43 36 44 97 45 37 46 96 47 38 48 39 49 40 50 90 51 41 52
REMARK SMILES IDX 95 53 89 54 91 55 42 56 94 57 88 58 87 59 43 61 75 62 55 63
REMARK SMILES IDX 74 64 56 65 59 66 73 67 92 68 57 69 58 70 72 72 93 73 60 74
REMARK SMILES IDX 44 75 45 76 53 77 46 78 52 79 54 80 51 81 47 82 48 83 49 84
REMARK SMILES IDX 50 85 76 86 77 87 85 88 78 89 84 90 86 91 83 92 79 93 80 94
REMARK SMILES IDX 81 95 82 96 61 97 62 98 70 99 63 100 69 101 71 102 68 103
REMARK SMILES IDX 64 104 65 105 66 106 67 107
REMARK H PARENT 9 16 91 60 59 71
REMARK Flexibility Score: inf
ROOT
ATOM      1  C   UNL A   1      39.092  21.688  25.973  1.00  0.00     0.188 C 
ENDROOT
BRANCH   1   2
ATOM      2  O   UNL A   1      37.796  21.489  25.404  1.00  0.00    -0.376 OA
BRANCH   2   3
ATOM      3  C   UNL A   1      37.162  22.600  24.771  1.00  0.00     0.202 C 
BRANCH   3   4
ATOM      4  C   UNL A   1      36.401  23.596  25.664  1.00  0.00     0.261 C 
BRANCH   4   5
ATOM      5  O   UNL A   1      34.961  23.613  25.558  1.00  0.00    -0.463 OA
BRANCH   5   6
ATOM      6  C   UNL A   1      34.434  24.786  25.139  1.00  0.00     0.310 C 
ATOM      7  O   UNL A   1      34.411  25.815  25.813  1.00  0.00    -0.252 OA
BRANCH   6   8
ATOM      8  C   UNL A   1      33.667  24.722  23.836  1.00  0.00     0.116 C 
ATOM      9  C   UNL A   1      33.892  25.748  22.710  1.00  0.00     0.097 C 
ATOM     10  C   UNL A   1      33.014  25.342  21.513  1.00  0.00     0.041 C 
ATOM     11  C   UNL A   1      33.020  23.896  21.145  1.00  0.00    -0.030 C 
ATOM     12  C   UNL A   1      33.994  23.289  23.335  1.00  0.00     0.043 C 
ATOM     13  C   UNL A   1      33.482  22.959  21.973  1.00  0.00    -0.030 C 
BRANCH   9  14
ATOM     14  C   UNL A   1      33.697  27.240  23.069  1.00  0.00     0.229 C 
ATOM     15  N   UNL A   1      32.682  27.620  23.903  1.00  0.00    -0.317 N 
ATOM     16  H   UNL A   1      32.907  27.820  24.840  1.00  0.00     0.170 HD
ATOM     17  O   UNL A   1      34.504  28.087  22.692  1.00  0.00    -0.274 OA
BRANCH  15  18
ATOM     18  C   UNL A   1      31.357  27.744  23.516  1.00  0.00     0.110 A 
ATOM     19  C   UNL A   1      30.190  27.022  23.719  1.00  0.00     0.098 A 
ATOM     20  C   UNL A   1      29.048  27.877  23.465  1.00  0.00    -0.017 A 
ATOM     21  S   UNL A   1      31.095  29.129  22.554  1.00  0.00    -0.122 S 
ATOM     22  C   UNL A   1      29.415  29.017  22.774  1.00  0.00     0.011 A 
ATOM     23  C   UNL A   1      27.622  27.624  23.871  1.00  0.00     0.038 C 
ATOM     24  C   UNL A   1      28.465  30.047  22.251  1.00  0.00     0.047 C 
ATOM     25  C   UNL A   1      26.625  28.571  23.183  1.00  0.00     0.005 C 
ATOM     26  C   UNL A   1      27.159  30.006  23.056  1.00  0.00     0.006 C 
BRANCH  19  27
ATOM     27  C   UNL A   1      30.119  25.624  24.142  1.00  0.00     0.341 C 
ATOM     28  O   UNL A   1      29.996  24.702  23.348  1.00  0.00    -0.246 OA
BRANCH  27  29
ATOM     29  O   UNL A   1      30.156  25.502  25.493  1.00  0.00    -0.462 OA
BRANCH  29  30
ATOM     30  C   UNL A   1      30.809  24.408  26.168  1.00  0.00     0.233 C 
BRANCH  30  31
ATOM     31  C   UNL A   1      30.492  22.961  25.780  1.00  0.00     0.038 C 
ATOM     32  C   UNL A   1      31.696  22.039  25.696  1.00  0.00     0.007 C 
ENDBRANCH  30  31
ENDBRANCH  29  30
ENDBRANCH  27  29
ENDBRANCH  19  27
ENDBRANCH  15  18
ENDBRANCH   9  14
ENDBRANCH   6   8
ENDBRANCH   5   6
ENDBRANCH   4   5
ENDBRANCH   3   4
ENDBRANCH   2   3
ENDBRANCH   1   2
BRANCH   1  33
ATOM     33  C   UNL A   1      39.950  20.436  26.143  1.00  0.00     0.188 C 
BRANCH  33  34
ATOM     34  O   UNL A   1      40.876  20.633  27.197  1.00  0.00    -0.377 OA
BRANCH  34  35
ATOM     35  C   UNL A   1      42.233  20.233  27.014  1.00  0.00     0.188 C 
BRANCH  35  36
ATOM     36  C   UNL A   1      43.016  20.894  25.880  1.00  0.00     0.188 C 
BRANCH  36  37
ATOM     37  O   UNL A   1      43.024  22.323  25.891  1.00  0.00    -0.376 OA
BRANCH  37  38
ATOM     38  C   UNL A   1      44.025  22.965  25.095  1.00  0.00     0.202 C 
BRANCH  38  39
ATOM     39  C   UNL A   1      44.009  24.496  25.128  1.00  0.00     0.261 C 
BRANCH  39  40
ATOM     40  O   UNL A   1      42.681  25.029  24.992  1.00  0.00    -0.460 OA
BRANCH  40  41
ATOM     41  C   UNL A   1      42.057  25.352  26.149  1.00  0.00     0.338 C 
ATOM     42  O   UNL A   1      41.364  24.627  26.841  1.00  0.00    -0.246 OA
BRANCH  41  43
ATOM     43  C   UNL A   1      42.480  26.701  26.565  1.00  0.00     0.060 A 
ATOM     44  C   UNL A   1      43.340  26.829  27.665  1.00  0.00     0.016 A 
ATOM     45  C   UNL A   1      41.961  27.831  25.931  1.00  0.00     0.016 A 
ATOM     46  C   UNL A   1      43.647  28.093  28.167  1.00  0.00     0.010 A 
ATOM     47  C   UNL A   1      42.250  29.095  26.448  1.00  0.00     0.010 A 
ATOM     48  C   UNL A   1      43.060  29.226  27.589  1.00  0.00    -0.014 A 
BRANCH  48  49
ATOM     49  C   UNL A   1      43.100  30.528  28.295  1.00  0.00     0.031 A 
ATOM     50  C   UNL A   1      44.215  31.477  27.958  1.00  0.00     0.074 A 
ATOM     51  C   UNL A   1      42.185  30.841  29.227  1.00  0.00     0.049 A 
ATOM     52  N   UNL A   1      44.556  32.600  28.532  1.00  0.00    -0.248 NA
ATOM     53  C   UNL A   1      45.068  31.098  26.819  1.00  0.00     0.031 C 
ATOM     54  C   UNL A   1      41.030  30.020  29.585  1.00  0.00     0.029 A 
ATOM     55  N   UNL A   1      42.099  31.928  30.059  1.00  0.00    -0.354 N 
ATOM     56  C   UNL A   1      45.661  33.064  27.826  1.00  0.00     0.074 A 
ATOM     57  C   UNL A   1      45.951  32.084  26.802  1.00  0.00     0.031 C 
ATOM     58  C   UNL A   1      40.364  30.621  30.587  1.00  0.00     0.029 A 
ATOM     59  C   UNL A   1      41.072  31.841  30.970  1.00  0.00     0.049 A 
ATOM     60  H   UNL A   1      42.714  32.695  30.009  1.00  0.00     0.167 HD
ATOM     61  C   UNL A   1      46.367  34.205  28.015  1.00  0.00     0.034 A 
ATOM     62  C   UNL A   1      40.773  32.637  32.016  1.00  0.00     0.034 A 
ATOM     63  C   UNL A   1      46.086  35.146  29.068  1.00  0.00     0.049 A 
ATOM     64  C   UNL A   1      41.644  33.844  32.284  1.00  0.00     0.074 A 
ATOM     65  C   UNL A   1      46.749  36.318  29.383  1.00  0.00     0.029 A 
ATOM     66  N   UNL A   1      45.056  35.012  29.992  1.00  0.00    -0.354 N 
ATOM     67  N   UNL A   1      42.700  34.264  31.624  1.00  0.00    -0.248 NA
ATOM     68  C   UNL A   1      41.284  34.681  33.437  1.00  0.00     0.031 C 
ATOM     69  C   UNL A   1      46.157  36.862  30.530  1.00  0.00     0.029 A 
ATOM     70  C   UNL A   1      45.080  36.066  30.889  1.00  0.00     0.049 A 
ATOM     71  H   UNL A   1      44.403  34.275  30.005  1.00  0.00     0.167 HD
ATOM     72  C   UNL A   1      43.106  35.434  32.262  1.00  0.00     0.074 A 
ATOM     73  C   UNL A   1      42.182  35.652  33.356  1.00  0.00     0.031 C 
ATOM     74  C   UNL A   1      44.144  36.260  31.970  1.00  0.00     0.034 A 
BRANCH  61  75
ATOM     75  C   UNL A   1      47.540  34.446  27.099  1.00  0.00     0.023 A 
ATOM     76  C   UNL A   1      48.845  34.068  27.460  1.00  0.00     0.031 A 
ATOM     77  C   UNL A   1      47.361  35.107  25.871  1.00  0.00     0.131 A 
ATOM     78  C   UNL A   1      49.928  34.418  26.639  1.00  0.00     0.055 A 
ATOM     79  C   UNL A   1      48.434  35.387  25.023  1.00  0.00     0.041 A 
ATOM     80  F   UNL A   1      46.141  35.513  25.486  1.00  0.00    -0.206 F 
ATOM     81  C   UNL A   1      49.729  35.054  25.412  1.00  0.00     0.022 A 
BRANCH  78  82
ATOM     82  S   UNL A   1      51.611  34.152  27.261  1.00  0.00     0.124 S 
ATOM     83  O   UNL A   1      52.419  34.632  26.143  1.00  0.00    -0.237 OA
ATOM     84  O   UNL A   1      51.636  34.973  28.466  1.00  0.00    -0.237 OA
ATOM     85  O   UNL A   1      51.668  32.709  27.489  1.00  0.00    -0.744 OA
ENDBRANCH  78  82
ENDBRANCH  61  75
BRANCH  62  86
ATOM     86  C   UNL A   1      39.642  32.301  32.928  1.00  0.00     0.023 A 
ATOM     87  C   UNL A   1      38.369  32.867  32.746  1.00  0.00     0.031 A 
ATOM     88  C   UNL A   1      39.835  31.457  34.036  1.00  0.00     0.131 A 
ATOM     89  C   UNL A   1      37.354  32.619  33.683  1.00  0.00     0.055 A 
ATOM     90  C   UNL A   1      38.807  31.173  34.937  1.00  0.00     0.041 A 
ATOM     91  F   UNL A   1      41.032  30.893  34.260  1.00  0.00    -0.206 F 
ATOM     92  C   UNL A   1      37.560  31.767  34.770  1.00  0.00     0.022 A 
BRANCH  89  93
ATOM     93  S   UNL A   1      35.781  33.506  33.512  1.00  0.00     0.124 S 
ATOM     94  O   UNL A   1      35.364  33.646  34.903  1.00  0.00    -0.237 OA
ATOM     95  O   UNL A   1      36.197  34.732  32.839  1.00  0.00    -0.237 OA
ATOM     96  O   UNL A   1      34.966  32.600  32.704  1.00  0.00    -0.744 OA
ENDBRANCH  89  93
ENDBRANCH  62  86
BRANCH  74  97
ATOM     97  C   UNL A   1      44.288  37.502  32.809  1.00  0.00     0.023 A 
ATOM     98  C   UNL A   1      43.604  38.689  32.500  1.00  0.00     0.031 A 
ATOM     99  C   UNL A   1      45.116  37.486  33.946  1.00  0.00     0.131 A 
ATOM    100  C   UNL A   1      43.792  39.828  33.298  1.00  0.00     0.055 A 
ATOM    101  C   UNL A   1      45.262  38.607  34.763  1.00  0.00     0.041 A 
ATOM    102  F   UNL A   1      45.790  36.375  34.283  1.00  0.00    -0.206 F 
ATOM    103  C   UNL A   1      44.604  39.789  34.436  1.00  0.00     0.022 A 
BRANCH 100 104
ATOM    104  S   UNL A   1      43.004  41.384  32.800  1.00  0.00     0.124 S 
ATOM    105  O   UNL A   1      41.987  41.553  33.834  1.00  0.00    -0.237 OA
ATOM    106  O   UNL A   1      44.116  42.327  32.841  1.00  0.00    -0.237 OA
ATOM    107  O   UNL A   1      42.485  41.094  31.464  1.00  0.00    -0.744 OA
ENDBRANCH 100 104
ENDBRANCH  74  97
ENDBRANCH  48  49
ENDBRANCH  41  43
ENDBRANCH  40  41
ENDBRANCH  39  40
ENDBRANCH  38  39
ENDBRANCH  37  38
ENDBRANCH  36  37
ENDBRANCH  35  36
ENDBRANCH  34  35
ENDBRANCH  33  34
ENDBRANCH   1  33
TORSDOF 29
ENDMDL
MODEL 2
REMARK VINA RESULT:      -8.1      2.063      7.467
REMARK SMILES CCCOC(=O)c1c(NC(=O)[C@@H]2CC=CC[C@H]2C(=O)OCCOCCOCCOCCOC(=O)c2ccc(-c3c4nc(c(-c5cc(S(=O)(=O)[O-])ccc5F)c5ccc([nH]5)c(-c5cc(S(=O)(=O)[O-])ccc5F)c5nc(c(-c6cc(S(=O)(=O)[O-])ccc6F)c6ccc3[nH]6)C=C5)C=C4)cc2)sc2c1CCCC2
REMARK SMILES IDX 24 1 23 2 22 3 21 4 20 5 18 6 19 7 17 8 12 9 13 10 14 11
REMARK SMILES IDX 16 12 15 13 10 14 9 15 11 17 8 18 7 19 100 20 98 21 99 22
REMARK SMILES IDX 101 23 104 24 102 25 103 26 5 27 6 28 4 29 3 30 2 31 1 32
REMARK SMILES IDX 25 33 26 34 27 35 28 36 29 37 30 38 31 39 32 40 33 41 34 42
REMARK SMILES IDX 35 43 36 44 97 45 37 46 96 47 38 48 39 49 40 50 90 51 41 52
REMARK SMILES IDX 95 53 89 54 91 55 42 56 94 57 88 58 87 59 43 61 75 62 55 63
REMARK SMILES IDX 74 64 56 65 59 66 73 67 92 68 57 69 58 70 72 72 93 73 60 74
REMARK SMILES IDX 44 75 45 76 53 77 46 78 52 79 54 80 51 81 47 82 48 83 49 84
REMARK SMILES IDX 50 85 76 86 77 87 85 88 78 89 84 90 86 91 83 92 79 93 80 94
REMARK SMILES IDX 81 95 82 96 61 97 62 98 70 99 63 100 69 101 71 102 68 103
REMARK SMILES IDX 64 104 65 105 66 106 67 107
REMARK H PARENT 9 16 91 60 59 71
REMARK Flexibility Score: inf
ROOT
ATOM      1  C   UNL A   1      38.573  22.332  25.663  1.00  0.00     0.188 C 
ENDROOT
BRANCH   1   2
ATOM      2  O   UNL A   1      37.274  21.995  25.171  1.00  0.00    -0.376 OA
BRANCH   2   3
ATOM      3  C   UNL A   1      36.299  23.034  25.080  1.00  0.00     0.202 C 
BRANCH   3   4
ATOM      4  C   UNL A   1      35.733  23.603  26.393  1.00  0.00     0.261 C 
BRANCH   4   5
ATOM      5  O   UNL A   1      34.396  24.148  26.356  1.00  0.00    -0.463 OA
BRANCH   5   6
ATOM      6  C   UNL A   1      34.175  25.047  25.371  1.00  0.00     0.310 C 
ATOM      7  O   UNL A   1      34.931  25.980  25.101  1.00  0.00    -0.252 OA
BRANCH   6   8
ATOM      8  C   UNL A   1      32.809  24.975  24.724  1.00  0.00     0.116 C 
ATOM      9  C   UNL A   1      32.603  25.266  23.225  1.00  0.00     0.097 C 
ATOM     10  C   UNL A   1      31.120  25.024  22.892  1.00  0.00     0.041 C 
ATOM     11  C   UNL A   1      30.509  23.782  23.447  1.00  0.00    -0.030 C 
ATOM     12  C   UNL A   1      32.367  23.524  25.057  1.00  0.00     0.043 C 
ATOM     13  C   UNL A   1      31.086  23.087  24.428  1.00  0.00    -0.030 C 
BRANCH   9  14
ATOM     14  C   UNL A   1      33.079  26.643  22.706  1.00  0.00     0.229 C 
ATOM     15  N   UNL A   1      32.896  27.766  23.465  1.00  0.00    -0.317 N 
ATOM     16  H   UNL A   1      33.670  28.115  23.963  1.00  0.00     0.170 HD
ATOM     17  O   UNL A   1      33.710  26.733  21.655  1.00  0.00    -0.274 OA
BRANCH  15  18
ATOM     18  C   UNL A   1      31.694  28.445  23.580  1.00  0.00     0.110 A 
ATOM     19  C   UNL A   1      31.154  29.371  24.461  1.00  0.00     0.098 A 
ATOM     20  C   UNL A   1      30.054  30.060  23.817  1.00  0.00    -0.017 A 
ATOM     21  S   UNL A   1      30.609  28.047  22.324  1.00  0.00    -0.122 S 
ATOM     22  C   UNL A   1      29.632  29.388  22.684  1.00  0.00     0.011 A 
ATOM     23  C   UNL A   1      29.406  31.342  24.262  1.00  0.00     0.038 C 
ATOM     24  C   UNL A   1      28.444  29.763  21.856  1.00  0.00     0.047 C 
ATOM     25  C   UNL A   1      28.083  31.630  23.535  1.00  0.00     0.005 C 
ATOM     26  C   UNL A   1      28.128  31.253  22.047  1.00  0.00     0.006 C 
BRANCH  19  27
ATOM     27  C   UNL A   1      31.631  29.628  25.819  1.00  0.00     0.341 C 
ATOM     28  O   UNL A   1      31.647  30.748  26.309  1.00  0.00    -0.246 OA
BRANCH  27  29
ATOM     29  O   UNL A   1      32.085  28.498  26.417  1.00  0.00    -0.462 OA
BRANCH  29  30
ATOM     30  C   UNL A   1      33.221  28.478  27.305  1.00  0.00     0.233 C 
BRANCH  30  31
ATOM     31  C   UNL A   1      34.565  29.058  26.853  1.00  0.00     0.038 C 
ATOM     32  C   UNL A   1      35.518  29.423  27.977  1.00  0.00     0.007 C 
ENDBRANCH  30  31
ENDBRANCH  29  30
ENDBRANCH  27  29
ENDBRANCH  19  27
ENDBRANCH  15  18
ENDBRANCH   9  14
ENDBRANCH   6   8
ENDBRANCH   5   6
ENDBRANCH   4   5
ENDBRANCH   3   4
ENDBRANCH   2   3
ENDBRANCH   1   2
BRANCH   1  33
ATOM     33  C   UNL A   1      39.441  21.163  26.123  1.00  0.00     0.188 C 
BRANCH  33  34
ATOM     34  O   UNL A   1      39.991  21.450  27.396  1.00  0.00    -0.377 OA
BRANCH  34  35
ATOM     35  C   UNL A   1      41.409  21.456  27.555  1.00  0.00     0.188 C 
BRANCH  35  36
ATOM     36  C   UNL A   1      42.212  22.422  26.686  1.00  0.00     0.188 C 
BRANCH  36  37
ATOM     37  O   UNL A   1      42.122  23.799  27.054  1.00  0.00    -0.376 OA
BRANCH  37  38
ATOM     38  C   UNL A   1      43.248  24.623  26.738  1.00  0.00     0.202 C 
BRANCH  38  39
ATOM     39  C   UNL A   1      42.964  26.126  26.669  1.00  0.00     0.261 C 
BRANCH  39  40
ATOM     40  O   UNL A   1      41.561  26.421  26.777  1.00  0.00    -0.460 OA
BRANCH  40  41
ATOM     41  C   UNL A   1      41.124  26.742  28.018  1.00  0.00     0.338 C 
ATOM     42  O   UNL A   1      40.338  26.116  28.708  1.00  0.00    -0.246 OA
BRANCH  41  43
ATOM     43  C   UNL A   1      41.880  27.907  28.510  1.00  0.00     0.060 A 
ATOM     44  C   UNL A   1      42.671  27.761  29.659  1.00  0.00     0.016 A 
ATOM     45  C   UNL A   1      41.740  29.152  27.895  1.00  0.00     0.016 A 
ATOM     46  C   UNL A   1      43.287  28.875  30.227  1.00  0.00     0.010 A 
ATOM     47  C   UNL A   1      42.337  30.270  28.477  1.00  0.00     0.010 A 
ATOM     48  C   UNL A   1      43.079  30.140  29.664  1.00  0.00    -0.014 A 
BRANCH  48  49
ATOM     49  C   UNL A   1      43.437  31.361  30.423  1.00  0.00     0.031 A 
ATOM     50  C   UNL A   1      42.449  31.879  31.431  1.00  0.00     0.074 A 
ATOM     51  C   UNL A   1      44.596  32.004  30.200  1.00  0.00     0.049 A 
ATOM     52  N   UNL A   1      42.457  32.996  32.108  1.00  0.00    -0.248 NA
ATOM     53  C   UNL A   1      41.287  31.016  31.702  1.00  0.00     0.031 C 
ATOM     54  C   UNL A   1      45.649  31.553  29.291  1.00  0.00     0.029 A 
ATOM     55  N   UNL A   1      45.069  33.186  30.707  1.00  0.00    -0.354 N 
ATOM     56  C   UNL A   1      41.305  32.972  32.887  1.00  0.00     0.074 A 
ATOM     57  C   UNL A   1      40.607  31.744  32.573  1.00  0.00     0.031 C 
ATOM     58  C   UNL A   1      46.635  32.467  29.284  1.00  0.00     0.029 A 
ATOM     59  C   UNL A   1      46.262  33.585  30.149  1.00  0.00     0.049 A 
ATOM     60  H   UNL A   1      44.599  33.702  31.403  1.00  0.00     0.167 HD
ATOM     61  C   UNL A   1      40.871  33.891  33.783  1.00  0.00     0.034 A 
ATOM     62  C   UNL A   1      46.943  34.739  30.294  1.00  0.00     0.034 A 
ATOM     63  C   UNL A   1      41.562  35.127  34.049  1.00  0.00     0.049 A 
ATOM     64  C   UNL A   1      46.383  35.804  31.209  1.00  0.00     0.074 A 
ATOM     65  C   UNL A   1      41.205  36.152  34.907  1.00  0.00     0.029 A 
ATOM     66  N   UNL A   1      42.752  35.511  33.444  1.00  0.00    -0.354 N 
ATOM     67  N   UNL A   1      45.282  35.783  31.926  1.00  0.00    -0.248 NA
ATOM     68  C   UNL A   1      47.155  37.048  31.333  1.00  0.00     0.031 C 
ATOM     69  C   UNL A   1      42.148  37.179  34.777  1.00  0.00     0.029 A 
ATOM     70  C   UNL A   1      43.131  36.765  33.891  1.00  0.00     0.049 A 
ATOM     71  H   UNL A   1      43.253  34.970  32.792  1.00  0.00     0.167 HD
ATOM     72  C   UNL A   1      45.251  36.995  32.612  1.00  0.00     0.074 A 
ATOM     73  C   UNL A   1      46.443  37.721  32.225  1.00  0.00     0.031 C 
ATOM     74  C   UNL A   1      44.327  37.466  33.489  1.00  0.00     0.034 A 
BRANCH  61  75
ATOM     75  C   UNL A   1      39.564  33.607  34.479  1.00  0.00     0.023 A 
ATOM     76  C   UNL A   1      38.330  33.801  33.833  1.00  0.00     0.031 A 
ATOM     77  C   UNL A   1      39.547  33.188  35.820  1.00  0.00     0.131 A 
ATOM     78  C   UNL A   1      37.133  33.646  34.549  1.00  0.00     0.055 A 
ATOM     79  C   UNL A   1      38.352  32.963  36.506  1.00  0.00     0.041 A 
ATOM     80  F   UNL A   1      40.694  33.010  36.494  1.00  0.00    -0.206 F 
ATOM     81  C   UNL A   1      37.135  33.205  35.874  1.00  0.00     0.022 A 
BRANCH  78  82
ATOM     82  S   UNL A   1      35.579  34.158  33.765  1.00  0.00     0.124 S 
ATOM     83  O   UNL A   1      36.026  34.492  32.414  1.00  0.00    -0.237 OA
ATOM     84  O   UNL A   1      34.754  32.962  33.887  1.00  0.00    -0.237 OA
ATOM     85  O   UNL A   1      35.148  35.298  34.571  1.00  0.00    -0.744 OA
ENDBRANCH  78  82
ENDBRANCH  61  75
BRANCH  62  86
ATOM     86  C   UNL A   1      48.193  34.985  29.519  1.00  0.00     0.023 A 
ATOM     87  C   UNL A   1      48.149  35.491  28.210  1.00  0.00     0.031 A 
ATOM     88  C   UNL A   1      49.451  34.657  30.056  1.00  0.00     0.131 A 
ATOM     89  C   UNL A   1      49.334  35.608  27.466  1.00  0.00     0.055 A 
ATOM     90  C   UNL A   1      50.631  34.823  29.330  1.00  0.00     0.041 A 
ATOM     91  F   UNL A   1      49.551  34.166  31.302  1.00  0.00    -0.206 F 
ATOM     92  C   UNL A   1      50.575  35.289  28.020  1.00  0.00     0.022 A 
BRANCH  89  93
ATOM     93  S   UNL A   1      49.218  36.096  25.722  1.00  0.00     0.124 S 
ATOM     94  O   UNL A   1      50.321  37.043  25.604  1.00  0.00    -0.237 OA
ATOM     95  O   UNL A   1      49.393  34.818  25.039  1.00  0.00    -0.237 OA
ATOM     96  O   UNL A   1      47.881  36.677  25.620  1.00  0.00    -0.744 OA
ENDBRANCH  89  93
ENDBRANCH  62  86
BRANCH  74  97
ATOM     97  C   UNL A   1      44.609  38.799  34.131  1.00  0.00     0.023 A 
ATOM     98  C   UNL A   1      44.010  39.984  33.675  1.00  0.00     0.031 A 
ATOM     99  C   UNL A   1      45.486  38.874  35.228  1.00  0.00     0.131 A 
ATOM    100  C   UNL A   1      44.326  41.205  34.290  1.00  0.00     0.055 A 
ATOM    101  C   UNL A   1      45.761  40.084  35.866  1.00  0.00     0.041 A 
ATOM    102  F   UNL A   1      46.084  37.769  35.702  1.00  0.00    -0.206 F 
ATOM    103  C   UNL A   1      45.186  41.259  35.392  1.00  0.00     0.022 A 
BRANCH 100 104
ATOM    104  S   UNL A   1      43.644  42.735  33.597  1.00  0.00     0.124 S 
ATOM    105  O   UNL A   1      42.261  42.353  33.322  1.00  0.00    -0.237 OA
ATOM    106  O   UNL A   1      43.837  43.687  34.685  1.00  0.00    -0.237 OA
ATOM    107  O   UNL A   1      44.467  42.973  32.412  1.00  0.00    -0.744 OA
ENDBRANCH 100 104
ENDBRANCH  74  97
ENDBRANCH  48  49
ENDBRANCH  41  43
ENDBRANCH  40  41
ENDBRANCH  39  40
ENDBRANCH  38  39
ENDBRANCH  37  38
ENDBRANCH  36  37
ENDBRANCH  35  36
ENDBRANCH  34  35
ENDBRANCH  33  34
ENDBRANCH   1  33
TORSDOF 29
ENDMDL
MODEL 3
REMARK VINA RESULT:      -7.3      1.946      7.612
REMARK SMILES CCCOC(=O)c1c(NC(=O)[C@@H]2CC=CC[C@H]2C(=O)OCCOCCOCCOCCOC(=O)c2ccc(-c3c4nc(c(-c5cc(S(=O)(=O)[O-])ccc5F)c5ccc([nH]5)c(-c5cc(S(=O)(=O)[O-])ccc5F)c5nc(c(-c6cc(S(=O)(=O)[O-])ccc6F)c6ccc3[nH]6)C=C5)C=C4)cc2)sc2c1CCCC2
REMARK SMILES IDX 24 1 23 2 22 3 21 4 20 5 18 6 19 7 17 8 12 9 13 10 14 11
REMARK SMILES IDX 16 12 15 13 10 14 9 15 11 17 8 18 7 19 100 20 98 21 99 22
REMARK SMILES IDX 101 23 104 24 102 25 103 26 5 27 6 28 4 29 3 30 2 31 1 32
REMARK SMILES IDX 25 33 26 34 27 35 28 36 29 37 30 38 31 39 32 40 33 41 34 42
REMARK SMILES IDX 35 43 36 44 97 45 37 46 96 47 38 48 39 49 40 50 90 51 41 52
REMARK SMILES IDX 95 53 89 54 91 55 42 56 94 57 88 58 87 59 43 61 75 62 55 63
REMARK SMILES IDX 74 64 56 65 59 66 73 67 92 68 57 69 58 70 72 72 93 73 60 74
REMARK SMILES IDX 44 75 45 76 53 77 46 78 52 79 54 80 51 81 47 82 48 83 49 84
REMARK SMILES IDX 50 85 76 86 77 87 85 88 78 89 84 90 86 91 83 92 79 93 80 94
REMARK SMILES IDX 81 95 82 96 61 97 62 98 70 99 63 100 69 101 71 102 68 103
REMARK SMILES IDX 64 104 65 105 66 106 67 107
REMARK H PARENT 9 16 91 60 59 71
REMARK Flexibility Score: inf
ROOT
ATOM      1  C   UNL A   1      38.313  22.646  25.171  1.00  0.00     0.188 C 
ENDROOT
BRANCH   1   2
ATOM      2  O   UNL A   1      36.921  22.486  24.891  1.00  0.00    -0.376 OA
BRANCH   2   3
ATOM      3  C   UNL A   1      36.034  23.541  25.263  1.00  0.00     0.202 C 
BRANCH   3   4
ATOM      4  C   UNL A   1      35.318  23.431  26.619  1.00  0.00     0.261 C 
BRANCH   4   5
ATOM      5  O   UNL A   1      33.999  24.013  26.721  1.00  0.00    -0.463 OA
BRANCH   5   6
ATOM      6  C   UNL A   1      33.706  24.927  25.770  1.00  0.00     0.310 C 
ATOM      7  O   UNL A   1      34.213  26.047  25.705  1.00  0.00    -0.252 OA
BRANCH   6   8
ATOM      8  C   UNL A   1      32.536  24.579  24.875  1.00  0.00     0.116 C 
ATOM      9  C   UNL A   1      32.657  24.591  23.339  1.00  0.00     0.097 C 
ATOM     10  C   UNL A   1      31.316  24.113  22.753  1.00  0.00     0.041 C 
ATOM     11  C   UNL A   1      30.702  22.913  23.391  1.00  0.00    -0.030 C 
ATOM     12  C   UNL A   1      32.155  23.159  25.375  1.00  0.00     0.043 C 
ATOM     13  C   UNL A   1      31.096  22.467  24.584  1.00  0.00    -0.030 C 
BRANCH   9  14
ATOM     14  C   UNL A   1      33.119  25.912  22.681  1.00  0.00     0.229 C 
ATOM     15  N   UNL A   1      33.100  27.079  23.393  1.00  0.00    -0.317 N 
ATOM     16  H   UNL A   1      33.953  27.409  23.758  1.00  0.00     0.170 HD
ATOM     17  O   UNL A   1      33.599  25.914  21.549  1.00  0.00    -0.274 OA
BRANCH  15  18
ATOM     18  C   UNL A   1      31.960  27.829  23.635  1.00  0.00     0.110 A 
ATOM     19  C   UNL A   1      31.678  29.039  24.252  1.00  0.00     0.098 A 
ATOM     20  C   UNL A   1      30.392  29.522  23.791  1.00  0.00    -0.017 A 
ATOM     21  S   UNL A   1      30.556  27.081  23.017  1.00  0.00    -0.122 S 
ATOM     22  C   UNL A   1      29.670  28.521  23.168  1.00  0.00     0.011 A 
ATOM     23  C   UNL A   1      29.847  30.917  23.933  1.00  0.00     0.038 C 
ATOM     24  C   UNL A   1      28.261  28.652  22.684  1.00  0.00     0.047 C 
ATOM     25  C   UNL A   1      28.347  31.011  23.612  1.00  0.00     0.005 C 
ATOM     26  C   UNL A   1      27.937  30.129  22.423  1.00  0.00     0.006 C 
BRANCH  19  27
ATOM     27  C   UNL A   1      32.547  29.730  25.204  1.00  0.00     0.341 C 
ATOM     28  O   UNL A   1      33.731  29.453  25.333  1.00  0.00    -0.246 OA
BRANCH  27  29
ATOM     29  O   UNL A   1      31.867  30.651  25.932  1.00  0.00    -0.462 OA
BRANCH  29  30
ATOM     30  C   UNL A   1      32.240  31.025  27.274  1.00  0.00     0.233 C 
BRANCH  30  31
ATOM     31  C   UNL A   1      33.704  31.312  27.618  1.00  0.00     0.038 C 
ATOM     32  C   UNL A   1      34.002  32.747  28.018  1.00  0.00     0.007 C 
ENDBRANCH  30  31
ENDBRANCH  29  30
ENDBRANCH  27  29
ENDBRANCH  19  27
ENDBRANCH  15  18
ENDBRANCH   9  14
ENDBRANCH   6   8
ENDBRANCH   5   6
ENDBRANCH   4   5
ENDBRANCH   3   4
ENDBRANCH   2   3
ENDBRANCH   1   2
BRANCH   1  33
ATOM     33  C   UNL A   1      38.986  21.494  25.912  1.00  0.00     0.188 C 
BRANCH  33  34
ATOM     34  O   UNL A   1      39.563  21.972  27.114  1.00  0.00    -0.377 OA
BRANCH  34  35
ATOM     35  C   UNL A   1      40.965  21.813  27.324  1.00  0.00     0.188 C 
BRANCH  35  36
ATOM     36  C   UNL A   1      41.892  22.102  26.144  1.00  0.00     0.188 C 
BRANCH  36  37
ATOM     37  O   UNL A   1      41.994  23.476  25.766  1.00  0.00    -0.376 OA
BRANCH  37  38
ATOM     38  C   UNL A   1      43.285  23.934  25.354  1.00  0.00     0.202 C 
BRANCH  38  39
ATOM     39  C   UNL A   1      43.678  25.328  25.851  1.00  0.00     0.261 C 
BRANCH  39  40
ATOM     40  O   UNL A   1      42.711  25.872  26.765  1.00  0.00    -0.460 OA
BRANCH  40  41
ATOM     41  C   UNL A   1      43.122  25.990  28.050  1.00  0.00     0.338 C 
ATOM     42  O   UNL A   1      43.237  25.098  28.873  1.00  0.00    -0.246 OA
BRANCH  41  43
ATOM     43  C   UNL A   1      43.588  27.369  28.283  1.00  0.00     0.060 A 
ATOM     44  C   UNL A   1      44.711  27.571  29.097  1.00  0.00     0.016 A 
ATOM     45  C   UNL A   1      42.871  28.453  27.776  1.00  0.00     0.016 A 
ATOM     46  C   UNL A   1      45.093  28.865  29.448  1.00  0.00     0.010 A 
ATOM     47  C   UNL A   1      43.239  29.746  28.145  1.00  0.00     0.010 A 
ATOM     48  C   UNL A   1      44.326  29.953  29.013  1.00  0.00    -0.014 A 
BRANCH  48  49
ATOM     49  C   UNL A   1      44.506  31.287  29.632  1.00  0.00     0.031 A 
ATOM     50  C   UNL A   1      43.623  31.649  30.793  1.00  0.00     0.074 A 
ATOM     51  C   UNL A   1      45.411  32.159  29.154  1.00  0.00     0.049 A 
ATOM     52  N   UNL A   1      43.481  32.794  31.406  1.00  0.00    -0.248 NA
ATOM     53  C   UNL A   1      42.778  30.568  31.327  1.00  0.00     0.031 C 
ATOM     54  C   UNL A   1      46.357  31.886  28.074  1.00  0.00     0.029 A 
ATOM     55  N   UNL A   1      45.663  33.459  29.506  1.00  0.00    -0.354 N 
ATOM     56  C   UNL A   1      42.532  32.573  32.399  1.00  0.00     0.074 A 
ATOM     57  C   UNL A   1      42.112  31.194  32.284  1.00  0.00     0.031 C 
ATOM     58  C   UNL A   1      47.071  32.999  27.831  1.00  0.00     0.029 A 
ATOM     59  C   UNL A   1      46.599  34.072  28.705  1.00  0.00     0.049 A 
ATOM     60  H   UNL A   1      45.217  33.912  30.258  1.00  0.00     0.167 HD
ATOM     61  C   UNL A   1      42.057  33.443  33.323  1.00  0.00     0.034 A 
ATOM     62  C   UNL A   1      46.990  35.362  28.661  1.00  0.00     0.034 A 
ATOM     63  C   UNL A   1      42.459  34.824  33.393  1.00  0.00     0.049 A 
ATOM     64  C   UNL A   1      46.364  36.345  29.623  1.00  0.00     0.074 A 
ATOM     65  C   UNL A   1      42.026  35.811  34.259  1.00  0.00     0.029 A 
ATOM     66  N   UNL A   1      43.388  35.419  32.546  1.00  0.00    -0.354 N 
ATOM     67  N   UNL A   1      45.452  36.133  30.545  1.00  0.00    -0.248 NA
ATOM     68  C   UNL A   1      46.816  37.740  29.537  1.00  0.00     0.031 C 
ATOM     69  C   UNL A   1      42.648  37.013  33.901  1.00  0.00     0.029 A 
ATOM     70  C   UNL A   1      43.522  36.762  32.855  1.00  0.00     0.049 A 
ATOM     71  H   UNL A   1      43.879  34.952  31.832  1.00  0.00     0.167 HD
ATOM     72  C   UNL A   1      45.250  37.361  31.170  1.00  0.00     0.074 A 
ATOM     73  C   UNL A   1      46.136  38.307  30.523  1.00  0.00     0.031 C 
ATOM     74  C   UNL A   1      44.415  37.681  32.193  1.00  0.00     0.034 A 
BRANCH  61  75
ATOM     75  C   UNL A   1      41.010  32.927  34.277  1.00  0.00     0.023 A 
ATOM     76  C   UNL A   1      39.648  33.237  34.112  1.00  0.00     0.031 A 
ATOM     77  C   UNL A   1      41.380  32.159  35.395  1.00  0.00     0.131 A 
ATOM     78  C   UNL A   1      38.717  32.843  35.085  1.00  0.00     0.055 A 
ATOM     79  C   UNL A   1      40.439  31.707  36.322  1.00  0.00     0.041 A 
ATOM     80  F   UNL A   1      42.668  31.854  35.617  1.00  0.00    -0.206 F 
ATOM     81  C   UNL A   1      39.100  32.061  36.177  1.00  0.00     0.022 A 
BRANCH  78  82
ATOM     82  S   UNL A   1      37.023  33.483  34.977  1.00  0.00     0.124 S 
ATOM     83  O   UNL A   1      36.629  33.517  36.383  1.00  0.00    -0.237 OA
ATOM     84  O   UNL A   1      37.216  34.779  34.336  1.00  0.00    -0.237 OA
ATOM     85  O   UNL A   1      36.330  32.484  34.166  1.00  0.00    -0.744 OA
ENDBRANCH  78  82
ENDBRANCH  61  75
BRANCH  62  86
ATOM     86  C   UNL A   1      47.979  35.821  27.643  1.00  0.00     0.023 A 
ATOM     87  C   UNL A   1      49.355  35.842  27.924  1.00  0.00     0.031 A 
ATOM     88  C   UNL A   1      47.554  36.309  26.394  1.00  0.00     0.131 A 
ATOM     89  C   UNL A   1      50.251  36.383  26.988  1.00  0.00     0.055 A 
ATOM     90  C   UNL A   1      48.455  36.799  25.447  1.00  0.00     0.041 A 
ATOM     91  F   UNL A   1      46.250  36.317  26.075  1.00  0.00    -0.206 F 
ATOM     92  C   UNL A   1      49.812  36.850  25.748  1.00  0.00     0.022 A 
BRANCH  89  93
ATOM     93  S   UNL A   1      51.995  36.554  27.456  1.00  0.00     0.124 S 
ATOM     94  O   UNL A   1      52.012  37.880  28.065  1.00  0.00    -0.237 OA
ATOM     95  O   UNL A   1      52.176  35.427  28.366  1.00  0.00    -0.237 OA
ATOM     96  O   UNL A   1      52.701  36.443  26.181  1.00  0.00    -0.744 OA
ENDBRANCH  89  93
ENDBRANCH  62  86
BRANCH  74  97
ATOM     97  C   UNL A   1      44.474  39.096  32.707  1.00  0.00     0.023 A 
ATOM     98  C   UNL A   1      43.620  40.099  32.221  1.00  0.00     0.031 A 
ATOM     99  C   UNL A   1      45.397  39.436  33.713  1.00  0.00     0.131 A 
ATOM    100  C   UNL A   1      43.733  41.408  32.714  1.00  0.00     0.055 A 
ATOM    101  C   UNL A   1      45.472  40.727  34.234  1.00  0.00     0.041 A 
ATOM    102  F   UNL A   1      46.234  38.512  34.212  1.00  0.00    -0.206 F 
ATOM    103  C   UNL A   1      44.643  41.724  33.728  1.00  0.00     0.022 A 
BRANCH 100 104
ATOM    104  S   UNL A   1      42.711  42.711  31.974  1.00  0.00     0.124 S 
ATOM    105  O   UNL A   1      41.618  41.942  31.386  1.00  0.00    -0.237 OA
ATOM    106  O   UNL A   1      42.364  43.532  33.129  1.00  0.00    -0.237 OA
ATOM    107  O   UNL A   1      43.610  43.346  31.011  1.00  0.00    -0.744 OA
ENDBRANCH 100 104
ENDBRANCH  74  97
ENDBRANCH  48  49
ENDBRANCH  41  43
ENDBRANCH  40  41
ENDBRANCH  39  40
ENDBRANCH  38  39
ENDBRANCH  37  38
ENDBRANCH  36  37
ENDBRANCH  35  36
ENDBRANCH  34  35
ENDBRANCH  33  34
ENDBRANCH   1  33
TORSDOF 29
ENDMDL
