MODEL 1
REMARK VINA RESULT:     -10.3      0.000      0.000
REMARK SMILES O=C(OCCOCCOCCOCCOC(=O)[C@H]1CC[N@@H+]1CCc1ccccc1)c1ccc(-c2c3nc(c(-c4cc(S(=O)(=O)[O-])ccc4F)c4ccc([nH]4)c(-c4cc(S(=O)(=O)[O-])ccc4F)c4nc(c(-c5cc(S(=O)(=O)[O-])ccc5F)c5ccc2[nH]5)C=C4)C=C3)cc1
REMARK SMILES IDX 9 1 8 2 7 3 6 4 5 5 4 6 3 7 2 8 1 9 30 10 31 11 92 12 32 13
REMARK SMILES IDX 91 14 33 15 34 16 35 17 85 18 36 19 90 20 84 21 86 22 37 23
REMARK SMILES IDX 89 24 83 25 82 26 38 28 70 29 50 30 69 31 51 32 54 33 68 34
REMARK SMILES IDX 87 35 52 36 53 37 67 39 88 40 55 41 39 42 40 43 48 44 41 45
REMARK SMILES IDX 47 46 49 47 46 48 42 49 43 50 44 51 45 52 71 53 72 54 80 55
REMARK SMILES IDX 73 56 79 57 81 58 78 59 74 60 75 61 76 62 77 63 56 64 57 65
REMARK SMILES IDX 65 66 58 67 64 68 66 69 63 70 59 71 60 72 61 73 62 74 10 75
REMARK SMILES IDX 11 76 12 77 13 78 14 79 15 80 16 81 17 82 18 83 19 84 21 85
REMARK SMILES IDX 20 86 22 88 23 89 24 90 25 91 29 92 26 93 28 94 27 95
REMARK H PARENT 86 27 54 38 21 87
REMARK Flexibility Score: inf
ROOT
ATOM      1  O   UNL A   1      33.914  26.153  23.105  1.00  0.00    -0.377 OA
ENDROOT
BRANCH   1   2
ATOM      2  C   UNL A   1      33.748  24.744  23.226  1.00  0.00     0.188 C 
BRANCH   2   3
ATOM      3  C   UNL A   1      34.956  24.044  23.838  1.00  0.00     0.188 C 
BRANCH   3   4
ATOM      4  O   UNL A   1      35.702  23.380  22.814  1.00  0.00    -0.376 OA
BRANCH   4   5
ATOM      5  C   UNL A   1      36.821  22.622  23.266  1.00  0.00     0.202 C 
BRANCH   5   6
ATOM      6  C   UNL A   1      36.798  22.310  24.763  1.00  0.00     0.261 C 
BRANCH   6   7
ATOM      7  O   UNL A   1      37.751  21.303  25.118  1.00  0.00    -0.460 OA
BRANCH   7   8
ATOM      8  C   UNL A   1      38.905  21.447  25.816  1.00  0.00     0.338 C 
ATOM      9  O   UNL A   1      39.620  20.448  25.928  1.00  0.00    -0.246 OA
BRANCH   8  10
ATOM     10  C   UNL A   1      39.371  22.714  26.484  1.00  0.00     0.060 A 
ATOM     11  C   UNL A   1      38.909  24.013  26.241  1.00  0.00     0.016 A 
ATOM     12  C   UNL A   1      40.363  22.559  27.472  1.00  0.00     0.016 A 
ATOM     13  C   UNL A   1      39.459  25.122  26.878  1.00  0.00     0.010 A 
ATOM     14  C   UNL A   1      40.925  23.662  28.117  1.00  0.00     0.010 A 
ATOM     15  C   UNL A   1      40.503  24.951  27.778  1.00  0.00    -0.014 A 
BRANCH  15  16
ATOM     16  C   UNL A   1      41.329  26.121  28.120  1.00  0.00     0.031 A 
ATOM     17  C   UNL A   1      40.673  27.191  28.940  1.00  0.00     0.074 A 
ATOM     18  C   UNL A   1      42.625  26.177  27.783  1.00  0.00     0.049 A 
ATOM     19  N   UNL A   1      41.100  28.382  29.257  1.00  0.00    -0.248 NA
ATOM     20  C   UNL A   1      39.342  26.861  29.478  1.00  0.00     0.031 C 
ATOM     21  C   UNL A   1      43.368  25.108  27.116  1.00  0.00     0.029 A 
ATOM     22  N   UNL A   1      43.544  27.177  27.952  1.00  0.00    -0.354 N 
ATOM     23  C   UNL A   1      40.074  28.956  30.003  1.00  0.00     0.074 A 
ATOM     24  C   UNL A   1      39.008  27.984  30.085  1.00  0.00     0.031 C 
ATOM     25  C   UNL A   1      44.628  25.524  26.905  1.00  0.00     0.029 A 
ATOM     26  C   UNL A   1      44.754  26.908  27.357  1.00  0.00     0.049 A 
ATOM     27  H   UNL A   1      43.357  28.006  28.448  1.00  0.00     0.167 HD
ATOM     28  C   UNL A   1      40.031  30.196  30.548  1.00  0.00     0.034 A 
ATOM     29  C   UNL A   1      45.809  27.721  27.151  1.00  0.00     0.034 A 
ATOM     30  C   UNL A   1      41.106  31.140  30.389  1.00  0.00     0.049 A 
ATOM     31  C   UNL A   1      45.705  29.140  27.654  1.00  0.00     0.074 A 
ATOM     32  C   UNL A   1      41.178  32.459  30.792  1.00  0.00     0.029 A 
ATOM     33  N   UNL A   1      42.308  30.850  29.745  1.00  0.00    -0.354 N 
ATOM     34  N   UNL A   1      44.706  29.719  28.286  1.00  0.00    -0.248 NA
ATOM     35  C   UNL A   1      46.853  30.020  27.410  1.00  0.00     0.031 C 
ATOM     36  C   UNL A   1      42.396  32.982  30.336  1.00  0.00     0.029 A 
ATOM     37  C   UNL A   1      43.117  31.971  29.716  1.00  0.00     0.049 A 
ATOM     38  H   UNL A   1      42.547  29.974  29.366  1.00  0.00     0.167 HD
ATOM     39  C   UNL A   1      45.111  31.026  28.532  1.00  0.00     0.074 A 
ATOM     40  C   UNL A   1      46.450  31.147  27.982  1.00  0.00     0.031 C 
ATOM     41  C   UNL A   1      44.448  32.036  29.154  1.00  0.00     0.034 A 
BRANCH  28  42
ATOM     42  C   UNL A   1      38.735  30.589  31.218  1.00  0.00     0.023 A 
ATOM     43  C   UNL A   1      37.756  31.353  30.552  1.00  0.00     0.031 A 
ATOM     44  C   UNL A   1      38.549  30.340  32.589  1.00  0.00     0.131 A 
ATOM     45  C   UNL A   1      36.712  31.942  31.283  1.00  0.00     0.055 A 
ATOM     46  C   UNL A   1      37.454  30.849  33.290  1.00  0.00     0.041 A 
ATOM     47  F   UNL A   1      39.461  29.645  33.287  1.00  0.00    -0.206 F 
ATOM     48  C   UNL A   1      36.541  31.677  32.644  1.00  0.00     0.022 A 
BRANCH  45  49
ATOM     49  S   UNL A   1      35.716  33.234  30.483  1.00  0.00     0.124 S 
ATOM     50  O   UNL A   1      36.523  33.544  29.306  1.00  0.00    -0.237 OA
ATOM     51  O   UNL A   1      34.453  32.547  30.228  1.00  0.00    -0.237 OA
ATOM     52  O   UNL A   1      35.657  34.295  31.486  1.00  0.00    -0.744 OA
ENDBRANCH  45  49
ENDBRANCH  28  42
BRANCH  29  53
ATOM     53  C   UNL A   1      46.977  27.240  26.359  1.00  0.00     0.023 A 
ATOM     54  C   UNL A   1      47.180  27.626  25.024  1.00  0.00     0.031 A 
ATOM     55  C   UNL A   1      47.930  26.383  26.946  1.00  0.00     0.131 A 
ATOM     56  C   UNL A   1      48.302  27.150  24.322  1.00  0.00     0.055 A 
ATOM     57  C   UNL A   1      49.063  25.949  26.259  1.00  0.00     0.041 A 
ATOM     58  F   UNL A   1      47.783  25.977  28.218  1.00  0.00    -0.206 F 
ATOM     59  C   UNL A   1      49.253  26.329  24.935  1.00  0.00     0.022 A 
BRANCH  56  60
ATOM     60  S   UNL A   1      48.490  27.587  22.570  1.00  0.00     0.124 S 
ATOM     61  O   UNL A   1      48.533  26.274  21.938  1.00  0.00    -0.237 OA
ATOM     62  O   UNL A   1      47.289  28.379  22.324  1.00  0.00    -0.237 OA
ATOM     63  O   UNL A   1      49.745  28.336  22.537  1.00  0.00    -0.744 OA
ENDBRANCH  56  60
ENDBRANCH  29  53
BRANCH  41  64
ATOM     64  C   UNL A   1      45.188  33.337  29.315  1.00  0.00     0.023 A 
ATOM     65  C   UNL A   1      45.274  34.271  28.271  1.00  0.00     0.031 A 
ATOM     66  C   UNL A   1      45.764  33.660  30.556  1.00  0.00     0.131 A 
ATOM     67  C   UNL A   1      45.948  35.483  28.482  1.00  0.00     0.055 A 
ATOM     68  C   UNL A   1      46.392  34.885  30.774  1.00  0.00     0.041 A 
ATOM     69  F   UNL A   1      45.700  32.797  31.583  1.00  0.00    -0.206 F 
ATOM     70  C   UNL A   1      46.491  35.801  29.731  1.00  0.00     0.022 A 
BRANCH  67  71
ATOM     71  S   UNL A   1      46.142  36.627  27.090  1.00  0.00     0.124 S 
ATOM     72  O   UNL A   1      46.009  35.732  25.944  1.00  0.00    -0.237 OA
ATOM     73  O   UNL A   1      45.043  37.565  27.297  1.00  0.00    -0.237 OA
ATOM     74  O   UNL A   1      47.477  37.185  27.288  1.00  0.00    -0.744 OA
ENDBRANCH  67  71
ENDBRANCH  41  64
ENDBRANCH  15  16
ENDBRANCH   8  10
ENDBRANCH   7   8
ENDBRANCH   6   7
ENDBRANCH   5   6
ENDBRANCH   4   5
ENDBRANCH   3   4
ENDBRANCH   2   3
ENDBRANCH   1   2
BRANCH   1  75
ATOM     75  C   UNL A   1      32.897  26.846  22.382  1.00  0.00     0.188 C 
BRANCH  75  76
ATOM     76  C   UNL A   1      31.729  27.455  23.186  1.00  0.00     0.188 C 
BRANCH  76  77
ATOM     77  O   UNL A   1      30.564  26.642  23.234  1.00  0.00    -0.376 OA
BRANCH  77  78
ATOM     78  C   UNL A   1      29.906  26.611  24.499  1.00  0.00     0.202 C 
BRANCH  78  79
ATOM     79  C   UNL A   1      30.695  25.862  25.576  1.00  0.00     0.261 C 
BRANCH  79  80
ATOM     80  O   UNL A   1      29.848  25.076  26.442  1.00  0.00    -0.459 OA
BRANCH  80  81
ATOM     81  C   UNL A   1      30.266  23.822  26.784  1.00  0.00     0.365 C 
ATOM     82  O   UNL A   1      29.603  23.096  27.523  1.00  0.00    -0.245 OA
BRANCH  81  83
ATOM     83  C   UNL A   1      31.660  23.421  26.114  1.00  0.00     0.300 C 
ATOM     84  C   UNL A   1      32.896  23.926  26.907  1.00  0.00     0.139 C 
ATOM     85  N   UNL A   1      32.127  22.027  26.369  1.00  0.00    -0.323 N 
ATOM     86  C   UNL A   1      33.068  22.486  27.391  1.00  0.00     0.269 C 
ATOM     87  H   UNL A   1      31.432  21.315  26.593  1.00  0.00     0.348 HD
BRANCH  85  88
ATOM     88  C   UNL A   1      32.754  21.327  25.235  1.00  0.00     0.267 C 
BRANCH  88  89
ATOM     89  C   UNL A   1      32.209  20.035  24.569  1.00  0.00     0.097 C 
BRANCH  89  90
ATOM     90  C   UNL A   1      33.032  18.772  24.633  1.00  0.00    -0.042 A 
ATOM     91  C   UNL A   1      32.378  17.537  24.770  1.00  0.00     0.004 A 
ATOM     92  C   UNL A   1      34.430  18.778  24.552  1.00  0.00     0.004 A 
ATOM     93  C   UNL A   1      33.090  16.340  24.689  1.00  0.00     0.000 A 
ATOM     94  C   UNL A   1      35.138  17.580  24.432  1.00  0.00     0.000 A 
ATOM     95  C   UNL A   1      34.467  16.362  24.483  1.00  0.00     0.000 A 
ENDBRANCH  89  90
ENDBRANCH  88  89
ENDBRANCH  85  88
ENDBRANCH  81  83
ENDBRANCH  80  81
ENDBRANCH  79  80
ENDBRANCH  78  79
ENDBRANCH  77  78
ENDBRANCH  76  77
ENDBRANCH  75  76
ENDBRANCH   1  75
TORSDOF 26
ENDMDL
MODEL 2
REMARK VINA RESULT:      -9.7      1.908      2.267
REMARK SMILES O=C(OCCOCCOCCOCCOC(=O)[C@H]1CC[N@@H+]1CCc1ccccc1)c1ccc(-c2c3nc(c(-c4cc(S(=O)(=O)[O-])ccc4F)c4ccc([nH]4)c(-c4cc(S(=O)(=O)[O-])ccc4F)c4nc(c(-c5cc(S(=O)(=O)[O-])ccc5F)c5ccc2[nH]5)C=C4)C=C3)cc1
REMARK SMILES IDX 9 1 8 2 7 3 6 4 5 5 4 6 3 7 2 8 1 9 30 10 31 11 92 12 32 13
REMARK SMILES IDX 91 14 33 15 34 16 35 17 85 18 36 19 90 20 84 21 86 22 37 23
REMARK SMILES IDX 89 24 83 25 82 26 38 28 70 29 50 30 69 31 51 32 54 33 68 34
REMARK SMILES IDX 87 35 52 36 53 37 67 39 88 40 55 41 39 42 40 43 48 44 41 45
REMARK SMILES IDX 47 46 49 47 46 48 42 49 43 50 44 51 45 52 71 53 72 54 80 55
REMARK SMILES IDX 73 56 79 57 81 58 78 59 74 60 75 61 76 62 77 63 56 64 57 65
REMARK SMILES IDX 65 66 58 67 64 68 66 69 63 70 59 71 60 72 61 73 62 74 10 75
REMARK SMILES IDX 11 76 12 77 13 78 14 79 15 80 16 81 17 82 18 83 19 84 21 85
REMARK SMILES IDX 20 86 22 88 23 89 24 90 25 91 29 92 26 93 28 94 27 95
REMARK H PARENT 86 27 54 38 21 87
REMARK Flexibility Score: inf
ROOT
ATOM      1  O   UNL A   1      34.344  26.442  23.120  1.00  0.00    -0.377 OA
ENDROOT
BRANCH   1   2
ATOM      2  C   UNL A   1      33.957  25.077  23.247  1.00  0.00     0.188 C 
BRANCH   2   3
ATOM      3  C   UNL A   1      35.045  24.196  23.851  1.00  0.00     0.188 C 
BRANCH   3   4
ATOM      4  O   UNL A   1      35.702  23.459  22.816  1.00  0.00    -0.376 OA
BRANCH   4   5
ATOM      5  C   UNL A   1      36.753  22.599  23.251  1.00  0.00     0.202 C 
BRANCH   5   6
ATOM      6  C   UNL A   1      36.779  22.362  24.762  1.00  0.00     0.261 C 
BRANCH   6   7
ATOM      7  O   UNL A   1      37.723  21.351  25.131  1.00  0.00    -0.460 OA
BRANCH   7   8
ATOM      8  C   UNL A   1      38.869  21.491  25.843  1.00  0.00     0.338 C 
ATOM      9  O   UNL A   1      39.572  20.486  25.976  1.00  0.00    -0.246 OA
BRANCH   8  10
ATOM     10  C   UNL A   1      39.339  22.760  26.504  1.00  0.00     0.060 A 
ATOM     11  C   UNL A   1      38.863  24.057  26.270  1.00  0.00     0.016 A 
ATOM     12  C   UNL A   1      40.350  22.611  27.472  1.00  0.00     0.016 A 
ATOM     13  C   UNL A   1      39.417  25.169  26.898  1.00  0.00     0.010 A 
ATOM     14  C   UNL A   1      40.917  23.718  28.108  1.00  0.00     0.010 A 
ATOM     15  C   UNL A   1      40.480  25.004  27.778  1.00  0.00    -0.014 A 
BRANCH  15  16
ATOM     16  C   UNL A   1      41.304  26.179  28.106  1.00  0.00     0.031 A 
ATOM     17  C   UNL A   1      40.635  27.277  28.878  1.00  0.00     0.074 A 
ATOM     18  C   UNL A   1      42.608  26.219  27.799  1.00  0.00     0.049 A 
ATOM     19  N   UNL A   1      41.060  28.474  29.170  1.00  0.00    -0.248 NA
ATOM     20  C   UNL A   1      39.289  26.970  29.392  1.00  0.00     0.031 C 
ATOM     21  C   UNL A   1      43.360  25.127  27.182  1.00  0.00     0.029 A 
ATOM     22  N   UNL A   1      43.528  27.219  27.961  1.00  0.00    -0.354 N 
ATOM     23  C   UNL A   1      40.021  29.075  29.874  1.00  0.00     0.074 A 
ATOM     24  C   UNL A   1      38.947  28.112  29.958  1.00  0.00     0.031 C 
ATOM     25  C   UNL A   1      44.627  25.530  26.989  1.00  0.00     0.029 A 
ATOM     26  C   UNL A   1      44.751  26.926  27.404  1.00  0.00     0.049 A 
ATOM     27  H   UNL A   1      43.335  28.063  28.428  1.00  0.00     0.167 HD
ATOM     28  C   UNL A   1      39.971  30.331  30.380  1.00  0.00     0.034 A 
ATOM     29  C   UNL A   1      45.815  27.727  27.200  1.00  0.00     0.034 A 
ATOM     30  C   UNL A   1      41.056  31.264  30.221  1.00  0.00     0.049 A 
ATOM     31  C   UNL A   1      45.707  29.161  27.658  1.00  0.00     0.074 A 
ATOM     32  C   UNL A   1      41.126  32.594  30.586  1.00  0.00     0.029 A 
ATOM     33  N   UNL A   1      42.272  30.949  29.615  1.00  0.00    -0.354 N 
ATOM     34  N   UNL A   1      44.697  29.764  28.248  1.00  0.00    -0.248 NA
ATOM     35  C   UNL A   1      46.866  30.027  27.417  1.00  0.00     0.031 C 
ATOM     36  C   UNL A   1      42.357  33.098  30.145  1.00  0.00     0.029 A 
ATOM     37  C   UNL A   1      43.088  32.064  29.573  1.00  0.00     0.049 A 
ATOM     38  H   UNL A   1      42.514  30.061  29.268  1.00  0.00     0.167 HD
ATOM     39  C   UNL A   1      45.103  31.075  28.465  1.00  0.00     0.074 A 
ATOM     40  C   UNL A   1      46.456  31.173  27.946  1.00  0.00     0.031 C 
ATOM     41  C   UNL A   1      44.432  32.106  29.041  1.00  0.00     0.034 A 
BRANCH  28  42
ATOM     42  C   UNL A   1      38.662  30.751  31.007  1.00  0.00     0.023 A 
ATOM     43  C   UNL A   1      37.677  31.444  30.276  1.00  0.00     0.031 A 
ATOM     44  C   UNL A   1      38.467  30.603  32.392  1.00  0.00     0.131 A 
ATOM     45  C   UNL A   1      36.615  32.067  30.951  1.00  0.00     0.055 A 
ATOM     46  C   UNL A   1      37.355  31.144  33.041  1.00  0.00     0.041 A 
ATOM     47  F   UNL A   1      39.383  29.980  33.149  1.00  0.00    -0.206 F 
ATOM     48  C   UNL A   1      36.435  31.903  32.326  1.00  0.00     0.022 A 
BRANCH  45  49
ATOM     49  S   UNL A   1      35.605  33.277  30.046  1.00  0.00     0.124 S 
ATOM     50  O   UNL A   1      34.487  32.451  29.595  1.00  0.00    -0.237 OA
ATOM     51  O   UNL A   1      35.294  34.263  31.076  1.00  0.00    -0.237 OA
ATOM     52  O   UNL A   1      36.493  33.742  28.984  1.00  0.00    -0.744 OA
ENDBRANCH  45  49
ENDBRANCH  28  42
BRANCH  29  53
ATOM     53  C   UNL A   1      46.999  27.217  26.451  1.00  0.00     0.023 A 
ATOM     54  C   UNL A   1      48.059  26.558  27.093  1.00  0.00     0.031 A 
ATOM     55  C   UNL A   1      47.076  27.372  25.051  1.00  0.00     0.131 A 
ATOM     56  C   UNL A   1      49.150  26.089  26.340  1.00  0.00     0.055 A 
ATOM     57  C   UNL A   1      48.139  26.866  24.304  1.00  0.00     0.041 A 
ATOM     58  F   UNL A   1      46.093  27.999  24.384  1.00  0.00    -0.206 F 
ATOM     59  C   UNL A   1      49.189  26.223  24.950  1.00  0.00     0.022 A 
BRANCH  56  60
ATOM     60  S   UNL A   1      50.551  25.327  27.208  1.00  0.00     0.124 S 
ATOM     61  O   UNL A   1      49.904  24.227  27.912  1.00  0.00    -0.237 OA
ATOM     62  O   UNL A   1      51.428  24.956  26.102  1.00  0.00    -0.237 OA
ATOM     63  O   UNL A   1      51.051  26.404  28.061  1.00  0.00    -0.744 OA
ENDBRANCH  56  60
ENDBRANCH  29  53
BRANCH  41  64
ATOM     64  C   UNL A   1      45.175  33.407  29.182  1.00  0.00     0.023 A 
ATOM     65  C   UNL A   1      45.966  33.687  30.307  1.00  0.00     0.031 A 
ATOM     66  C   UNL A   1      45.127  34.352  28.142  1.00  0.00     0.131 A 
ATOM     67  C   UNL A   1      46.664  34.902  30.377  1.00  0.00     0.055 A 
ATOM     68  C   UNL A   1      45.858  35.537  28.197  1.00  0.00     0.041 A 
ATOM     69  F   UNL A   1      44.386  34.122  27.046  1.00  0.00    -0.206 F 
ATOM     70  C   UNL A   1      46.628  35.819  29.322  1.00  0.00     0.022 A 
BRANCH  67  71
ATOM     71  S   UNL A   1      47.591  35.290  31.885  1.00  0.00     0.124 S 
ATOM     72  O   UNL A   1      48.198  36.573  31.544  1.00  0.00    -0.237 OA
ATOM     73  O   UNL A   1      46.543  35.329  32.899  1.00  0.00    -0.237 OA
ATOM     74  O   UNL A   1      48.528  34.175  32.008  1.00  0.00    -0.744 OA
ENDBRANCH  67  71
ENDBRANCH  41  64
ENDBRANCH  15  16
ENDBRANCH   8  10
ENDBRANCH   7   8
ENDBRANCH   6   7
ENDBRANCH   5   6
ENDBRANCH   4   5
ENDBRANCH   3   4
ENDBRANCH   2   3
ENDBRANCH   1   2
BRANCH   1  75
ATOM     75  C   UNL A   1      33.552  27.240  22.242  1.00  0.00     0.188 C 
BRANCH  75  76
ATOM     76  C   UNL A   1      32.495  28.172  22.871  1.00  0.00     0.188 C 
BRANCH  76  77
ATOM     77  O   UNL A   1      31.151  27.832  22.555  1.00  0.00    -0.376 OA
BRANCH  77  78
ATOM     78  C   UNL A   1      30.304  27.625  23.683  1.00  0.00     0.202 C 
BRANCH  78  79
ATOM     79  C   UNL A   1      30.819  26.545  24.639  1.00  0.00     0.261 C 
BRANCH  79  80
ATOM     80  O   UNL A   1      30.029  25.336  24.590  1.00  0.00    -0.459 OA
BRANCH  80  81
ATOM     81  C   UNL A   1      30.636  24.190  24.163  1.00  0.00     0.365 C 
ATOM     82  O   UNL A   1      30.448  23.737  23.035  1.00  0.00    -0.245 OA
BRANCH  81  83
ATOM     83  C   UNL A   1      31.602  23.545  25.261  1.00  0.00     0.300 C 
ATOM     84  C   UNL A   1      31.081  23.705  26.714  1.00  0.00     0.139 C 
ATOM     85  N   UNL A   1      31.492  22.067  25.436  1.00  0.00    -0.323 N 
ATOM     86  C   UNL A   1      30.684  22.230  26.646  1.00  0.00     0.269 C 
ATOM     87  H   UNL A   1      31.142  21.510  24.656  1.00  0.00     0.348 HD
BRANCH  85  88
ATOM     88  C   UNL A   1      32.753  21.334  25.640  1.00  0.00     0.267 C 
BRANCH  88  89
ATOM     89  C   UNL A   1      33.465  20.463  24.571  1.00  0.00     0.097 C 
BRANCH  89  90
ATOM     90  C   UNL A   1      33.271  18.967  24.594  1.00  0.00    -0.042 A 
ATOM     91  C   UNL A   1      33.946  18.176  23.650  1.00  0.00     0.004 A 
ATOM     92  C   UNL A   1      32.448  18.327  25.530  1.00  0.00     0.004 A 
ATOM     93  C   UNL A   1      33.907  16.783  23.728  1.00  0.00     0.000 A 
ATOM     94  C   UNL A   1      32.440  16.934  25.632  1.00  0.00     0.000 A 
ATOM     95  C   UNL A   1      33.183  16.163  24.743  1.00  0.00     0.000 A 
ENDBRANCH  89  90
ENDBRANCH  88  89
ENDBRANCH  85  88
ENDBRANCH  81  83
ENDBRANCH  80  81
ENDBRANCH  79  80
ENDBRANCH  78  79
ENDBRANCH  77  78
ENDBRANCH  76  77
ENDBRANCH  75  76
ENDBRANCH   1  75
TORSDOF 26
ENDMDL
MODEL 3
REMARK VINA RESULT:      -9.4      2.749      9.043
REMARK SMILES O=C(OCCOCCOCCOCCOC(=O)[C@H]1CC[N@@H+]1CCc1ccccc1)c1ccc(-c2c3nc(c(-c4cc(S(=O)(=O)[O-])ccc4F)c4ccc([nH]4)c(-c4cc(S(=O)(=O)[O-])ccc4F)c4nc(c(-c5cc(S(=O)(=O)[O-])ccc5F)c5ccc2[nH]5)C=C4)C=C3)cc1
REMARK SMILES IDX 9 1 8 2 7 3 6 4 5 5 4 6 3 7 2 8 1 9 30 10 31 11 92 12 32 13
REMARK SMILES IDX 91 14 33 15 34 16 35 17 85 18 36 19 90 20 84 21 86 22 37 23
REMARK SMILES IDX 89 24 83 25 82 26 38 28 70 29 50 30 69 31 51 32 54 33 68 34
REMARK SMILES IDX 87 35 52 36 53 37 67 39 88 40 55 41 39 42 40 43 48 44 41 45
REMARK SMILES IDX 47 46 49 47 46 48 42 49 43 50 44 51 45 52 71 53 72 54 80 55
REMARK SMILES IDX 73 56 79 57 81 58 78 59 74 60 75 61 76 62 77 63 56 64 57 65
REMARK SMILES IDX 65 66 58 67 64 68 66 69 63 70 59 71 60 72 61 73 62 74 10 75
REMARK SMILES IDX 11 76 12 77 13 78 14 79 15 80 16 81 17 82 18 83 19 84 21 85
REMARK SMILES IDX 20 86 22 88 23 89 24 90 25 91 29 92 26 93 28 94 27 95
REMARK H PARENT 86 27 54 38 21 87
REMARK Flexibility Score: inf
ROOT
ATOM      1  O   UNL A   1      37.026  22.878  25.787  1.00  0.00    -0.377 OA
ENDROOT
BRANCH   1   2
ATOM      2  C   UNL A   1      38.078  21.974  25.465  1.00  0.00     0.188 C 
BRANCH   2   3
ATOM      3  C   UNL A   1      39.327  22.174  26.318  1.00  0.00     0.188 C 
BRANCH   3   4
ATOM      4  O   UNL A   1      40.062  20.949  26.395  1.00  0.00    -0.376 OA
BRANCH   4   5
ATOM      5  C   UNL A   1      40.960  20.844  27.497  1.00  0.00     0.202 C 
BRANCH   5   6
ATOM      6  C   UNL A   1      41.954  19.686  27.382  1.00  0.00     0.261 C 
BRANCH   6   7
ATOM      7  O   UNL A   1      42.330  19.434  26.023  1.00  0.00    -0.460 OA
BRANCH   7   8
ATOM      8  C   UNL A   1      43.391  19.928  25.339  1.00  0.00     0.338 C 
ATOM      9  O   UNL A   1      43.962  19.161  24.560  1.00  0.00    -0.246 OA
BRANCH   8  10
ATOM     10  C   UNL A   1      43.945  21.323  25.472  1.00  0.00     0.060 A 
ATOM     11  C   UNL A   1      45.026  21.728  26.265  1.00  0.00     0.016 A 
ATOM     12  C   UNL A   1      43.311  22.312  24.694  1.00  0.00     0.016 A 
ATOM     13  C   UNL A   1      45.412  23.062  26.356  1.00  0.00     0.010 A 
ATOM     14  C   UNL A   1      43.687  23.654  24.778  1.00  0.00     0.010 A 
ATOM     15  C   UNL A   1      44.709  24.033  25.653  1.00  0.00    -0.014 A 
BRANCH  15  16
ATOM     16  C   UNL A   1      44.856  25.438  26.067  1.00  0.00     0.031 A 
ATOM     17  C   UNL A   1      46.224  26.038  25.944  1.00  0.00     0.074 A 
ATOM     18  C   UNL A   1      43.794  26.161  26.454  1.00  0.00     0.049 A 
ATOM     19  N   UNL A   1      46.676  27.185  26.367  1.00  0.00    -0.248 NA
ATOM     20  C   UNL A   1      47.222  25.216  25.238  1.00  0.00     0.031 C 
ATOM     21  C   UNL A   1      42.410  25.688  26.455  1.00  0.00     0.029 A 
ATOM     22  N   UNL A   1      43.717  27.444  26.922  1.00  0.00    -0.354 N 
ATOM     23  C   UNL A   1      48.020  27.209  26.008  1.00  0.00     0.074 A 
ATOM     24  C   UNL A   1      48.307  25.961  25.339  1.00  0.00     0.031 C 
ATOM     25  C   UNL A   1      41.621  26.664  26.935  1.00  0.00     0.029 A 
ATOM     26  C   UNL A   1      42.453  27.796  27.335  1.00  0.00     0.049 A 
ATOM     27  H   UNL A   1      44.488  28.054  26.960  1.00  0.00     0.167 HD
ATOM     28  C   UNL A   1      48.931  28.184  26.243  1.00  0.00     0.034 A 
ATOM     29  C   UNL A   1      42.046  28.883  28.019  1.00  0.00     0.034 A 
ATOM     30  C   UNL A   1      48.597  29.387  26.961  1.00  0.00     0.049 A 
ATOM     31  C   UNL A   1      43.090  29.910  28.385  1.00  0.00     0.074 A 
ATOM     32  C   UNL A   1      49.418  30.421  27.364  1.00  0.00     0.029 A 
ATOM     33  N   UNL A   1      47.312  29.698  27.403  1.00  0.00    -0.354 N 
ATOM     34  N   UNL A   1      44.380  29.902  28.124  1.00  0.00    -0.248 NA
ATOM     35  C   UNL A   1      42.636  31.081  29.142  1.00  0.00     0.031 C 
ATOM     36  C   UNL A   1      48.642  31.324  28.103  1.00  0.00     0.029 A 
ATOM     37  C   UNL A   1      47.321  30.894  28.097  1.00  0.00     0.049 A 
ATOM     38  H   UNL A   1      46.512  29.146  27.245  1.00  0.00     0.167 HD
ATOM     39  C   UNL A   1      44.891  31.074  28.670  1.00  0.00     0.074 A 
ATOM     40  C   UNL A   1      43.765  31.767  29.270  1.00  0.00     0.031 C 
ATOM     41  C   UNL A   1      46.166  31.542  28.677  1.00  0.00     0.034 A 
BRANCH  28  42
ATOM     42  C   UNL A   1      50.354  27.888  25.831  1.00  0.00     0.023 A 
ATOM     43  C   UNL A   1      50.786  28.028  24.498  1.00  0.00     0.031 A 
ATOM     44  C   UNL A   1      51.242  27.299  26.749  1.00  0.00     0.131 A 
ATOM     45  C   UNL A   1      52.013  27.474  24.099  1.00  0.00     0.055 A 
ATOM     46  C   UNL A   1      52.503  26.838  26.363  1.00  0.00     0.041 A 
ATOM     47  F   UNL A   1      50.878  27.109  28.026  1.00  0.00    -0.206 F 
ATOM     48  C   UNL A   1      52.885  26.899  25.026  1.00  0.00     0.022 A 
BRANCH  45  49
ATOM     49  S   UNL A   1      52.353  27.313  22.321  1.00  0.00     0.124 S 
ATOM     50  O   UNL A   1      51.003  27.214  21.769  1.00  0.00    -0.237 OA
ATOM     51  O   UNL A   1      53.074  28.546  22.023  1.00  0.00    -0.237 OA
ATOM     52  O   UNL A   1      53.146  26.089  22.231  1.00  0.00    -0.744 OA
ENDBRANCH  45  49
ENDBRANCH  28  42
BRANCH  29  53
ATOM     53  C   UNL A   1      40.630  28.988  28.477  1.00  0.00     0.023 A 
ATOM     54  C   UNL A   1      40.272  28.842  29.826  1.00  0.00     0.031 A 
ATOM     55  C   UNL A   1      39.602  29.255  27.550  1.00  0.00     0.131 A 
ATOM     56  C   UNL A   1      38.924  28.958  30.208  1.00  0.00     0.055 A 
ATOM     57  C   UNL A   1      38.272  29.411  27.941  1.00  0.00     0.041 A 
ATOM     58  F   UNL A   1      39.885  29.398  26.245  1.00  0.00    -0.206 F 
ATOM     59  C   UNL A   1      37.925  29.258  29.278  1.00  0.00     0.022 A 
BRANCH  56  60
ATOM     60  S   UNL A   1      38.476  28.670  31.944  1.00  0.00     0.124 S 
ATOM     61  O   UNL A   1      38.875  27.280  32.129  1.00  0.00    -0.237 OA
ATOM     62  O   UNL A   1      39.285  29.668  32.636  1.00  0.00    -0.237 OA
ATOM     63  O   UNL A   1      37.035  28.914  31.970  1.00  0.00    -0.744 OA
ENDBRANCH  56  60
ENDBRANCH  29  53
BRANCH  41  64
ATOM     64  C   UNL A   1      46.392  32.890  29.308  1.00  0.00     0.023 A 
ATOM     65  C   UNL A   1      46.133  34.083  28.616  1.00  0.00     0.031 A 
ATOM     66  C   UNL A   1      46.822  32.968  30.644  1.00  0.00     0.131 A 
ATOM     67  C   UNL A   1      46.331  35.312  29.259  1.00  0.00     0.055 A 
ATOM     68  C   UNL A   1      46.972  34.192  31.294  1.00  0.00     0.041 A 
ATOM     69  F   UNL A   1      47.076  31.851  31.346  1.00  0.00    -0.206 F 
ATOM     70  C   UNL A   1      46.731  35.373  30.598  1.00  0.00     0.022 A 
BRANCH  67  71
ATOM     71  S   UNL A   1      46.095  36.840  28.313  1.00  0.00     0.124 S 
ATOM     72  O   UNL A   1      46.476  36.422  26.967  1.00  0.00    -0.237 OA
ATOM     73  O   UNL A   1      44.678  37.121  28.516  1.00  0.00    -0.237 OA
ATOM     74  O   UNL A   1      47.011  37.783  28.951  1.00  0.00    -0.744 OA
ENDBRANCH  67  71
ENDBRANCH  41  64
ENDBRANCH  15  16
ENDBRANCH   8  10
ENDBRANCH   7   8
ENDBRANCH   6   7
ENDBRANCH   5   6
ENDBRANCH   4   5
ENDBRANCH   3   4
ENDBRANCH   2   3
ENDBRANCH   1   2
BRANCH   1  75
ATOM     75  C   UNL A   1      35.768  22.625  25.164  1.00  0.00     0.188 C 
BRANCH  75  76
ATOM     76  C   UNL A   1      35.210  21.187  25.224  1.00  0.00     0.188 C 
BRANCH  76  77
ATOM     77  O   UNL A   1      34.029  21.049  26.004  1.00  0.00    -0.376 OA
BRANCH  77  78
ATOM     78  C   UNL A   1      34.106  21.607  27.313  1.00  0.00     0.202 C 
BRANCH  78  79
ATOM     79  C   UNL A   1      32.892  22.466  27.679  1.00  0.00     0.261 C 
BRANCH  79  80
ATOM     80  O   UNL A   1      32.016  22.700  26.554  1.00  0.00    -0.459 OA
BRANCH  80  81
ATOM     81  C   UNL A   1      30.959  23.547  26.728  1.00  0.00     0.365 C 
ATOM     82  O   UNL A   1      30.027  23.275  27.482  1.00  0.00    -0.245 OA
BRANCH  81  83
ATOM     83  C   UNL A   1      31.090  24.896  25.880  1.00  0.00     0.300 C 
ATOM     84  C   UNL A   1      32.246  24.865  24.843  1.00  0.00     0.139 C 
ATOM     85  N   UNL A   1      30.137  25.042  24.741  1.00  0.00    -0.323 N 
ATOM     86  C   UNL A   1      31.170  24.663  23.775  1.00  0.00     0.269 C 
ATOM     87  H   UNL A   1      29.255  24.532  24.777  1.00  0.00     0.348 HD
BRANCH  85  88
ATOM     88  C   UNL A   1      29.569  26.384  24.529  1.00  0.00     0.267 C 
BRANCH  88  89
ATOM     89  C   UNL A   1      29.735  27.233  23.240  1.00  0.00     0.097 C 
BRANCH  89  90
ATOM     90  C   UNL A   1      29.246  28.660  23.232  1.00  0.00    -0.042 A 
ATOM     91  C   UNL A   1      27.975  28.944  22.706  1.00  0.00     0.004 A 
ATOM     92  C   UNL A   1      30.007  29.721  23.738  1.00  0.00     0.004 A 
ATOM     93  C   UNL A   1      27.429  30.224  22.810  1.00  0.00     0.000 A 
ATOM     94  C   UNL A   1      29.445  30.993  23.878  1.00  0.00     0.000 A 
ATOM     95  C   UNL A   1      28.151  31.240  23.430  1.00  0.00     0.000 A 
ENDBRANCH  89  90
ENDBRANCH  88  89
ENDBRANCH  85  88
ENDBRANCH  81  83
ENDBRANCH  80  81
ENDBRANCH  79  80
ENDBRANCH  78  79
ENDBRANCH  77  78
ENDBRANCH  76  77
ENDBRANCH  75  76
ENDBRANCH   1  75
TORSDOF 26
ENDMDL
