MODEL 1
REMARK VINA RESULT:     -10.0      0.000      0.000
REMARK SMILES Cc1cc(C(=O)OCCOCCOCCOCCOC(=O)c2ccc(-c3c4nc(c(-c5cc(S(=O)(=O)[O-])ccc5F)c5ccc([nH]5)c(-c5cc(S(=O)(=O)[O-])ccc5F)c5nc(c(-c6cc(S(=O)(=O)[O-])ccc6F)c6ccc3[nH]6)C=C5)C=C4)cc2)ccc1NC(=O)N1C[C@@H](C)[C@H](C)C1
REMARK SMILES IDX 14 1 13 2 12 3 11 4 10 5 9 6 8 7 7 8 5 9 6 10 4 11 1 12 2 13
REMARK SMILES IDX 3 14 87 15 86 16 85 17 88 18 89 19 90 21 91 22 92 23 97 24
REMARK SMILES IDX 93 25 95 26 94 27 96 28 15 29 16 30 17 31 18 32 19 33 20 34
REMARK SMILES IDX 21 35 22 36 23 37 84 38 24 39 83 40 25 41 26 42 27 43 77 44
REMARK SMILES IDX 28 45 82 46 76 47 78 48 29 49 81 50 75 51 74 52 30 54 62 55
REMARK SMILES IDX 42 56 61 57 43 58 46 59 60 60 79 61 44 62 45 63 59 65 80 66
REMARK SMILES IDX 47 67 31 68 32 69 40 70 33 71 39 72 41 73 38 74 34 75 35 76
REMARK SMILES IDX 36 77 37 78 63 79 64 80 72 81 65 82 71 83 73 84 70 85 66 86
REMARK SMILES IDX 67 87 68 88 69 89 48 90 49 91 57 92 50 93 56 94 58 95 55 96
REMARK SMILES IDX 51 97 52 98 53 99 54 100
REMARK H PARENT 88 20 78 53 46 64
REMARK Flexibility Score: inf
ROOT
ATOM      1  C   UNL A   1      41.176  20.607  26.972  1.00  0.00     0.188 C 
ENDROOT
BRANCH   1   2
ATOM      2  O   UNL A   1      40.032  20.642  26.110  1.00  0.00    -0.377 OA
BRANCH   2   3
ATOM      3  C   UNL A   1      39.259  21.829  26.047  1.00  0.00     0.188 C 
BRANCH   3   4
ATOM      4  C   UNL A   1      37.861  21.723  25.426  1.00  0.00     0.188 C 
BRANCH   4   5
ATOM      5  O   UNL A   1      36.876  22.672  25.820  1.00  0.00    -0.376 OA
BRANCH   5   6
ATOM      6  C   UNL A   1      35.550  22.421  25.345  1.00  0.00     0.202 C 
BRANCH   6   7
ATOM      7  C   UNL A   1      34.911  21.099  25.769  1.00  0.00     0.261 C 
BRANCH   7   8
ATOM      8  O   UNL A   1      34.300  20.513  24.619  1.00  0.00    -0.460 OA
BRANCH   8   9
ATOM      9  C   UNL A   1      33.021  20.126  24.775  1.00  0.00     0.338 C 
ATOM     10  O   UNL A   1      32.610  19.152  25.374  1.00  0.00    -0.246 OA
BRANCH   9  11
ATOM     11  C   UNL A   1      32.186  21.293  24.424  1.00  0.00     0.060 A 
ATOM     12  C   UNL A   1      30.528  23.915  26.546  1.00  0.00     0.046 C 
ATOM     13  C   UNL A   1      30.898  23.163  25.296  1.00  0.00    -0.027 A 
ATOM     14  C   UNL A   1      31.556  21.939  25.487  1.00  0.00     0.021 A 
ATOM     15  C   UNL A   1      30.793  23.683  23.992  1.00  0.00     0.045 A 
ATOM     16  C   UNL A   1      31.588  23.131  22.988  1.00  0.00     0.027 A 
ATOM     17  C   UNL A   1      32.243  21.919  23.180  1.00  0.00     0.018 A 
BRANCH  15  18
ATOM     18  N   UNL A   1      29.903  24.737  23.741  1.00  0.00    -0.308 N 
ATOM     19  C   UNL A   1      29.939  26.073  23.966  1.00  0.00     0.321 C 
ATOM     20  H   UNL A   1      29.071  24.443  23.304  1.00  0.00     0.171 HD
ATOM     21  O   UNL A   1      28.860  26.672  23.874  1.00  0.00    -0.248 OA
ATOM     22  N   UNL A   1      31.095  26.729  24.267  1.00  0.00    -0.324 N 
ATOM     23  C   UNL A   1      31.032  27.961  25.035  1.00  0.00     0.125 C 
ATOM     24  C   UNL A   1      32.359  26.658  23.526  1.00  0.00     0.125 C 
ATOM     25  C   UNL A   1      32.146  28.837  24.473  1.00  0.00     0.010 C 
ATOM     26  C   UNL A   1      33.213  27.800  24.092  1.00  0.00     0.010 C 
ATOM     27  C   UNL A   1      32.611  29.884  25.470  1.00  0.00     0.010 C 
ATOM     28  C   UNL A   1      34.259  28.315  23.111  1.00  0.00     0.010 C 
ENDBRANCH  15  18
ENDBRANCH   9  11
ENDBRANCH   8   9
ENDBRANCH   7   8
ENDBRANCH   6   7
ENDBRANCH   5   6
ENDBRANCH   4   5
ENDBRANCH   3   4
ENDBRANCH   2   3
ENDBRANCH   1   2
BRANCH   1  29
ATOM     29  C   UNL A   1      41.558  21.887  27.715  1.00  0.00     0.188 C 
BRANCH  29  30
ATOM     30  O   UNL A   1      42.978  22.064  27.599  1.00  0.00    -0.376 OA
BRANCH  30  31
ATOM     31  C   UNL A   1      43.460  22.252  26.273  1.00  0.00     0.202 C 
BRANCH  31  32
ATOM     32  C   UNL A   1      44.862  22.863  26.211  1.00  0.00     0.261 C 
BRANCH  32  33
ATOM     33  O   UNL A   1      44.842  24.190  26.771  1.00  0.00    -0.460 OA
BRANCH  33  34
ATOM     34  C   UNL A   1      45.916  24.485  27.550  1.00  0.00     0.338 C 
ATOM     35  O   UNL A   1      47.072  24.224  27.267  1.00  0.00    -0.246 OA
BRANCH  34  36
ATOM     36  C   UNL A   1      45.466  25.109  28.823  1.00  0.00     0.060 A 
ATOM     37  C   UNL A   1      44.431  24.528  29.569  1.00  0.00     0.016 A 
ATOM     38  C   UNL A   1      45.938  26.371  29.170  1.00  0.00     0.016 A 
ATOM     39  C   UNL A   1      43.776  25.273  30.562  1.00  0.00     0.010 A 
ATOM     40  C   UNL A   1      45.241  27.124  30.094  1.00  0.00     0.010 A 
ATOM     41  C   UNL A   1      44.118  26.615  30.760  1.00  0.00    -0.014 A 
BRANCH  41  42
ATOM     42  C   UNL A   1      43.245  27.623  31.400  1.00  0.00     0.031 A 
ATOM     43  C   UNL A   1      42.444  28.607  30.598  1.00  0.00     0.074 A 
ATOM     44  C   UNL A   1      42.861  27.370  32.680  1.00  0.00     0.049 A 
ATOM     45  N   UNL A   1      41.666  29.503  31.113  1.00  0.00    -0.248 NA
ATOM     46  C   UNL A   1      42.444  28.684  29.136  1.00  0.00     0.031 C 
ATOM     47  C   UNL A   1      41.621  27.795  33.327  1.00  0.00     0.029 A 
ATOM     48  N   UNL A   1      43.502  26.663  33.695  1.00  0.00    -0.354 N 
ATOM     49  C   UNL A   1      40.792  29.930  30.134  1.00  0.00     0.074 A 
ATOM     50  C   UNL A   1      41.424  29.524  28.905  1.00  0.00     0.031 C 
ATOM     51  C   UNL A   1      41.642  27.483  34.630  1.00  0.00     0.029 A 
ATOM     52  C   UNL A   1      42.998  27.095  34.926  1.00  0.00     0.049 A 
ATOM     53  H   UNL A   1      44.193  25.974  33.567  1.00  0.00     0.167 HD
ATOM     54  C   UNL A   1      39.562  30.415  30.493  1.00  0.00     0.034 A 
ATOM     55  C   UNL A   1      43.764  27.708  35.874  1.00  0.00     0.034 A 
ATOM     56  C   UNL A   1      39.452  30.625  31.950  1.00  0.00     0.049 A 
ATOM     57  C   UNL A   1      43.327  29.157  36.033  1.00  0.00     0.074 A 
ATOM     58  C   UNL A   1      38.524  30.273  32.916  1.00  0.00     0.029 A 
ATOM     59  N   UNL A   1      40.517  31.199  32.649  1.00  0.00    -0.354 N 
ATOM     60  N   UNL A   1      42.608  29.775  35.127  1.00  0.00    -0.248 NA
ATOM     61  C   UNL A   1      43.538  29.990  37.211  1.00  0.00     0.031 C 
ATOM     62  C   UNL A   1      39.104  30.513  34.197  1.00  0.00     0.029 A 
ATOM     63  C   UNL A   1      40.348  31.098  34.012  1.00  0.00     0.049 A 
ATOM     64  H   UNL A   1      41.295  31.625  32.219  1.00  0.00     0.167 HD
ATOM     65  C   UNL A   1      42.170  30.973  35.602  1.00  0.00     0.074 A 
ATOM     66  C   UNL A   1      42.831  31.094  36.892  1.00  0.00     0.031 C 
ATOM     67  C   UNL A   1      41.277  31.756  34.923  1.00  0.00     0.034 A 
BRANCH  54  68
ATOM     68  C   UNL A   1      38.339  30.520  29.568  1.00  0.00     0.023 A 
ATOM     69  C   UNL A   1      37.542  31.694  29.581  1.00  0.00     0.031 A 
ATOM     70  C   UNL A   1      37.833  29.478  28.757  1.00  0.00     0.131 A 
ATOM     71  C   UNL A   1      36.340  31.789  28.838  1.00  0.00     0.055 A 
ATOM     72  C   UNL A   1      36.682  29.603  27.961  1.00  0.00     0.041 A 
ATOM     73  F   UNL A   1      38.379  28.256  28.737  1.00  0.00    -0.206 F 
ATOM     74  C   UNL A   1      35.924  30.759  28.003  1.00  0.00     0.022 A 
BRANCH  71  75
ATOM     75  S   UNL A   1      35.286  33.267  28.985  1.00  0.00     0.124 S 
ATOM     76  O   UNL A   1      36.175  34.221  29.638  1.00  0.00    -0.237 OA
ATOM     77  O   UNL A   1      34.937  33.550  27.597  1.00  0.00    -0.237 OA
ATOM     78  O   UNL A   1      34.170  32.805  29.811  1.00  0.00    -0.744 OA
ENDBRANCH  71  75
ENDBRANCH  54  68
BRANCH  55  79
ATOM     79  C   UNL A   1      45.087  27.043  36.036  1.00  0.00     0.023 A 
ATOM     80  C   UNL A   1      44.999  25.656  36.310  1.00  0.00     0.031 A 
ATOM     81  C   UNL A   1      46.227  27.502  35.355  1.00  0.00     0.131 A 
ATOM     82  C   UNL A   1      45.889  24.757  35.705  1.00  0.00     0.055 A 
ATOM     83  C   UNL A   1      47.145  26.598  34.796  1.00  0.00     0.041 A 
ATOM     84  F   UNL A   1      46.345  28.795  35.022  1.00  0.00    -0.206 F 
ATOM     85  C   UNL A   1      46.945  25.221  34.919  1.00  0.00     0.022 A 
BRANCH  82  86
ATOM     86  S   UNL A   1      45.488  22.978  35.692  1.00  0.00     0.124 S 
ATOM     87  O   UNL A   1      44.043  22.997  35.502  1.00  0.00    -0.237 OA
ATOM     88  O   UNL A   1      46.267  22.465  34.570  1.00  0.00    -0.237 OA
ATOM     89  O   UNL A   1      45.952  22.533  37.006  1.00  0.00    -0.744 OA
ENDBRANCH  82  86
ENDBRANCH  55  79
BRANCH  67  90
ATOM     90  C   UNL A   1      41.167  33.251  35.086  1.00  0.00     0.023 A 
ATOM     91  C   UNL A   1      42.098  34.124  34.515  1.00  0.00     0.031 A 
ATOM     92  C   UNL A   1      40.020  33.856  35.660  1.00  0.00     0.131 A 
ATOM     93  C   UNL A   1      41.919  35.513  34.577  1.00  0.00     0.055 A 
ATOM     94  C   UNL A   1      39.803  35.235  35.646  1.00  0.00     0.041 A 
ATOM     95  F   UNL A   1      39.041  33.136  36.226  1.00  0.00    -0.206 F 
ATOM     96  C   UNL A   1      40.763  36.077  35.111  1.00  0.00     0.022 A 
BRANCH  93  97
ATOM     97  S   UNL A   1      43.271  36.555  33.985  1.00  0.00     0.124 S 
ATOM     98  O   UNL A   1      42.653  37.878  34.001  1.00  0.00    -0.237 OA
ATOM     99  O   UNL A   1      44.305  36.328  34.989  1.00  0.00    -0.237 OA
ATOM    100  O   UNL A   1      43.562  36.019  32.657  1.00  0.00    -0.744 OA
ENDBRANCH  93  97
ENDBRANCH  67  90
ENDBRANCH  41  42
ENDBRANCH  34  36
ENDBRANCH  33  34
ENDBRANCH  32  33
ENDBRANCH  31  32
ENDBRANCH  30  31
ENDBRANCH  29  30
ENDBRANCH   1  29
TORSDOF 24
ENDMDL
MODEL 2
REMARK VINA RESULT:      -9.7      3.008     10.174
REMARK SMILES Cc1cc(C(=O)OCCOCCOCCOCCOC(=O)c2ccc(-c3c4nc(c(-c5cc(S(=O)(=O)[O-])ccc5F)c5ccc([nH]5)c(-c5cc(S(=O)(=O)[O-])ccc5F)c5nc(c(-c6cc(S(=O)(=O)[O-])ccc6F)c6ccc3[nH]6)C=C5)C=C4)cc2)ccc1NC(=O)N1C[C@@H](C)[C@H](C)C1
REMARK SMILES IDX 14 1 13 2 12 3 11 4 10 5 9 6 8 7 7 8 5 9 6 10 4 11 1 12 2 13
REMARK SMILES IDX 3 14 87 15 86 16 85 17 88 18 89 19 90 21 91 22 92 23 97 24
REMARK SMILES IDX 93 25 95 26 94 27 96 28 15 29 16 30 17 31 18 32 19 33 20 34
REMARK SMILES IDX 21 35 22 36 23 37 84 38 24 39 83 40 25 41 26 42 27 43 77 44
REMARK SMILES IDX 28 45 82 46 76 47 78 48 29 49 81 50 75 51 74 52 30 54 62 55
REMARK SMILES IDX 42 56 61 57 43 58 46 59 60 60 79 61 44 62 45 63 59 65 80 66
REMARK SMILES IDX 47 67 31 68 32 69 40 70 33 71 39 72 41 73 38 74 34 75 35 76
REMARK SMILES IDX 36 77 37 78 63 79 64 80 72 81 65 82 71 83 73 84 70 85 66 86
REMARK SMILES IDX 67 87 68 88 69 89 48 90 49 91 57 92 50 93 56 94 58 95 55 96
REMARK SMILES IDX 51 97 52 98 53 99 54 100
REMARK H PARENT 88 20 78 53 46 64
REMARK Flexibility Score: inf
ROOT
ATOM      1  C   UNL A   1      33.172  35.349  32.587  1.00  0.00     0.188 C 
ENDROOT
BRANCH   1   2
ATOM      2  O   UNL A   1      33.601  36.367  31.676  1.00  0.00    -0.377 OA
BRANCH   2   3
ATOM      3  C   UNL A   1      33.219  36.273  30.314  1.00  0.00     0.188 C 
BRANCH   3   4
ATOM      4  C   UNL A   1      33.722  35.057  29.527  1.00  0.00     0.188 C 
BRANCH   4   5
ATOM      5  O   UNL A   1      32.758  34.162  28.981  1.00  0.00    -0.376 OA
BRANCH   5   6
ATOM      6  C   UNL A   1      33.235  33.293  27.950  1.00  0.00     0.202 C 
BRANCH   6   7
ATOM      7  C   UNL A   1      34.298  32.272  28.354  1.00  0.00     0.261 C 
BRANCH   7   8
ATOM      8  O   UNL A   1      34.502  31.385  27.254  1.00  0.00    -0.460 OA
BRANCH   8   9
ATOM      9  C   UNL A   1      34.908  30.144  27.576  1.00  0.00     0.338 C 
ATOM     10  O   UNL A   1      35.496  29.795  28.580  1.00  0.00    -0.246 OA
BRANCH   9  11
ATOM     11  C   UNL A   1      34.178  29.221  26.683  1.00  0.00     0.060 A 
ATOM     12  C   UNL A   1      31.030  27.228  27.174  1.00  0.00     0.046 C 
ATOM     13  C   UNL A   1      32.271  27.725  26.483  1.00  0.00    -0.027 A 
ATOM     14  C   UNL A   1      33.150  28.484  27.269  1.00  0.00     0.021 A 
ATOM     15  C   UNL A   1      32.504  27.633  25.098  1.00  0.00     0.045 A 
ATOM     16  C   UNL A   1      33.405  28.521  24.512  1.00  0.00     0.027 A 
ATOM     17  C   UNL A   1      34.273  29.278  25.293  1.00  0.00     0.018 A 
BRANCH  15  18
ATOM     18  N   UNL A   1      31.825  26.661  24.348  1.00  0.00    -0.308 N 
ATOM     19  C   UNL A   1      32.087  25.372  24.022  1.00  0.00     0.321 C 
ATOM     20  H   UNL A   1      30.972  26.985  23.980  1.00  0.00     0.171 HD
ATOM     21  O   UNL A   1      31.406  24.890  23.108  1.00  0.00    -0.248 OA
ATOM     22  N   UNL A   1      33.037  24.637  24.667  1.00  0.00    -0.324 N 
ATOM     23  C   UNL A   1      33.675  23.534  23.968  1.00  0.00     0.125 C 
ATOM     24  C   UNL A   1      33.174  24.465  26.117  1.00  0.00     0.125 C 
ATOM     25  C   UNL A   1      33.912  22.471  25.036  1.00  0.00     0.010 C 
ATOM     26  C   UNL A   1      34.183  23.321  26.285  1.00  0.00     0.010 C 
ATOM     27  C   UNL A   1      35.036  21.522  24.661  1.00  0.00     0.010 C 
ATOM     28  C   UNL A   1      34.024  22.566  27.599  1.00  0.00     0.010 C 
ENDBRANCH  15  18
ENDBRANCH   9  11
ENDBRANCH   8   9
ENDBRANCH   7   8
ENDBRANCH   6   7
ENDBRANCH   5   6
ENDBRANCH   4   5
ENDBRANCH   3   4
ENDBRANCH   2   3
ENDBRANCH   1   2
BRANCH   1  29
ATOM     29  C   UNL A   1      34.237  34.456  33.224  1.00  0.00     0.188 C 
BRANCH  29  30
ATOM     30  O   UNL A   1      35.466  35.195  33.277  1.00  0.00    -0.376 OA
BRANCH  30  31
ATOM     31  C   UNL A   1      36.510  34.698  32.448  1.00  0.00     0.202 C 
BRANCH  31  32
ATOM     32  C   UNL A   1      36.528  33.171  32.334  1.00  0.00     0.261 C 
BRANCH  32  33
ATOM     33  O   UNL A   1      37.828  32.731  31.896  1.00  0.00    -0.460 OA
BRANCH  33  34
ATOM     34  C   UNL A   1      37.924  32.518  30.557  1.00  0.00     0.338 C 
ATOM     35  O   UNL A   1      37.440  33.238  29.702  1.00  0.00    -0.246 OA
BRANCH  34  36
ATOM     36  C   UNL A   1      38.646  31.244  30.294  1.00  0.00     0.060 A 
ATOM     37  C   UNL A   1      38.294  30.075  30.984  1.00  0.00     0.016 A 
ATOM     38  C   UNL A   1      39.796  31.260  29.510  1.00  0.00     0.016 A 
ATOM     39  C   UNL A   1      39.171  28.979  31.004  1.00  0.00     0.010 A 
ATOM     40  C   UNL A   1      40.687  30.208  29.596  1.00  0.00     0.010 A 
ATOM     41  C   UNL A   1      40.422  29.082  30.386  1.00  0.00    -0.014 A 
BRANCH  41  42
ATOM     42  C   UNL A   1      41.594  28.238  30.707  1.00  0.00     0.031 A 
ATOM     43  C   UNL A   1      41.989  27.068  29.854  1.00  0.00     0.074 A 
ATOM     44  C   UNL A   1      42.532  28.785  31.526  1.00  0.00     0.049 A 
ATOM     45  N   UNL A   1      43.006  26.305  30.091  1.00  0.00    -0.248 NA
ATOM     46  C   UNL A   1      41.276  26.638  28.649  1.00  0.00     0.031 C 
ATOM     47  C   UNL A   1      43.965  28.499  31.537  1.00  0.00     0.029 A 
ATOM     48  N   UNL A   1      42.408  29.734  32.538  1.00  0.00    -0.354 N 
ATOM     49  C   UNL A   1      43.321  25.631  28.929  1.00  0.00     0.074 A 
ATOM     50  C   UNL A   1      42.127  25.742  28.130  1.00  0.00     0.031 C 
ATOM     51  C   UNL A   1      44.558  29.119  32.565  1.00  0.00     0.029 A 
ATOM     52  C   UNL A   1      43.494  29.602  33.409  1.00  0.00     0.049 A 
ATOM     53  H   UNL A   1      41.677  30.388  32.626  1.00  0.00     0.167 HD
ATOM     54  C   UNL A   1      44.610  25.217  28.718  1.00  0.00     0.034 A 
ATOM     55  C   UNL A   1      43.362  29.257  34.722  1.00  0.00     0.034 A 
ATOM     56  C   UNL A   1      45.446  25.365  29.926  1.00  0.00     0.049 A 
ATOM     57  C   UNL A   1      43.965  27.880  34.957  1.00  0.00     0.074 A 
ATOM     58  C   UNL A   1      46.688  25.918  30.186  1.00  0.00     0.029 A 
ATOM     59  N   UNL A   1      44.928  25.005  31.173  1.00  0.00    -0.354 N 
ATOM     60  N   UNL A   1      44.201  27.042  33.977  1.00  0.00    -0.248 NA
ATOM     61  C   UNL A   1      44.449  27.364  36.233  1.00  0.00     0.031 C 
ATOM     62  C   UNL A   1      46.844  26.012  31.602  1.00  0.00     0.029 A 
ATOM     63  C   UNL A   1      45.737  25.431  32.204  1.00  0.00     0.049 A 
ATOM     64  H   UNL A   1      44.088  24.508  31.300  1.00  0.00     0.167 HD
ATOM     65  C   UNL A   1      44.936  25.985  34.420  1.00  0.00     0.074 A 
ATOM     66  C   UNL A   1      45.013  26.199  35.857  1.00  0.00     0.031 C 
ATOM     67  C   UNL A   1      45.451  25.038  33.578  1.00  0.00     0.034 A 
BRANCH  54  68
ATOM     68  C   UNL A   1      45.221  24.859  27.353  1.00  0.00     0.023 A 
ATOM     69  C   UNL A   1      44.871  23.638  26.721  1.00  0.00     0.031 A 
ATOM     70  C   UNL A   1      46.229  25.594  26.688  1.00  0.00     0.131 A 
ATOM     71  C   UNL A   1      45.497  23.209  25.525  1.00  0.00     0.055 A 
ATOM     72  C   UNL A   1      46.793  25.204  25.462  1.00  0.00     0.041 A 
ATOM     73  F   UNL A   1      46.779  26.695  27.216  1.00  0.00    -0.206 F 
ATOM     74  C   UNL A   1      46.434  24.004  24.876  1.00  0.00     0.022 A 
BRANCH  71  75
ATOM     75  S   UNL A   1      45.105  21.577  24.819  1.00  0.00     0.124 S 
ATOM     76  O   UNL A   1      44.497  21.927  23.541  1.00  0.00    -0.237 OA
ATOM     77  O   UNL A   1      46.412  20.932  24.761  1.00  0.00    -0.237 OA
ATOM     78  O   UNL A   1      44.183  20.998  25.798  1.00  0.00    -0.744 OA
ENDBRANCH  71  75
ENDBRANCH  54  68
BRANCH  55  79
ATOM     79  C   UNL A   1      42.232  29.975  35.375  1.00  0.00     0.023 A 
ATOM     80  C   UNL A   1      42.351  31.386  35.331  1.00  0.00     0.031 A 
ATOM     81  C   UNL A   1      40.938  29.430  35.407  1.00  0.00     0.131 A 
ATOM     82  C   UNL A   1      41.226  32.183  35.076  1.00  0.00     0.055 A 
ATOM     83  C   UNL A   1      39.809  30.241  35.204  1.00  0.00     0.041 A 
ATOM     84  F   UNL A   1      40.759  28.102  35.398  1.00  0.00    -0.206 F 
ATOM     85  C   UNL A   1      39.956  31.612  34.979  1.00  0.00     0.022 A 
BRANCH  82  86
ATOM     86  S   UNL A   1      41.459  33.920  34.569  1.00  0.00     0.124 S 
ATOM     87  O   UNL A   1      41.280  34.627  35.831  1.00  0.00    -0.237 OA
ATOM     88  O   UNL A   1      42.811  33.932  34.022  1.00  0.00    -0.237 OA
ATOM     89  O   UNL A   1      40.401  34.110  33.576  1.00  0.00    -0.744 OA
ENDBRANCH  82  86
ENDBRANCH  55  79
BRANCH  67  90
ATOM     90  C   UNL A   1      45.778  23.625  33.992  1.00  0.00     0.023 A 
ATOM     91  C   UNL A   1      47.081  23.236  34.316  1.00  0.00     0.031 A 
ATOM     92  C   UNL A   1      44.762  22.672  34.257  1.00  0.00     0.131 A 
ATOM     93  C   UNL A   1      47.350  21.952  34.810  1.00  0.00     0.055 A 
ATOM     94  C   UNL A   1      45.022  21.425  34.827  1.00  0.00     0.041 A 
ATOM     95  F   UNL A   1      43.468  22.921  34.009  1.00  0.00    -0.206 F 
ATOM     96  C   UNL A   1      46.328  21.051  35.098  1.00  0.00     0.022 A 
BRANCH  93  97
ATOM     97  S   UNL A   1      49.083  21.483  35.012  1.00  0.00     0.124 S 
ATOM     98  O   UNL A   1      49.444  21.095  33.651  1.00  0.00    -0.237 OA
ATOM     99  O   UNL A   1      49.688  22.718  35.499  1.00  0.00    -0.237 OA
ATOM    100  O   UNL A   1      49.033  20.389  35.979  1.00  0.00    -0.744 OA
ENDBRANCH  93  97
ENDBRANCH  67  90
ENDBRANCH  41  42
ENDBRANCH  34  36
ENDBRANCH  33  34
ENDBRANCH  32  33
ENDBRANCH  31  32
ENDBRANCH  30  31
ENDBRANCH  29  30
ENDBRANCH   1  29
TORSDOF 24
ENDMDL
MODEL 3
REMARK VINA RESULT:      -9.7      9.348     14.851
REMARK SMILES Cc1cc(C(=O)OCCOCCOCCOCCOC(=O)c2ccc(-c3c4nc(c(-c5cc(S(=O)(=O)[O-])ccc5F)c5ccc([nH]5)c(-c5cc(S(=O)(=O)[O-])ccc5F)c5nc(c(-c6cc(S(=O)(=O)[O-])ccc6F)c6ccc3[nH]6)C=C5)C=C4)cc2)ccc1NC(=O)N1C[C@@H](C)[C@H](C)C1
REMARK SMILES IDX 14 1 13 2 12 3 11 4 10 5 9 6 8 7 7 8 5 9 6 10 4 11 1 12 2 13
REMARK SMILES IDX 3 14 87 15 86 16 85 17 88 18 89 19 90 21 91 22 92 23 97 24
REMARK SMILES IDX 93 25 95 26 94 27 96 28 15 29 16 30 17 31 18 32 19 33 20 34
REMARK SMILES IDX 21 35 22 36 23 37 84 38 24 39 83 40 25 41 26 42 27 43 77 44
REMARK SMILES IDX 28 45 82 46 76 47 78 48 29 49 81 50 75 51 74 52 30 54 62 55
REMARK SMILES IDX 42 56 61 57 43 58 46 59 60 60 79 61 44 62 45 63 59 65 80 66
REMARK SMILES IDX 47 67 31 68 32 69 40 70 33 71 39 72 41 73 38 74 34 75 35 76
REMARK SMILES IDX 36 77 37 78 63 79 64 80 72 81 65 82 71 83 73 84 70 85 66 86
REMARK SMILES IDX 67 87 68 88 69 89 48 90 49 91 57 92 50 93 56 94 58 95 55 96
REMARK SMILES IDX 51 97 52 98 53 99 54 100
REMARK H PARENT 88 20 78 53 46 64
REMARK Flexibility Score: inf
ROOT
ATOM      1  C   UNL A   1      44.282  41.066  28.497  1.00  0.00     0.188 C 
ENDROOT
BRANCH   1   2
ATOM      2  O   UNL A   1      44.526  42.432  28.849  1.00  0.00    -0.377 OA
BRANCH   2   3
ATOM      3  C   UNL A   1      45.821  42.971  28.647  1.00  0.00     0.188 C 
BRANCH   3   4
ATOM      4  C   UNL A   1      46.305  43.112  27.199  1.00  0.00     0.188 C 
BRANCH   4   5
ATOM      5  O   UNL A   1      46.277  44.404  26.602  1.00  0.00    -0.376 OA
BRANCH   5   6
ATOM      6  C   UNL A   1      45.273  44.603  25.603  1.00  0.00     0.202 C 
BRANCH   6   7
ATOM      7  C   UNL A   1      44.355  43.417  25.311  1.00  0.00     0.261 C 
BRANCH   7   8
ATOM      8  O   UNL A   1      43.474  43.788  24.250  1.00  0.00    -0.460 OA
BRANCH   8   9
ATOM      9  C   UNL A   1      42.835  42.772  23.643  1.00  0.00     0.338 C 
ATOM     10  O   UNL A   1      41.945  42.080  24.097  1.00  0.00    -0.246 OA
BRANCH   9  11
ATOM     11  C   UNL A   1      43.134  42.893  22.201  1.00  0.00     0.060 A 
ATOM     12  C   UNL A   1      40.918  43.487  19.225  1.00  0.00     0.046 C 
ATOM     13  C   UNL A   1      42.187  43.203  19.983  1.00  0.00    -0.027 A 
ATOM     14  C   UNL A   1      42.035  42.902  21.345  1.00  0.00     0.021 A 
ATOM     15  C   UNL A   1      43.484  43.394  19.469  1.00  0.00     0.045 A 
ATOM     16  C   UNL A   1      44.536  43.574  20.365  1.00  0.00     0.027 A 
ATOM     17  C   UNL A   1      44.383  43.279  21.717  1.00  0.00     0.018 A 
BRANCH  15  18
ATOM     18  N   UNL A   1      43.679  43.405  18.080  1.00  0.00    -0.308 N 
ATOM     19  C   UNL A   1      43.297  44.239  17.083  1.00  0.00     0.321 C 
ATOM     20  H   UNL A   1      44.211  42.641  17.760  1.00  0.00     0.171 HD
ATOM     21  O   UNL A   1      43.403  43.799  15.931  1.00  0.00    -0.248 OA
ATOM     22  N   UNL A   1      42.832  45.497  17.325  1.00  0.00    -0.324 N 
ATOM     23  C   UNL A   1      41.933  46.117  16.366  1.00  0.00     0.125 C 
ATOM     24  C   UNL A   1      43.475  46.523  18.153  1.00  0.00     0.125 C 
ATOM     25  C   UNL A   1      42.299  47.597  16.377  1.00  0.00     0.010 C 
ATOM     26  C   UNL A   1      42.714  47.818  17.838  1.00  0.00     0.010 C 
ATOM     27  C   UNL A   1      41.154  48.475  15.906  1.00  0.00     0.010 C 
ATOM     28  C   UNL A   1      43.543  49.075  18.067  1.00  0.00     0.010 C 
ENDBRANCH  15  18
ENDBRANCH   9  11
ENDBRANCH   8   9
ENDBRANCH   7   8
ENDBRANCH   6   7
ENDBRANCH   5   6
ENDBRANCH   4   5
ENDBRANCH   3   4
ENDBRANCH   2   3
ENDBRANCH   1   2
BRANCH   1  29
ATOM     29  C   UNL A   1      43.749  40.126  29.578  1.00  0.00     0.188 C 
BRANCH  29  30
ATOM     30  O   UNL A   1      43.281  38.929  28.938  1.00  0.00    -0.376 OA
BRANCH  30  31
ATOM     31  C   UNL A   1      43.707  38.754  27.592  1.00  0.00     0.202 C 
BRANCH  31  32
ATOM     32  C   UNL A   1      43.604  37.308  27.099  1.00  0.00     0.261 C 
BRANCH  32  33
ATOM     33  O   UNL A   1      44.713  36.540  27.604  1.00  0.00    -0.460 OA
BRANCH  33  34
ATOM     34  C   UNL A   1      45.590  36.130  26.649  1.00  0.00     0.338 C 
ATOM     35  O   UNL A   1      46.282  36.873  25.976  1.00  0.00    -0.246 OA
BRANCH  34  36
ATOM     36  C   UNL A   1      45.528  34.651  26.502  1.00  0.00     0.060 A 
ATOM     37  C   UNL A   1      44.500  34.056  25.757  1.00  0.00     0.016 A 
ATOM     38  C   UNL A   1      46.375  33.852  27.265  1.00  0.00     0.016 A 
ATOM     39  C   UNL A   1      44.233  32.685  25.896  1.00  0.00     0.010 A 
ATOM     40  C   UNL A   1      46.060  32.521  27.455  1.00  0.00     0.010 A 
ATOM     41  C   UNL A   1      44.955  31.930  26.827  1.00  0.00    -0.014 A 
BRANCH  41  42
ATOM     42  C   UNL A   1      44.500  30.649  27.410  1.00  0.00     0.031 A 
ATOM     43  C   UNL A   1      43.489  30.593  28.517  1.00  0.00     0.074 A 
ATOM     44  C   UNL A   1      44.691  29.534  26.654  1.00  0.00     0.049 A 
ATOM     45  N   UNL A   1      43.058  29.499  29.055  1.00  0.00    -0.248 NA
ATOM     46  C   UNL A   1      42.863  31.766  29.132  1.00  0.00     0.031 C 
ATOM     47  C   UNL A   1      43.876  28.321  26.654  1.00  0.00     0.029 A 
ATOM     48  N   UNL A   1      45.666  29.241  25.703  1.00  0.00    -0.354 N 
ATOM     49  C   UNL A   1      41.873  29.774  29.706  1.00  0.00     0.074 A 
ATOM     50  C   UNL A   1      41.891  31.206  29.867  1.00  0.00     0.031 C 
ATOM     51  C   UNL A   1      44.438  27.380  25.884  1.00  0.00     0.029 A 
ATOM     52  C   UNL A   1      45.766  27.851  25.581  1.00  0.00     0.049 A 
ATOM     53  H   UNL A   1      46.196  29.902  25.200  1.00  0.00     0.167 HD
ATOM     54  C   UNL A   1      40.946  28.778  29.870  1.00  0.00     0.034 A 
ATOM     55  C   UNL A   1      46.898  27.153  25.885  1.00  0.00     0.034 A 
ATOM     56  C   UNL A   1      41.486  27.453  29.507  1.00  0.00     0.049 A 
ATOM     57  C   UNL A   1      46.652  26.279  27.106  1.00  0.00     0.074 A 
ATOM     58  C   UNL A   1      41.045  26.409  28.711  1.00  0.00     0.029 A 
ATOM     59  N   UNL A   1      42.778  27.099  29.904  1.00  0.00    -0.354 N 
ATOM     60  N   UNL A   1      45.649  26.485  27.924  1.00  0.00    -0.248 NA
ATOM     61  C   UNL A   1      47.395  25.075  27.460  1.00  0.00     0.031 C 
ATOM     62  C   UNL A   1      42.133  25.504  28.524  1.00  0.00     0.029 A 
ATOM     63  C   UNL A   1      43.207  25.947  29.283  1.00  0.00     0.049 A 
ATOM     64  H   UNL A   1      43.317  27.612  30.550  1.00  0.00     0.167 HD
ATOM     65  C   UNL A   1      45.525  25.447  28.797  1.00  0.00     0.074 A 
ATOM     66  C   UNL A   1      46.683  24.615  28.508  1.00  0.00     0.031 C 
ATOM     67  C   UNL A   1      44.472  25.330  29.662  1.00  0.00     0.034 A 
BRANCH  54  68
ATOM     68  C   UNL A   1      39.452  28.989  30.162  1.00  0.00     0.023 A 
ATOM     69  C   UNL A   1      38.598  29.493  29.148  1.00  0.00     0.031 A 
ATOM     70  C   UNL A   1      38.835  28.838  31.426  1.00  0.00     0.131 A 
ATOM     71  C   UNL A   1      37.243  29.817  29.405  1.00  0.00     0.055 A 
ATOM     72  C   UNL A   1      37.472  29.087  31.659  1.00  0.00     0.041 A 
ATOM     73  F   UNL A   1      39.525  28.510  32.525  1.00  0.00    -0.206 F 
ATOM     74  C   UNL A   1      36.669  29.585  30.649  1.00  0.00     0.022 A 
BRANCH  71  75
ATOM     75  S   UNL A   1      36.221  30.580  28.106  1.00  0.00     0.124 S 
ATOM     76  O   UNL A   1      36.383  32.004  28.376  1.00  0.00    -0.237 OA
ATOM     77  O   UNL A   1      36.835  30.078  26.881  1.00  0.00    -0.237 OA
ATOM     78  O   UNL A   1      34.882  30.054  28.375  1.00  0.00    -0.744 OA
ENDBRANCH  71  75
ENDBRANCH  54  68
BRANCH  55  79
ATOM     79  C   UNL A   1      48.123  27.829  25.373  1.00  0.00     0.023 A 
ATOM     80  C   UNL A   1      48.819  28.571  26.359  1.00  0.00     0.031 A 
ATOM     81  C   UNL A   1      48.871  27.287  24.316  1.00  0.00     0.131 A 
ATOM     82  C   UNL A   1      50.220  28.547  26.404  1.00  0.00     0.055 A 
ATOM     83  C   UNL A   1      50.276  27.313  24.339  1.00  0.00     0.041 A 
ATOM     84  F   UNL A   1      48.278  26.533  23.380  1.00  0.00    -0.206 F 
ATOM     85  C   UNL A   1      50.954  27.891  25.415  1.00  0.00     0.022 A 
BRANCH  82  86
ATOM     86  S   UNL A   1      51.074  29.109  27.915  1.00  0.00     0.124 S 
ATOM     87  O   UNL A   1      52.084  30.010  27.372  1.00  0.00    -0.237 OA
ATOM     88  O   UNL A   1      50.011  29.742  28.688  1.00  0.00    -0.237 OA
ATOM     89  O   UNL A   1      51.576  27.859  28.485  1.00  0.00    -0.744 OA
ENDBRANCH  82  86
ENDBRANCH  55  79
BRANCH  67  90
ATOM     90  C   UNL A   1      44.526  24.570  30.963  1.00  0.00     0.023 A 
ATOM     91  C   UNL A   1      45.044  25.143  32.129  1.00  0.00     0.031 A 
ATOM     92  C   UNL A   1      43.885  23.315  31.121  1.00  0.00     0.131 A 
ATOM     93  C   UNL A   1      44.981  24.467  33.356  1.00  0.00     0.055 A 
ATOM     94  C   UNL A   1      43.749  22.684  32.358  1.00  0.00     0.041 A 
ATOM     95  F   UNL A   1      43.329  22.663  30.090  1.00  0.00    -0.206 F 
ATOM     96  C   UNL A   1      44.311  23.254  33.488  1.00  0.00     0.022 A 
BRANCH  93  97
ATOM     97  S   UNL A   1      45.852  25.203  34.757  1.00  0.00     0.124 S 
ATOM     98  O   UNL A   1      47.244  25.102  34.327  1.00  0.00    -0.237 OA
ATOM     99  O   UNL A   1      45.299  26.553  34.796  1.00  0.00    -0.237 OA
ATOM    100  O   UNL A   1      45.483  24.345  35.881  1.00  0.00    -0.744 OA
ENDBRANCH  93  97
ENDBRANCH  67  90
ENDBRANCH  41  42
ENDBRANCH  34  36
ENDBRANCH  33  34
ENDBRANCH  32  33
ENDBRANCH  31  32
ENDBRANCH  30  31
ENDBRANCH  29  30
ENDBRANCH   1  29
TORSDOF 24
ENDMDL
