MODEL 1
REMARK VINA RESULT:      -9.5      0.000      0.000
REMARK SMILES CC(C)(C)OC(=O)N[C@@H](C(=O)OCCOCCOCCOCCOC(=O)c1ccc(-c2c3nc(c(-c4cc(S(=O)(=O)[O-])ccc4F)c4ccc([nH]4)c(-c4cc(S(=O)(=O)[O-])ccc4F)c4nc(c(-c5cc(S(=O)(=O)[O-])ccc5F)c5ccc2[nH]5)C=C4)C=C3)cc1)c1ccc([N+](=O)[O-])cc1
REMARK SMILES IDX 18 1 17 2 16 3 15 4 14 5 13 6 12 7 10 8 11 9 9 10 8 11 6 12
REMARK SMILES IDX 7 13 5 15 2 16 1 17 3 18 4 19 90 20 91 21 98 22 92 23 97 24
REMARK SMILES IDX 93 25 94 26 95 27 96 28 19 29 20 30 21 31 22 32 23 33 24 34
REMARK SMILES IDX 25 35 26 36 27 37 28 38 89 39 29 40 88 41 30 42 31 43 32 44
REMARK SMILES IDX 82 45 33 46 87 47 81 48 83 49 34 50 86 51 80 52 79 53 35 55
REMARK SMILES IDX 67 56 47 57 66 58 48 59 51 60 65 61 84 62 49 63 50 64 64 66
REMARK SMILES IDX 85 67 52 68 36 69 37 70 45 71 38 72 44 73 46 74 43 75 39 76
REMARK SMILES IDX 40 77 41 78 42 79 68 80 69 81 77 82 70 83 76 84 78 85 75 86
REMARK SMILES IDX 71 87 72 88 73 89 74 90 53 91 54 92 62 93 55 94 61 95 63 96
REMARK SMILES IDX 60 97 56 98 57 99 58 100 59 101
REMARK H PARENT 8 14 83 54 51 65
REMARK Flexibility Score: inf
ROOT
ATOM      1  O   UNL A   1      34.469  23.349  25.337  1.00  0.00    -0.377 OA
ENDROOT
BRANCH   1   2
ATOM      2  C   UNL A   1      34.497  24.598  24.684  1.00  0.00     0.188 C 
BRANCH   2   3
ATOM      3  C   UNL A   1      34.273  25.818  25.598  1.00  0.00     0.188 C 
BRANCH   3   4
ATOM      4  O   UNL A   1      33.205  26.718  25.348  1.00  0.00    -0.376 OA
BRANCH   4   5
ATOM      5  C   UNL A   1      33.329  28.074  25.756  1.00  0.00     0.202 C 
BRANCH   5   6
ATOM      6  C   UNL A   1      32.446  29.172  25.122  1.00  0.00     0.261 C 
BRANCH   6   7
ATOM      7  O   UNL A   1      31.121  28.782  24.691  1.00  0.00    -0.461 OA
BRANCH   7   8
ATOM      8  C   UNL A   1      30.967  28.450  23.381  1.00  0.00     0.333 C 
ATOM      9  O   UNL A   1      31.672  28.898  22.480  1.00  0.00    -0.249 OA
BRANCH   8  10
ATOM     10  C   UNL A   1      29.836  27.398  23.104  1.00  0.00     0.226 C 
BRANCH  10  11
ATOM     11  N   UNL A   1      28.427  27.752  23.235  1.00  0.00    -0.304 N 
ATOM     12  C   UNL A   1      27.836  28.955  23.035  1.00  0.00     0.408 C 
ATOM     13  O   UNL A   1      26.623  29.063  23.117  1.00  0.00    -0.225 OA
ATOM     14  H   UNL A   1      27.826  27.020  23.505  1.00  0.00     0.168 HD
BRANCH  12  15
ATOM     15  O   UNL A   1      28.707  29.913  22.662  1.00  0.00    -0.444 OA
BRANCH  15  16
ATOM     16  C   UNL A   1      28.473  31.288  23.061  1.00  0.00     0.106 C 
ATOM     17  C   UNL A   1      27.186  31.221  23.892  1.00  0.00     0.056 C 
ATOM     18  C   UNL A   1      28.244  32.199  21.852  1.00  0.00     0.056 C 
ATOM     19  C   UNL A   1      29.607  31.803  23.959  1.00  0.00     0.056 C 
ENDBRANCH  15  16
ENDBRANCH  12  15
ENDBRANCH  10  11
BRANCH  10  20
ATOM     20  C   UNL A   1      30.107  26.131  23.931  1.00  0.00    -0.014 A 
ATOM     21  C   UNL A   1      29.836  26.056  25.312  1.00  0.00     0.013 A 
ATOM     22  C   UNL A   1      30.707  25.026  23.309  1.00  0.00     0.013 A 
ATOM     23  C   UNL A   1      30.200  24.937  26.063  1.00  0.00     0.086 A 
ATOM     24  C   UNL A   1      31.052  23.890  24.045  1.00  0.00     0.086 A 
ATOM     25  C   UNL A   1      30.813  23.857  25.424  1.00  0.00     0.269 A 
BRANCH  25  26
ATOM     26  N   UNL A   1      31.211  22.683  26.206  1.00  0.00     0.062 N 
ATOM     27  O   UNL A   1      31.453  22.845  27.411  1.00  0.00    -0.258 OA
ATOM     28  O   UNL A   1      31.278  21.594  25.617  1.00  0.00    -0.258 OA
ENDBRANCH  25  26
ENDBRANCH  10  20
ENDBRANCH   8  10
ENDBRANCH   7   8
ENDBRANCH   6   7
ENDBRANCH   5   6
ENDBRANCH   4   5
ENDBRANCH   3   4
ENDBRANCH   2   3
ENDBRANCH   1   2
BRANCH   1  29
ATOM     29  C   UNL A   1      34.745  22.220  24.527  1.00  0.00     0.188 C 
BRANCH  29  30
ATOM     30  C   UNL A   1      36.227  21.916  24.238  1.00  0.00     0.188 C 
BRANCH  30  31
ATOM     31  O   UNL A   1      36.868  21.165  25.269  1.00  0.00    -0.376 OA
BRANCH  31  32
ATOM     32  C   UNL A   1      38.124  20.564  24.987  1.00  0.00     0.202 C 
BRANCH  32  33
ATOM     33  C   UNL A   1      39.313  20.940  25.889  1.00  0.00     0.261 C 
BRANCH  33  34
ATOM     34  O   UNL A   1      40.252  19.900  26.196  1.00  0.00    -0.460 OA
BRANCH  34  35
ATOM     35  C   UNL A   1      41.571  20.169  26.065  1.00  0.00     0.338 C 
ATOM     36  O   UNL A   1      42.395  19.494  25.481  1.00  0.00    -0.246 OA
BRANCH  35  37
ATOM     37  C   UNL A   1      41.794  21.546  26.563  1.00  0.00     0.060 A 
ATOM     38  C   UNL A   1      41.881  22.595  25.636  1.00  0.00     0.016 A 
ATOM     39  C   UNL A   1      41.880  21.808  27.932  1.00  0.00     0.016 A 
ATOM     40  C   UNL A   1      42.079  23.905  26.076  1.00  0.00     0.010 A 
ATOM     41  C   UNL A   1      42.111  23.117  28.368  1.00  0.00     0.010 A 
ATOM     42  C   UNL A   1      42.240  24.167  27.442  1.00  0.00    -0.014 A 
BRANCH  42  43
ATOM     43  C   UNL A   1      42.763  25.484  27.886  1.00  0.00     0.031 A 
ATOM     44  C   UNL A   1      41.776  26.489  28.413  1.00  0.00     0.074 A 
ATOM     45  C   UNL A   1      44.076  25.777  27.847  1.00  0.00     0.049 A 
ATOM     46  N   UNL A   1      41.961  27.734  28.768  1.00  0.00    -0.248 NA
ATOM     47  C   UNL A   1      40.387  26.021  28.556  1.00  0.00     0.031 C 
ATOM     48  C   UNL A   1      45.135  24.864  27.423  1.00  0.00     0.029 A 
ATOM     49  N   UNL A   1      44.740  26.938  28.163  1.00  0.00    -0.354 N 
ATOM     50  C   UNL A   1      40.716  28.197  29.180  1.00  0.00     0.074 A 
ATOM     51  C   UNL A   1      39.776  27.114  28.986  1.00  0.00     0.031 C 
ATOM     52  C   UNL A   1      46.315  25.507  27.486  1.00  0.00     0.029 A 
ATOM     53  C   UNL A   1      46.091  26.890  27.908  1.00  0.00     0.049 A 
ATOM     54  H   UNL A   1      44.290  27.730  28.535  1.00  0.00     0.167 HD
ATOM     55  C   UNL A   1      40.388  29.410  29.687  1.00  0.00     0.034 A 
ATOM     56  C   UNL A   1      47.026  27.862  27.971  1.00  0.00     0.034 A 
ATOM     57  C   UNL A   1      41.329  30.488  29.852  1.00  0.00     0.049 A 
ATOM     58  C   UNL A   1      46.611  29.250  28.411  1.00  0.00     0.074 A 
ATOM     59  C   UNL A   1      41.102  31.765  30.334  1.00  0.00     0.029 A 
ATOM     60  N   UNL A   1      42.679  30.420  29.530  1.00  0.00    -0.354 N 
ATOM     61  N   UNL A   1      45.427  29.682  28.787  1.00  0.00    -0.248 NA
ATOM     62  C   UNL A   1      47.657  30.283  28.437  1.00  0.00     0.031 C 
ATOM     63  C   UNL A   1      42.293  32.490  30.234  1.00  0.00     0.029 A 
ATOM     64  C   UNL A   1      43.288  31.641  29.774  1.00  0.00     0.049 A 
ATOM     65  H   UNL A   1      43.136  29.622  29.181  1.00  0.00     0.167 HD
ATOM     66  C   UNL A   1      45.602  31.021  29.132  1.00  0.00     0.074 A 
ATOM     67  C   UNL A   1      47.004  31.322  28.934  1.00  0.00     0.031 C 
ATOM     68  C   UNL A   1      44.689  31.923  29.576  1.00  0.00     0.034 A 
BRANCH  55  69
ATOM     69  C   UNL A   1      38.944  29.639  30.055  1.00  0.00     0.023 A 
ATOM     70  C   UNL A   1      38.048  30.257  29.165  1.00  0.00     0.031 A 
ATOM     71  C   UNL A   1      38.459  29.255  31.317  1.00  0.00     0.131 A 
ATOM     72  C   UNL A   1      36.734  30.533  29.574  1.00  0.00     0.055 A 
ATOM     73  C   UNL A   1      37.129  29.456  31.687  1.00  0.00     0.041 A 
ATOM     74  F   UNL A   1      39.275  28.685  32.218  1.00  0.00    -0.206 F 
ATOM     75  C   UNL A   1      36.260  30.111  30.818  1.00  0.00     0.022 A 
BRANCH  72  76
ATOM     76  S   UNL A   1      35.699  31.573  28.509  1.00  0.00     0.124 S 
ATOM     77  O   UNL A   1      34.672  32.023  29.447  1.00  0.00    -0.237 OA
ATOM     78  O   UNL A   1      36.637  32.591  28.052  1.00  0.00    -0.237 OA
ATOM     79  O   UNL A   1      35.230  30.648  27.479  1.00  0.00    -0.744 OA
ENDBRANCH  72  76
ENDBRANCH  55  69
BRANCH  56  80
ATOM     80  C   UNL A   1      48.437  27.598  27.555  1.00  0.00     0.023 A 
ATOM     81  C   UNL A   1      48.847  27.770  26.223  1.00  0.00     0.031 A 
ATOM     82  C   UNL A   1      49.372  27.067  28.463  1.00  0.00     0.131 A 
ATOM     83  C   UNL A   1      50.127  27.351  25.823  1.00  0.00     0.055 A 
ATOM     84  C   UNL A   1      50.667  26.719  28.074  1.00  0.00     0.041 A 
ATOM     85  F   UNL A   1      49.035  26.867  29.747  1.00  0.00    -0.206 F 
ATOM     86  C   UNL A   1      51.045  26.842  26.742  1.00  0.00     0.022 A 
BRANCH  83  87
ATOM     87  S   UNL A   1      50.524  27.351  24.051  1.00  0.00     0.124 S 
ATOM     88  O   UNL A   1      50.765  28.768  23.804  1.00  0.00    -0.237 OA
ATOM     89  O   UNL A   1      51.694  26.481  24.004  1.00  0.00    -0.237 OA
ATOM     90  O   UNL A   1      49.317  26.805  23.434  1.00  0.00    -0.744 OA
ENDBRANCH  83  87
ENDBRANCH  56  80
BRANCH  68  91
ATOM     91  C   UNL A   1      45.190  33.302  29.938  1.00  0.00     0.023 A 
ATOM     92  C   UNL A   1      45.194  34.360  29.012  1.00  0.00     0.031 A 
ATOM     93  C   UNL A   1      45.662  33.561  31.238  1.00  0.00     0.131 A 
ATOM     94  C   UNL A   1      45.708  35.612  29.383  1.00  0.00     0.055 A 
ATOM     95  C   UNL A   1      46.110  34.825  31.620  1.00  0.00     0.041 A 
ATOM     96  F   UNL A   1      45.683  32.589  32.164  1.00  0.00    -0.206 F 
ATOM     97  C   UNL A   1      46.146  35.857  30.688  1.00  0.00     0.022 A 
BRANCH  94  98
ATOM     98  S   UNL A   1      45.877  36.897  28.115  1.00  0.00     0.124 S 
ATOM     99  O   UNL A   1      44.766  37.787  28.435  1.00  0.00    -0.237 OA
ATOM    100  O   UNL A   1      47.212  37.423  28.380  1.00  0.00    -0.237 OA
ATOM    101  O   UNL A   1      45.740  36.160  26.859  1.00  0.00    -0.744 OA
ENDBRANCH  94  98
ENDBRANCH  68  91
ENDBRANCH  42  43
ENDBRANCH  35  37
ENDBRANCH  34  35
ENDBRANCH  33  34
ENDBRANCH  32  33
ENDBRANCH  31  32
ENDBRANCH  30  31
ENDBRANCH  29  30
ENDBRANCH   1  29
TORSDOF 28
ENDMDL
MODEL 2
REMARK VINA RESULT:      -9.0      4.327      9.578
REMARK SMILES CC(C)(C)OC(=O)N[C@@H](C(=O)OCCOCCOCCOCCOC(=O)c1ccc(-c2c3nc(c(-c4cc(S(=O)(=O)[O-])ccc4F)c4ccc([nH]4)c(-c4cc(S(=O)(=O)[O-])ccc4F)c4nc(c(-c5cc(S(=O)(=O)[O-])ccc5F)c5ccc2[nH]5)C=C4)C=C3)cc1)c1ccc([N+](=O)[O-])cc1
REMARK SMILES IDX 18 1 17 2 16 3 15 4 14 5 13 6 12 7 10 8 11 9 9 10 8 11 6 12
REMARK SMILES IDX 7 13 5 15 2 16 1 17 3 18 4 19 90 20 91 21 98 22 92 23 97 24
REMARK SMILES IDX 93 25 94 26 95 27 96 28 19 29 20 30 21 31 22 32 23 33 24 34
REMARK SMILES IDX 25 35 26 36 27 37 28 38 89 39 29 40 88 41 30 42 31 43 32 44
REMARK SMILES IDX 82 45 33 46 87 47 81 48 83 49 34 50 86 51 80 52 79 53 35 55
REMARK SMILES IDX 67 56 47 57 66 58 48 59 51 60 65 61 84 62 49 63 50 64 64 66
REMARK SMILES IDX 85 67 52 68 36 69 37 70 45 71 38 72 44 73 46 74 43 75 39 76
REMARK SMILES IDX 40 77 41 78 42 79 68 80 69 81 77 82 70 83 76 84 78 85 75 86
REMARK SMILES IDX 71 87 72 88 73 89 74 90 53 91 54 92 62 93 55 94 61 95 63 96
REMARK SMILES IDX 60 97 56 98 57 99 58 100 59 101
REMARK H PARENT 8 14 83 54 51 65
REMARK Flexibility Score: inf
ROOT
ATOM      1  O   UNL A   1      35.091  22.687  25.487  1.00  0.00    -0.377 OA
ENDROOT
BRANCH   1   2
ATOM      2  C   UNL A   1      34.444  23.417  26.503  1.00  0.00     0.188 C 
BRANCH   2   3
ATOM      3  C   UNL A   1      33.037  23.932  26.143  1.00  0.00     0.188 C 
BRANCH   3   4
ATOM      4  O   UNL A   1      32.870  25.201  25.528  1.00  0.00    -0.376 OA
BRANCH   4   5
ATOM      5  C   UNL A   1      33.671  26.292  25.959  1.00  0.00     0.202 C 
BRANCH   5   6
ATOM      6  C   UNL A   1      33.036  27.498  26.686  1.00  0.00     0.261 C 
BRANCH   6   7
ATOM      7  O   UNL A   1      33.940  28.427  27.331  1.00  0.00    -0.461 OA
BRANCH   7   8
ATOM      8  C   UNL A   1      33.879  29.727  26.936  1.00  0.00     0.333 C 
ATOM      9  O   UNL A   1      33.304  30.101  25.916  1.00  0.00    -0.249 OA
BRANCH   8  10
ATOM     10  C   UNL A   1      34.564  30.739  27.920  1.00  0.00     0.226 C 
BRANCH  10  11
ATOM     11  N   UNL A   1      34.923  32.086  27.489  1.00  0.00    -0.304 N 
ATOM     12  C   UNL A   1      34.728  33.260  28.137  1.00  0.00     0.408 C 
ATOM     13  O   UNL A   1      35.159  34.300  27.665  1.00  0.00    -0.225 OA
ATOM     14  H   UNL A   1      35.365  32.150  26.612  1.00  0.00     0.168 HD
BRANCH  12  15
ATOM     15  O   UNL A   1      34.125  33.107  29.332  1.00  0.00    -0.444 OA
BRANCH  15  16
ATOM     16  C   UNL A   1      34.754  33.640  30.526  1.00  0.00     0.106 C 
ATOM     17  C   UNL A   1      34.404  32.622  31.617  1.00  0.00     0.056 C 
ATOM     18  C   UNL A   1      34.178  35.006  30.910  1.00  0.00     0.056 C 
ATOM     19  C   UNL A   1      36.281  33.685  30.373  1.00  0.00     0.056 C 
ENDBRANCH  15  16
ENDBRANCH  12  15
ENDBRANCH  10  11
BRANCH  10  20
ATOM     20  C   UNL A   1      35.799  30.078  28.551  1.00  0.00    -0.014 A 
ATOM     21  C   UNL A   1      36.830  29.506  27.778  1.00  0.00     0.013 A 
ATOM     22  C   UNL A   1      35.880  29.976  29.948  1.00  0.00     0.013 A 
ATOM     23  C   UNL A   1      37.881  28.807  28.375  1.00  0.00     0.086 A 
ATOM     24  C   UNL A   1      36.941  29.301  30.558  1.00  0.00     0.086 A 
ATOM     25  C   UNL A   1      37.929  28.704  29.767  1.00  0.00     0.269 A 
BRANCH  25  26
ATOM     26  N   UNL A   1      39.022  27.962  30.402  1.00  0.00     0.062 N 
ATOM     27  O   UNL A   1      39.874  27.444  29.665  1.00  0.00    -0.258 OA
ATOM     28  O   UNL A   1      39.033  27.899  31.640  1.00  0.00    -0.258 OA
ENDBRANCH  25  26
ENDBRANCH  10  20
ENDBRANCH   8  10
ENDBRANCH   7   8
ENDBRANCH   6   7
ENDBRANCH   5   6
ENDBRANCH   4   5
ENDBRANCH   3   4
ENDBRANCH   2   3
ENDBRANCH   1   2
BRANCH   1  29
ATOM     29  C   UNL A   1      36.390  23.130  25.137  1.00  0.00     0.188 C 
BRANCH  29  30
ATOM     30  C   UNL A   1      37.176  23.902  26.213  1.00  0.00     0.188 C 
BRANCH  30  31
ATOM     31  O   UNL A   1      38.591  23.849  26.036  1.00  0.00    -0.376 OA
BRANCH  31  32
ATOM     32  C   UNL A   1      39.422  23.969  27.183  1.00  0.00     0.202 C 
BRANCH  32  33
ATOM     33  C   UNL A   1      40.414  25.147  27.225  1.00  0.00     0.261 C 
BRANCH  33  34
ATOM     34  O   UNL A   1      40.744  25.764  25.972  1.00  0.00    -0.460 OA
BRANCH  34  35
ATOM     35  C   UNL A   1      41.980  26.291  25.825  1.00  0.00     0.338 C 
ATOM     36  O   UNL A   1      42.805  25.985  24.987  1.00  0.00    -0.246 OA
BRANCH  35  37
ATOM     37  C   UNL A   1      42.070  27.469  26.720  1.00  0.00     0.060 A 
ATOM     38  C   UNL A   1      41.267  28.587  26.450  1.00  0.00     0.016 A 
ATOM     39  C   UNL A   1      42.909  27.458  27.836  1.00  0.00     0.016 A 
ATOM     40  C   UNL A   1      41.320  29.706  27.282  1.00  0.00     0.010 A 
ATOM     41  C   UNL A   1      42.986  28.593  28.649  1.00  0.00     0.010 A 
ATOM     42  C   UNL A   1      42.213  29.733  28.360  1.00  0.00    -0.014 A 
BRANCH  42  43
ATOM     43  C   UNL A   1      42.506  31.017  29.046  1.00  0.00     0.031 A 
ATOM     44  C   UNL A   1      43.744  31.767  28.632  1.00  0.00     0.074 A 
ATOM     45  C   UNL A   1      41.692  31.521  29.991  1.00  0.00     0.049 A 
ATOM     46  N   UNL A   1      44.271  32.849  29.139  1.00  0.00    -0.248 NA
ATOM     47  C   UNL A   1      44.486  31.211  27.488  1.00  0.00     0.031 C 
ATOM     48  C   UNL A   1      40.431  30.924  30.428  1.00  0.00     0.029 A 
ATOM     49  N   UNL A   1      41.813  32.651  30.763  1.00  0.00    -0.354 N 
ATOM     50  C   UNL A   1      45.405  33.109  28.375  1.00  0.00     0.074 A 
ATOM     51  C   UNL A   1      45.512  32.043  27.402  1.00  0.00     0.031 C 
ATOM     52  C   UNL A   1      39.905  31.684  31.406  1.00  0.00     0.029 A 
ATOM     53  C   UNL A   1      40.813  32.794  31.698  1.00  0.00     0.049 A 
ATOM     54  H   UNL A   1      42.548  33.298  30.658  1.00  0.00     0.167 HD
ATOM     55  C   UNL A   1      46.270  34.148  28.466  1.00  0.00     0.034 A 
ATOM     56  C   UNL A   1      40.673  33.693  32.695  1.00  0.00     0.034 A 
ATOM     57  C   UNL A   1      46.165  35.189  29.456  1.00  0.00     0.049 A 
ATOM     58  C   UNL A   1      41.726  34.768  32.866  1.00  0.00     0.074 A 
ATOM     59  C   UNL A   1      46.998  36.276  29.655  1.00  0.00     0.029 A 
ATOM     60  N   UNL A   1      45.170  35.270  30.422  1.00  0.00    -0.354 N 
ATOM     61  N   UNL A   1      42.802  34.997  32.145  1.00  0.00    -0.248 NA
ATOM     62  C   UNL A   1      41.547  35.707  33.982  1.00  0.00     0.031 C 
ATOM     63  C   UNL A   1      46.550  36.970  30.783  1.00  0.00     0.029 A 
ATOM     64  C   UNL A   1      45.386  36.370  31.237  1.00  0.00     0.049 A 
ATOM     65  H   UNL A   1      44.420  34.639  30.514  1.00  0.00     0.167 HD
ATOM     66  C   UNL A   1      43.398  36.129  32.699  1.00  0.00     0.074 A 
ATOM     67  C   UNL A   1      42.557  36.544  33.802  1.00  0.00     0.031 C 
ATOM     68  C   UNL A   1      44.535  36.773  32.330  1.00  0.00     0.034 A 
BRANCH  55  69
ATOM     69  C   UNL A   1      47.423  34.176  27.496  1.00  0.00     0.023 A 
ATOM     70  C   UNL A   1      48.630  33.509  27.769  1.00  0.00     0.031 A 
ATOM     71  C   UNL A   1      47.326  34.894  26.291  1.00  0.00     0.131 A 
ATOM     72  C   UNL A   1      49.712  33.629  26.885  1.00  0.00     0.055 A 
ATOM     73  C   UNL A   1      48.377  34.941  25.375  1.00  0.00     0.041 A 
ATOM     74  F   UNL A   1      46.207  35.572  25.989  1.00  0.00    -0.206 F 
ATOM     75  C   UNL A   1      49.585  34.317  25.676  1.00  0.00     0.022 A 
BRANCH  72  76
ATOM     76  S   UNL A   1      51.328  32.991  27.404  1.00  0.00     0.124 S 
ATOM     77  O   UNL A   1      51.414  31.749  26.639  1.00  0.00    -0.237 OA
ATOM     78  O   UNL A   1      52.235  34.057  26.996  1.00  0.00    -0.237 OA
ATOM     79  O   UNL A   1      51.179  32.817  28.848  1.00  0.00    -0.744 OA
ENDBRANCH  72  76
ENDBRANCH  55  69
BRANCH  56  80
ATOM     80  C   UNL A   1      39.535  33.599  33.660  1.00  0.00     0.023 A 
ATOM     81  C   UNL A   1      39.629  32.815  34.821  1.00  0.00     0.031 A 
ATOM     82  C   UNL A   1      38.298  34.208  33.379  1.00  0.00     0.131 A 
ATOM     83  C   UNL A   1      38.491  32.604  35.618  1.00  0.00     0.055 A 
ATOM     84  C   UNL A   1      37.189  34.052  34.214  1.00  0.00     0.041 A 
ATOM     85  F   UNL A   1      38.143  34.958  32.277  1.00  0.00    -0.206 F 
ATOM     86  C   UNL A   1      37.278  33.230  35.332  1.00  0.00     0.022 A 
BRANCH  83  87
ATOM     87  S   UNL A   1      38.588  31.384  36.959  1.00  0.00     0.124 S 
ATOM     88  O   UNL A   1      39.628  31.956  37.804  1.00  0.00    -0.237 OA
ATOM     89  O   UNL A   1      37.231  31.417  37.495  1.00  0.00    -0.237 OA
ATOM     90  O   UNL A   1      38.953  30.149  36.267  1.00  0.00    -0.744 OA
ENDBRANCH  83  87
ENDBRANCH  56  80
BRANCH  68  91
ATOM     91  C   UNL A   1      44.902  38.029  33.086  1.00  0.00     0.023 A 
ATOM     92  C   UNL A   1      44.203  39.236  32.908  1.00  0.00     0.031 A 
ATOM     93  C   UNL A   1      45.964  38.010  34.009  1.00  0.00     0.131 A 
ATOM     94  C   UNL A   1      44.608  40.386  33.603  1.00  0.00     0.055 A 
ATOM     95  C   UNL A   1      46.319  39.140  34.745  1.00  0.00     0.041 A 
ATOM     96  F   UNL A   1      46.667  36.886  34.218  1.00  0.00    -0.206 F 
ATOM     97  C   UNL A   1      45.648  40.341  34.536  1.00  0.00     0.022 A 
BRANCH  94  98
ATOM     98  S   UNL A   1      43.814  41.969  33.210  1.00  0.00     0.124 S 
ATOM     99  O   UNL A   1      44.289  42.824  34.293  1.00  0.00    -0.237 OA
ATOM    100  O   UNL A   1      44.347  42.265  31.884  1.00  0.00    -0.237 OA
ATOM    101  O   UNL A   1      42.386  41.655  33.247  1.00  0.00    -0.744 OA
ENDBRANCH  94  98
ENDBRANCH  68  91
ENDBRANCH  42  43
ENDBRANCH  35  37
ENDBRANCH  34  35
ENDBRANCH  33  34
ENDBRANCH  32  33
ENDBRANCH  31  32
ENDBRANCH  30  31
ENDBRANCH  29  30
ENDBRANCH   1  29
TORSDOF 28
ENDMDL
MODEL 3
REMARK VINA RESULT:      -9.0      3.969      9.411
REMARK SMILES CC(C)(C)OC(=O)N[C@@H](C(=O)OCCOCCOCCOCCOC(=O)c1ccc(-c2c3nc(c(-c4cc(S(=O)(=O)[O-])ccc4F)c4ccc([nH]4)c(-c4cc(S(=O)(=O)[O-])ccc4F)c4nc(c(-c5cc(S(=O)(=O)[O-])ccc5F)c5ccc2[nH]5)C=C4)C=C3)cc1)c1ccc([N+](=O)[O-])cc1
REMARK SMILES IDX 18 1 17 2 16 3 15 4 14 5 13 6 12 7 10 8 11 9 9 10 8 11 6 12
REMARK SMILES IDX 7 13 5 15 2 16 1 17 3 18 4 19 90 20 91 21 98 22 92 23 97 24
REMARK SMILES IDX 93 25 94 26 95 27 96 28 19 29 20 30 21 31 22 32 23 33 24 34
REMARK SMILES IDX 25 35 26 36 27 37 28 38 89 39 29 40 88 41 30 42 31 43 32 44
REMARK SMILES IDX 82 45 33 46 87 47 81 48 83 49 34 50 86 51 80 52 79 53 35 55
REMARK SMILES IDX 67 56 47 57 66 58 48 59 51 60 65 61 84 62 49 63 50 64 64 66
REMARK SMILES IDX 85 67 52 68 36 69 37 70 45 71 38 72 44 73 46 74 43 75 39 76
REMARK SMILES IDX 40 77 41 78 42 79 68 80 69 81 77 82 70 83 76 84 78 85 75 86
REMARK SMILES IDX 71 87 72 88 73 89 74 90 53 91 54 92 62 93 55 94 61 95 63 96
REMARK SMILES IDX 60 97 56 98 57 99 58 100 59 101
REMARK H PARENT 8 14 83 54 51 65
REMARK Flexibility Score: inf
ROOT
ATOM      1  O   UNL A   1      32.735  35.150  30.273  1.00  0.00    -0.377 OA
ENDROOT
BRANCH   1   2
ATOM      2  C   UNL A   1      33.193  35.444  28.973  1.00  0.00     0.188 C 
BRANCH   2   3
ATOM      3  C   UNL A   1      33.414  34.218  28.067  1.00  0.00     0.188 C 
BRANCH   3   4
ATOM      4  O   UNL A   1      32.325  33.382  27.707  1.00  0.00    -0.376 OA
BRANCH   4   5
ATOM      5  C   UNL A   1      32.582  32.052  27.276  1.00  0.00     0.202 C 
BRANCH   5   6
ATOM      6  C   UNL A   1      31.526  31.268  26.466  1.00  0.00     0.261 C 
BRANCH   6   7
ATOM      7  O   UNL A   1      31.655  29.827  26.440  1.00  0.00    -0.461 OA
BRANCH   7   8
ATOM      8  C   UNL A   1      31.822  29.241  25.224  1.00  0.00     0.333 C 
ATOM      9  O   UNL A   1      31.030  29.371  24.292  1.00  0.00    -0.249 OA
BRANCH   8  10
ATOM     10  C   UNL A   1      33.146  28.412  25.077  1.00  0.00     0.226 C 
BRANCH  10  11
ATOM     11  N   UNL A   1      33.901  28.411  23.828  1.00  0.00    -0.304 N 
ATOM     12  C   UNL A   1      33.573  27.839  22.644  1.00  0.00     0.408 C 
ATOM     13  O   UNL A   1      34.289  27.997  21.668  1.00  0.00    -0.225 OA
ATOM     14  H   UNL A   1      34.761  28.888  23.849  1.00  0.00     0.168 HD
BRANCH  12  15
ATOM     15  O   UNL A   1      32.383  27.208  22.676  1.00  0.00    -0.444 OA
BRANCH  15  16
ATOM     16  C   UNL A   1      32.259  25.883  22.099  1.00  0.00     0.106 C 
ATOM     17  C   UNL A   1      33.611  25.221  22.391  1.00  0.00     0.056 C 
ATOM     18  C   UNL A   1      32.046  25.941  20.583  1.00  0.00     0.056 C 
ATOM     19  C   UNL A   1      31.159  25.075  22.801  1.00  0.00     0.056 C 
ENDBRANCH  15  16
ENDBRANCH  12  15
ENDBRANCH  10  11
BRANCH  10  20
ATOM     20  C   UNL A   1      32.885  26.957  25.497  1.00  0.00    -0.014 A 
ATOM     21  C   UNL A   1      31.605  26.492  25.861  1.00  0.00     0.013 A 
ATOM     22  C   UNL A   1      33.967  26.069  25.589  1.00  0.00     0.013 A 
ATOM     23  C   UNL A   1      31.416  25.199  26.352  1.00  0.00     0.086 A 
ATOM     24  C   UNL A   1      33.785  24.764  26.055  1.00  0.00     0.086 A 
ATOM     25  C   UNL A   1      32.512  24.340  26.452  1.00  0.00     0.269 A 
BRANCH  25  26
ATOM     26  N   UNL A   1      32.326  22.985  26.978  1.00  0.00     0.062 N 
ATOM     27  O   UNL A   1      32.625  22.779  28.163  1.00  0.00    -0.258 OA
ATOM     28  O   UNL A   1      31.875  22.124  26.208  1.00  0.00    -0.258 OA
ENDBRANCH  25  26
ENDBRANCH  10  20
ENDBRANCH   8  10
ENDBRANCH   7   8
ENDBRANCH   6   7
ENDBRANCH   5   6
ENDBRANCH   4   5
ENDBRANCH   3   4
ENDBRANCH   2   3
ENDBRANCH   1   2
BRANCH   1  29
ATOM     29  C   UNL A   1      33.675  35.334  31.318  1.00  0.00     0.188 C 
BRANCH  29  30
ATOM     30  C   UNL A   1      34.401  34.076  31.829  1.00  0.00     0.188 C 
BRANCH  30  31
ATOM     31  O   UNL A   1      35.415  33.601  30.944  1.00  0.00    -0.376 OA
BRANCH  31  32
ATOM     32  C   UNL A   1      35.820  32.243  31.045  1.00  0.00     0.202 C 
BRANCH  32  33
ATOM     33  C   UNL A   1      35.791  31.592  32.441  1.00  0.00     0.261 C 
BRANCH  33  34
ATOM     34  O   UNL A   1      37.057  31.298  33.048  1.00  0.00    -0.460 OA
BRANCH  34  35
ATOM     35  C   UNL A   1      37.693  30.162  32.683  1.00  0.00     0.338 C 
ATOM     36  O   UNL A   1      37.260  29.029  32.766  1.00  0.00    -0.246 OA
BRANCH  35  37
ATOM     37  C   UNL A   1      38.919  30.555  31.951  1.00  0.00     0.060 A 
ATOM     38  C   UNL A   1      40.080  30.847  32.682  1.00  0.00     0.016 A 
ATOM     39  C   UNL A   1      38.937  30.598  30.555  1.00  0.00     0.016 A 
ATOM     40  C   UNL A   1      41.255  31.207  32.020  1.00  0.00     0.010 A 
ATOM     41  C   UNL A   1      40.106  30.992  29.895  1.00  0.00     0.010 A 
ATOM     42  C   UNL A   1      41.261  31.325  30.624  1.00  0.00    -0.014 A 
BRANCH  42  43
ATOM     43  C   UNL A   1      42.392  32.008  29.946  1.00  0.00     0.031 A 
ATOM     44  C   UNL A   1      43.581  31.174  29.553  1.00  0.00     0.074 A 
ATOM     45  C   UNL A   1      42.361  33.323  29.661  1.00  0.00     0.049 A 
ATOM     46  N   UNL A   1      44.727  31.543  29.044  1.00  0.00    -0.248 NA
ATOM     47  C   UNL A   1      43.456  29.723  29.771  1.00  0.00     0.031 C 
ATOM     48  C   UNL A   1      41.239  34.220  29.928  1.00  0.00     0.029 A 
ATOM     49  N   UNL A   1      43.312  34.134  29.091  1.00  0.00    -0.354 N 
ATOM     50  C   UNL A   1      45.459  30.372  28.875  1.00  0.00     0.074 A 
ATOM     51  C   UNL A   1      44.644  29.288  29.381  1.00  0.00     0.031 C 
ATOM     52  C   UNL A   1      41.575  35.464  29.539  1.00  0.00     0.029 A 
ATOM     53  C   UNL A   1      42.951  35.461  29.042  1.00  0.00     0.049 A 
ATOM     54  H   UNL A   1      44.172  33.798  28.750  1.00  0.00     0.167 HD
ATOM     55  C   UNL A   1      46.691  30.212  28.335  1.00  0.00     0.034 A 
ATOM     56  C   UNL A   1      43.664  36.547  28.675  1.00  0.00     0.034 A 
ATOM     57  C   UNL A   1      47.501  31.303  27.858  1.00  0.00     0.049 A 
ATOM     58  C   UNL A   1      45.091  36.360  28.202  1.00  0.00     0.074 A 
ATOM     59  C   UNL A   1      48.773  31.258  27.313  1.00  0.00     0.029 A 
ATOM     60  N   UNL A   1      47.124  32.640  27.875  1.00  0.00    -0.354 N 
ATOM     61  N   UNL A   1      45.778  35.248  28.058  1.00  0.00    -0.248 NA
ATOM     62  C   UNL A   1      45.838  37.573  27.840  1.00  0.00     0.031 C 
ATOM     63  C   UNL A   1      49.192  32.570  27.072  1.00  0.00     0.029 A 
ATOM     64  C   UNL A   1      48.149  33.430  27.381  1.00  0.00     0.049 A 
ATOM     65  H   UNL A   1      46.255  32.977  28.193  1.00  0.00     0.167 HD
ATOM     66  C   UNL A   1      47.019  35.631  27.551  1.00  0.00     0.074 A 
ATOM     67  C   UNL A   1      46.981  37.070  27.400  1.00  0.00     0.031 C 
ATOM     68  C   UNL A   1      48.094  34.864  27.233  1.00  0.00     0.034 A 
BRANCH  55  69
ATOM     69  C   UNL A   1      47.245  28.811  28.277  1.00  0.00     0.023 A 
ATOM     70  C   UNL A   1      47.114  28.016  27.125  1.00  0.00     0.031 A 
ATOM     71  C   UNL A   1      47.894  28.252  29.392  1.00  0.00     0.131 A 
ATOM     72  C   UNL A   1      47.563  26.687  27.137  1.00  0.00     0.055 A 
ATOM     73  C   UNL A   1      48.414  26.958  29.370  1.00  0.00     0.041 A 
ATOM     74  F   UNL A   1      48.024  28.955  30.529  1.00  0.00    -0.206 F 
ATOM     75  C   UNL A   1      48.238  26.162  28.241  1.00  0.00     0.022 A 
BRANCH  72  76
ATOM     76  S   UNL A   1      47.129  25.615  25.740  1.00  0.00     0.124 S 
ATOM     77  O   UNL A   1      46.910  24.335  26.409  1.00  0.00    -0.237 OA
ATOM     78  O   UNL A   1      45.942  26.266  25.199  1.00  0.00    -0.237 OA
ATOM     79  O   UNL A   1      48.315  25.669  24.887  1.00  0.00    -0.744 OA
ENDBRANCH  72  76
ENDBRANCH  55  69
BRANCH  56  80
ATOM     80  C   UNL A   1      43.087  37.920  28.791  1.00  0.00     0.023 A 
ATOM     81  C   UNL A   1      42.316  38.475  27.756  1.00  0.00     0.031 A 
ATOM     82  C   UNL A   1      43.386  38.740  29.895  1.00  0.00     0.131 A 
ATOM     83  C   UNL A   1      41.933  39.826  27.813  1.00  0.00     0.055 A 
ATOM     84  C   UNL A   1      42.941  40.061  29.979  1.00  0.00     0.041 A 
ATOM     85  F   UNL A   1      44.129  38.271  30.909  1.00  0.00    -0.206 F 
ATOM     86  C   UNL A   1      42.226  40.617  28.924  1.00  0.00     0.022 A 
BRANCH  83  87
ATOM     87  S   UNL A   1      41.166  40.570  26.346  1.00  0.00     0.124 S 
ATOM     88  O   UNL A   1      40.079  41.340  26.941  1.00  0.00    -0.237 OA
ATOM     89  O   UNL A   1      42.271  41.342  25.787  1.00  0.00    -0.237 OA
ATOM     90  O   UNL A   1      40.752  39.413  25.555  1.00  0.00    -0.744 OA
ENDBRANCH  83  87
ENDBRANCH  56  80
BRANCH  68  91
ATOM     91  C   UNL A   1      49.293  35.560  26.632  1.00  0.00     0.023 A 
ATOM     92  C   UNL A   1      50.284  36.159  27.430  1.00  0.00     0.031 A 
ATOM     93  C   UNL A   1      49.451  35.612  25.235  1.00  0.00     0.131 A 
ATOM     94  C   UNL A   1      51.358  36.829  26.825  1.00  0.00     0.055 A 
ATOM     95  C   UNL A   1      50.555  36.222  24.641  1.00  0.00     0.041 A 
ATOM     96  F   UNL A   1      48.536  35.058  24.423  1.00  0.00    -0.206 F 
ATOM     97  C   UNL A   1      51.512  36.846  25.436  1.00  0.00     0.022 A 
BRANCH  94  98
ATOM     98  S   UNL A   1      52.512  37.754  27.875  1.00  0.00     0.124 S 
ATOM     99  O   UNL A   1      51.836  37.726  29.167  1.00  0.00    -0.237 OA
ATOM    100  O   UNL A   1      53.731  36.957  27.777  1.00  0.00    -0.237 OA
ATOM    101  O   UNL A   1      52.579  39.068  27.237  1.00  0.00    -0.744 OA
ENDBRANCH  94  98
ENDBRANCH  68  91
ENDBRANCH  42  43
ENDBRANCH  35  37
ENDBRANCH  34  35
ENDBRANCH  33  34
ENDBRANCH  32  33
ENDBRANCH  31  32
ENDBRANCH  30  31
ENDBRANCH  29  30
ENDBRANCH   1  29
TORSDOF 28
ENDMDL
