MODEL 1
REMARK VINA RESULT:      -9.6      0.000      0.000
REMARK SMILES CC(C)[C@@H](NC(=O)/C(=C\c1ccccc1F)NC(=O)c1ccccc1)C(=O)OCCOCCOCCOCCOC(=O)c1ccc(-c2c3nc(c(-c4cc(S(=O)(=O)[O-])ccc4F)c4ccc([nH]4)c(-c4cc(S(=O)(=O)[O-])ccc4F)c4nc(c(-c5cc(S(=O)(=O)[O-])ccc5F)c5ccc2[nH]5)C=C4)C=C3)cc1
REMARK SMILES IDX 33 1 32 2 31 3 30 4 29 5 28 6 26 7 27 8 4 9 2 10 1 11 3 12
REMARK SMILES IDX 5 13 6 14 7 16 8 17 9 18 17 19 18 20 19 22 20 23 21 24 25 25
REMARK SMILES IDX 22 26 24 27 23 28 10 29 11 30 15 31 12 32 14 33 16 34 13 35
REMARK SMILES IDX 34 36 35 37 36 38 37 39 38 40 39 41 40 42 41 43 42 44 43 45
REMARK SMILES IDX 44 46 105 47 45 48 104 49 46 50 47 51 48 52 98 53 49 54
REMARK SMILES IDX 103 55 97 56 99 57 50 58 102 59 96 60 95 61 51 63 83 64
REMARK SMILES IDX 63 65 82 66 64 67 67 68 81 69 100 70 65 71 66 72 80 74
REMARK SMILES IDX 101 75 68 76 52 77 53 78 61 79 54 80 60 81 62 82 59 83 55 84
REMARK SMILES IDX 56 85 57 86 58 87 84 88 85 89 93 90 86 91 92 92 94 93 91 94
REMARK SMILES IDX 87 95 88 96 89 97 90 98 69 99 70 100 78 101 71 102 77 103
REMARK SMILES IDX 79 104 76 105 72 106 73 107 74 108 75 109
REMARK H PARENT 5 15 17 21 99 62 67 73
REMARK Flexibility Score: inf
ROOT
ATOM      1  C   UNL A   1      34.599  33.097  28.234  1.00  0.00     0.188 C 
ENDROOT
BRANCH   1   2
ATOM      2  C   UNL A   1      34.603  31.588  27.971  1.00  0.00     0.188 C 
BRANCH   2   3
ATOM      3  O   UNL A   1      33.513  31.124  27.184  1.00  0.00    -0.376 OA
BRANCH   3   4
ATOM      4  C   UNL A   1      33.230  29.727  27.208  1.00  0.00     0.202 C 
BRANCH   4   5
ATOM      5  C   UNL A   1      34.399  28.799  26.781  1.00  0.00     0.261 C 
BRANCH   5   6
ATOM      6  O   UNL A   1      34.198  27.577  26.013  1.00  0.00    -0.462 OA
BRANCH   6   7
ATOM      7  C   UNL A   1      33.715  27.669  24.764  1.00  0.00     0.328 C 
ATOM      8  O   UNL A   1      33.762  28.705  24.113  1.00  0.00    -0.250 OA
BRANCH   7   9
ATOM      9  C   UNL A   1      33.053  26.410  24.174  1.00  0.00     0.195 C 
BRANCH   9  10
ATOM     10  C   UNL A   1      31.896  26.633  23.156  1.00  0.00     0.017 C 
ATOM     11  C   UNL A   1      32.352  26.404  21.701  1.00  0.00     0.010 C 
ATOM     12  C   UNL A   1      30.737  25.660  23.416  1.00  0.00     0.010 C 
ENDBRANCH   9  10
BRANCH   9  13
ATOM     13  N   UNL A   1      34.063  25.448  23.691  1.00  0.00    -0.337 N 
ATOM     14  C   UNL A   1      34.150  24.093  23.858  1.00  0.00     0.268 C 
ATOM     15  H   UNL A   1      34.792  25.846  23.163  1.00  0.00     0.164 HD
ATOM     16  O   UNL A   1      34.737  23.424  23.009  1.00  0.00    -0.268 OA
BRANCH  14  17
ATOM     17  C   UNL A   1      33.662  23.451  25.119  1.00  0.00     0.107 C 
ATOM     18  C   UNL A   1      34.535  22.967  26.031  1.00  0.00     0.043 C 
BRANCH  17  19
ATOM     19  N   UNL A   1      32.308  23.169  25.282  1.00  0.00    -0.317 N 
ATOM     20  C   UNL A   1      31.605  21.984  25.344  1.00  0.00     0.255 C 
ATOM     21  H   UNL A   1      31.743  23.971  25.369  1.00  0.00     0.170 HD
ATOM     22  O   UNL A   1      30.473  21.961  25.821  1.00  0.00    -0.269 OA
BRANCH  20  23
ATOM     23  C   UNL A   1      32.160  20.742  24.796  1.00  0.00     0.040 A 
ATOM     24  C   UNL A   1      32.660  19.789  25.685  1.00  0.00     0.014 A 
ATOM     25  C   UNL A   1      32.194  20.525  23.415  1.00  0.00     0.014 A 
ATOM     26  C   UNL A   1      33.126  18.573  25.193  1.00  0.00     0.001 A 
ATOM     27  C   UNL A   1      32.634  19.294  22.930  1.00  0.00     0.001 A 
ATOM     28  C   UNL A   1      33.090  18.317  23.820  1.00  0.00     0.000 A 
ENDBRANCH  20  23
ENDBRANCH  17  19
BRANCH  18  29
ATOM     29  C   UNL A   1      35.984  22.811  25.826  1.00  0.00     0.012 A 
ATOM     30  C   UNL A   1      36.817  23.880  26.201  1.00  0.00     0.011 A 
ATOM     31  C   UNL A   1      36.579  21.636  25.375  1.00  0.00     0.130 A 
ATOM     32  C   UNL A   1      38.205  23.734  26.226  1.00  0.00     0.001 A 
ATOM     33  C   UNL A   1      37.964  21.487  25.384  1.00  0.00     0.040 A 
ATOM     34  F   UNL A   1      35.825  20.618  24.938  1.00  0.00    -0.206 F 
ATOM     35  C   UNL A   1      38.778  22.528  25.832  1.00  0.00     0.003 A 
ENDBRANCH  18  29
ENDBRANCH  14  17
ENDBRANCH   9  13
ENDBRANCH   7   9
ENDBRANCH   6   7
ENDBRANCH   5   6
ENDBRANCH   4   5
ENDBRANCH   3   4
ENDBRANCH   2   3
ENDBRANCH   1   2
BRANCH   1  36
ATOM     36  O   UNL A   1      33.550  33.600  29.046  1.00  0.00    -0.377 OA
BRANCH  36  37
ATOM     37  C   UNL A   1      33.800  34.813  29.749  1.00  0.00     0.188 C 
BRANCH  37  38
ATOM     38  C   UNL A   1      34.337  34.671  31.180  1.00  0.00     0.188 C 
BRANCH  38  39
ATOM     39  O   UNL A   1      33.769  33.577  31.896  1.00  0.00    -0.376 OA
BRANCH  39  40
ATOM     40  C   UNL A   1      34.680  32.597  32.382  1.00  0.00     0.202 C 
BRANCH  40  41
ATOM     41  C   UNL A   1      35.915  32.343  31.507  1.00  0.00     0.261 C 
BRANCH  41  42
ATOM     42  O   UNL A   1      36.897  31.441  32.041  1.00  0.00    -0.460 OA
BRANCH  42  43
ATOM     43  C   UNL A   1      36.901  30.156  31.607  1.00  0.00     0.338 C 
ATOM     44  O   UNL A   1      36.116  29.639  30.849  1.00  0.00    -0.246 OA
BRANCH  43  45
ATOM     45  C   UNL A   1      38.191  29.566  32.044  1.00  0.00     0.060 A 
ATOM     46  C   UNL A   1      39.248  30.433  32.353  1.00  0.00     0.016 A 
ATOM     47  C   UNL A   1      38.325  28.188  32.238  1.00  0.00     0.016 A 
ATOM     48  C   UNL A   1      40.448  29.918  32.843  1.00  0.00     0.010 A 
ATOM     49  C   UNL A   1      39.540  27.669  32.695  1.00  0.00     0.010 A 
ATOM     50  C   UNL A   1      40.614  28.530  32.974  1.00  0.00    -0.014 A 
BRANCH  50  51
ATOM     51  C   UNL A   1      41.986  27.989  33.128  1.00  0.00     0.031 A 
ATOM     52  C   UNL A   1      42.733  27.651  31.867  1.00  0.00     0.074 A 
ATOM     53  C   UNL A   1      42.575  27.857  34.331  1.00  0.00     0.049 A 
ATOM     54  N   UNL A   1      43.958  27.226  31.716  1.00  0.00    -0.248 NA
ATOM     55  C   UNL A   1      41.999  27.833  30.601  1.00  0.00     0.031 C 
ATOM     56  C   UNL A   1      41.970  28.202  35.616  1.00  0.00     0.029 A 
ATOM     57  N   UNL A   1      43.830  27.408  34.660  1.00  0.00    -0.354 N 
ATOM     58  C   UNL A   1      44.153  27.126  30.345  1.00  0.00     0.074 A 
ATOM     59  C   UNL A   1      42.910  27.493  29.705  1.00  0.00     0.031 C 
ATOM     60  C   UNL A   1      42.860  27.959  36.596  1.00  0.00     0.029 A 
ATOM     61  C   UNL A   1      44.089  27.422  36.011  1.00  0.00     0.049 A 
ATOM     62  H   UNL A   1      44.484  27.103  33.991  1.00  0.00     0.167 HD
ATOM     63  C   UNL A   1      45.272  26.773  29.673  1.00  0.00     0.034 A 
ATOM     64  C   UNL A   1      45.192  27.041  36.692  1.00  0.00     0.034 A 
ATOM     65  C   UNL A   1      46.491  26.364  30.313  1.00  0.00     0.049 A 
ATOM     66  C   UNL A   1      46.388  26.525  35.925  1.00  0.00     0.074 A 
ATOM     67  C   UNL A   1      47.671  25.947  29.725  1.00  0.00     0.029 A 
ATOM     68  N   UNL A   1      46.680  26.303  31.686  1.00  0.00    -0.354 N 
ATOM     69  N   UNL A   1      46.550  26.418  34.626  1.00  0.00    -0.248 NA
ATOM     70  C   UNL A   1      47.548  26.078  36.712  1.00  0.00     0.031 C 
ATOM     71  C   UNL A   1      48.556  25.580  30.743  1.00  0.00     0.029 A 
ATOM     72  C   UNL A   1      47.949  25.832  31.964  1.00  0.00     0.049 A 
ATOM     73  H   UNL A   1      46.010  26.559  32.359  1.00  0.00     0.167 HD
ATOM     74  C   UNL A   1      47.839  25.923  34.443  1.00  0.00     0.074 A 
ATOM     75  C   UNL A   1      48.410  25.742  35.760  1.00  0.00     0.031 C 
ATOM     76  C   UNL A   1      48.496  25.657  33.286  1.00  0.00     0.034 A 
BRANCH  63  77
ATOM     77  C   UNL A   1      45.206  26.775  28.173  1.00  0.00     0.023 A 
ATOM     78  C   UNL A   1      44.920  25.602  27.455  1.00  0.00     0.031 A 
ATOM     79  C   UNL A   1      45.433  27.961  27.454  1.00  0.00     0.131 A 
ATOM     80  C   UNL A   1      44.901  25.633  26.054  1.00  0.00     0.055 A 
ATOM     81  C   UNL A   1      45.357  27.996  26.062  1.00  0.00     0.041 A 
ATOM     82  F   UNL A   1      45.738  29.099  28.096  1.00  0.00    -0.206 F 
ATOM     83  C   UNL A   1      45.095  26.826  25.354  1.00  0.00     0.022 A 
BRANCH  80  84
ATOM     84  S   UNL A   1      44.687  24.076  25.151  1.00  0.00     0.124 S 
ATOM     85  O   UNL A   1      45.798  24.130  24.204  1.00  0.00    -0.237 OA
ATOM     86  O   UNL A   1      44.798  23.076  26.207  1.00  0.00    -0.237 OA
ATOM     87  O   UNL A   1      43.359  24.206  24.554  1.00  0.00    -0.744 OA
ENDBRANCH  80  84
ENDBRANCH  63  77
BRANCH  64  88
ATOM     88  C   UNL A   1      45.220  27.105  38.182  1.00  0.00     0.023 A 
ATOM     89  C   UNL A   1      45.690  28.243  38.854  1.00  0.00     0.031 A 
ATOM     90  C   UNL A   1      44.806  26.005  38.955  1.00  0.00     0.131 A 
ATOM     91  C   UNL A   1      45.760  28.249  40.258  1.00  0.00     0.055 A 
ATOM     92  C   UNL A   1      44.842  26.028  40.350  1.00  0.00     0.041 A 
ATOM     93  F   UNL A   1      44.353  24.890  38.360  1.00  0.00    -0.206 F 
ATOM     94  C   UNL A   1      45.327  27.153  41.010  1.00  0.00     0.022 A 
BRANCH  91  95
ATOM     95  S   UNL A   1      46.466  29.697  41.094  1.00  0.00     0.124 S 
ATOM     96  O   UNL A   1      47.531  29.090  41.884  1.00  0.00    -0.237 OA
ATOM     97  O   UNL A   1      46.889  30.522  39.968  1.00  0.00    -0.237 OA
ATOM     98  O   UNL A   1      45.341  30.226  41.863  1.00  0.00    -0.744 OA
ENDBRANCH  91  95
ENDBRANCH  64  88
BRANCH  76  99
ATOM     99  C   UNL A   1      49.920  25.183  33.373  1.00  0.00     0.023 A 
ATOM    100  C   UNL A   1      50.233  23.854  33.700  1.00  0.00     0.031 A 
ATOM    101  C   UNL A   1      50.966  26.050  33.012  1.00  0.00     0.131 A 
ATOM    102  C   UNL A   1      51.570  23.429  33.665  1.00  0.00     0.055 A 
ATOM    103  C   UNL A   1      52.289  25.613  32.944  1.00  0.00     0.041 A 
ATOM    104  F   UNL A   1      50.711  27.325  32.679  1.00  0.00    -0.206 F 
ATOM    105  C   UNL A   1      52.596  24.295  33.271  1.00  0.00     0.022 A 
BRANCH 102 106
ATOM    106  S   UNL A   1      51.959  21.718  34.124  1.00  0.00     0.124 S 
ATOM    107  O   UNL A   1      51.498  20.980  32.952  1.00  0.00    -0.237 OA
ATOM    108  O   UNL A   1      53.404  21.760  34.321  1.00  0.00    -0.237 OA
ATOM    109  O   UNL A   1      51.177  21.503  35.340  1.00  0.00    -0.744 OA
ENDBRANCH 102 106
ENDBRANCH  76  99
ENDBRANCH  50  51
ENDBRANCH  43  45
ENDBRANCH  42  43
ENDBRANCH  41  42
ENDBRANCH  40  41
ENDBRANCH  39  40
ENDBRANCH  38  39
ENDBRANCH  37  38
ENDBRANCH  36  37
ENDBRANCH   1  36
TORSDOF 29
ENDMDL
MODEL 2
REMARK VINA RESULT:      -9.3      1.265      7.264
REMARK SMILES CC(C)[C@@H](NC(=O)/C(=C\c1ccccc1F)NC(=O)c1ccccc1)C(=O)OCCOCCOCCOCCOC(=O)c1ccc(-c2c3nc(c(-c4cc(S(=O)(=O)[O-])ccc4F)c4ccc([nH]4)c(-c4cc(S(=O)(=O)[O-])ccc4F)c4nc(c(-c5cc(S(=O)(=O)[O-])ccc5F)c5ccc2[nH]5)C=C4)C=C3)cc1
REMARK SMILES IDX 33 1 32 2 31 3 30 4 29 5 28 6 26 7 27 8 4 9 2 10 1 11 3 12
REMARK SMILES IDX 5 13 6 14 7 16 8 17 9 18 17 19 18 20 19 22 20 23 21 24 25 25
REMARK SMILES IDX 22 26 24 27 23 28 10 29 11 30 15 31 12 32 14 33 16 34 13 35
REMARK SMILES IDX 34 36 35 37 36 38 37 39 38 40 39 41 40 42 41 43 42 44 43 45
REMARK SMILES IDX 44 46 105 47 45 48 104 49 46 50 47 51 48 52 98 53 49 54
REMARK SMILES IDX 103 55 97 56 99 57 50 58 102 59 96 60 95 61 51 63 83 64
REMARK SMILES IDX 63 65 82 66 64 67 67 68 81 69 100 70 65 71 66 72 80 74
REMARK SMILES IDX 101 75 68 76 52 77 53 78 61 79 54 80 60 81 62 82 59 83 55 84
REMARK SMILES IDX 56 85 57 86 58 87 84 88 85 89 93 90 86 91 92 92 94 93 91 94
REMARK SMILES IDX 87 95 88 96 89 97 90 98 69 99 70 100 78 101 71 102 77 103
REMARK SMILES IDX 79 104 76 105 72 106 73 107 74 108 75 109
REMARK H PARENT 5 15 17 21 99 62 67 73
REMARK Flexibility Score: inf
ROOT
ATOM      1  C   UNL A   1      34.491  32.971  28.141  1.00  0.00     0.188 C 
ENDROOT
BRANCH   1   2
ATOM      2  C   UNL A   1      34.378  31.457  27.942  1.00  0.00     0.188 C 
BRANCH   2   3
ATOM      3  O   UNL A   1      33.207  31.039  27.251  1.00  0.00    -0.376 OA
BRANCH   3   4
ATOM      4  C   UNL A   1      32.901  29.647  27.256  1.00  0.00     0.202 C 
BRANCH   4   5
ATOM      5  C   UNL A   1      34.065  28.704  26.846  1.00  0.00     0.261 C 
BRANCH   5   6
ATOM      6  O   UNL A   1      33.855  27.466  26.106  1.00  0.00    -0.462 OA
BRANCH   6   7
ATOM      7  C   UNL A   1      33.672  27.529  24.777  1.00  0.00     0.328 C 
ATOM      8  O   UNL A   1      33.953  28.522  24.119  1.00  0.00    -0.250 OA
BRANCH   7   9
ATOM      9  C   UNL A   1      33.052  26.295  24.096  1.00  0.00     0.195 C 
BRANCH   9  10
ATOM     10  C   UNL A   1      31.962  26.559  23.017  1.00  0.00     0.017 C 
ATOM     11  C   UNL A   1      31.801  25.368  22.051  1.00  0.00     0.010 C 
ATOM     12  C   UNL A   1      30.590  26.793  23.664  1.00  0.00     0.010 C 
ENDBRANCH   9  10
BRANCH   9  13
ATOM     13  N   UNL A   1      34.094  25.353  23.640  1.00  0.00    -0.337 N 
ATOM     14  C   UNL A   1      34.204  24.000  23.809  1.00  0.00     0.268 C 
ATOM     15  H   UNL A   1      34.828  25.766  23.131  1.00  0.00     0.164 HD
ATOM     16  O   UNL A   1      34.825  23.343  22.975  1.00  0.00    -0.268 OA
BRANCH  14  17
ATOM     17  C   UNL A   1      33.695  23.348  25.056  1.00  0.00     0.107 C 
ATOM     18  C   UNL A   1      34.553  22.824  25.961  1.00  0.00     0.043 C 
BRANCH  17  19
ATOM     19  N   UNL A   1      32.334  23.097  25.210  1.00  0.00    -0.317 N 
ATOM     20  C   UNL A   1      31.608  21.930  25.316  1.00  0.00     0.255 C 
ATOM     21  H   UNL A   1      31.783  23.912  25.251  1.00  0.00     0.170 HD
ATOM     22  O   UNL A   1      30.469  21.949  25.775  1.00  0.00    -0.269 OA
BRANCH  20  23
ATOM     23  C   UNL A   1      32.148  20.654  24.835  1.00  0.00     0.040 A 
ATOM     24  C   UNL A   1      32.532  19.698  25.777  1.00  0.00     0.014 A 
ATOM     25  C   UNL A   1      32.282  20.408  23.464  1.00  0.00     0.014 A 
ATOM     26  C   UNL A   1      32.980  18.452  25.344  1.00  0.00     0.001 A 
ATOM     27  C   UNL A   1      32.703  19.149  23.037  1.00  0.00     0.001 A 
ATOM     28  C   UNL A   1      33.042  18.171  23.977  1.00  0.00     0.000 A 
ENDBRANCH  20  23
ENDBRANCH  17  19
BRANCH  18  29
ATOM     29  C   UNL A   1      35.998  22.635  25.756  1.00  0.00     0.012 A 
ATOM     30  C   UNL A   1      36.854  23.688  26.122  1.00  0.00     0.011 A 
ATOM     31  C   UNL A   1      36.566  21.443  25.315  1.00  0.00     0.130 A 
ATOM     32  C   UNL A   1      38.239  23.511  26.148  1.00  0.00     0.001 A 
ATOM     33  C   UNL A   1      37.948  21.264  25.325  1.00  0.00     0.040 A 
ATOM     34  F   UNL A   1      35.789  20.439  24.887  1.00  0.00    -0.206 F 
ATOM     35  C   UNL A   1      38.785  22.290  25.764  1.00  0.00     0.003 A 
ENDBRANCH  18  29
ENDBRANCH  14  17
ENDBRANCH   9  13
ENDBRANCH   7   9
ENDBRANCH   6   7
ENDBRANCH   5   6
ENDBRANCH   4   5
ENDBRANCH   3   4
ENDBRANCH   2   3
ENDBRANCH   1   2
BRANCH   1  36
ATOM     36  O   UNL A   1      33.561  33.570  29.030  1.00  0.00    -0.377 OA
BRANCH  36  37
ATOM     37  C   UNL A   1      33.984  34.745  29.714  1.00  0.00     0.188 C 
BRANCH  37  38
ATOM     38  C   UNL A   1      34.659  34.534  31.076  1.00  0.00     0.188 C 
BRANCH  38  39
ATOM     39  O   UNL A   1      34.088  33.471  31.836  1.00  0.00    -0.376 OA
BRANCH  39  40
ATOM     40  C   UNL A   1      34.995  32.506  32.358  1.00  0.00     0.202 C 
BRANCH  40  41
ATOM     41  C   UNL A   1      36.194  32.166  31.461  1.00  0.00     0.261 C 
BRANCH  41  42
ATOM     42  O   UNL A   1      37.214  31.344  32.051  1.00  0.00    -0.460 OA
BRANCH  42  43
ATOM     43  C   UNL A   1      37.144  30.001  31.879  1.00  0.00     0.338 C 
ATOM     44  O   UNL A   1      36.221  29.370  31.422  1.00  0.00    -0.246 OA
BRANCH  43  45
ATOM     45  C   UNL A   1      38.508  29.471  32.128  1.00  0.00     0.060 A 
ATOM     46  C   UNL A   1      39.562  30.384  32.266  1.00  0.00     0.016 A 
ATOM     47  C   UNL A   1      38.727  28.103  32.319  1.00  0.00     0.016 A 
ATOM     48  C   UNL A   1      40.841  29.927  32.580  1.00  0.00     0.010 A 
ATOM     49  C   UNL A   1      40.016  27.641  32.599  1.00  0.00     0.010 A 
ATOM     50  C   UNL A   1      41.082  28.549  32.704  1.00  0.00    -0.014 A 
BRANCH  50  51
ATOM     51  C   UNL A   1      42.483  28.066  32.662  1.00  0.00     0.031 A 
ATOM     52  C   UNL A   1      43.174  27.857  33.982  1.00  0.00     0.074 A 
ATOM     53  C   UNL A   1      43.104  27.763  31.507  1.00  0.00     0.049 A 
ATOM     54  N   UNL A   1      44.366  27.386  34.230  1.00  0.00    -0.248 NA
ATOM     55  C   UNL A   1      42.405  28.217  35.188  1.00  0.00     0.031 C 
ATOM     56  C   UNL A   1      42.519  27.873  30.173  1.00  0.00     0.029 A 
ATOM     57  N   UNL A   1      44.371  27.283  31.280  1.00  0.00    -0.354 N 
ATOM     58  C   UNL A   1      44.475  27.358  35.615  1.00  0.00     0.074 A 
ATOM     59  C   UNL A   1      43.249  27.899  36.156  1.00  0.00     0.031 C 
ATOM     60  C   UNL A   1      43.423  27.462  29.264  1.00  0.00     0.029 A 
ATOM     61  C   UNL A   1      44.659  27.081  29.950  1.00  0.00     0.049 A 
ATOM     62  H   UNL A   1      45.014  27.100  32.003  1.00  0.00     0.167 HD
ATOM     63  C   UNL A   1      45.501  26.909  36.373  1.00  0.00     0.034 A 
ATOM     64  C   UNL A   1      45.792  26.641  29.359  1.00  0.00     0.034 A 
ATOM     65  C   UNL A   1      46.737  26.417  35.833  1.00  0.00     0.049 A 
ATOM     66  C   UNL A   1      46.975  26.268  30.223  1.00  0.00     0.074 A 
ATOM     67  C   UNL A   1      47.857  25.976  36.513  1.00  0.00     0.029 A 
ATOM     68  N   UNL A   1      47.022  26.317  34.478  1.00  0.00    -0.354 N 
ATOM     69  N   UNL A   1      47.070  26.266  31.533  1.00  0.00    -0.248 NA
ATOM     70  C   UNL A   1      48.201  25.840  29.534  1.00  0.00     0.031 C 
ATOM     71  C   UNL A   1      48.841  25.662  35.571  1.00  0.00     0.029 A 
ATOM     72  C   UNL A   1      48.310  25.846  34.303  1.00  0.00     0.049 A 
ATOM     73  H   UNL A   1      46.399  26.548  33.752  1.00  0.00     0.167 HD
ATOM     74  C   UNL A   1      48.352  25.807  31.822  1.00  0.00     0.074 A 
ATOM     75  C   UNL A   1      49.001  25.551  30.553  1.00  0.00     0.031 C 
ATOM     76  C   UNL A   1      48.936  25.601  33.029  1.00  0.00     0.034 A 
BRANCH  63  77
ATOM     77  C   UNL A   1      45.337  26.975  37.864  1.00  0.00     0.023 A 
ATOM     78  C   UNL A   1      45.791  28.085  38.598  1.00  0.00     0.031 A 
ATOM     79  C   UNL A   1      44.724  25.920  38.559  1.00  0.00     0.131 A 
ATOM     80  C   UNL A   1      45.654  28.097  39.993  1.00  0.00     0.055 A 
ATOM     81  C   UNL A   1      44.540  25.964  39.940  1.00  0.00     0.041 A 
ATOM     82  F   UNL A   1      44.301  24.828  37.903  1.00  0.00    -0.206 F 
ATOM     83  C   UNL A   1      45.011  27.055  40.666  1.00  0.00     0.022 A 
BRANCH  80  84
ATOM     84  S   UNL A   1      46.389  29.465  40.928  1.00  0.00     0.124 S 
ATOM     85  O   UNL A   1      47.720  28.938  41.222  1.00  0.00    -0.237 OA
ATOM     86  O   UNL A   1      46.336  30.568  39.976  1.00  0.00    -0.237 OA
ATOM     87  O   UNL A   1      45.508  29.599  42.087  1.00  0.00    -0.744 OA
ENDBRANCH  80  84
ENDBRANCH  63  77
BRANCH  64  88
ATOM     88  C   UNL A   1      45.883  26.551  27.874  1.00  0.00     0.023 A 
ATOM     89  C   UNL A   1      45.587  25.357  27.197  1.00  0.00     0.031 A 
ATOM     90  C   UNL A   1      46.304  27.655  27.112  1.00  0.00     0.131 A 
ATOM     91  C   UNL A   1      45.741  25.287  25.801  1.00  0.00     0.055 A 
ATOM     92  C   UNL A   1      46.420  27.592  25.722  1.00  0.00     0.041 A 
ATOM     93  F   UNL A   1      46.604  28.818  27.712  1.00  0.00    -0.206 F 
ATOM     94  C   UNL A   1      46.144  26.400  25.059  1.00  0.00     0.022 A 
BRANCH  91  95
ATOM     95  S   UNL A   1      45.447  23.702  24.968  1.00  0.00     0.124 S 
ATOM     96  O   UNL A   1      46.512  23.692  23.971  1.00  0.00    -0.237 OA
ATOM     97  O   UNL A   1      45.584  22.751  26.065  1.00  0.00    -0.237 OA
ATOM     98  O   UNL A   1      44.094  23.845  24.435  1.00  0.00    -0.744 OA
ENDBRANCH  91  95
ENDBRANCH  64  88
BRANCH  76  99
ATOM     99  C   UNL A   1      50.328  25.033  33.056  1.00  0.00     0.023 A 
ATOM    100  C   UNL A   1      51.460  25.863  33.019  1.00  0.00     0.031 A 
ATOM    101  C   UNL A   1      50.513  23.651  33.235  1.00  0.00     0.131 A 
ATOM    102  C   UNL A   1      52.737  25.297  33.153  1.00  0.00     0.055 A 
ATOM    103  C   UNL A   1      51.782  23.099  33.404  1.00  0.00     0.041 A 
ATOM    104  F   UNL A   1      49.458  22.823  33.290  1.00  0.00    -0.206 F 
ATOM    105  C   UNL A   1      52.903  23.924  33.364  1.00  0.00     0.022 A 
BRANCH 102 106
ATOM    106  S   UNL A   1      54.189  26.380  33.068  1.00  0.00     0.124 S 
ATOM    107  O   UNL A   1      54.268  26.667  31.639  1.00  0.00    -0.237 OA
ATOM    108  O   UNL A   1      53.804  27.499  33.921  1.00  0.00    -0.237 OA
ATOM    109  O   UNL A   1      55.269  25.547  33.594  1.00  0.00    -0.744 OA
ENDBRANCH 102 106
ENDBRANCH  76  99
ENDBRANCH  50  51
ENDBRANCH  43  45
ENDBRANCH  42  43
ENDBRANCH  41  42
ENDBRANCH  40  41
ENDBRANCH  39  40
ENDBRANCH  38  39
ENDBRANCH  37  38
ENDBRANCH  36  37
ENDBRANCH   1  36
TORSDOF 29
ENDMDL
MODEL 3
REMARK VINA RESULT:      -8.7      1.559      3.245
REMARK SMILES CC(C)[C@@H](NC(=O)/C(=C\c1ccccc1F)NC(=O)c1ccccc1)C(=O)OCCOCCOCCOCCOC(=O)c1ccc(-c2c3nc(c(-c4cc(S(=O)(=O)[O-])ccc4F)c4ccc([nH]4)c(-c4cc(S(=O)(=O)[O-])ccc4F)c4nc(c(-c5cc(S(=O)(=O)[O-])ccc5F)c5ccc2[nH]5)C=C4)C=C3)cc1
REMARK SMILES IDX 33 1 32 2 31 3 30 4 29 5 28 6 26 7 27 8 4 9 2 10 1 11 3 12
REMARK SMILES IDX 5 13 6 14 7 16 8 17 9 18 17 19 18 20 19 22 20 23 21 24 25 25
REMARK SMILES IDX 22 26 24 27 23 28 10 29 11 30 15 31 12 32 14 33 16 34 13 35
REMARK SMILES IDX 34 36 35 37 36 38 37 39 38 40 39 41 40 42 41 43 42 44 43 45
REMARK SMILES IDX 44 46 105 47 45 48 104 49 46 50 47 51 48 52 98 53 49 54
REMARK SMILES IDX 103 55 97 56 99 57 50 58 102 59 96 60 95 61 51 63 83 64
REMARK SMILES IDX 63 65 82 66 64 67 67 68 81 69 100 70 65 71 66 72 80 74
REMARK SMILES IDX 101 75 68 76 52 77 53 78 61 79 54 80 60 81 62 82 59 83 55 84
REMARK SMILES IDX 56 85 57 86 58 87 84 88 85 89 93 90 86 91 92 92 94 93 91 94
REMARK SMILES IDX 87 95 88 96 89 97 90 98 69 99 70 100 78 101 71 102 77 103
REMARK SMILES IDX 79 104 76 105 72 106 73 107 74 108 75 109
REMARK H PARENT 5 15 17 21 99 62 67 73
REMARK Flexibility Score: inf
ROOT
ATOM      1  C   UNL A   1      34.639  33.290  28.926  1.00  0.00     0.188 C 
ENDROOT
BRANCH   1   2
ATOM      2  C   UNL A   1      34.379  31.945  28.241  1.00  0.00     0.188 C 
BRANCH   2   3
ATOM      3  O   UNL A   1      33.221  31.917  27.416  1.00  0.00    -0.376 OA
BRANCH   3   4
ATOM      4  C   UNL A   1      32.514  30.684  27.314  1.00  0.00     0.202 C 
BRANCH   4   5
ATOM      5  C   UNL A   1      33.390  29.427  27.061  1.00  0.00     0.261 C 
BRANCH   5   6
ATOM      6  O   UNL A   1      32.827  28.098  26.865  1.00  0.00    -0.462 OA
BRANCH   6   7
ATOM      7  C   UNL A   1      33.541  27.184  26.189  1.00  0.00     0.328 C 
ATOM      8  O   UNL A   1      34.733  27.325  25.947  1.00  0.00    -0.250 OA
BRANCH   7   9
ATOM      9  C   UNL A   1      32.789  25.939  25.685  1.00  0.00     0.195 C 
BRANCH   9  10
ATOM     10  C   UNL A   1      33.596  24.610  25.609  1.00  0.00     0.017 C 
ATOM     11  C   UNL A   1      35.078  24.850  25.257  1.00  0.00     0.010 C 
ATOM     12  C   UNL A   1      33.574  23.873  26.957  1.00  0.00     0.010 C 
ENDBRANCH   9  10
BRANCH   9  13
ATOM     13  N   UNL A   1      31.491  25.781  26.371  1.00  0.00    -0.337 N 
ATOM     14  C   UNL A   1      30.311  25.248  25.929  1.00  0.00     0.268 C 
ATOM     15  H   UNL A   1      31.472  26.113  27.298  1.00  0.00     0.164 HD
ATOM     16  O   UNL A   1      29.534  24.758  26.747  1.00  0.00    -0.268 OA
BRANCH  14  17
ATOM     17  C   UNL A   1      29.910  25.382  24.493  1.00  0.00     0.107 C 
ATOM     18  C   UNL A   1      30.259  24.440  23.588  1.00  0.00     0.043 C 
BRANCH  17  19
ATOM     19  N   UNL A   1      29.344  26.568  24.032  1.00  0.00    -0.317 N 
ATOM     20  C   UNL A   1      29.825  27.577  23.225  1.00  0.00     0.255 C 
ATOM     21  H   UNL A   1      28.421  26.715  24.344  1.00  0.00     0.170 HD
ATOM     22  O   UNL A   1      29.048  28.358  22.682  1.00  0.00    -0.269 OA
BRANCH  20  23
ATOM     23  C   UNL A   1      31.266  27.780  23.040  1.00  0.00     0.040 A 
ATOM     24  C   UNL A   1      31.981  26.832  22.306  1.00  0.00     0.014 A 
ATOM     25  C   UNL A   1      31.906  28.892  23.595  1.00  0.00     0.014 A 
ATOM     26  C   UNL A   1      33.335  27.039  22.056  1.00  0.00     0.001 A 
ATOM     27  C   UNL A   1      33.255  29.110  23.317  1.00  0.00     0.001 A 
ATOM     28  C   UNL A   1      33.965  28.188  22.541  1.00  0.00     0.000 A 
ENDBRANCH  20  23
ENDBRANCH  17  19
BRANCH  18  29
ATOM     29  C   UNL A   1      31.205  23.339  23.824  1.00  0.00     0.012 A 
ATOM     30  C   UNL A   1      30.969  22.497  24.925  1.00  0.00     0.011 A 
ATOM     31  C   UNL A   1      32.258  23.028  22.968  1.00  0.00     0.130 A 
ATOM     32  C   UNL A   1      31.698  21.319  25.098  1.00  0.00     0.001 A 
ATOM     33  C   UNL A   1      33.000  21.861  23.142  1.00  0.00     0.040 A 
ATOM     34  F   UNL A   1      32.567  23.841  21.949  1.00  0.00    -0.206 F 
ATOM     35  C   UNL A   1      32.706  20.994  24.194  1.00  0.00     0.003 A 
ENDBRANCH  18  29
ENDBRANCH  14  17
ENDBRANCH   9  13
ENDBRANCH   7   9
ENDBRANCH   6   7
ENDBRANCH   5   6
ENDBRANCH   4   5
ENDBRANCH   3   4
ENDBRANCH   2   3
ENDBRANCH   1   2
BRANCH   1  36
ATOM     36  O   UNL A   1      33.578  33.828  29.699  1.00  0.00    -0.377 OA
BRANCH  36  37
ATOM     37  C   UNL A   1      33.901  34.889  30.592  1.00  0.00     0.188 C 
BRANCH  37  38
ATOM     38  C   UNL A   1      34.211  34.488  32.041  1.00  0.00     0.188 C 
BRANCH  38  39
ATOM     39  O   UNL A   1      34.074  33.090  32.287  1.00  0.00    -0.376 OA
BRANCH  39  40
ATOM     40  C   UNL A   1      35.281  32.350  32.425  1.00  0.00     0.202 C 
BRANCH  40  41
ATOM     41  C   UNL A   1      36.503  32.925  31.695  1.00  0.00     0.261 C 
BRANCH  41  42
ATOM     42  O   UNL A   1      37.708  32.146  31.763  1.00  0.00    -0.460 OA
BRANCH  42  43
ATOM     43  C   UNL A   1      37.718  30.917  31.191  1.00  0.00     0.338 C 
ATOM     44  O   UNL A   1      37.009  30.522  30.296  1.00  0.00    -0.246 OA
BRANCH  43  45
ATOM     45  C   UNL A   1      38.928  30.223  31.700  1.00  0.00     0.060 A 
ATOM     46  C   UNL A   1      40.019  31.002  32.106  1.00  0.00     0.016 A 
ATOM     47  C   UNL A   1      38.947  28.835  31.863  1.00  0.00     0.016 A 
ATOM     48  C   UNL A   1      41.140  30.388  32.664  1.00  0.00     0.010 A 
ATOM     49  C   UNL A   1      40.085  28.217  32.389  1.00  0.00     0.010 A 
ATOM     50  C   UNL A   1      41.196  28.989  32.766  1.00  0.00    -0.014 A 
BRANCH  50  51
ATOM     51  C   UNL A   1      42.510  28.345  33.001  1.00  0.00     0.031 A 
ATOM     52  C   UNL A   1      43.329  27.999  31.787  1.00  0.00     0.074 A 
ATOM     53  C   UNL A   1      42.993  28.126  34.238  1.00  0.00     0.049 A 
ATOM     54  N   UNL A   1      44.529  27.493  31.711  1.00  0.00    -0.248 NA
ATOM     55  C   UNL A   1      42.710  28.281  30.478  1.00  0.00     0.031 C 
ATOM     56  C   UNL A   1      42.315  28.467  35.487  1.00  0.00     0.029 A 
ATOM     57  N   UNL A   1      44.184  27.575  34.642  1.00  0.00    -0.354 N 
ATOM     58  C   UNL A   1      44.824  27.430  30.355  1.00  0.00     0.074 A 
ATOM     59  C   UNL A   1      43.663  27.908  29.639  1.00  0.00     0.031 C 
ATOM     60  C   UNL A   1      43.106  28.124  36.521  1.00  0.00     0.029 A 
ATOM     61  C   UNL A   1      44.337  27.521  36.009  1.00  0.00     0.049 A 
ATOM     62  H   UNL A   1      44.866  27.248  34.012  1.00  0.00     0.167 HD
ATOM     63  C   UNL A   1      45.965  27.021  29.756  1.00  0.00     0.034 A 
ATOM     64  C   UNL A   1      45.354  27.036  36.754  1.00  0.00     0.034 A 
ATOM     65  C   UNL A   1      47.099  26.501  30.468  1.00  0.00     0.049 A 
ATOM     66  C   UNL A   1      46.568  26.463  36.059  1.00  0.00     0.074 A 
ATOM     67  C   UNL A   1      48.289  26.021  29.954  1.00  0.00     0.029 A 
ATOM     68  N   UNL A   1      47.174  26.377  31.847  1.00  0.00    -0.354 N 
ATOM     69  N   UNL A   1      46.823  26.392  34.772  1.00  0.00    -0.248 NA
ATOM     70  C   UNL A   1      47.629  25.905  36.911  1.00  0.00     0.031 C 
ATOM     71  C   UNL A   1      49.064  25.555  31.020  1.00  0.00     0.029 A 
ATOM     72  C   UNL A   1      48.382  25.804  32.201  1.00  0.00     0.049 A 
ATOM     73  H   UNL A   1      46.473  26.656  32.479  1.00  0.00     0.167 HD
ATOM     74  C   UNL A   1      48.085  25.813  34.666  1.00  0.00     0.074 A 
ATOM     75  C   UNL A   1      48.537  25.542  36.014  1.00  0.00     0.031 C 
ATOM     76  C   UNL A   1      48.810  25.542  33.551  1.00  0.00     0.034 A 
BRANCH  63  77
ATOM     77  C   UNL A   1      46.017  27.083  28.257  1.00  0.00     0.023 A 
ATOM     78  C   UNL A   1      45.962  25.915  27.477  1.00  0.00     0.031 A 
ATOM     79  C   UNL A   1      46.124  28.321  27.600  1.00  0.00     0.131 A 
ATOM     80  C   UNL A   1      46.049  26.008  26.081  1.00  0.00     0.055 A 
ATOM     81  C   UNL A   1      46.153  28.410  26.210  1.00  0.00     0.041 A 
ATOM     82  F   UNL A   1      46.208  29.460  28.304  1.00  0.00    -0.206 F 
ATOM     83  C   UNL A   1      46.120  27.248  25.441  1.00  0.00     0.022 A 
BRANCH  80  84
ATOM     84  S   UNL A   1      46.137  24.480  25.110  1.00  0.00     0.124 S 
ATOM     85  O   UNL A   1      44.768  24.371  24.610  1.00  0.00    -0.237 OA
ATOM     86  O   UNL A   1      47.156  24.791  24.115  1.00  0.00    -0.237 OA
ATOM     87  O   UNL A   1      46.517  23.470  26.096  1.00  0.00    -0.744 OA
ENDBRANCH  80  84
ENDBRANCH  63  77
BRANCH  64  88
ATOM     88  C   UNL A   1      45.269  27.043  38.243  1.00  0.00     0.023 A 
ATOM     89  C   UNL A   1      45.734  28.133  38.995  1.00  0.00     0.031 A 
ATOM     90  C   UNL A   1      44.751  25.935  38.937  1.00  0.00     0.131 A 
ATOM     91  C   UNL A   1      45.695  28.083  40.399  1.00  0.00     0.055 A 
ATOM     92  C   UNL A   1      44.680  25.904  40.331  1.00  0.00     0.041 A 
ATOM     93  F   UNL A   1      44.299  24.865  38.265  1.00  0.00    -0.206 F 
ATOM     94  C   UNL A   1      45.160  26.981  41.070  1.00  0.00     0.022 A 
BRANCH  91  95
ATOM     95  S   UNL A   1      46.395  29.465  41.343  1.00  0.00     0.124 S 
ATOM     96  O   UNL A   1      47.534  28.830  41.996  1.00  0.00    -0.237 OA
ATOM     97  O   UNL A   1      46.709  30.425  40.291  1.00  0.00    -0.237 OA
ATOM     98  O   UNL A   1      45.303  29.855  42.233  1.00  0.00    -0.744 OA
ENDBRANCH  91  95
ENDBRANCH  64  88
BRANCH  76  99
ATOM     99  C   UNL A   1      50.187  24.963  33.726  1.00  0.00     0.023 A 
ATOM    100  C   UNL A   1      50.428  23.587  33.583  1.00  0.00     0.031 A 
ATOM    101  C   UNL A   1      51.283  25.821  33.924  1.00  0.00     0.131 A 
ATOM    102  C   UNL A   1      51.745  23.105  33.649  1.00  0.00     0.055 A 
ATOM    103  C   UNL A   1      52.592  25.341  33.952  1.00  0.00     0.041 A 
ATOM    104  F   UNL A   1      51.099  27.144  34.051  1.00  0.00    -0.206 F 
ATOM    105  C   UNL A   1      52.828  23.975  33.813  1.00  0.00     0.022 A 
BRANCH 102 106
ATOM    106  S   UNL A   1      52.034  21.322  33.497  1.00  0.00     0.124 S 
ATOM    107  O   UNL A   1      53.261  21.149  34.268  1.00  0.00    -0.237 OA
ATOM    108  O   UNL A   1      50.827  20.751  34.087  1.00  0.00    -0.237 OA
ATOM    109  O   UNL A   1      52.172  21.118  32.057  1.00  0.00    -0.744 OA
ENDBRANCH 102 106
ENDBRANCH  76  99
ENDBRANCH  50  51
ENDBRANCH  43  45
ENDBRANCH  42  43
ENDBRANCH  41  42
ENDBRANCH  40  41
ENDBRANCH  39  40
ENDBRANCH  38  39
ENDBRANCH  37  38
ENDBRANCH  36  37
ENDBRANCH   1  36
TORSDOF 29
ENDMDL
