MODEL 1
REMARK VINA RESULT:      -9.0      0.000      0.000
REMARK SMILES O=C(OCCOCCOCCOCCOC(=O)c1ccc(-c2c(F)cccc2F)cn1)c1ccc(-c2c3nc(c(-c4cc(S(=O)(=O)[O-])ccc4F)c4ccc([nH]4)c(-c4cc(S(=O)(=O)[O-])ccc4F)c4nc(c(-c5cc(S(=O)(=O)[O-])ccc5F)c5ccc2[nH]5)C=C4)C=C3)cc1
REMARK SMILES IDX 8 1 7 2 6 3 5 4 4 5 3 6 2 7 1 8 32 9 33 10 94 11 34 12 93 13
REMARK SMILES IDX 35 14 36 15 37 16 87 17 38 18 92 19 86 20 88 21 39 22 91 23
REMARK SMILES IDX 85 24 84 25 40 27 72 28 52 29 71 30 53 31 56 32 70 33 89 34
REMARK SMILES IDX 54 35 55 36 69 38 90 39 57 40 41 41 42 42 50 43 43 44 49 45
REMARK SMILES IDX 51 46 48 47 44 48 45 49 46 50 47 51 73 52 74 53 82 54 75 55
REMARK SMILES IDX 81 56 83 57 80 58 76 59 77 60 78 61 79 62 58 63 59 64 67 65
REMARK SMILES IDX 60 66 66 67 68 68 65 69 61 70 62 71 63 72 64 73 9 74 10 75
REMARK SMILES IDX 11 76 12 77 13 78 14 79 15 80 16 81 17 82 18 83 19 84 31 85
REMARK SMILES IDX 20 86 30 87 21 88 22 89 23 90 28 91 24 92 25 93 27 94 29 95
REMARK SMILES IDX 26 96
REMARK H PARENT 88 26 56 37
REMARK Flexibility Score: inf
ROOT
ATOM      1  C   UNL A   1      39.968  21.616  26.718  1.00  0.00     0.188 C 
ENDROOT
BRANCH   1   2
ATOM      2  C   UNL A   1      41.023  22.081  27.724  1.00  0.00     0.188 C 
BRANCH   2   3
ATOM      3  O   UNL A   1      42.296  21.512  27.412  1.00  0.00    -0.376 OA
BRANCH   3   4
ATOM      4  C   UNL A   1      42.339  20.734  26.215  1.00  0.00     0.202 C 
BRANCH   4   5
ATOM      5  C   UNL A   1      43.719  20.669  25.556  1.00  0.00     0.261 C 
BRANCH   5   6
ATOM      6  O   UNL A   1      44.476  21.866  25.787  1.00  0.00    -0.460 OA
BRANCH   6   7
ATOM      7  C   UNL A   1      44.360  23.053  25.137  1.00  0.00     0.338 C 
ATOM      8  O   UNL A   1      44.510  23.062  23.915  1.00  0.00    -0.246 OA
BRANCH   7   9
ATOM      9  C   UNL A   1      44.041  24.353  25.812  1.00  0.00     0.060 A 
ATOM     10  C   UNL A   1      43.624  25.520  25.170  1.00  0.00     0.016 A 
ATOM     11  C   UNL A   1      44.117  24.371  27.216  1.00  0.00     0.016 A 
ATOM     12  C   UNL A   1      43.386  26.695  25.871  1.00  0.00     0.010 A 
ATOM     13  C   UNL A   1      43.844  25.540  27.936  1.00  0.00     0.010 A 
ATOM     14  C   UNL A   1      43.516  26.716  27.255  1.00  0.00    -0.014 A 
BRANCH  14  15
ATOM     15  C   UNL A   1      43.493  28.029  27.925  1.00  0.00     0.031 A 
ATOM     16  C   UNL A   1      44.777  28.804  27.972  1.00  0.00     0.074 A 
ATOM     17  C   UNL A   1      42.329  28.563  28.331  1.00  0.00     0.049 A 
ATOM     18  N   UNL A   1      45.039  29.949  28.540  1.00  0.00    -0.248 NA
ATOM     19  C   UNL A   1      45.920  28.204  27.265  1.00  0.00     0.031 C 
ATOM     20  C   UNL A   1      41.016  27.932  28.173  1.00  0.00     0.029 A 
ATOM     21  N   UNL A   1      42.053  29.766  28.922  1.00  0.00    -0.354 N 
ATOM     22  C   UNL A   1      46.384  30.193  28.285  1.00  0.00     0.074 A 
ATOM     23  C   UNL A   1      46.885  29.070  27.524  1.00  0.00     0.031 C 
ATOM     24  C   UNL A   1      40.072  28.764  28.644  1.00  0.00     0.029 A 
ATOM     25  C   UNL A   1      40.718  29.948  29.201  1.00  0.00     0.049 A 
ATOM     26  H   UNL A   1      42.744  30.435  29.129  1.00  0.00     0.167 HD
ATOM     27  C   UNL A   1      47.127  31.261  28.662  1.00  0.00     0.034 A 
ATOM     28  C   UNL A   1      40.106  30.945  29.871  1.00  0.00     0.034 A 
ATOM     29  C   UNL A   1      46.582  32.346  29.437  1.00  0.00     0.049 A 
ATOM     30  C   UNL A   1      40.976  32.062  30.396  1.00  0.00     0.074 A 
ATOM     31  C   UNL A   1      47.228  33.443  29.974  1.00  0.00     0.029 A 
ATOM     32  N   UNL A   1      45.240  32.460  29.792  1.00  0.00    -0.354 N 
ATOM     33  N   UNL A   1      42.270  32.243  30.243  1.00  0.00    -0.248 NA
ATOM     34  C   UNL A   1      40.311  33.099  31.192  1.00  0.00     0.031 C 
ATOM     35  C   UNL A   1      46.289  34.184  30.704  1.00  0.00     0.029 A 
ATOM     36  C   UNL A   1      45.041  33.593  30.561  1.00  0.00     0.049 A 
ATOM     37  H   UNL A   1      44.533  31.825  29.531  1.00  0.00     0.167 HD
ATOM     38  C   UNL A   1      42.573  33.422  30.915  1.00  0.00     0.074 A 
ATOM     39  C   UNL A   1      41.319  33.920  31.451  1.00  0.00     0.031 C 
ATOM     40  C   UNL A   1      43.771  34.041  31.085  1.00  0.00     0.034 A 
BRANCH  27  41
ATOM     41  C   UNL A   1      48.599  31.212  28.331  1.00  0.00     0.023 A 
ATOM     42  C   UNL A   1      49.535  30.596  29.182  1.00  0.00     0.031 A 
ATOM     43  C   UNL A   1      49.089  31.908  27.211  1.00  0.00     0.131 A 
ATOM     44  C   UNL A   1      50.911  30.773  28.955  1.00  0.00     0.055 A 
ATOM     45  C   UNL A   1      50.455  32.006  26.943  1.00  0.00     0.041 A 
ATOM     46  F   UNL A   1      48.248  32.544  26.380  1.00  0.00    -0.206 F 
ATOM     47  C   UNL A   1      51.377  31.455  27.829  1.00  0.00     0.022 A 
BRANCH  44  48
ATOM     48  S   UNL A   1      52.078  30.265  30.251  1.00  0.00     0.124 S 
ATOM     49  O   UNL A   1      53.055  31.351  30.212  1.00  0.00    -0.237 OA
ATOM     50  O   UNL A   1      51.231  30.210  31.437  1.00  0.00    -0.237 OA
ATOM     51  O   UNL A   1      52.574  28.974  29.779  1.00  0.00    -0.744 OA
ENDBRANCH  44  48
ENDBRANCH  27  41
BRANCH  28  52
ATOM     52  C   UNL A   1      38.640  30.893  30.152  1.00  0.00     0.023 A 
ATOM     53  C   UNL A   1      37.701  31.470  29.283  1.00  0.00     0.031 A 
ATOM     54  C   UNL A   1      38.156  30.295  31.333  1.00  0.00     0.131 A 
ATOM     55  C   UNL A   1      36.336  31.466  29.621  1.00  0.00     0.055 A 
ATOM     56  C   UNL A   1      36.795  30.245  31.636  1.00  0.00     0.041 A 
ATOM     57  F   UNL A   1      39.006  29.737  32.210  1.00  0.00    -0.206 F 
ATOM     58  C   UNL A   1      35.876  30.844  30.783  1.00  0.00     0.022 A 
BRANCH  55  59
ATOM     59  S   UNL A   1      35.169  32.367  28.561  1.00  0.00     0.124 S 
ATOM     60  O   UNL A   1      34.477  31.276  27.884  1.00  0.00    -0.237 OA
ATOM     61  O   UNL A   1      34.386  33.115  29.540  1.00  0.00    -0.237 OA
ATOM     62  O   UNL A   1      36.037  33.178  27.710  1.00  0.00    -0.744 OA
ENDBRANCH  55  59
ENDBRANCH  28  52
BRANCH  40  63
ATOM     63  C   UNL A   1      43.754  35.337  31.853  1.00  0.00     0.023 A 
ATOM     64  C   UNL A   1      43.899  36.575  31.207  1.00  0.00     0.031 A 
ATOM     65  C   UNL A   1      43.592  35.326  33.249  1.00  0.00     0.131 A 
ATOM     66  C   UNL A   1      43.935  37.753  31.964  1.00  0.00     0.055 A 
ATOM     67  C   UNL A   1      43.565  36.506  33.991  1.00  0.00     0.041 A 
ATOM     68  F   UNL A   1      43.449  34.167  33.912  1.00  0.00    -0.206 F 
ATOM     69  C   UNL A   1      43.750  37.728  33.350  1.00  0.00     0.022 A 
BRANCH  66  70
ATOM     70  S   UNL A   1      44.311  39.315  31.124  1.00  0.00     0.124 S 
ATOM     71  O   UNL A   1      44.729  38.854  29.803  1.00  0.00    -0.237 OA
ATOM     72  O   UNL A   1      43.034  40.017  31.181  1.00  0.00    -0.237 OA
ATOM     73  O   UNL A   1      45.374  39.896  31.942  1.00  0.00    -0.744 OA
ENDBRANCH  66  70
ENDBRANCH  40  63
ENDBRANCH  14  15
ENDBRANCH   7   9
ENDBRANCH   6   7
ENDBRANCH   5   6
ENDBRANCH   4   5
ENDBRANCH   3   4
ENDBRANCH   2   3
ENDBRANCH   1   2
BRANCH   1  74
ATOM     74  O   UNL A   1      38.992  22.599  26.368  1.00  0.00    -0.377 OA
BRANCH  74  75
ATOM     75  C   UNL A   1      38.012  22.205  25.410  1.00  0.00     0.188 C 
BRANCH  75  76
ATOM     76  C   UNL A   1      36.790  23.119  25.169  1.00  0.00     0.188 C 
BRANCH  76  77
ATOM     77  O   UNL A   1      35.568  22.436  24.915  1.00  0.00    -0.376 OA
BRANCH  77  78
ATOM     78  C   UNL A   1      34.695  22.322  26.037  1.00  0.00     0.202 C 
BRANCH  78  79
ATOM     79  C   UNL A   1      33.529  23.319  26.005  1.00  0.00     0.261 C 
BRANCH  79  80
ATOM     80  O   UNL A   1      32.235  22.705  25.872  1.00  0.00    -0.459 OA
BRANCH  80  81
ATOM     81  C   UNL A   1      31.200  23.304  26.513  1.00  0.00     0.356 C 
ATOM     82  O   UNL A   1      30.793  23.048  27.633  1.00  0.00    -0.244 OA
BRANCH  81  83
ATOM     83  C   UNL A   1      30.759  24.445  25.661  1.00  0.00     0.148 A 
ATOM     84  C   UNL A   1      30.627  24.286  24.287  1.00  0.00     0.037 A 
ATOM     85  N   UNL A   1      30.629  25.642  26.293  1.00  0.00    -0.249 NA
ATOM     86  C   UNL A   1      30.311  25.410  23.522  1.00  0.00     0.013 A 
ATOM     87  C   UNL A   1      30.342  26.714  25.516  1.00  0.00     0.121 A 
ATOM     88  C   UNL A   1      30.152  26.660  24.135  1.00  0.00     0.006 A 
BRANCH  88  89
ATOM     89  C   UNL A   1      29.698  27.827  23.383  1.00  0.00     0.055 A 
ATOM     90  C   UNL A   1      30.636  28.652  22.750  1.00  0.00     0.134 A 
ATOM     91  C   UNL A   1      28.350  28.169  23.245  1.00  0.00     0.134 A 
ATOM     92  F   UNL A   1      31.945  28.370  22.845  1.00  0.00    -0.206 F 
ATOM     93  C   UNL A   1      30.258  29.771  22.010  1.00  0.00     0.040 A 
ATOM     94  C   UNL A   1      27.952  29.291  22.510  1.00  0.00     0.040 A 
ATOM     95  F   UNL A   1      27.399  27.421  23.823  1.00  0.00    -0.206 F 
ATOM     96  C   UNL A   1      28.909  30.094  21.890  1.00  0.00     0.006 A 
ENDBRANCH  88  89
ENDBRANCH  81  83
ENDBRANCH  80  81
ENDBRANCH  79  80
ENDBRANCH  78  79
ENDBRANCH  77  78
ENDBRANCH  76  77
ENDBRANCH  75  76
ENDBRANCH  74  75
ENDBRANCH   1  74
TORSDOF 24
ENDMDL
MODEL 2
REMARK VINA RESULT:      -9.0      2.841      4.457
REMARK SMILES O=C(OCCOCCOCCOCCOC(=O)c1ccc(-c2c(F)cccc2F)cn1)c1ccc(-c2c3nc(c(-c4cc(S(=O)(=O)[O-])ccc4F)c4ccc([nH]4)c(-c4cc(S(=O)(=O)[O-])ccc4F)c4nc(c(-c5cc(S(=O)(=O)[O-])ccc5F)c5ccc2[nH]5)C=C4)C=C3)cc1
REMARK SMILES IDX 8 1 7 2 6 3 5 4 4 5 3 6 2 7 1 8 32 9 33 10 94 11 34 12 93 13
REMARK SMILES IDX 35 14 36 15 37 16 87 17 38 18 92 19 86 20 88 21 39 22 91 23
REMARK SMILES IDX 85 24 84 25 40 27 72 28 52 29 71 30 53 31 56 32 70 33 89 34
REMARK SMILES IDX 54 35 55 36 69 38 90 39 57 40 41 41 42 42 50 43 43 44 49 45
REMARK SMILES IDX 51 46 48 47 44 48 45 49 46 50 47 51 73 52 74 53 82 54 75 55
REMARK SMILES IDX 81 56 83 57 80 58 76 59 77 60 78 61 79 62 58 63 59 64 67 65
REMARK SMILES IDX 60 66 66 67 68 68 65 69 61 70 62 71 63 72 64 73 9 74 10 75
REMARK SMILES IDX 11 76 12 77 13 78 14 79 15 80 16 81 17 82 18 83 19 84 31 85
REMARK SMILES IDX 20 86 30 87 21 88 22 89 23 90 28 91 24 92 25 93 27 94 29 95
REMARK SMILES IDX 26 96
REMARK H PARENT 88 26 56 37
REMARK Flexibility Score: inf
ROOT
ATOM      1  C   UNL A   1      39.827  21.994  26.760  1.00  0.00     0.188 C 
ENDROOT
BRANCH   1   2
ATOM      2  C   UNL A   1      40.917  22.576  27.661  1.00  0.00     0.188 C 
BRANCH   2   3
ATOM      3  O   UNL A   1      42.206  22.129  27.240  1.00  0.00    -0.376 OA
BRANCH   3   4
ATOM      4  C   UNL A   1      42.321  21.822  25.850  1.00  0.00     0.202 C 
BRANCH   4   5
ATOM      5  C   UNL A   1      43.760  21.627  25.364  1.00  0.00     0.261 C 
BRANCH   5   6
ATOM      6  O   UNL A   1      44.629  22.663  25.845  1.00  0.00    -0.460 OA
BRANCH   6   7
ATOM      7  C   UNL A   1      44.801  23.903  25.319  1.00  0.00     0.338 C 
ATOM      8  O   UNL A   1      45.273  23.991  24.186  1.00  0.00    -0.246 OA
BRANCH   7   9
ATOM      9  C   UNL A   1      44.434  25.173  26.026  1.00  0.00     0.060 A 
ATOM     10  C   UNL A   1      44.057  26.366  25.407  1.00  0.00     0.016 A 
ATOM     11  C   UNL A   1      44.418  25.132  27.431  1.00  0.00     0.016 A 
ATOM     12  C   UNL A   1      43.771  27.510  26.140  1.00  0.00     0.010 A 
ATOM     13  C   UNL A   1      44.095  26.269  28.180  1.00  0.00     0.010 A 
ATOM     14  C   UNL A   1      43.809  27.473  27.529  1.00  0.00    -0.014 A 
BRANCH  14  15
ATOM     15  C   UNL A   1      43.740  28.757  28.251  1.00  0.00     0.031 A 
ATOM     16  C   UNL A   1      44.987  29.588  28.307  1.00  0.00     0.074 A 
ATOM     17  C   UNL A   1      42.559  29.220  28.697  1.00  0.00     0.049 A 
ATOM     18  N   UNL A   1      45.207  30.721  28.915  1.00  0.00    -0.248 NA
ATOM     19  C   UNL A   1      46.143  29.070  27.557  1.00  0.00     0.031 C 
ATOM     20  C   UNL A   1      41.274  28.535  28.537  1.00  0.00     0.029 A 
ATOM     21  N   UNL A   1      42.240  30.385  29.340  1.00  0.00    -0.354 N 
ATOM     22  C   UNL A   1      46.534  31.037  28.647  1.00  0.00     0.074 A 
ATOM     23  C   UNL A   1      47.072  29.969  27.834  1.00  0.00     0.031 C 
ATOM     24  C   UNL A   1      40.302  29.304  29.056  1.00  0.00     0.029 A 
ATOM     25  C   UNL A   1      40.903  30.495  29.648  1.00  0.00     0.049 A 
ATOM     26  H   UNL A   1      42.903  31.077  29.562  1.00  0.00     0.167 HD
ATOM     27  C   UNL A   1      47.234  32.124  29.053  1.00  0.00     0.034 A 
ATOM     28  C   UNL A   1      40.259  31.434  30.367  1.00  0.00     0.034 A 
ATOM     29  C   UNL A   1      46.655  33.152  29.880  1.00  0.00     0.049 A 
ATOM     30  C   UNL A   1      41.086  32.570  30.922  1.00  0.00     0.074 A 
ATOM     31  C   UNL A   1      47.260  34.255  30.449  1.00  0.00     0.029 A 
ATOM     32  N   UNL A   1      45.316  33.189  30.261  1.00  0.00    -0.354 N 
ATOM     33  N   UNL A   1      42.368  32.817  30.754  1.00  0.00    -0.248 NA
ATOM     34  C   UNL A   1      40.391  33.543  31.769  1.00  0.00     0.031 C 
ATOM     35  C   UNL A   1      46.302  34.923  31.223  1.00  0.00     0.029 A 
ATOM     36  C   UNL A   1      45.080  34.280  31.078  1.00  0.00     0.049 A 
ATOM     37  H   UNL A   1      44.634  32.532  29.988  1.00  0.00     0.167 HD
ATOM     38  C   UNL A   1      42.629  33.982  31.467  1.00  0.00     0.074 A 
ATOM     39  C   UNL A   1      41.364  34.400  32.043  1.00  0.00     0.031 C 
ATOM     40  C   UNL A   1      43.801  34.649  31.641  1.00  0.00     0.034 A 
BRANCH  27  41
ATOM     41  C   UNL A   1      48.701  32.156  28.696  1.00  0.00     0.023 A 
ATOM     42  C   UNL A   1      49.182  32.870  27.582  1.00  0.00     0.031 A 
ATOM     43  C   UNL A   1      49.613  31.354  29.404  1.00  0.00     0.131 A 
ATOM     44  C   UNL A   1      50.507  32.687  27.153  1.00  0.00     0.055 A 
ATOM     45  C   UNL A   1      50.951  31.246  29.024  1.00  0.00     0.041 A 
ATOM     46  F   UNL A   1      49.207  30.624  30.456  1.00  0.00    -0.206 F 
ATOM     47  C   UNL A   1      51.401  31.898  27.879  1.00  0.00     0.022 A 
BRANCH  44  48
ATOM     48  S   UNL A   1      50.993  33.343  25.530  1.00  0.00     0.124 S 
ATOM     49  O   UNL A   1      51.275  32.116  24.787  1.00  0.00    -0.237 OA
ATOM     50  O   UNL A   1      49.805  34.080  25.117  1.00  0.00    -0.237 OA
ATOM     51  O   UNL A   1      52.165  34.164  25.828  1.00  0.00    -0.744 OA
ENDBRANCH  44  48
ENDBRANCH  27  41
BRANCH  28  52
ATOM     52  C   UNL A   1      38.803  31.304  30.671  1.00  0.00     0.023 A 
ATOM     53  C   UNL A   1      37.821  31.857  29.833  1.00  0.00     0.031 A 
ATOM     54  C   UNL A   1      38.369  30.653  31.843  1.00  0.00     0.131 A 
ATOM     55  C   UNL A   1      36.464  31.777  30.193  1.00  0.00     0.055 A 
ATOM     56  C   UNL A   1      37.018  30.528  32.168  1.00  0.00     0.041 A 
ATOM     57  F   UNL A   1      39.260  30.115  32.692  1.00  0.00    -0.206 F 
ATOM     58  C   UNL A   1      36.055  31.103  31.346  1.00  0.00     0.022 A 
BRANCH  55  59
ATOM     59  S   UNL A   1      35.237  32.646  29.177  1.00  0.00     0.124 S 
ATOM     60  O   UNL A   1      34.461  31.538  28.633  1.00  0.00    -0.237 OA
ATOM     61  O   UNL A   1      34.559  33.480  30.166  1.00  0.00    -0.237 OA
ATOM     62  O   UNL A   1      36.050  33.374  28.206  1.00  0.00    -0.744 OA
ENDBRANCH  55  59
ENDBRANCH  28  52
BRANCH  40  63
ATOM     63  C   UNL A   1      43.738  35.911  32.460  1.00  0.00     0.023 A 
ATOM     64  C   UNL A   1      43.642  37.175  31.854  1.00  0.00     0.031 A 
ATOM     65  C   UNL A   1      43.779  35.843  33.862  1.00  0.00     0.131 A 
ATOM     66  C   UNL A   1      43.644  38.328  32.650  1.00  0.00     0.055 A 
ATOM     67  C   UNL A   1      43.718  36.991  34.652  1.00  0.00     0.041 A 
ATOM     68  F   UNL A   1      43.871  34.659  34.488  1.00  0.00    -0.206 F 
ATOM     69  C   UNL A   1      43.662  38.244  34.046  1.00  0.00     0.022 A 
BRANCH  66  70
ATOM     70  S   UNL A   1      43.708  39.946  31.835  1.00  0.00     0.124 S 
ATOM     71  O   UNL A   1      44.908  40.533  32.422  1.00  0.00    -0.237 OA
ATOM     72  O   UNL A   1      43.799  39.582  30.424  1.00  0.00    -0.237 OA
ATOM     73  O   UNL A   1      42.451  40.579  32.230  1.00  0.00    -0.744 OA
ENDBRANCH  66  70
ENDBRANCH  40  63
ENDBRANCH  14  15
ENDBRANCH   7   9
ENDBRANCH   6   7
ENDBRANCH   5   6
ENDBRANCH   4   5
ENDBRANCH   3   4
ENDBRANCH   2   3
ENDBRANCH   1   2
BRANCH   1  74
ATOM     74  O   UNL A   1      38.857  22.935  26.298  1.00  0.00    -0.377 OA
BRANCH  74  75
ATOM     75  C   UNL A   1      37.760  22.403  25.558  1.00  0.00     0.188 C 
BRANCH  75  76
ATOM     76  C   UNL A   1      36.883  23.362  24.723  1.00  0.00     0.188 C 
BRANCH  76  77
ATOM     77  O   UNL A   1      35.480  23.220  24.918  1.00  0.00    -0.376 OA
BRANCH  77  78
ATOM     78  C   UNL A   1      34.788  24.427  25.231  1.00  0.00     0.202 C 
BRANCH  78  79
ATOM     79  C   UNL A   1      33.574  24.684  24.329  1.00  0.00     0.261 C 
BRANCH  79  80
ATOM     80  O   UNL A   1      32.321  24.266  24.899  1.00  0.00    -0.459 OA
BRANCH  80  81
ATOM     81  C   UNL A   1      31.547  23.443  24.148  1.00  0.00     0.356 C 
ATOM     82  O   UNL A   1      30.631  23.775  23.415  1.00  0.00    -0.244 OA
BRANCH  81  83
ATOM     83  C   UNL A   1      32.130  22.076  24.256  1.00  0.00     0.148 A 
ATOM     84  C   UNL A   1      32.240  21.268  23.131  1.00  0.00     0.037 A 
ATOM     85  N   UNL A   1      32.412  21.647  25.515  1.00  0.00    -0.249 NA
ATOM     86  C   UNL A   1      32.697  19.960  23.301  1.00  0.00     0.013 A 
ATOM     87  C   UNL A   1      32.833  20.367  25.645  1.00  0.00     0.121 A 
ATOM     88  C   UNL A   1      33.014  19.484  24.580  1.00  0.00     0.006 A 
BRANCH  88  89
ATOM     89  C   UNL A   1      33.613  18.166  24.777  1.00  0.00     0.055 A 
ATOM     90  C   UNL A   1      32.789  17.056  25.001  1.00  0.00     0.134 A 
ATOM     91  C   UNL A   1      34.992  17.941  24.742  1.00  0.00     0.134 A 
ATOM     92  F   UNL A   1      31.456  17.211  25.039  1.00  0.00    -0.206 F 
ATOM     93  C   UNL A   1      33.306  15.775  25.183  1.00  0.00     0.040 A 
ATOM     94  C   UNL A   1      35.529  16.663  24.928  1.00  0.00     0.040 A 
ATOM     95  F   UNL A   1      35.839  18.960  24.530  1.00  0.00    -0.206 F 
ATOM     96  C   UNL A   1      34.684  15.576  25.148  1.00  0.00     0.006 A 
ENDBRANCH  88  89
ENDBRANCH  81  83
ENDBRANCH  80  81
ENDBRANCH  79  80
ENDBRANCH  78  79
ENDBRANCH  77  78
ENDBRANCH  76  77
ENDBRANCH  75  76
ENDBRANCH  74  75
ENDBRANCH   1  74
TORSDOF 24
ENDMDL
MODEL 3
REMARK VINA RESULT:      -8.9      3.780      8.652
REMARK SMILES O=C(OCCOCCOCCOCCOC(=O)c1ccc(-c2c(F)cccc2F)cn1)c1ccc(-c2c3nc(c(-c4cc(S(=O)(=O)[O-])ccc4F)c4ccc([nH]4)c(-c4cc(S(=O)(=O)[O-])ccc4F)c4nc(c(-c5cc(S(=O)(=O)[O-])ccc5F)c5ccc2[nH]5)C=C4)C=C3)cc1
REMARK SMILES IDX 8 1 7 2 6 3 5 4 4 5 3 6 2 7 1 8 32 9 33 10 94 11 34 12 93 13
REMARK SMILES IDX 35 14 36 15 37 16 87 17 38 18 92 19 86 20 88 21 39 22 91 23
REMARK SMILES IDX 85 24 84 25 40 27 72 28 52 29 71 30 53 31 56 32 70 33 89 34
REMARK SMILES IDX 54 35 55 36 69 38 90 39 57 40 41 41 42 42 50 43 43 44 49 45
REMARK SMILES IDX 51 46 48 47 44 48 45 49 46 50 47 51 73 52 74 53 82 54 75 55
REMARK SMILES IDX 81 56 83 57 80 58 76 59 77 60 78 61 79 62 58 63 59 64 67 65
REMARK SMILES IDX 60 66 66 67 68 68 65 69 61 70 62 71 63 72 64 73 9 74 10 75
REMARK SMILES IDX 11 76 12 77 13 78 14 79 15 80 16 81 17 82 18 83 19 84 31 85
REMARK SMILES IDX 20 86 30 87 21 88 22 89 23 90 28 91 24 92 25 93 27 94 29 95
REMARK SMILES IDX 26 96
REMARK H PARENT 88 26 56 37
REMARK Flexibility Score: inf
ROOT
ATOM      1  C   UNL A   1      34.189  32.791  29.037  1.00  0.00     0.188 C 
ENDROOT
BRANCH   1   2
ATOM      2  C   UNL A   1      35.085  33.939  29.507  1.00  0.00     0.188 C 
BRANCH   2   3
ATOM      3  O   UNL A   1      34.846  34.228  30.886  1.00  0.00    -0.376 OA
BRANCH   3   4
ATOM      4  C   UNL A   1      34.803  33.090  31.748  1.00  0.00     0.202 C 
BRANCH   4   5
ATOM      5  C   UNL A   1      36.131  32.778  32.443  1.00  0.00     0.261 C 
BRANCH   5   6
ATOM      6  O   UNL A   1      36.213  31.401  32.841  1.00  0.00    -0.460 OA
BRANCH   6   7
ATOM      7  C   UNL A   1      37.052  30.451  32.354  1.00  0.00     0.338 C 
ATOM      8  O   UNL A   1      36.668  29.282  32.357  1.00  0.00    -0.246 OA
BRANCH   7   9
ATOM      9  C   UNL A   1      38.411  30.740  31.793  1.00  0.00     0.060 A 
ATOM     10  C   UNL A   1      39.565  30.979  32.542  1.00  0.00     0.016 A 
ATOM     11  C   UNL A   1      38.537  30.709  30.393  1.00  0.00     0.016 A 
ATOM     12  C   UNL A   1      40.779  31.277  31.940  1.00  0.00     0.010 A 
ATOM     13  C   UNL A   1      39.765  30.972  29.775  1.00  0.00     0.010 A 
ATOM     14  C   UNL A   1      40.881  31.296  30.554  1.00  0.00    -0.014 A 
BRANCH  14  15
ATOM     15  C   UNL A   1      42.113  31.851  29.964  1.00  0.00     0.031 A 
ATOM     16  C   UNL A   1      43.170  30.880  29.529  1.00  0.00     0.074 A 
ATOM     17  C   UNL A   1      42.201  33.163  29.691  1.00  0.00     0.049 A 
ATOM     18  N   UNL A   1      44.356  31.105  29.034  1.00  0.00    -0.248 NA
ATOM     19  C   UNL A   1      42.832  29.453  29.661  1.00  0.00     0.031 C 
ATOM     20  C   UNL A   1      41.145  34.147  29.943  1.00  0.00     0.029 A 
ATOM     21  N   UNL A   1      43.205  33.892  29.111  1.00  0.00    -0.354 N 
ATOM     22  C   UNL A   1      44.917  29.851  28.823  1.00  0.00     0.074 A 
ATOM     23  C   UNL A   1      43.947  28.870  29.258  1.00  0.00     0.031 C 
ATOM     24  C   UNL A   1      41.554  35.349  29.503  1.00  0.00     0.029 A 
ATOM     25  C   UNL A   1      42.922  35.234  29.010  1.00  0.00     0.049 A 
ATOM     26  H   UNL A   1      44.048  33.493  28.797  1.00  0.00     0.167 HD
ATOM     27  C   UNL A   1      46.138  29.554  28.315  1.00  0.00     0.034 A 
ATOM     28  C   UNL A   1      43.706  36.252  28.604  1.00  0.00     0.034 A 
ATOM     29  C   UNL A   1      47.076  30.571  27.914  1.00  0.00     0.049 A 
ATOM     30  C   UNL A   1      45.111  35.911  28.165  1.00  0.00     0.074 A 
ATOM     31  C   UNL A   1      48.378  30.431  27.476  1.00  0.00     0.029 A 
ATOM     32  N   UNL A   1      46.799  31.937  27.913  1.00  0.00    -0.354 N 
ATOM     33  N   UNL A   1      45.680  34.729  28.061  1.00  0.00    -0.248 NA
ATOM     34  C   UNL A   1      45.981  37.033  27.802  1.00  0.00     0.031 C 
ATOM     35  C   UNL A   1      48.906  31.712  27.270  1.00  0.00     0.029 A 
ATOM     36  C   UNL A   1      47.911  32.651  27.507  1.00  0.00     0.049 A 
ATOM     37  H   UNL A   1      45.934  32.335  28.165  1.00  0.00     0.167 HD
ATOM     38  C   UNL A   1      46.973  34.966  27.610  1.00  0.00     0.074 A 
ATOM     39  C   UNL A   1      47.088  36.403  27.437  1.00  0.00     0.031 C 
ATOM     40  C   UNL A   1      47.981  34.088  27.363  1.00  0.00     0.034 A 
BRANCH  27  41
ATOM     41  C   UNL A   1      46.526  28.095  28.294  1.00  0.00     0.023 A 
ATOM     42  C   UNL A   1      46.317  27.284  27.163  1.00  0.00     0.031 A 
ATOM     43  C   UNL A   1      46.991  27.477  29.469  1.00  0.00     0.131 A 
ATOM     44  C   UNL A   1      46.476  25.891  27.263  1.00  0.00     0.055 A 
ATOM     45  C   UNL A   1      47.232  26.104  29.533  1.00  0.00     0.041 A 
ATOM     46  F   UNL A   1      47.179  28.192  30.589  1.00  0.00    -0.206 F 
ATOM     47  C   UNL A   1      46.954  25.298  28.433  1.00  0.00     0.022 A 
BRANCH  44  48
ATOM     48  S   UNL A   1      45.871  24.848  25.904  1.00  0.00     0.124 S 
ATOM     49  O   UNL A   1      46.187  25.669  24.737  1.00  0.00    -0.237 OA
ATOM     50  O   UNL A   1      46.659  23.632  26.063  1.00  0.00    -0.237 OA
ATOM     51  O   UNL A   1      44.444  24.708  26.188  1.00  0.00    -0.744 OA
ENDBRANCH  44  48
ENDBRANCH  27  41
BRANCH  28  52
ATOM     52  C   UNL A   1      43.227  37.665  28.671  1.00  0.00     0.023 A 
ATOM     53  C   UNL A   1      43.557  38.505  29.747  1.00  0.00     0.031 A 
ATOM     54  C   UNL A   1      42.385  38.187  27.669  1.00  0.00     0.131 A 
ATOM     55  C   UNL A   1      43.024  39.805  29.811  1.00  0.00     0.055 A 
ATOM     56  C   UNL A   1      41.905  39.496  27.710  1.00  0.00     0.041 A 
ATOM     57  F   UNL A   1      42.023  37.428  26.622  1.00  0.00    -0.206 F 
ATOM     58  C   UNL A   1      42.214  40.311  28.793  1.00  0.00     0.022 A 
BRANCH  55  59
ATOM     59  S   UNL A   1      43.333  40.805  31.294  1.00  0.00     0.124 S 
ATOM     60  O   UNL A   1      43.834  42.048  30.718  1.00  0.00    -0.237 OA
ATOM     61  O   UNL A   1      42.006  40.867  31.899  1.00  0.00    -0.237 OA
ATOM     62  O   UNL A   1      44.317  40.021  32.036  1.00  0.00    -0.744 OA
ENDBRANCH  55  59
ENDBRANCH  28  52
BRANCH  40  63
ATOM     63  C   UNL A   1      49.271  34.674  26.850  1.00  0.00     0.023 A 
ATOM     64  C   UNL A   1      50.369  34.885  27.700  1.00  0.00     0.031 A 
ATOM     65  C   UNL A   1      49.395  35.024  25.496  1.00  0.00     0.131 A 
ATOM     66  C   UNL A   1      51.531  35.485  27.195  1.00  0.00     0.055 A 
ATOM     67  C   UNL A   1      50.576  35.563  24.985  1.00  0.00     0.041 A 
ATOM     68  F   UNL A   1      48.373  34.841  24.644  1.00  0.00    -0.206 F 
ATOM     69  C   UNL A   1      51.648  35.808  25.840  1.00  0.00     0.022 A 
BRANCH  66  70
ATOM     70  S   UNL A   1      52.858  35.917  28.352  1.00  0.00     0.124 S 
ATOM     71  O   UNL A   1      52.491  37.276  28.738  1.00  0.00    -0.237 OA
ATOM     72  O   UNL A   1      52.714  34.899  29.387  1.00  0.00    -0.237 OA
ATOM     73  O   UNL A   1      54.069  35.808  27.541  1.00  0.00    -0.744 OA
ENDBRANCH  66  70
ENDBRANCH  40  63
ENDBRANCH  14  15
ENDBRANCH   7   9
ENDBRANCH   6   7
ENDBRANCH   5   6
ENDBRANCH   4   5
ENDBRANCH   3   4
ENDBRANCH   2   3
ENDBRANCH   1   2
BRANCH   1  74
ATOM     74  O   UNL A   1      34.853  31.538  28.866  1.00  0.00    -0.377 OA
BRANCH  74  75
ATOM     75  C   UNL A   1      34.859  31.000  27.546  1.00  0.00     0.188 C 
BRANCH  75  76
ATOM     76  C   UNL A   1      33.969  29.776  27.231  1.00  0.00     0.188 C 
BRANCH  76  77
ATOM     77  O   UNL A   1      33.887  29.429  25.853  1.00  0.00    -0.376 OA
BRANCH  77  78
ATOM     78  C   UNL A   1      32.868  28.487  25.527  1.00  0.00     0.202 C 
BRANCH  78  79
ATOM     79  C   UNL A   1      33.356  27.033  25.540  1.00  0.00     0.261 C 
BRANCH  79  80
ATOM     80  O   UNL A   1      32.394  26.095  26.054  1.00  0.00    -0.459 OA
BRANCH  80  81
ATOM     81  C   UNL A   1      31.407  25.701  25.210  1.00  0.00     0.356 C 
ATOM     82  O   UNL A   1      30.584  26.420  24.671  1.00  0.00    -0.244 OA
BRANCH  81  83
ATOM     83  C   UNL A   1      31.619  24.252  24.934  1.00  0.00     0.148 A 
ATOM     84  C   UNL A   1      30.891  23.291  25.625  1.00  0.00     0.037 A 
ATOM     85  N   UNL A   1      32.635  23.951  24.081  1.00  0.00    -0.249 NA
ATOM     86  C   UNL A   1      31.198  21.947  25.404  1.00  0.00     0.013 A 
ATOM     87  C   UNL A   1      32.918  22.639  23.907  1.00  0.00     0.121 A 
ATOM     88  C   UNL A   1      32.227  21.594  24.521  1.00  0.00     0.006 A 
BRANCH  88  89
ATOM     89  C   UNL A   1      32.488  20.200  24.173  1.00  0.00     0.055 A 
ATOM     90  C   UNL A   1      33.020  19.332  25.135  1.00  0.00     0.134 A 
ATOM     91  C   UNL A   1      32.220  19.665  22.909  1.00  0.00     0.134 A 
ATOM     92  F   UNL A   1      33.293  19.789  26.367  1.00  0.00    -0.206 F 
ATOM     93  C   UNL A   1      33.278  17.990  24.860  1.00  0.00     0.040 A 
ATOM     94  C   UNL A   1      32.477  18.322  22.614  1.00  0.00     0.040 A 
ATOM     95  F   UNL A   1      31.708  20.440  21.941  1.00  0.00    -0.206 F 
ATOM     96  C   UNL A   1      33.007  17.482  23.593  1.00  0.00     0.006 A 
ENDBRANCH  88  89
ENDBRANCH  81  83
ENDBRANCH  80  81
ENDBRANCH  79  80
ENDBRANCH  78  79
ENDBRANCH  77  78
ENDBRANCH  76  77
ENDBRANCH  75  76
ENDBRANCH  74  75
ENDBRANCH   1  74
TORSDOF 24
ENDMDL
