MODEL 1
REMARK VINA RESULT:     -10.0      0.000      0.000
REMARK SMILES O=C(OCCOCCOCCOCCOC(=O)c1ncc2ccccc2n1)c1ccc(-c2c3nc(c(-c4cc(S(=O)(=O)[O-])ccc4F)c4ccc([nH]4)c(-c4cc(S(=O)(=O)[O-])ccc4F)c4nc(c(-c5cc(S(=O)(=O)[O-])ccc5F)c5ccc2[nH]5)C=C4)C=C3)cc1
REMARK SMILES IDX 7 1 6 2 5 3 4 4 3 5 2 6 1 7 28 8 29 9 90 10 30 11 89 12
REMARK SMILES IDX 31 13 32 14 33 15 83 16 34 17 88 18 82 19 84 20 35 21 87 22
REMARK SMILES IDX 81 23 80 24 36 26 68 27 48 28 67 29 49 30 52 31 66 32 85 33
REMARK SMILES IDX 50 34 51 35 65 37 86 38 53 39 37 40 38 41 46 42 39 43 45 44
REMARK SMILES IDX 47 45 44 46 40 47 41 48 42 49 43 50 69 51 70 52 78 53 71 54
REMARK SMILES IDX 77 55 79 56 76 57 72 58 73 59 74 60 75 61 54 62 55 63 63 64
REMARK SMILES IDX 56 65 62 66 64 67 61 68 57 69 58 70 59 71 60 72 8 73 9 74
REMARK SMILES IDX 10 75 11 76 12 77 13 78 14 79 15 80 16 81 17 82 18 83 19 84
REMARK SMILES IDX 27 85 20 86 26 87 21 88 25 89 22 90 24 91 23 92
REMARK H PARENT 84 25 52 36
REMARK Flexibility Score: inf
ROOT
ATOM      1  C   UNL A   1      33.786  21.262  26.361  1.00  0.00     0.188 C 
ENDROOT
BRANCH   1   2
ATOM      2  O   UNL A   1      34.391  21.115  25.084  1.00  0.00    -0.376 OA
BRANCH   2   3
ATOM      3  C   UNL A   1      35.721  20.622  25.001  1.00  0.00     0.202 C 
BRANCH   3   4
ATOM      4  C   UNL A   1      36.842  21.448  25.639  1.00  0.00     0.261 C 
BRANCH   4   5
ATOM      5  O   UNL A   1      38.187  21.017  25.355  1.00  0.00    -0.460 OA
BRANCH   5   6
ATOM      6  C   UNL A   1      39.335  21.220  26.045  1.00  0.00     0.338 C 
ATOM      7  O   UNL A   1      40.142  20.298  26.143  1.00  0.00    -0.246 OA
BRANCH   6   8
ATOM      8  C   UNL A   1      39.668  22.512  26.694  1.00  0.00     0.060 A 
ATOM      9  C   UNL A   1      38.937  23.681  26.520  1.00  0.00     0.016 A 
ATOM     10  C   UNL A   1      40.717  22.528  27.621  1.00  0.00     0.016 A 
ATOM     11  C   UNL A   1      39.360  24.889  27.048  1.00  0.00     0.010 A 
ATOM     12  C   UNL A   1      41.087  23.721  28.251  1.00  0.00     0.010 A 
ATOM     13  C   UNL A   1      40.459  24.923  27.896  1.00  0.00    -0.014 A 
BRANCH  13  14
ATOM     14  C   UNL A   1      41.056  26.238  28.212  1.00  0.00     0.031 A 
ATOM     15  C   UNL A   1      42.434  26.515  27.681  1.00  0.00     0.074 A 
ATOM     16  C   UNL A   1      40.328  27.201  28.811  1.00  0.00     0.049 A 
ATOM     17  N   UNL A   1      43.225  27.529  27.895  1.00  0.00    -0.248 NA
ATOM     18  C   UNL A   1      43.004  25.491  26.786  1.00  0.00     0.031 C 
ATOM     19  C   UNL A   1      38.926  27.070  29.220  1.00  0.00     0.029 A 
ATOM     20  N   UNL A   1      40.646  28.492  29.137  1.00  0.00    -0.354 N 
ATOM     21  C   UNL A   1      44.403  27.235  27.216  1.00  0.00     0.074 A 
ATOM     22  C   UNL A   1      44.231  25.941  26.599  1.00  0.00     0.031 C 
ATOM     23  C   UNL A   1      38.494  28.249  29.693  1.00  0.00     0.029 A 
ATOM     24  C   UNL A   1      39.610  29.186  29.718  1.00  0.00     0.049 A 
ATOM     25  H   UNL A   1      41.533  28.886  28.971  1.00  0.00     0.167 HD
ATOM     26  C   UNL A   1      45.529  27.984  27.127  1.00  0.00     0.034 A 
ATOM     27  C   UNL A   1      39.590  30.427  30.245  1.00  0.00     0.034 A 
ATOM     28  C   UNL A   1      45.638  29.284  27.739  1.00  0.00     0.049 A 
ATOM     29  C   UNL A   1      40.878  31.212  30.209  1.00  0.00     0.074 A 
ATOM     30  C   UNL A   1      46.729  30.127  27.805  1.00  0.00     0.029 A 
ATOM     31  N   UNL A   1      44.592  29.932  28.392  1.00  0.00    -0.354 N 
ATOM     32  N   UNL A   1      42.034  30.880  29.674  1.00  0.00    -0.248 NA
ATOM     33  C   UNL A   1      40.867  32.527  30.855  1.00  0.00     0.031 C 
ATOM     34  C   UNL A   1      46.362  31.255  28.547  1.00  0.00     0.029 A 
ATOM     35  C   UNL A   1      45.018  31.156  28.877  1.00  0.00     0.049 A 
ATOM     36  H   UNL A   1      43.682  29.571  28.495  1.00  0.00     0.167 HD
ATOM     37  C   UNL A   1      42.882  31.960  29.898  1.00  0.00     0.074 A 
ATOM     38  C   UNL A   1      42.094  32.958  30.596  1.00  0.00     0.031 C 
ATOM     39  C   UNL A   1      44.190  32.120  29.566  1.00  0.00     0.034 A 
BRANCH  26  40
ATOM     40  C   UNL A   1      46.721  27.350  26.449  1.00  0.00     0.023 A 
ATOM     41  C   UNL A   1      47.747  26.713  27.171  1.00  0.00     0.031 A 
ATOM     42  C   UNL A   1      46.890  27.498  25.061  1.00  0.00     0.131 A 
ATOM     43  C   UNL A   1      48.937  26.345  26.519  1.00  0.00     0.055 A 
ATOM     44  C   UNL A   1      48.037  27.046  24.404  1.00  0.00     0.041 A 
ATOM     45  F   UNL A   1      45.963  28.126  24.321  1.00  0.00    -0.206 F 
ATOM     46  C   UNL A   1      49.078  26.484  25.136  1.00  0.00     0.022 A 
BRANCH  43  47
ATOM     47  S   UNL A   1      50.367  25.857  27.527  1.00  0.00     0.124 S 
ATOM     48  O   UNL A   1      51.453  26.579  26.867  1.00  0.00    -0.237 OA
ATOM     49  O   UNL A   1      49.997  26.336  28.853  1.00  0.00    -0.237 OA
ATOM     50  O   UNL A   1      50.413  24.404  27.377  1.00  0.00    -0.744 OA
ENDBRANCH  43  47
ENDBRANCH  26  40
BRANCH  27  51
ATOM     51  C   UNL A   1      38.362  30.969  30.902  1.00  0.00     0.023 A 
ATOM     52  C   UNL A   1      37.335  31.570  30.155  1.00  0.00     0.031 A 
ATOM     53  C   UNL A   1      38.215  30.939  32.303  1.00  0.00     0.131 A 
ATOM     54  C   UNL A   1      36.235  32.152  30.810  1.00  0.00     0.055 A 
ATOM     55  C   UNL A   1      37.091  31.464  32.945  1.00  0.00     0.041 A 
ATOM     56  F   UNL A   1      39.166  30.390  33.076  1.00  0.00    -0.206 F 
ATOM     57  C   UNL A   1      36.099  32.088  32.199  1.00  0.00     0.022 A 
BRANCH  54  58
ATOM     58  S   UNL A   1      35.028  33.087  29.829  1.00  0.00     0.124 S 
ATOM     59  O   UNL A   1      35.870  34.107  29.215  1.00  0.00    -0.237 OA
ATOM     60  O   UNL A   1      34.507  32.060  28.933  1.00  0.00    -0.237 OA
ATOM     61  O   UNL A   1      34.082  33.578  30.829  1.00  0.00    -0.744 OA
ENDBRANCH  54  58
ENDBRANCH  27  51
BRANCH  39  62
ATOM     62  C   UNL A   1      44.809  33.451  29.904  1.00  0.00     0.023 A 
ATOM     63  C   UNL A   1      44.752  34.538  29.017  1.00  0.00     0.031 A 
ATOM     64  C   UNL A   1      45.480  33.620  31.127  1.00  0.00     0.131 A 
ATOM     65  C   UNL A   1      45.418  35.729  29.337  1.00  0.00     0.055 A 
ATOM     66  C   UNL A   1      46.080  34.831  31.470  1.00  0.00     0.041 A 
ATOM     67  F   UNL A   1      45.562  32.611  32.009  1.00  0.00    -0.206 F 
ATOM     68  C   UNL A   1      46.065  35.888  30.566  1.00  0.00     0.022 A 
BRANCH  65  69
ATOM     69  S   UNL A   1      45.523  37.027  28.076  1.00  0.00     0.124 S 
ATOM     70  O   UNL A   1      46.957  37.079  27.813  1.00  0.00    -0.237 OA
ATOM     71  O   UNL A   1      44.697  36.484  27.002  1.00  0.00    -0.237 OA
ATOM     72  O   UNL A   1      44.971  38.202  28.748  1.00  0.00    -0.744 OA
ENDBRANCH  65  69
ENDBRANCH  39  62
ENDBRANCH  13  14
ENDBRANCH   6   8
ENDBRANCH   5   6
ENDBRANCH   4   5
ENDBRANCH   3   4
ENDBRANCH   2   3
ENDBRANCH   1   2
BRANCH   1  73
ATOM     73  C   UNL A   1      33.158  22.646  26.536  1.00  0.00     0.188 C 
BRANCH  73  74
ATOM     74  O   UNL A   1      34.072  23.726  26.714  1.00  0.00    -0.377 OA
BRANCH  74  75
ATOM     75  C   UNL A   1      34.067  24.733  25.703  1.00  0.00     0.188 C 
BRANCH  75  76
ATOM     76  C   UNL A   1      33.339  26.072  25.975  1.00  0.00     0.188 C 
BRANCH  76  77
ATOM     77  O   UNL A   1      33.598  27.090  25.017  1.00  0.00    -0.376 OA
BRANCH  77  78
ATOM     78  C   UNL A   1      32.846  28.289  25.179  1.00  0.00     0.202 C 
BRANCH  78  79
ATOM     79  C   UNL A   1      32.523  29.060  23.886  1.00  0.00     0.261 C 
BRANCH  79  80
ATOM     80  O   UNL A   1      31.126  29.321  23.661  1.00  0.00    -0.457 OA
BRANCH  80  81
ATOM     81  C   UNL A   1      30.496  28.595  22.705  1.00  0.00     0.376 C 
ATOM     82  O   UNL A   1      29.916  29.043  21.727  1.00  0.00    -0.242 OA
BRANCH  81  83
ATOM     83  C   UNL A   1      30.791  27.145  22.954  1.00  0.00     0.239 A 
ATOM     84  N   UNL A   1      29.949  26.508  23.799  1.00  0.00    -0.230 NA
ATOM     85  N   UNL A   1      31.783  26.567  22.242  1.00  0.00    -0.222 NA
ATOM     86  C   UNL A   1      30.125  25.180  23.906  1.00  0.00     0.124 A 
ATOM     87  C   UNL A   1      31.953  25.248  22.416  1.00  0.00     0.075 A 
ATOM     88  C   UNL A   1      31.124  24.480  23.247  1.00  0.00     0.019 A 
ATOM     89  C   UNL A   1      32.994  24.592  21.771  1.00  0.00     0.029 A 
ATOM     90  C   UNL A   1      31.323  23.093  23.403  1.00  0.00     0.012 A 
ATOM     91  C   UNL A   1      33.228  23.222  21.945  1.00  0.00     0.002 A 
ATOM     92  C   UNL A   1      32.387  22.469  22.760  1.00  0.00     0.001 A 
ENDBRANCH  81  83
ENDBRANCH  80  81
ENDBRANCH  79  80
ENDBRANCH  78  79
ENDBRANCH  77  78
ENDBRANCH  76  77
ENDBRANCH  75  76
ENDBRANCH  74  75
ENDBRANCH  73  74
ENDBRANCH   1  73
TORSDOF 23
ENDMDL
MODEL 2
REMARK VINA RESULT:      -9.9      2.182      3.316
REMARK SMILES O=C(OCCOCCOCCOCCOC(=O)c1ncc2ccccc2n1)c1ccc(-c2c3nc(c(-c4cc(S(=O)(=O)[O-])ccc4F)c4ccc([nH]4)c(-c4cc(S(=O)(=O)[O-])ccc4F)c4nc(c(-c5cc(S(=O)(=O)[O-])ccc5F)c5ccc2[nH]5)C=C4)C=C3)cc1
REMARK SMILES IDX 7 1 6 2 5 3 4 4 3 5 2 6 1 7 28 8 29 9 90 10 30 11 89 12
REMARK SMILES IDX 31 13 32 14 33 15 83 16 34 17 88 18 82 19 84 20 35 21 87 22
REMARK SMILES IDX 81 23 80 24 36 26 68 27 48 28 67 29 49 30 52 31 66 32 85 33
REMARK SMILES IDX 50 34 51 35 65 37 86 38 53 39 37 40 38 41 46 42 39 43 45 44
REMARK SMILES IDX 47 45 44 46 40 47 41 48 42 49 43 50 69 51 70 52 78 53 71 54
REMARK SMILES IDX 77 55 79 56 76 57 72 58 73 59 74 60 75 61 54 62 55 63 63 64
REMARK SMILES IDX 56 65 62 66 64 67 61 68 57 69 58 70 59 71 60 72 8 73 9 74
REMARK SMILES IDX 10 75 11 76 12 77 13 78 14 79 15 80 16 81 17 82 18 83 19 84
REMARK SMILES IDX 27 85 20 86 26 87 21 88 25 89 22 90 24 91 23 92
REMARK H PARENT 84 25 52 36
REMARK Flexibility Score: inf
ROOT
ATOM      1  C   UNL A   1      34.191  21.712  25.060  1.00  0.00     0.188 C 
ENDROOT
BRANCH   1   2
ATOM      2  O   UNL A   1      35.319  21.927  24.224  1.00  0.00    -0.376 OA
BRANCH   2   3
ATOM      3  C   UNL A   1      36.571  21.366  24.591  1.00  0.00     0.202 C 
BRANCH   3   4
ATOM      4  C   UNL A   1      37.343  22.008  25.748  1.00  0.00     0.261 C 
BRANCH   4   5
ATOM      5  O   UNL A   1      38.774  21.851  25.720  1.00  0.00    -0.460 OA
BRANCH   5   6
ATOM      6  C   UNL A   1      39.718  22.260  26.602  1.00  0.00     0.338 C 
ATOM      7  O   UNL A   1      40.564  21.455  26.985  1.00  0.00    -0.246 OA
BRANCH   6   8
ATOM      8  C   UNL A   1      39.778  23.644  27.133  1.00  0.00     0.060 A 
ATOM      9  C   UNL A   1      39.037  24.705  26.627  1.00  0.00     0.016 A 
ATOM     10  C   UNL A   1      40.546  23.872  28.282  1.00  0.00     0.016 A 
ATOM     11  C   UNL A   1      39.221  26.001  27.076  1.00  0.00     0.010 A 
ATOM     12  C   UNL A   1      40.653  25.159  28.818  1.00  0.00     0.010 A 
ATOM     13  C   UNL A   1      40.056  26.243  28.159  1.00  0.00    -0.014 A 
BRANCH  13  14
ATOM     14  C   UNL A   1      40.456  27.640  28.434  1.00  0.00     0.031 A 
ATOM     15  C   UNL A   1      41.850  28.046  28.046  1.00  0.00     0.074 A 
ATOM     16  C   UNL A   1      39.554  28.544  28.863  1.00  0.00     0.049 A 
ATOM     17  N   UNL A   1      42.487  29.162  28.267  1.00  0.00    -0.248 NA
ATOM     18  C   UNL A   1      42.639  27.042  27.310  1.00  0.00     0.031 C 
ATOM     19  C   UNL A   1      38.136  28.270  29.115  1.00  0.00     0.029 A 
ATOM     20  N   UNL A   1      39.681  29.883  29.117  1.00  0.00    -0.354 N 
ATOM     21  C   UNL A   1      43.768  28.969  27.756  1.00  0.00     0.074 A 
ATOM     22  C   UNL A   1      43.822  27.625  27.231  1.00  0.00     0.031 C 
ATOM     23  C   UNL A   1      37.518  29.417  29.437  1.00  0.00     0.029 A 
ATOM     24  C   UNL A   1      38.508  30.483  29.515  1.00  0.00     0.049 A 
ATOM     25  H   UNL A   1      40.531  30.371  29.024  1.00  0.00     0.167 HD
ATOM     26  C   UNL A   1      44.803  29.843  27.738  1.00  0.00     0.034 A 
ATOM     27  C   UNL A   1      38.282  31.745  29.933  1.00  0.00     0.034 A 
ATOM     28  C   UNL A   1      44.686  31.184  28.250  1.00  0.00     0.049 A 
ATOM     29  C   UNL A   1      39.467  32.677  29.983  1.00  0.00     0.074 A 
ATOM     30  C   UNL A   1      45.659  32.157  28.373  1.00  0.00     0.029 A 
ATOM     31  N   UNL A   1      43.501  31.742  28.722  1.00  0.00    -0.354 N 
ATOM     32  N   UNL A   1      40.711  32.454  29.615  1.00  0.00    -0.248 NA
ATOM     33  C   UNL A   1      39.226  34.022  30.514  1.00  0.00     0.031 C 
ATOM     34  C   UNL A   1      45.076  33.279  28.973  1.00  0.00     0.029 A 
ATOM     35  C   UNL A   1      43.720  33.039  29.151  1.00  0.00     0.049 A 
ATOM     36  H   UNL A   1      42.632  31.280  28.747  1.00  0.00     0.167 HD
ATOM     37  C   UNL A   1      41.396  33.643  29.847  1.00  0.00     0.074 A 
ATOM     38  C   UNL A   1      40.419  34.581  30.365  1.00  0.00     0.031 C 
ATOM     39  C   UNL A   1      42.709  33.938  29.658  1.00  0.00     0.034 A 
BRANCH  26  40
ATOM     40  C   UNL A   1      46.135  29.315  27.257  1.00  0.00     0.023 A 
ATOM     41  C   UNL A   1      46.388  29.032  25.902  1.00  0.00     0.031 A 
ATOM     42  C   UNL A   1      47.125  28.972  28.195  1.00  0.00     0.131 A 
ATOM     43  C   UNL A   1      47.552  28.334  25.538  1.00  0.00     0.055 A 
ATOM     44  C   UNL A   1      48.322  28.360  27.815  1.00  0.00     0.041 A 
ATOM     45  F   UNL A   1      46.930  29.186  29.505  1.00  0.00    -0.206 F 
ATOM     46  C   UNL A   1      48.533  28.018  26.483  1.00  0.00     0.022 A 
BRANCH  43  47
ATOM     47  S   UNL A   1      47.681  27.676  23.850  1.00  0.00     0.124 S 
ATOM     48  O   UNL A   1      46.780  28.564  23.119  1.00  0.00    -0.237 OA
ATOM     49  O   UNL A   1      49.101  27.828  23.559  1.00  0.00    -0.237 OA
ATOM     50  O   UNL A   1      47.214  26.298  23.982  1.00  0.00    -0.744 OA
ENDBRANCH  43  47
ENDBRANCH  26  40
BRANCH  27  51
ATOM     51  C   UNL A   1      36.928  32.175  30.395  1.00  0.00     0.023 A 
ATOM     52  C   UNL A   1      36.088  32.954  29.582  1.00  0.00     0.031 A 
ATOM     53  C   UNL A   1      36.467  31.855  31.688  1.00  0.00     0.131 A 
ATOM     54  C   UNL A   1      34.858  33.419  30.081  1.00  0.00     0.055 A 
ATOM     55  C   UNL A   1      35.218  32.268  32.157  1.00  0.00     0.041 A 
ATOM     56  F   UNL A   1      37.226  31.124  32.520  1.00  0.00    -0.206 F 
ATOM     57  C   UNL A   1      34.411  33.068  31.356  1.00  0.00     0.022 A 
BRANCH  54  58
ATOM     58  S   UNL A   1      33.890  34.579  29.075  1.00  0.00     0.124 S 
ATOM     59  O   UNL A   1      33.688  35.683  30.006  1.00  0.00    -0.237 OA
ATOM     60  O   UNL A   1      34.792  34.837  27.959  1.00  0.00    -0.237 OA
ATOM     61  O   UNL A   1      32.688  33.818  28.740  1.00  0.00    -0.744 OA
ENDBRANCH  54  58
ENDBRANCH  27  51
BRANCH  39  62
ATOM     62  C   UNL A   1      43.126  35.355  29.956  1.00  0.00     0.023 A 
ATOM     63  C   UNL A   1      43.039  36.369  28.989  1.00  0.00     0.031 A 
ATOM     64  C   UNL A   1      43.635  35.683  31.225  1.00  0.00     0.131 A 
ATOM     65  C   UNL A   1      43.520  37.652  29.284  1.00  0.00     0.055 A 
ATOM     66  C   UNL A   1      44.046  36.978  31.534  1.00  0.00     0.041 A 
ATOM     67  F   UNL A   1      43.738  34.748  32.183  1.00  0.00    -0.206 F 
ATOM     68  C   UNL A   1      44.006  37.967  30.556  1.00  0.00     0.022 A 
BRANCH  65  69
ATOM     69  S   UNL A   1      43.608  38.871  27.946  1.00  0.00     0.124 S 
ATOM     70  O   UNL A   1      42.233  38.889  27.461  1.00  0.00    -0.237 OA
ATOM     71  O   UNL A   1      44.053  40.071  28.646  1.00  0.00    -0.237 OA
ATOM     72  O   UNL A   1      44.585  38.294  27.023  1.00  0.00    -0.744 OA
ENDBRANCH  65  69
ENDBRANCH  39  62
ENDBRANCH  13  14
ENDBRANCH   6   8
ENDBRANCH   5   6
ENDBRANCH   4   5
ENDBRANCH   3   4
ENDBRANCH   2   3
ENDBRANCH   1   2
BRANCH   1  73
ATOM     73  C   UNL A   1      33.199  22.873  24.987  1.00  0.00     0.188 C 
BRANCH  73  74
ATOM     74  O   UNL A   1      33.758  24.179  25.113  1.00  0.00    -0.377 OA
BRANCH  74  75
ATOM     75  C   UNL A   1      34.522  24.651  24.004  1.00  0.00     0.188 C 
BRANCH  75  76
ATOM     76  C   UNL A   1      34.024  25.888  23.217  1.00  0.00     0.188 C 
BRANCH  76  77
ATOM     77  O   UNL A   1      33.660  25.622  21.868  1.00  0.00    -0.376 OA
BRANCH  77  78
ATOM     78  C   UNL A   1      32.291  25.850  21.548  1.00  0.00     0.202 C 
BRANCH  78  79
ATOM     79  C   UNL A   1      31.262  25.186  22.481  1.00  0.00     0.261 C 
BRANCH  79  80
ATOM     80  O   UNL A   1      30.453  26.096  23.247  1.00  0.00    -0.457 OA
BRANCH  80  81
ATOM     81  C   UNL A   1      30.590  26.078  24.596  1.00  0.00     0.376 C 
ATOM     82  O   UNL A   1      30.360  25.127  25.330  1.00  0.00    -0.242 OA
BRANCH  81  83
ATOM     83  C   UNL A   1      31.249  27.359  25.013  1.00  0.00     0.239 A 
ATOM     84  N   UNL A   1      30.703  28.492  24.517  1.00  0.00    -0.230 NA
ATOM     85  N   UNL A   1      32.245  27.295  25.924  1.00  0.00    -0.222 NA
ATOM     86  C   UNL A   1      31.199  29.641  25.006  1.00  0.00     0.124 A 
ATOM     87  C   UNL A   1      32.743  28.466  26.349  1.00  0.00     0.075 A 
ATOM     88  C   UNL A   1      32.237  29.704  25.923  1.00  0.00     0.019 A 
ATOM     89  C   UNL A   1      33.812  28.485  27.234  1.00  0.00     0.029 A 
ATOM     90  C   UNL A   1      32.777  30.918  26.394  1.00  0.00     0.012 A 
ATOM     91  C   UNL A   1      34.384  29.683  27.683  1.00  0.00     0.002 A 
ATOM     92  C   UNL A   1      33.862  30.903  27.264  1.00  0.00     0.001 A 
ENDBRANCH  81  83
ENDBRANCH  80  81
ENDBRANCH  79  80
ENDBRANCH  78  79
ENDBRANCH  77  78
ENDBRANCH  76  77
ENDBRANCH  75  76
ENDBRANCH  74  75
ENDBRANCH  73  74
ENDBRANCH   1  73
TORSDOF 23
ENDMDL
MODEL 3
REMARK VINA RESULT:      -9.9      2.227      3.482
REMARK SMILES O=C(OCCOCCOCCOCCOC(=O)c1ncc2ccccc2n1)c1ccc(-c2c3nc(c(-c4cc(S(=O)(=O)[O-])ccc4F)c4ccc([nH]4)c(-c4cc(S(=O)(=O)[O-])ccc4F)c4nc(c(-c5cc(S(=O)(=O)[O-])ccc5F)c5ccc2[nH]5)C=C4)C=C3)cc1
REMARK SMILES IDX 7 1 6 2 5 3 4 4 3 5 2 6 1 7 28 8 29 9 90 10 30 11 89 12
REMARK SMILES IDX 31 13 32 14 33 15 83 16 34 17 88 18 82 19 84 20 35 21 87 22
REMARK SMILES IDX 81 23 80 24 36 26 68 27 48 28 67 29 49 30 52 31 66 32 85 33
REMARK SMILES IDX 50 34 51 35 65 37 86 38 53 39 37 40 38 41 46 42 39 43 45 44
REMARK SMILES IDX 47 45 44 46 40 47 41 48 42 49 43 50 69 51 70 52 78 53 71 54
REMARK SMILES IDX 77 55 79 56 76 57 72 58 73 59 74 60 75 61 54 62 55 63 63 64
REMARK SMILES IDX 56 65 62 66 64 67 61 68 57 69 58 70 59 71 60 72 8 73 9 74
REMARK SMILES IDX 10 75 11 76 12 77 13 78 14 79 15 80 16 81 17 82 18 83 19 84
REMARK SMILES IDX 27 85 20 86 26 87 21 88 25 89 22 90 24 91 23 92
REMARK H PARENT 84 25 52 36
REMARK Flexibility Score: inf
ROOT
ATOM      1  C   UNL A   1      35.056  20.708  25.129  1.00  0.00     0.188 C 
ENDROOT
BRANCH   1   2
ATOM      2  O   UNL A   1      36.301  21.126  25.671  1.00  0.00    -0.376 OA
BRANCH   2   3
ATOM      3  C   UNL A   1      37.504  20.736  25.025  1.00  0.00     0.202 C 
BRANCH   3   4
ATOM      4  C   UNL A   1      38.836  21.126  25.672  1.00  0.00     0.261 C 
BRANCH   4   5
ATOM      5  O   UNL A   1      39.765  20.052  25.912  1.00  0.00    -0.460 OA
BRANCH   5   6
ATOM      6  C   UNL A   1      41.110  20.075  26.068  1.00  0.00     0.338 C 
ATOM      7  O   UNL A   1      41.743  19.029  25.941  1.00  0.00    -0.246 OA
BRANCH   6   8
ATOM      8  C   UNL A   1      41.863  21.314  26.387  1.00  0.00     0.060 A 
ATOM      9  C   UNL A   1      42.253  21.678  27.670  1.00  0.00     0.016 A 
ATOM     10  C   UNL A   1      42.298  22.108  25.320  1.00  0.00     0.016 A 
ATOM     11  C   UNL A   1      42.843  22.902  27.930  1.00  0.00     0.010 A 
ATOM     12  C   UNL A   1      42.997  23.295  25.560  1.00  0.00     0.010 A 
ATOM     13  C   UNL A   1      43.194  23.736  26.877  1.00  0.00    -0.014 A 
BRANCH  13  14
ATOM     14  C   UNL A   1      43.553  25.137  27.185  1.00  0.00     0.031 A 
ATOM     15  C   UNL A   1      44.913  25.611  26.752  1.00  0.00     0.074 A 
ATOM     16  C   UNL A   1      42.639  25.990  27.685  1.00  0.00     0.049 A 
ATOM     17  N   UNL A   1      45.517  26.742  26.985  1.00  0.00    -0.248 NA
ATOM     18  C   UNL A   1      45.705  24.664  25.947  1.00  0.00     0.031 C 
ATOM     19  C   UNL A   1      41.245  25.652  27.989  1.00  0.00     0.029 A 
ATOM     20  N   UNL A   1      42.727  27.324  27.982  1.00  0.00    -0.354 N 
ATOM     21  C   UNL A   1      46.780  26.617  26.413  1.00  0.00     0.074 A 
ATOM     22  C   UNL A   1      46.860  25.295  25.837  1.00  0.00     0.031 C 
ATOM     23  C   UNL A   1      40.599  26.763  28.379  1.00  0.00     0.029 A 
ATOM     24  C   UNL A   1      41.551  27.863  28.453  1.00  0.00     0.049 A 
ATOM     25  H   UNL A   1      43.553  27.847  27.870  1.00  0.00     0.167 HD
ATOM     26  C   UNL A   1      47.780  27.530  26.382  1.00  0.00     0.034 A 
ATOM     27  C   UNL A   1      41.298  29.100  28.926  1.00  0.00     0.034 A 
ATOM     28  C   UNL A   1      47.636  28.847  26.948  1.00  0.00     0.049 A 
ATOM     29  C   UNL A   1      42.448  30.075  28.959  1.00  0.00     0.074 A 
ATOM     30  C   UNL A   1      48.576  29.852  27.063  1.00  0.00     0.029 A 
ATOM     31  N   UNL A   1      46.453  29.342  27.490  1.00  0.00    -0.354 N 
ATOM     32  N   UNL A   1      43.682  29.913  28.529  1.00  0.00    -0.248 NA
ATOM     33  C   UNL A   1      42.181  31.390  29.548  1.00  0.00     0.031 C 
ATOM     34  C   UNL A   1      47.979  30.929  27.729  1.00  0.00     0.029 A 
ATOM     35  C   UNL A   1      46.643  30.630  27.956  1.00  0.00     0.049 A 
ATOM     36  H   UNL A   1      45.604  28.846  27.536  1.00  0.00     0.167 HD
ATOM     37  C   UNL A   1      44.332  31.119  28.774  1.00  0.00     0.074 A 
ATOM     38  C   UNL A   1      43.344  32.000  29.368  1.00  0.00     0.031 C 
ATOM     39  C   UNL A   1      45.623  31.472  28.539  1.00  0.00     0.034 A 
BRANCH  26  40
ATOM     40  C   UNL A   1      49.108  27.072  25.825  1.00  0.00     0.023 A 
ATOM     41  C   UNL A   1      50.168  26.655  26.651  1.00  0.00     0.031 A 
ATOM     42  C   UNL A   1      49.354  27.175  24.444  1.00  0.00     0.131 A 
ATOM     43  C   UNL A   1      51.447  26.459  26.104  1.00  0.00     0.055 A 
ATOM     44  C   UNL A   1      50.606  26.888  23.894  1.00  0.00     0.041 A 
ATOM     45  F   UNL A   1      48.394  27.598  23.607  1.00  0.00    -0.206 F 
ATOM     46  C   UNL A   1      51.667  26.548  24.727  1.00  0.00     0.022 A 
BRANCH  43  47
ATOM     47  S   UNL A   1      52.857  26.272  27.232  1.00  0.00     0.124 S 
ATOM     48  O   UNL A   1      53.502  25.073  26.702  1.00  0.00    -0.237 OA
ATOM     49  O   UNL A   1      53.582  27.522  27.042  1.00  0.00    -0.237 OA
ATOM     50  O   UNL A   1      52.230  26.106  28.542  1.00  0.00    -0.744 OA
ENDBRANCH  43  47
ENDBRANCH  26  40
BRANCH  27  51
ATOM     51  C   UNL A   1      39.950  29.461  29.462  1.00  0.00     0.023 A 
ATOM     52  C   UNL A   1      39.690  29.479  30.843  1.00  0.00     0.031 A 
ATOM     53  C   UNL A   1      38.876  29.745  28.595  1.00  0.00     0.131 A 
ATOM     54  C   UNL A   1      38.389  29.733  31.311  1.00  0.00     0.055 A 
ATOM     55  C   UNL A   1      37.600  30.056  29.068  1.00  0.00     0.041 A 
ATOM     56  F   UNL A   1      39.054  29.731  27.264  1.00  0.00    -0.206 F 
ATOM     57  C   UNL A   1      37.346  30.037  30.434  1.00  0.00     0.022 A 
BRANCH  54  58
ATOM     58  S   UNL A   1      38.051  29.560  33.086  1.00  0.00     0.124 S 
ATOM     59  O   UNL A   1      39.398  29.539  33.645  1.00  0.00    -0.237 OA
ATOM     60  O   UNL A   1      37.260  30.755  33.361  1.00  0.00    -0.237 OA
ATOM     61  O   UNL A   1      37.320  28.298  33.173  1.00  0.00    -0.744 OA
ENDBRANCH  54  58
ENDBRANCH  27  51
BRANCH  39  62
ATOM     62  C   UNL A   1      46.000  32.892  28.871  1.00  0.00     0.023 A 
ATOM     63  C   UNL A   1      46.044  33.892  27.886  1.00  0.00     0.031 A 
ATOM     64  C   UNL A   1      46.336  33.238  30.191  1.00  0.00     0.131 A 
ATOM     65  C   UNL A   1      46.485  35.179  28.225  1.00  0.00     0.055 A 
ATOM     66  C   UNL A   1      46.705  34.537  30.534  1.00  0.00     0.041 A 
ATOM     67  F   UNL A   1      46.309  32.317  31.167  1.00  0.00    -0.206 F 
ATOM     68  C   UNL A   1      46.797  35.512  29.546  1.00  0.00     0.022 A 
BRANCH  65  69
ATOM     69  S   UNL A   1      46.753  36.380  26.893  1.00  0.00     0.124 S 
ATOM     70  O   UNL A   1      45.994  37.532  27.366  1.00  0.00    -0.237 OA
ATOM     71  O   UNL A   1      48.205  36.528  26.895  1.00  0.00    -0.237 OA
ATOM     72  O   UNL A   1      46.200  35.712  25.716  1.00  0.00    -0.744 OA
ENDBRANCH  65  69
ENDBRANCH  39  62
ENDBRANCH  13  14
ENDBRANCH   6   8
ENDBRANCH   5   6
ENDBRANCH   4   5
ENDBRANCH   3   4
ENDBRANCH   2   3
ENDBRANCH   1   2
BRANCH   1  73
ATOM     73  C   UNL A   1      33.922  20.834  26.146  1.00  0.00     0.188 C 
BRANCH  73  74
ATOM     74  O   UNL A   1      34.020  21.928  27.056  1.00  0.00    -0.377 OA
BRANCH  74  75
ATOM     75  C   UNL A   1      33.205  23.064  26.771  1.00  0.00     0.188 C 
BRANCH  75  76
ATOM     76  C   UNL A   1      33.846  24.304  26.100  1.00  0.00     0.188 C 
BRANCH  76  77
ATOM     77  O   UNL A   1      33.880  24.255  24.680  1.00  0.00    -0.376 OA
BRANCH  77  78
ATOM     78  C   UNL A   1      32.758  23.634  24.061  1.00  0.00     0.202 C 
BRANCH  78  79
ATOM     79  C   UNL A   1      32.464  24.067  22.613  1.00  0.00     0.261 C 
BRANCH  79  80
ATOM     80  O   UNL A   1      31.970  25.409  22.462  1.00  0.00    -0.457 OA
BRANCH  80  81
ATOM     81  C   UNL A   1      32.872  26.386  22.197  1.00  0.00     0.376 C 
ATOM     82  O   UNL A   1      33.617  26.434  21.229  1.00  0.00    -0.242 OA
BRANCH  81  83
ATOM     83  C   UNL A   1      32.669  27.488  23.195  1.00  0.00     0.239 A 
ATOM     84  N   UNL A   1      31.541  28.218  23.046  1.00  0.00    -0.230 NA
ATOM     85  N   UNL A   1      33.550  27.593  24.214  1.00  0.00    -0.222 NA
ATOM     86  C   UNL A   1      31.287  29.105  24.024  1.00  0.00     0.124 A 
ATOM     87  C   UNL A   1      33.282  28.525  25.141  1.00  0.00     0.075 A 
ATOM     88  C   UNL A   1      32.129  29.322  25.104  1.00  0.00     0.019 A 
ATOM     89  C   UNL A   1      34.173  28.740  26.185  1.00  0.00     0.029 A 
ATOM     90  C   UNL A   1      31.871  30.287  26.099  1.00  0.00     0.012 A 
ATOM     91  C   UNL A   1      33.951  29.721  27.160  1.00  0.00     0.002 A 
ATOM     92  C   UNL A   1      32.794  30.494  27.119  1.00  0.00     0.001 A 
ENDBRANCH  81  83
ENDBRANCH  80  81
ENDBRANCH  79  80
ENDBRANCH  78  79
ENDBRANCH  77  78
ENDBRANCH  76  77
ENDBRANCH  75  76
ENDBRANCH  74  75
ENDBRANCH  73  74
ENDBRANCH   1  73
TORSDOF 23
ENDMDL
