MODEL 1
REMARK VINA RESULT:     -10.7      0.000      0.000
REMARK SMILES Cc1ccc(NC(=O)C[C@H]2SC[C@H](C(=O)OCCOCCOCCOCCOC(=O)c3ccc(-c4c5nc(c(-c6cc(S(=O)(=O)[O-])ccc6F)c6ccc([nH]6)c(-c6cc(S(=O)(=O)[O-])ccc6F)c6nc(c(-c7cc(S(=O)(=O)[O-])ccc7F)c7ccc4[nH]7)C=C6)C=C5)cc3)NC2=O)cc1
REMARK SMILES IDX 22 1 21 2 20 3 19 4 18 5 17 6 16 7 14 8 15 9 13 10 10 11
REMARK SMILES IDX 11 12 95 13 12 14 94 15 96 16 9 18 7 19 6 20 8 22 5 23 1 24
REMARK SMILES IDX 2 25 3 26 98 27 4 28 97 29 23 30 24 31 25 32 26 33 27 34
REMARK SMILES IDX 28 35 29 36 30 37 31 38 32 39 93 40 33 41 92 42 34 43 35 44
REMARK SMILES IDX 36 45 86 46 37 47 91 48 85 49 87 50 38 51 90 52 84 53 83 54
REMARK SMILES IDX 39 56 71 57 51 58 70 59 52 60 55 61 69 62 88 63 53 64 54 65
REMARK SMILES IDX 68 67 89 68 56 69 40 70 41 71 49 72 42 73 48 74 50 75 47 76
REMARK SMILES IDX 43 77 44 78 45 79 46 80 72 81 73 82 81 83 74 84 80 85 82 86
REMARK SMILES IDX 79 87 75 88 76 89 77 90 78 91 57 92 58 93 66 94 59 95 65 96
REMARK SMILES IDX 67 97 64 98 60 99 61 100 62 101 63 102
REMARK H PARENT 94 17 6 21 87 55 55 66
REMARK Flexibility Score: inf
ROOT
ATOM      1  O   UNL A   1      39.506  21.762  26.114  1.00  0.00    -0.377 OA
ENDROOT
BRANCH   1   2
ATOM      2  C   UNL A   1      38.239  22.247  25.729  1.00  0.00     0.188 C 
BRANCH   2   3
ATOM      3  C   UNL A   1      37.455  21.262  24.855  1.00  0.00     0.188 C 
BRANCH   3   4
ATOM      4  O   UNL A   1      36.114  21.592  24.512  1.00  0.00    -0.376 OA
BRANCH   4   5
ATOM      5  C   UNL A   1      35.080  20.791  25.084  1.00  0.00     0.202 C 
BRANCH   5   6
ATOM      6  C   UNL A   1      34.543  21.217  26.439  1.00  0.00     0.261 C 
BRANCH   6   7
ATOM      7  O   UNL A   1      33.135  21.448  26.323  1.00  0.00    -0.462 OA
BRANCH   7   8
ATOM      8  C   UNL A   1      32.671  22.473  27.042  1.00  0.00     0.329 C 
ATOM      9  O   UNL A   1      32.517  22.471  28.260  1.00  0.00    -0.250 OA
BRANCH   8  10
ATOM     10  C   UNL A   1      32.239  23.637  26.196  1.00  0.00     0.202 C 
ATOM     11  C   UNL A   1      32.067  25.763  24.200  1.00  0.00     0.145 C 
ATOM     12  S   UNL A   1      30.515  25.456  25.145  1.00  0.00    -0.145 SA
ATOM     13  C   UNL A   1      33.108  24.627  24.309  1.00  0.00     0.234 C 
ATOM     14  C   UNL A   1      31.251  24.690  26.652  1.00  0.00     0.107 C 
ATOM     15  N   UNL A   1      33.394  24.231  25.581  1.00  0.00    -0.341 N 
ATOM     16  O   UNL A   1      33.673  24.043  23.392  1.00  0.00    -0.274 OA
ATOM     17  H   UNL A   1      34.269  24.337  26.018  1.00  0.00     0.164 HD
BRANCH  11  18
ATOM     18  C   UNL A   1      31.712  26.162  22.770  1.00  0.00     0.124 C 
BRANCH  18  19
ATOM     19  C   UNL A   1      32.620  27.200  22.138  1.00  0.00     0.226 C 
ATOM     20  N   UNL A   1      32.346  28.537  22.210  1.00  0.00    -0.326 N 
ATOM     21  H   UNL A   1      33.090  29.116  21.929  1.00  0.00     0.169 HD
ATOM     22  O   UNL A   1      33.669  26.839  21.592  1.00  0.00    -0.275 OA
BRANCH  20  23
ATOM     23  C   UNL A   1      31.196  29.234  22.614  1.00  0.00     0.041 A 
ATOM     24  C   UNL A   1      27.626  31.419  23.641  1.00  0.00     0.044 C 
ATOM     25  C   UNL A   1      28.865  30.660  23.276  1.00  0.00    -0.051 A 
ATOM     26  C   UNL A   1      29.795  30.317  24.262  1.00  0.00     0.005 A 
ATOM     27  C   UNL A   1      29.128  30.318  21.947  1.00  0.00     0.005 A 
ATOM     28  C   UNL A   1      30.939  29.585  23.936  1.00  0.00     0.026 A 
ATOM     29  C   UNL A   1      30.280  29.599  21.621  1.00  0.00     0.026 A 
ENDBRANCH  20  23
ENDBRANCH  18  19
ENDBRANCH  11  18
ENDBRANCH   8  10
ENDBRANCH   7   8
ENDBRANCH   6   7
ENDBRANCH   5   6
ENDBRANCH   4   5
ENDBRANCH   3   4
ENDBRANCH   2   3
ENDBRANCH   1   2
BRANCH   1  30
ATOM     30  C   UNL A   1      39.812  20.370  26.049  1.00  0.00     0.188 C 
BRANCH  30  31
ATOM     31  C   UNL A   1      41.106  19.817  26.630  1.00  0.00     0.188 C 
BRANCH  31  32
ATOM     32  O   UNL A   1      41.935  19.318  25.576  1.00  0.00    -0.376 OA
BRANCH  32  33
ATOM     33  C   UNL A   1      42.813  18.268  25.972  1.00  0.00     0.202 C 
BRANCH  33  34
ATOM     34  C   UNL A   1      44.279  18.621  25.741  1.00  0.00     0.261 C 
BRANCH  34  35
ATOM     35  O   UNL A   1      44.356  19.648  24.733  1.00  0.00    -0.460 OA
BRANCH  35  36
ATOM     36  C   UNL A   1      45.159  20.692  25.056  1.00  0.00     0.338 C 
ATOM     37  O   UNL A   1      46.369  20.597  25.275  1.00  0.00    -0.246 OA
BRANCH  36  38
ATOM     38  C   UNL A   1      44.370  21.939  25.245  1.00  0.00     0.060 A 
ATOM     39  C   UNL A   1      44.415  22.957  24.279  1.00  0.00     0.016 A 
ATOM     40  C   UNL A   1      43.814  22.206  26.492  1.00  0.00     0.016 A 
ATOM     41  C   UNL A   1      44.064  24.274  24.620  1.00  0.00     0.010 A 
ATOM     42  C   UNL A   1      43.577  23.520  26.851  1.00  0.00     0.010 A 
ATOM     43  C   UNL A   1      43.734  24.579  25.943  1.00  0.00    -0.014 A 
BRANCH  43  44
ATOM     44  C   UNL A   1      43.772  25.932  26.546  1.00  0.00     0.031 A 
ATOM     45  C   UNL A   1      42.514  26.737  26.704  1.00  0.00     0.074 A 
ATOM     46  C   UNL A   1      44.856  26.237  27.304  1.00  0.00     0.049 A 
ATOM     47  N   UNL A   1      42.418  27.863  27.331  1.00  0.00    -0.248 NA
ATOM     48  C   UNL A   1      41.224  26.329  26.149  1.00  0.00     0.031 C 
ATOM     49  C   UNL A   1      44.873  27.071  28.504  1.00  0.00     0.029 A 
ATOM     50  N   UNL A   1      46.161  25.782  27.253  1.00  0.00    -0.354 N 
ATOM     51  C   UNL A   1      41.081  28.152  27.550  1.00  0.00     0.074 A 
ATOM     52  C   UNL A   1      40.387  27.219  26.699  1.00  0.00     0.031 C 
ATOM     53  C   UNL A   1      46.096  27.095  29.053  1.00  0.00     0.029 A 
ATOM     54  C   UNL A   1      46.992  26.568  28.060  1.00  0.00     0.049 A 
ATOM     55  H   UNL A   1      46.464  25.012  26.722  1.00  0.00     0.167 HD
ATOM     56  C   UNL A   1      40.737  29.061  28.521  1.00  0.00     0.034 A 
ATOM     57  C   UNL A   1      47.958  27.347  27.484  1.00  0.00     0.034 A 
ATOM     58  C   UNL A   1      41.931  29.777  29.033  1.00  0.00     0.049 A 
ATOM     59  C   UNL A   1      47.547  28.826  27.433  1.00  0.00     0.074 A 
ATOM     60  C   UNL A   1      42.466  30.031  30.287  1.00  0.00     0.029 A 
ATOM     61  N   UNL A   1      42.890  30.234  28.125  1.00  0.00    -0.354 N 
ATOM     62  N   UNL A   1      46.340  29.250  27.745  1.00  0.00    -0.248 NA
ATOM     63  C   UNL A   1      48.427  29.954  27.141  1.00  0.00     0.031 C 
ATOM     64  C   UNL A   1      43.800  30.513  30.113  1.00  0.00     0.029 A 
ATOM     65  C   UNL A   1      44.049  30.634  28.755  1.00  0.00     0.049 A 
ATOM     66  H   UNL A   1      42.754  30.267  27.151  1.00  0.00     0.167 HD
ATOM     67  C   UNL A   1      46.255  30.610  27.716  1.00  0.00     0.074 A 
ATOM     68  C   UNL A   1      47.605  31.005  27.341  1.00  0.00     0.031 C 
ATOM     69  C   UNL A   1      45.097  31.299  27.984  1.00  0.00     0.034 A 
BRANCH  56  70
ATOM     70  C   UNL A   1      39.352  29.216  29.184  1.00  0.00     0.023 A 
ATOM     71  C   UNL A   1      38.492  30.270  28.774  1.00  0.00     0.031 A 
ATOM     72  C   UNL A   1      38.853  28.464  30.273  1.00  0.00     0.131 A 
ATOM     73  C   UNL A   1      37.271  30.552  29.436  1.00  0.00     0.055 A 
ATOM     74  C   UNL A   1      37.612  28.706  30.890  1.00  0.00     0.041 A 
ATOM     75  F   UNL A   1      39.548  27.478  30.845  1.00  0.00    -0.206 F 
ATOM     76  C   UNL A   1      36.817  29.761  30.483  1.00  0.00     0.022 A 
BRANCH  73  77
ATOM     77  S   UNL A   1      36.279  31.994  28.939  1.00  0.00     0.124 S 
ATOM     78  O   UNL A   1      35.476  31.450  27.849  1.00  0.00    -0.237 OA
ATOM     79  O   UNL A   1      35.565  32.325  30.167  1.00  0.00    -0.237 OA
ATOM     80  O   UNL A   1      37.285  32.976  28.534  1.00  0.00    -0.744 OA
ENDBRANCH  73  77
ENDBRANCH  56  70
BRANCH  57  81
ATOM     81  C   UNL A   1      48.849  26.468  26.645  1.00  0.00     0.023 A 
ATOM     82  C   UNL A   1      49.506  27.205  25.619  1.00  0.00     0.031 A 
ATOM     83  C   UNL A   1      49.585  25.437  27.257  1.00  0.00     0.131 A 
ATOM     84  C   UNL A   1      50.908  27.164  25.513  1.00  0.00     0.055 A 
ATOM     85  C   UNL A   1      50.978  25.333  27.071  1.00  0.00     0.041 A 
ATOM     86  F   UNL A   1      49.027  24.677  28.210  1.00  0.00    -0.206 F 
ATOM     87  C   UNL A   1      51.653  26.250  26.261  1.00  0.00     0.022 A 
BRANCH  84  88
ATOM     88  S   UNL A   1      51.774  28.565  24.713  1.00  0.00     0.124 S 
ATOM     89  O   UNL A   1      50.989  29.706  25.170  1.00  0.00    -0.237 OA
ATOM     90  O   UNL A   1      53.127  28.465  25.250  1.00  0.00    -0.237 OA
ATOM     91  O   UNL A   1      51.669  28.245  23.290  1.00  0.00    -0.744 OA
ENDBRANCH  84  88
ENDBRANCH  57  81
BRANCH  69  92
ATOM     92  C   UNL A   1      44.815  32.726  27.551  1.00  0.00     0.023 A 
ATOM     93  C   UNL A   1      45.265  33.825  28.282  1.00  0.00     0.031 A 
ATOM     94  C   UNL A   1      44.200  33.037  26.307  1.00  0.00     0.131 A 
ATOM     95  C   UNL A   1      45.025  35.137  27.854  1.00  0.00     0.055 A 
ATOM     96  C   UNL A   1      44.056  34.343  25.829  1.00  0.00     0.041 A 
ATOM     97  F   UNL A   1      43.732  32.091  25.480  1.00  0.00    -0.206 F 
ATOM     98  C   UNL A   1      44.452  35.409  26.615  1.00  0.00     0.022 A 
BRANCH  95  99
ATOM     99  S   UNL A   1      45.409  36.462  29.017  1.00  0.00     0.124 S 
ATOM    100  O   UNL A   1      46.639  37.005  28.446  1.00  0.00    -0.237 OA
ATOM    101  O   UNL A   1      44.233  37.321  28.911  1.00  0.00    -0.237 OA
ATOM    102  O   UNL A   1      45.565  35.769  30.292  1.00  0.00    -0.744 OA
ENDBRANCH  95  99
ENDBRANCH  69  92
ENDBRANCH  43  44
ENDBRANCH  36  38
ENDBRANCH  35  36
ENDBRANCH  34  35
ENDBRANCH  33  34
ENDBRANCH  32  33
ENDBRANCH  31  32
ENDBRANCH  30  31
ENDBRANCH   1  30
TORSDOF 26
ENDMDL
MODEL 2
REMARK VINA RESULT:      -9.3      1.693      2.099
REMARK SMILES Cc1ccc(NC(=O)C[C@H]2SC[C@H](C(=O)OCCOCCOCCOCCOC(=O)c3ccc(-c4c5nc(c(-c6cc(S(=O)(=O)[O-])ccc6F)c6ccc([nH]6)c(-c6cc(S(=O)(=O)[O-])ccc6F)c6nc(c(-c7cc(S(=O)(=O)[O-])ccc7F)c7ccc4[nH]7)C=C6)C=C5)cc3)NC2=O)cc1
REMARK SMILES IDX 22 1 21 2 20 3 19 4 18 5 17 6 16 7 14 8 15 9 13 10 10 11
REMARK SMILES IDX 11 12 95 13 12 14 94 15 96 16 9 18 7 19 6 20 8 22 5 23 1 24
REMARK SMILES IDX 2 25 3 26 98 27 4 28 97 29 23 30 24 31 25 32 26 33 27 34
REMARK SMILES IDX 28 35 29 36 30 37 31 38 32 39 93 40 33 41 92 42 34 43 35 44
REMARK SMILES IDX 36 45 86 46 37 47 91 48 85 49 87 50 38 51 90 52 84 53 83 54
REMARK SMILES IDX 39 56 71 57 51 58 70 59 52 60 55 61 69 62 88 63 53 64 54 65
REMARK SMILES IDX 68 67 89 68 56 69 40 70 41 71 49 72 42 73 48 74 50 75 47 76
REMARK SMILES IDX 43 77 44 78 45 79 46 80 72 81 73 82 81 83 74 84 80 85 82 86
REMARK SMILES IDX 79 87 75 88 76 89 77 90 78 91 57 92 58 93 66 94 59 95 65 96
REMARK SMILES IDX 67 97 64 98 60 99 61 100 62 101 63 102
REMARK H PARENT 94 17 6 21 87 55 55 66
REMARK Flexibility Score: inf
ROOT
ATOM      1  O   UNL A   1      38.958  22.665  25.915  1.00  0.00    -0.377 OA
ENDROOT
BRANCH   1   2
ATOM      2  C   UNL A   1      37.598  22.955  25.682  1.00  0.00     0.188 C 
BRANCH   2   3
ATOM      3  C   UNL A   1      36.995  22.138  24.534  1.00  0.00     0.188 C 
BRANCH   3   4
ATOM      4  O   UNL A   1      35.652  22.411  24.151  1.00  0.00    -0.376 OA
BRANCH   4   5
ATOM      5  C   UNL A   1      34.628  21.625  24.761  1.00  0.00     0.202 C 
BRANCH   5   6
ATOM      6  C   UNL A   1      34.167  22.042  26.147  1.00  0.00     0.261 C 
BRANCH   6   7
ATOM      7  O   UNL A   1      32.742  21.927  26.210  1.00  0.00    -0.462 OA
BRANCH   7   8
ATOM      8  C   UNL A   1      32.107  23.021  26.637  1.00  0.00     0.329 C 
ATOM      9  O   UNL A   1      31.692  23.199  27.779  1.00  0.00    -0.250 OA
BRANCH   8  10
ATOM     10  C   UNL A   1      31.839  24.012  25.540  1.00  0.00     0.202 C 
ATOM     11  C   UNL A   1      32.044  26.144  23.553  1.00  0.00     0.145 C 
ATOM     12  S   UNL A   1      30.542  25.086  23.407  1.00  0.00    -0.145 SA
ATOM     13  C   UNL A   1      33.159  25.539  24.434  1.00  0.00     0.234 C 
ATOM     14  C   UNL A   1      30.455  24.482  25.147  1.00  0.00     0.107 C 
ATOM     15  N   UNL A   1      32.753  25.114  25.663  1.00  0.00    -0.341 N 
ATOM     16  O   UNL A   1      34.338  25.383  24.141  1.00  0.00    -0.274 OA
ATOM     17  H   UNL A   1      33.044  25.508  26.517  1.00  0.00     0.164 HD
BRANCH  11  18
ATOM     18  C   UNL A   1      32.498  26.565  22.157  1.00  0.00     0.124 C 
BRANCH  18  19
ATOM     19  C   UNL A   1      33.328  27.833  22.097  1.00  0.00     0.226 C 
ATOM     20  N   UNL A   1      32.806  29.053  22.425  1.00  0.00    -0.326 N 
ATOM     21  H   UNL A   1      33.478  29.765  22.525  1.00  0.00     0.169 HD
ATOM     22  O   UNL A   1      34.527  27.762  21.801  1.00  0.00    -0.275 OA
BRANCH  20  23
ATOM     23  C   UNL A   1      31.485  29.475  22.646  1.00  0.00     0.041 A 
ATOM     24  C   UNL A   1      27.460  30.730  23.539  1.00  0.00     0.044 C 
ATOM     25  C   UNL A   1      28.861  30.293  23.236  1.00  0.00    -0.051 A 
ATOM     26  C   UNL A   1      29.253  30.056  21.915  1.00  0.00     0.005 A 
ATOM     27  C   UNL A   1      29.781  30.080  24.266  1.00  0.00     0.005 A 
ATOM     28  C   UNL A   1      30.566  29.677  21.621  1.00  0.00     0.026 A 
ATOM     29  C   UNL A   1      31.088  29.686  23.971  1.00  0.00     0.026 A 
ENDBRANCH  20  23
ENDBRANCH  18  19
ENDBRANCH  11  18
ENDBRANCH   8  10
ENDBRANCH   7   8
ENDBRANCH   6   7
ENDBRANCH   5   6
ENDBRANCH   4   5
ENDBRANCH   3   4
ENDBRANCH   2   3
ENDBRANCH   1   2
BRANCH   1  30
ATOM     30  C   UNL A   1      39.362  21.409  26.458  1.00  0.00     0.188 C 
BRANCH  30  31
ATOM     31  C   UNL A   1      40.825  21.108  26.752  1.00  0.00     0.188 C 
BRANCH  31  32
ATOM     32  O   UNL A   1      41.444  20.540  25.594  1.00  0.00    -0.376 OA
BRANCH  32  33
ATOM     33  C   UNL A   1      42.092  19.293  25.831  1.00  0.00     0.202 C 
BRANCH  33  34
ATOM     34  C   UNL A   1      43.612  19.414  25.791  1.00  0.00     0.261 C 
BRANCH  34  35
ATOM     35  O   UNL A   1      43.973  20.420  24.824  1.00  0.00    -0.460 OA
BRANCH  35  36
ATOM     36  C   UNL A   1      44.953  21.263  25.232  1.00  0.00     0.338 C 
ATOM     37  O   UNL A   1      46.130  20.933  25.397  1.00  0.00    -0.246 OA
BRANCH  36  38
ATOM     38  C   UNL A   1      44.401  22.599  25.582  1.00  0.00     0.060 A 
ATOM     39  C   UNL A   1      44.347  23.617  24.616  1.00  0.00     0.016 A 
ATOM     40  C   UNL A   1      44.198  22.918  26.921  1.00  0.00     0.016 A 
ATOM     41  C   UNL A   1      44.262  24.964  25.008  1.00  0.00     0.010 A 
ATOM     42  C   UNL A   1      44.227  24.246  27.304  1.00  0.00     0.010 A 
ATOM     43  C   UNL A   1      44.300  25.289  26.366  1.00  0.00    -0.014 A 
BRANCH  43  44
ATOM     44  C   UNL A   1      44.656  26.616  26.921  1.00  0.00     0.031 A 
ATOM     45  C   UNL A   1      43.597  27.651  27.175  1.00  0.00     0.074 A 
ATOM     46  C   UNL A   1      45.849  26.716  27.559  1.00  0.00     0.049 A 
ATOM     47  N   UNL A   1      43.782  28.782  27.773  1.00  0.00    -0.248 NA
ATOM     48  C   UNL A   1      42.203  27.493  26.761  1.00  0.00     0.031 C 
ATOM     49  C   UNL A   1      46.147  27.545  28.726  1.00  0.00     0.029 A 
ATOM     50  N   UNL A   1      47.031  26.017  27.396  1.00  0.00    -0.354 N 
ATOM     51  C   UNL A   1      42.554  29.326  28.111  1.00  0.00     0.074 A 
ATOM     52  C   UNL A   1      41.612  28.534  27.362  1.00  0.00     0.031 C 
ATOM     53  C   UNL A   1      47.401  27.339  29.152  1.00  0.00     0.029 A 
ATOM     54  C   UNL A   1      48.075  26.637  28.094  1.00  0.00     0.049 A 
ATOM     55  H   UNL A   1      47.126  25.196  26.863  1.00  0.00     0.167 HD
ATOM     56  C   UNL A   1      42.490  30.295  29.083  1.00  0.00     0.034 A 
ATOM     57  C   UNL A   1      49.108  27.208  27.402  1.00  0.00     0.034 A 
ATOM     58  C   UNL A   1      43.844  30.773  29.453  1.00  0.00     0.049 A 
ATOM     59  C   UNL A   1      48.984  28.738  27.346  1.00  0.00     0.074 A 
ATOM     60  C   UNL A   1      44.542  30.935  30.641  1.00  0.00     0.029 A 
ATOM     61  N   UNL A   1      44.776  31.027  28.443  1.00  0.00    -0.354 N 
ATOM     62  N   UNL A   1      47.918  29.390  27.760  1.00  0.00    -0.248 NA
ATOM     63  C   UNL A   1      50.029  29.671  26.934  1.00  0.00     0.031 C 
ATOM     64  C   UNL A   1      45.919  31.148  30.324  1.00  0.00     0.029 A 
ATOM     65  C   UNL A   1      46.048  31.203  28.944  1.00  0.00     0.049 A 
ATOM     66  H   UNL A   1      44.550  31.073  27.487  1.00  0.00     0.167 HD
ATOM     67  C   UNL A   1      48.092  30.741  27.697  1.00  0.00     0.074 A 
ATOM     68  C   UNL A   1      49.447  30.864  27.181  1.00  0.00     0.031 C 
ATOM     69  C   UNL A   1      47.120  31.644  28.055  1.00  0.00     0.034 A 
BRANCH  56  70
ATOM     70  C   UNL A   1      41.234  30.723  29.872  1.00  0.00     0.023 A 
ATOM     71  C   UNL A   1      40.137  29.828  29.983  1.00  0.00     0.031 A 
ATOM     72  C   UNL A   1      40.991  31.996  30.437  1.00  0.00     0.131 A 
ATOM     73  C   UNL A   1      38.905  30.209  30.572  1.00  0.00     0.055 A 
ATOM     74  C   UNL A   1      39.789  32.354  31.075  1.00  0.00     0.041 A 
ATOM     75  F   UNL A   1      41.875  32.994  30.368  1.00  0.00    -0.206 F 
ATOM     76  C   UNL A   1      38.732  31.466  31.136  1.00  0.00     0.022 A 
BRANCH  73  77
ATOM     77  S   UNL A   1      37.499  29.053  30.568  1.00  0.00     0.124 S 
ATOM     78  O   UNL A   1      36.737  29.498  31.730  1.00  0.00    -0.237 OA
ATOM     79  O   UNL A   1      36.894  29.296  29.264  1.00  0.00    -0.237 OA
ATOM     80  O   UNL A   1      38.135  27.744  30.713  1.00  0.00    -0.744 OA
ENDBRANCH  73  77
ENDBRANCH  56  70
BRANCH  57  81
ATOM     81  C   UNL A   1      49.726  26.164  26.508  1.00  0.00     0.023 A 
ATOM     82  C   UNL A   1      49.910  26.644  25.182  1.00  0.00     0.031 A 
ATOM     83  C   UNL A   1      50.720  25.310  27.020  1.00  0.00     0.131 A 
ATOM     84  C   UNL A   1      51.184  26.590  24.587  1.00  0.00     0.055 A 
ATOM     85  C   UNL A   1      51.963  25.177  26.369  1.00  0.00     0.041 A 
ATOM     86  F   UNL A   1      50.604  24.790  28.250  1.00  0.00    -0.206 F 
ATOM     87  C   UNL A   1      52.225  25.883  25.193  1.00  0.00     0.022 A 
BRANCH  84  88
ATOM     88  S   UNL A   1      51.582  27.771  23.245  1.00  0.00     0.124 S 
ATOM     89  O   UNL A   1      50.773  28.928  23.610  1.00  0.00    -0.237 OA
ATOM     90  O   UNL A   1      53.027  27.938  23.372  1.00  0.00    -0.237 OA
ATOM     91  O   UNL A   1      51.165  27.052  22.042  1.00  0.00    -0.744 OA
ENDBRANCH  84  88
ENDBRANCH  57  81
BRANCH  69  92
ATOM     92  C   UNL A   1      47.072  33.093  27.607  1.00  0.00     0.023 A 
ATOM     93  C   UNL A   1      47.800  34.092  28.253  1.00  0.00     0.031 A 
ATOM     94  C   UNL A   1      46.401  33.503  26.422  1.00  0.00     0.131 A 
ATOM     95  C   UNL A   1      47.772  35.421  27.810  1.00  0.00     0.055 A 
ATOM     96  C   UNL A   1      46.461  34.806  25.919  1.00  0.00     0.041 A 
ATOM     97  F   UNL A   1      45.676  32.656  25.678  1.00  0.00    -0.206 F 
ATOM     98  C   UNL A   1      47.135  35.784  26.627  1.00  0.00     0.022 A 
BRANCH  95  99
ATOM     99  S   UNL A   1      48.523  36.659  28.885  1.00  0.00     0.124 S 
ATOM    100  O   UNL A   1      48.365  36.040  30.200  1.00  0.00    -0.237 OA
ATOM    101  O   UNL A   1      49.892  36.722  28.381  1.00  0.00    -0.237 OA
ATOM    102  O   UNL A   1      47.716  37.853  28.655  1.00  0.00    -0.744 OA
ENDBRANCH  95  99
ENDBRANCH  69  92
ENDBRANCH  43  44
ENDBRANCH  36  38
ENDBRANCH  35  36
ENDBRANCH  34  35
ENDBRANCH  33  34
ENDBRANCH  32  33
ENDBRANCH  31  32
ENDBRANCH  30  31
ENDBRANCH   1  30
TORSDOF 26
ENDMDL
MODEL 3
REMARK VINA RESULT:      -8.5      4.681      9.479
REMARK SMILES Cc1ccc(NC(=O)C[C@H]2SC[C@H](C(=O)OCCOCCOCCOCCOC(=O)c3ccc(-c4c5nc(c(-c6cc(S(=O)(=O)[O-])ccc6F)c6ccc([nH]6)c(-c6cc(S(=O)(=O)[O-])ccc6F)c6nc(c(-c7cc(S(=O)(=O)[O-])ccc7F)c7ccc4[nH]7)C=C6)C=C5)cc3)NC2=O)cc1
REMARK SMILES IDX 22 1 21 2 20 3 19 4 18 5 17 6 16 7 14 8 15 9 13 10 10 11
REMARK SMILES IDX 11 12 95 13 12 14 94 15 96 16 9 18 7 19 6 20 8 22 5 23 1 24
REMARK SMILES IDX 2 25 3 26 98 27 4 28 97 29 23 30 24 31 25 32 26 33 27 34
REMARK SMILES IDX 28 35 29 36 30 37 31 38 32 39 93 40 33 41 92 42 34 43 35 44
REMARK SMILES IDX 36 45 86 46 37 47 91 48 85 49 87 50 38 51 90 52 84 53 83 54
REMARK SMILES IDX 39 56 71 57 51 58 70 59 52 60 55 61 69 62 88 63 53 64 54 65
REMARK SMILES IDX 68 67 89 68 56 69 40 70 41 71 49 72 42 73 48 74 50 75 47 76
REMARK SMILES IDX 43 77 44 78 45 79 46 80 72 81 73 82 81 83 74 84 80 85 82 86
REMARK SMILES IDX 79 87 75 88 76 89 77 90 78 91 57 92 58 93 66 94 59 95 65 96
REMARK SMILES IDX 67 97 64 98 60 99 61 100 62 101 63 102
REMARK H PARENT 94 17 6 21 87 55 55 66
REMARK Flexibility Score: inf
ROOT
ATOM      1  O   UNL A   1      42.724  22.196  27.714  1.00  0.00    -0.377 OA
ENDROOT
BRANCH   1   2
ATOM      2  C   UNL A   1      41.550  21.431  27.554  1.00  0.00     0.188 C 
BRANCH   2   3
ATOM      3  C   UNL A   1      40.734  21.829  26.320  1.00  0.00     0.188 C 
BRANCH   3   4
ATOM      4  O   UNL A   1      39.350  22.111  26.494  1.00  0.00    -0.376 OA
BRANCH   4   5
ATOM      5  C   UNL A   1      38.437  21.469  25.604  1.00  0.00     0.202 C 
BRANCH   5   6
ATOM      6  C   UNL A   1      37.154  22.211  25.272  1.00  0.00     0.261 C 
BRANCH   6   7
ATOM      7  O   UNL A   1      36.096  21.677  26.074  1.00  0.00    -0.462 OA
BRANCH   7   8
ATOM      8  C   UNL A   1      35.054  21.202  25.388  1.00  0.00     0.329 C 
ATOM      9  O   UNL A   1      34.982  20.078  24.898  1.00  0.00    -0.250 OA
BRANCH   8  10
ATOM     10  C   UNL A   1      33.977  22.226  25.169  1.00  0.00     0.202 C 
ATOM     11  C   UNL A   1      31.627  23.945  25.413  1.00  0.00     0.145 C 
ATOM     12  S   UNL A   1      32.800  24.416  24.072  1.00  0.00    -0.145 SA
ATOM     13  C   UNL A   1      32.218  22.968  26.454  1.00  0.00     0.234 C 
ATOM     14  C   UNL A   1      33.600  22.776  23.810  1.00  0.00     0.107 C 
ATOM     15  N   UNL A   1      32.813  21.861  25.929  1.00  0.00    -0.341 N 
ATOM     16  O   UNL A   1      32.227  23.094  27.673  1.00  0.00    -0.274 OA
ATOM     17  H   UNL A   1      32.491  20.940  26.053  1.00  0.00     0.164 HD
BRANCH  11  18
ATOM     18  C   UNL A   1      31.012  25.209  26.008  1.00  0.00     0.124 C 
BRANCH  18  19
ATOM     19  C   UNL A   1      30.465  26.203  25.002  1.00  0.00     0.226 C 
ATOM     20  N   UNL A   1      31.024  27.438  24.830  1.00  0.00    -0.326 N 
ATOM     21  H   UNL A   1      30.705  27.918  24.032  1.00  0.00     0.169 HD
ATOM     22  O   UNL A   1      29.522  25.873  24.272  1.00  0.00    -0.275 OA
BRANCH  20  23
ATOM     23  C   UNL A   1      31.974  28.146  25.584  1.00  0.00     0.041 A 
ATOM     24  C   UNL A   1      35.043  30.186  27.819  1.00  0.00     0.044 C 
ATOM     25  C   UNL A   1      33.981  29.473  27.038  1.00  0.00    -0.051 A 
ATOM     26  C   UNL A   1      32.631  29.696  27.322  1.00  0.00     0.005 A 
ATOM     27  C   UNL A   1      34.323  28.549  26.046  1.00  0.00     0.005 A 
ATOM     28  C   UNL A   1      31.634  29.057  26.580  1.00  0.00     0.026 A 
ATOM     29  C   UNL A   1      33.325  27.901  25.316  1.00  0.00     0.026 A 
ENDBRANCH  20  23
ENDBRANCH  18  19
ENDBRANCH  11  18
ENDBRANCH   8  10
ENDBRANCH   7   8
ENDBRANCH   6   7
ENDBRANCH   5   6
ENDBRANCH   4   5
ENDBRANCH   3   4
ENDBRANCH   2   3
ENDBRANCH   1   2
BRANCH   1  30
ATOM     30  C   UNL A   1      43.016  23.288  26.844  1.00  0.00     0.188 C 
BRANCH  30  31
ATOM     31  C   UNL A   1      42.686  24.722  27.235  1.00  0.00     0.188 C 
BRANCH  31  32
ATOM     32  O   UNL A   1      41.576  24.733  28.138  1.00  0.00    -0.376 OA
BRANCH  32  33
ATOM     33  C   UNL A   1      40.613  25.747  27.866  1.00  0.00     0.202 C 
BRANCH  33  34
ATOM     34  C   UNL A   1      40.709  26.268  26.435  1.00  0.00     0.261 C 
BRANCH  34  35
ATOM     35  O   UNL A   1      40.701  27.709  26.463  1.00  0.00    -0.460 OA
BRANCH  35  36
ATOM     36  C   UNL A   1      41.806  28.285  25.929  1.00  0.00     0.338 C 
ATOM     37  O   UNL A   1      42.164  28.147  24.757  1.00  0.00    -0.246 OA
BRANCH  36  38
ATOM     38  C   UNL A   1      42.599  28.994  26.969  1.00  0.00     0.060 A 
ATOM     39  C   UNL A   1      42.162  29.008  28.303  1.00  0.00     0.016 A 
ATOM     40  C   UNL A   1      43.612  29.861  26.574  1.00  0.00     0.016 A 
ATOM     41  C   UNL A   1      42.616  30.000  29.189  1.00  0.00     0.010 A 
ATOM     42  C   UNL A   1      43.969  30.900  27.415  1.00  0.00     0.010 A 
ATOM     43  C   UNL A   1      43.453  31.014  28.715  1.00  0.00    -0.014 A 
BRANCH  43  44
ATOM     44  C   UNL A   1      43.657  32.330  29.365  1.00  0.00     0.031 A 
ATOM     45  C   UNL A   1      44.948  33.080  29.190  1.00  0.00     0.074 A 
ATOM     46  C   UNL A   1      42.546  33.003  29.756  1.00  0.00     0.049 A 
ATOM     47  N   UNL A   1      45.177  34.283  29.602  1.00  0.00    -0.248 NA
ATOM     48  C   UNL A   1      46.119  32.517  28.519  1.00  0.00     0.031 C 
ATOM     49  C   UNL A   1      42.351  34.452  29.735  1.00  0.00     0.029 A 
ATOM     50  N   UNL A   1      41.297  32.553  30.144  1.00  0.00    -0.354 N 
ATOM     51  C   UNL A   1      46.329  34.761  28.998  1.00  0.00     0.074 A 
ATOM     52  C   UNL A   1      46.926  33.582  28.423  1.00  0.00     0.031 C 
ATOM     53  C   UNL A   1      41.105  34.773  30.109  1.00  0.00     0.029 A 
ATOM     54  C   UNL A   1      40.549  33.592  30.710  1.00  0.00     0.049 A 
ATOM     55  H   UNL A   1      40.978  31.628  30.036  1.00  0.00     0.167 HD
ATOM     56  C   UNL A   1      46.558  36.114  28.958  1.00  0.00     0.034 A 
ATOM     57  C   UNL A   1      40.228  33.549  32.039  1.00  0.00     0.034 A 
ATOM     58  C   UNL A   1      45.593  36.848  29.813  1.00  0.00     0.049 A 
ATOM     59  C   UNL A   1      41.115  34.485  32.873  1.00  0.00     0.074 A 
ATOM     60  C   UNL A   1      44.735  37.922  29.633  1.00  0.00     0.029 A 
ATOM     61  N   UNL A   1      45.295  36.348  31.084  1.00  0.00    -0.354 N 
ATOM     62  N   UNL A   1      42.167  35.107  32.383  1.00  0.00    -0.248 NA
ATOM     63  C   UNL A   1      40.877  34.890  34.256  1.00  0.00     0.031 C 
ATOM     64  C   UNL A   1      43.838  37.967  30.745  1.00  0.00     0.029 A 
ATOM     65  C   UNL A   1      44.203  36.976  31.643  1.00  0.00     0.049 A 
ATOM     66  H   UNL A   1      45.806  35.633  31.527  1.00  0.00     0.167 HD
ATOM     67  C   UNL A   1      42.728  35.953  33.294  1.00  0.00     0.074 A 
ATOM     68  C   UNL A   1      41.866  35.787  34.455  1.00  0.00     0.031 C 
ATOM     69  C   UNL A   1      43.848  36.705  33.034  1.00  0.00     0.034 A 
BRANCH  56  70
ATOM     70  C   UNL A   1      47.530  36.853  28.013  1.00  0.00     0.023 A 
ATOM     71  C   UNL A   1      48.457  37.786  28.549  1.00  0.00     0.031 A 
ATOM     72  C   UNL A   1      47.538  36.788  26.600  1.00  0.00     0.131 A 
ATOM     73  C   UNL A   1      49.277  38.598  27.726  1.00  0.00     0.055 A 
ATOM     74  C   UNL A   1      48.397  37.550  25.786  1.00  0.00     0.041 A 
ATOM     75  F   UNL A   1      46.690  36.023  25.910  1.00  0.00    -0.206 F 
ATOM     76  C   UNL A   1      49.264  38.470  26.343  1.00  0.00     0.022 A 
BRANCH  73  77
ATOM     77  S   UNL A   1      50.353  39.860  28.476  1.00  0.00     0.124 S 
ATOM     78  O   UNL A   1      50.235  39.554  29.897  1.00  0.00    -0.237 OA
ATOM     79  O   UNL A   1      51.644  39.583  27.857  1.00  0.00    -0.237 OA
ATOM     80  O   UNL A   1      49.735  41.121  28.063  1.00  0.00    -0.744 OA
ENDBRANCH  73  77
ENDBRANCH  56  70
BRANCH  57  81
ATOM     81  C   UNL A   1      39.491  32.264  32.317  1.00  0.00     0.023 A 
ATOM     82  C   UNL A   1      40.225  31.411  33.188  1.00  0.00     0.031 A 
ATOM     83  C   UNL A   1      38.094  32.283  32.475  1.00  0.00     0.131 A 
ATOM     84  C   UNL A   1      39.631  30.938  34.372  1.00  0.00     0.055 A 
ATOM     85  C   UNL A   1      37.487  31.719  33.615  1.00  0.00     0.041 A 
ATOM     86  F   UNL A   1      37.328  33.037  31.673  1.00  0.00    -0.206 F 
ATOM     87  C   UNL A   1      38.266  31.117  34.606  1.00  0.00     0.022 A 
BRANCH  84  88
ATOM     88  S   UNL A   1      40.712  30.457  35.770  1.00  0.00     0.124 S 
ATOM     89  O   UNL A   1      40.334  31.425  36.793  1.00  0.00    -0.237 OA
ATOM     90  O   UNL A   1      40.322  29.074  36.026  1.00  0.00    -0.237 OA
ATOM     91  O   UNL A   1      42.055  30.607  35.212  1.00  0.00    -0.744 OA
ENDBRANCH  84  88
ENDBRANCH  57  81
BRANCH  69  92
ATOM     92  C   UNL A   1      44.759  37.301  34.092  1.00  0.00     0.023 A 
ATOM     93  C   UNL A   1      44.616  38.614  34.536  1.00  0.00     0.031 A 
ATOM     94  C   UNL A   1      45.719  36.523  34.797  1.00  0.00     0.131 A 
ATOM     95  C   UNL A   1      45.444  39.143  35.536  1.00  0.00     0.055 A 
ATOM     96  C   UNL A   1      46.469  37.019  35.867  1.00  0.00     0.041 A 
ATOM     97  F   UNL A   1      45.958  35.238  34.502  1.00  0.00    -0.206 F 
ATOM     98  C   UNL A   1      46.350  38.348  36.232  1.00  0.00     0.022 A 
BRANCH  95  99
ATOM     99  S   UNL A   1      45.348  40.921  35.824  1.00  0.00     0.124 S 
ATOM    100  O   UNL A   1      45.379  40.983  37.284  1.00  0.00    -0.237 OA
ATOM    101  O   UNL A   1      46.546  41.412  35.149  1.00  0.00    -0.237 OA
ATOM    102  O   UNL A   1      44.081  41.304  35.210  1.00  0.00    -0.744 OA
ENDBRANCH  95  99
ENDBRANCH  69  92
ENDBRANCH  43  44
ENDBRANCH  36  38
ENDBRANCH  35  36
ENDBRANCH  34  35
ENDBRANCH  33  34
ENDBRANCH  32  33
ENDBRANCH  31  32
ENDBRANCH  30  31
ENDBRANCH   1  30
TORSDOF 26
ENDMDL
