MODEL 1
REMARK VINA RESULT:      -8.6      0.000      0.000
REMARK SMILES COc1ccc(-c2ccc(S(=O)(=O)NC(C)(C)C)cc2)c(C(=O)OCCOCCOCCOCCOC(=O)c2ccc(-c3c4nc(c(-c5cc(S(=O)(=O)[O-])ccc5F)c5ccc([nH]5)c(-c5cc(S(=O)(=O)[O-])ccc5F)c5nc(c(-c6cc(S(=O)(=O)[O-])ccc6F)c6ccc3[nH]6)C=C5)C=C4)cc2)c1
REMARK SMILES IDX 29 1 28 2 27 3 26 4 25 5 24 6 22 7 23 8 21 9 3 10 4 11
REMARK SMILES IDX 102 12 5 13 6 14 2 15 1 16 7 17 8 18 20 19 9 20 19 21 10 22
REMARK SMILES IDX 11 23 12 24 13 25 14 26 15 28 16 29 17 30 18 31 30 32 31 33
REMARK SMILES IDX 32 34 33 35 34 36 35 37 36 38 37 39 38 40 39 41 40 42 101 43
REMARK SMILES IDX 41 44 100 45 42 46 43 47 44 48 94 49 45 50 99 51 93 52 95 53
REMARK SMILES IDX 46 54 98 55 92 56 91 57 47 59 79 60 59 61 78 62 60 63 63 64
REMARK SMILES IDX 77 65 96 66 61 67 62 68 76 70 97 71 64 72 48 73 49 74 57 75
REMARK SMILES IDX 50 76 56 77 58 78 55 79 51 80 52 81 53 82 54 83 80 84 81 85
REMARK SMILES IDX 89 86 82 87 88 88 90 89 87 90 83 91 84 92 85 93 86 94 65 95
REMARK SMILES IDX 66 96 74 97 67 98 73 99 75 100 72 101 68 102 69 103 70 104
REMARK SMILES IDX 71 105
REMARK H PARENT 14 27 95 58 63 69
REMARK Flexibility Score: inf
ROOT
ATOM      1  C   UNL A   1      35.248  32.529  29.426  1.00  0.00     0.188 C 
ENDROOT
BRANCH   1   2
ATOM      2  C   UNL A   1      35.045  31.346  28.462  1.00  0.00     0.188 C 
BRANCH   2   3
ATOM      3  O   UNL A   1      34.371  31.676  27.255  1.00  0.00    -0.376 OA
BRANCH   3   4
ATOM      4  C   UNL A   1      33.061  31.127  27.157  1.00  0.00     0.202 C 
BRANCH   4   5
ATOM      5  C   UNL A   1      33.059  29.624  27.435  1.00  0.00     0.261 C 
BRANCH   5   6
ATOM      6  O   UNL A   1      32.233  28.863  26.534  1.00  0.00    -0.460 OA
BRANCH   6   7
ATOM      7  C   UNL A   1      32.594  28.795  25.230  1.00  0.00     0.338 C 
ATOM      8  O   UNL A   1      33.732  28.847  24.797  1.00  0.00    -0.246 OA
BRANCH   7   9
ATOM      9  C   UNL A   1      31.359  28.584  24.417  1.00  0.00     0.071 A 
ATOM     10  C   UNL A   1      29.453  29.594  23.291  1.00  0.00     0.119 A 
ATOM     11  C   UNL A   1      28.971  28.321  22.996  1.00  0.00     0.047 A 
ATOM     12  C   UNL A   1      30.648  29.725  23.996  1.00  0.00     0.062 A 
ATOM     13  C   UNL A   1      29.671  27.181  23.399  1.00  0.00     0.013 A 
ATOM     14  C   UNL A   1      30.869  27.288  24.126  1.00  0.00    -0.004 A 
BRANCH  10  15
ATOM     15  O   UNL A   1      28.659  30.623  22.865  1.00  0.00    -0.497 OA
ATOM     16  C   UNL A   1      28.226  30.574  21.509  1.00  0.00     0.278 C 
ENDBRANCH  10  15
BRANCH  14  17
ATOM     17  C   UNL A   1      31.431  26.072  24.724  1.00  0.00    -0.017 A 
ATOM     18  C   UNL A   1      32.607  25.456  24.277  1.00  0.00     0.010 A 
ATOM     19  C   UNL A   1      30.771  25.519  25.825  1.00  0.00     0.010 A 
ATOM     20  C   UNL A   1      33.123  24.340  24.955  1.00  0.00     0.022 A 
ATOM     21  C   UNL A   1      31.339  24.494  26.568  1.00  0.00     0.022 A 
ATOM     22  C   UNL A   1      32.490  23.872  26.113  1.00  0.00     0.082 A 
BRANCH  22  23
ATOM     23  S   UNL A   1      33.180  22.493  26.985  1.00  0.00     0.241 S 
ATOM     24  O   UNL A   1      34.616  22.643  26.971  1.00  0.00    -0.207 OA
ATOM     25  O   UNL A   1      32.445  22.400  28.230  1.00  0.00    -0.207 OA
BRANCH  23  26
ATOM     26  N   UNL A   1      32.736  21.114  26.130  1.00  0.00    -0.206 NA
ATOM     27  H   UNL A   1      31.771  21.287  25.846  1.00  0.00     0.141 HD
BRANCH  26  28
ATOM     28  C   UNL A   1      33.384  20.534  24.924  1.00  0.00     0.025 C 
ATOM     29  C   UNL A   1      33.581  19.022  25.021  1.00  0.00     0.028 C 
ATOM     30  C   UNL A   1      32.428  20.824  23.747  1.00  0.00     0.028 C 
ATOM     31  C   UNL A   1      34.723  21.207  24.610  1.00  0.00     0.028 C 
ENDBRANCH  26  28
ENDBRANCH  23  26
ENDBRANCH  22  23
ENDBRANCH  14  17
ENDBRANCH   7   9
ENDBRANCH   6   7
ENDBRANCH   5   6
ENDBRANCH   4   5
ENDBRANCH   3   4
ENDBRANCH   2   3
ENDBRANCH   1   2
BRANCH   1  32
ATOM     32  O   UNL A   1      36.465  33.254  29.437  1.00  0.00    -0.377 OA
BRANCH  32  33
ATOM     33  C   UNL A   1      37.661  32.582  29.080  1.00  0.00     0.188 C 
BRANCH  33  34
ATOM     34  C   UNL A   1      38.291  31.650  30.128  1.00  0.00     0.188 C 
BRANCH  34  35
ATOM     35  O   UNL A   1      39.349  30.833  29.622  1.00  0.00    -0.376 OA
BRANCH  35  36
ATOM     36  C   UNL A   1      38.980  29.507  29.258  1.00  0.00     0.202 C 
BRANCH  36  37
ATOM     37  C   UNL A   1      38.863  29.279  27.744  1.00  0.00     0.261 C 
BRANCH  37  38
ATOM     38  O   UNL A   1      39.982  28.612  27.141  1.00  0.00    -0.460 OA
BRANCH  38  39
ATOM     39  C   UNL A   1      40.226  27.339  27.522  1.00  0.00     0.338 C 
ATOM     40  O   UNL A   1      39.456  26.398  27.473  1.00  0.00    -0.246 OA
BRANCH  39  41
ATOM     41  C   UNL A   1      41.669  27.235  27.818  1.00  0.00     0.060 A 
ATOM     42  C   UNL A   1      42.296  25.990  27.681  1.00  0.00     0.016 A 
ATOM     43  C   UNL A   1      42.405  28.367  28.178  1.00  0.00     0.016 A 
ATOM     44  C   UNL A   1      43.662  25.871  27.935  1.00  0.00     0.010 A 
ATOM     45  C   UNL A   1      43.767  28.242  28.455  1.00  0.00     0.010 A 
ATOM     46  C   UNL A   1      44.394  26.987  28.366  1.00  0.00    -0.014 A 
BRANCH  46  47
ATOM     47  C   UNL A   1      45.741  26.788  28.952  1.00  0.00     0.031 A 
ATOM     48  C   UNL A   1      45.818  26.377  30.398  1.00  0.00     0.074 A 
ATOM     49  C   UNL A   1      46.860  26.929  28.220  1.00  0.00     0.049 A 
ATOM     50  N   UNL A   1      46.865  26.142  31.143  1.00  0.00    -0.248 NA
ATOM     51  C   UNL A   1      44.531  26.206  31.094  1.00  0.00     0.031 C 
ATOM     52  C   UNL A   1      46.907  27.284  26.802  1.00  0.00     0.029 A 
ATOM     53  N   UNL A   1      48.179  26.789  28.574  1.00  0.00    -0.354 N 
ATOM     54  C   UNL A   1      46.365  25.768  32.385  1.00  0.00     0.074 A 
ATOM     55  C   UNL A   1      44.924  25.865  32.309  1.00  0.00     0.031 C 
ATOM     56  C   UNL A   1      48.193  27.343  26.411  1.00  0.00     0.029 A 
ATOM     57  C   UNL A   1      49.060  27.057  27.552  1.00  0.00     0.049 A 
ATOM     58  H   UNL A   1      48.467  26.520  29.476  1.00  0.00     0.167 HD
ATOM     59  C   UNL A   1      47.044  25.364  33.485  1.00  0.00     0.034 A 
ATOM     60  C   UNL A   1      50.410  27.082  27.553  1.00  0.00     0.034 A 
ATOM     61  C   UNL A   1      48.480  25.315  33.567  1.00  0.00     0.049 A 
ATOM     62  C   UNL A   1      51.146  26.735  28.829  1.00  0.00     0.074 A 
ATOM     63  C   UNL A   1      49.273  24.968  34.645  1.00  0.00     0.029 A 
ATOM     64  N   UNL A   1      49.341  25.636  32.525  1.00  0.00    -0.354 N 
ATOM     65  N   UNL A   1      50.660  26.381  29.998  1.00  0.00    -0.248 NA
ATOM     66  C   UNL A   1      52.615  26.779  28.780  1.00  0.00     0.031 C 
ATOM     67  C   UNL A   1      50.613  25.131  34.273  1.00  0.00     0.029 A 
ATOM     68  C   UNL A   1      50.656  25.511  32.941  1.00  0.00     0.049 A 
ATOM     69  H   UNL A   1      49.058  25.911  31.623  1.00  0.00     0.167 HD
ATOM     70  C   UNL A   1      51.766  26.122  30.807  1.00  0.00     0.074 A 
ATOM     71  C   UNL A   1      52.938  26.344  29.988  1.00  0.00     0.031 C 
ATOM     72  C   UNL A   1      51.813  25.734  32.107  1.00  0.00     0.034 A 
BRANCH  59  73
ATOM     73  C   UNL A   1      46.224  24.982  34.691  1.00  0.00     0.023 A 
ATOM     74  C   UNL A   1      45.794  25.949  35.618  1.00  0.00     0.031 A 
ATOM     75  C   UNL A   1      45.900  23.638  34.940  1.00  0.00     0.131 A 
ATOM     76  C   UNL A   1      45.117  25.552  36.780  1.00  0.00     0.055 A 
ATOM     77  C   UNL A   1      45.162  23.257  36.063  1.00  0.00     0.041 A 
ATOM     78  F   UNL A   1      46.309  22.670  34.105  1.00  0.00    -0.206 F 
ATOM     79  C   UNL A   1      44.777  24.215  36.996  1.00  0.00     0.022 A 
BRANCH  76  80
ATOM     80  S   UNL A   1      44.795  26.792  38.064  1.00  0.00     0.124 S 
ATOM     81  O   UNL A   1      43.394  26.527  38.384  1.00  0.00    -0.237 OA
ATOM     82  O   UNL A   1      45.763  26.440  39.095  1.00  0.00    -0.237 OA
ATOM     83  O   UNL A   1      45.042  28.061  37.383  1.00  0.00    -0.744 OA
ENDBRANCH  76  80
ENDBRANCH  59  73
BRANCH  60  84
ATOM     84  C   UNL A   1      51.173  27.485  26.333  1.00  0.00     0.023 A 
ATOM     85  C   UNL A   1      51.485  28.832  26.082  1.00  0.00     0.031 A 
ATOM     86  C   UNL A   1      51.504  26.540  25.346  1.00  0.00     0.131 A 
ATOM     87  C   UNL A   1      52.043  29.204  24.847  1.00  0.00     0.055 A 
ATOM     88  C   UNL A   1      52.115  26.908  24.146  1.00  0.00     0.041 A 
ATOM     89  F   UNL A   1      51.225  25.239  25.530  1.00  0.00    -0.206 F 
ATOM     90  C   UNL A   1      52.370  28.249  23.883  1.00  0.00     0.022 A 
BRANCH  87  91
ATOM     91  S   UNL A   1      52.214  30.971  24.469  1.00  0.00     0.124 S 
ATOM     92  O   UNL A   1      51.277  31.569  25.411  1.00  0.00    -0.237 OA
ATOM     93  O   UNL A   1      53.630  31.199  24.738  1.00  0.00    -0.237 OA
ATOM     94  O   UNL A   1      51.827  31.055  23.062  1.00  0.00    -0.744 OA
ENDBRANCH  87  91
ENDBRANCH  60  84
BRANCH  72  95
ATOM     95  C   UNL A   1      53.177  25.473  32.696  1.00  0.00     0.023 A 
ATOM     96  C   UNL A   1      53.986  26.513  33.185  1.00  0.00     0.031 A 
ATOM     97  C   UNL A   1      53.681  24.160  32.754  1.00  0.00     0.131 A 
ATOM     98  C   UNL A   1      55.280  26.233  33.650  1.00  0.00     0.055 A 
ATOM     99  C   UNL A   1      54.945  23.880  33.274  1.00  0.00     0.041 A 
ATOM    100  F   UNL A   1      52.949  23.128  32.304  1.00  0.00    -0.206 F 
ATOM    101  C   UNL A   1      55.758  24.920  33.712  1.00  0.00     0.022 A 
BRANCH  98 102
ATOM    102  S   UNL A   1      56.369  27.617  34.083  1.00  0.00     0.124 S 
ATOM    103  O   UNL A   1      57.010  27.131  35.301  1.00  0.00    -0.237 OA
ATOM    104  O   UNL A   1      57.227  27.717  32.907  1.00  0.00    -0.237 OA
ATOM    105  O   UNL A   1      55.445  28.735  34.271  1.00  0.00    -0.744 OA
ENDBRANCH  98 102
ENDBRANCH  72  95
ENDBRANCH  46  47
ENDBRANCH  39  41
ENDBRANCH  38  39
ENDBRANCH  37  38
ENDBRANCH  36  37
ENDBRANCH  35  36
ENDBRANCH  34  35
ENDBRANCH  33  34
ENDBRANCH  32  33
ENDBRANCH   1  32
TORSDOF 28
ENDMDL
MODEL 2
REMARK VINA RESULT:      -8.1     10.992     13.045
REMARK SMILES COc1ccc(-c2ccc(S(=O)(=O)NC(C)(C)C)cc2)c(C(=O)OCCOCCOCCOCCOC(=O)c2ccc(-c3c4nc(c(-c5cc(S(=O)(=O)[O-])ccc5F)c5ccc([nH]5)c(-c5cc(S(=O)(=O)[O-])ccc5F)c5nc(c(-c6cc(S(=O)(=O)[O-])ccc6F)c6ccc3[nH]6)C=C5)C=C4)cc2)c1
REMARK SMILES IDX 29 1 28 2 27 3 26 4 25 5 24 6 22 7 23 8 21 9 3 10 4 11
REMARK SMILES IDX 102 12 5 13 6 14 2 15 1 16 7 17 8 18 20 19 9 20 19 21 10 22
REMARK SMILES IDX 11 23 12 24 13 25 14 26 15 28 16 29 17 30 18 31 30 32 31 33
REMARK SMILES IDX 32 34 33 35 34 36 35 37 36 38 37 39 38 40 39 41 40 42 101 43
REMARK SMILES IDX 41 44 100 45 42 46 43 47 44 48 94 49 45 50 99 51 93 52 95 53
REMARK SMILES IDX 46 54 98 55 92 56 91 57 47 59 79 60 59 61 78 62 60 63 63 64
REMARK SMILES IDX 77 65 96 66 61 67 62 68 76 70 97 71 64 72 48 73 49 74 57 75
REMARK SMILES IDX 50 76 56 77 58 78 55 79 51 80 52 81 53 82 54 83 80 84 81 85
REMARK SMILES IDX 89 86 82 87 88 88 90 89 87 90 83 91 84 92 85 93 86 94 65 95
REMARK SMILES IDX 66 96 74 97 67 98 73 99 75 100 72 101 68 102 69 103 70 104
REMARK SMILES IDX 71 105
REMARK H PARENT 14 27 95 58 63 69
REMARK Flexibility Score: inf
ROOT
ATOM      1  C   UNL A   1      34.531  32.889  28.969  1.00  0.00     0.188 C 
ENDROOT
BRANCH   1   2
ATOM      2  C   UNL A   1      34.779  31.459  28.455  1.00  0.00     0.188 C 
BRANCH   2   3
ATOM      3  O   UNL A   1      34.237  31.191  27.169  1.00  0.00    -0.376 OA
BRANCH   3   4
ATOM      4  C   UNL A   1      32.955  30.570  27.202  1.00  0.00     0.202 C 
BRANCH   4   5
ATOM      5  C   UNL A   1      32.978  29.195  26.535  1.00  0.00     0.261 C 
BRANCH   5   6
ATOM      6  O   UNL A   1      31.810  28.910  25.742  1.00  0.00    -0.460 OA
BRANCH   6   7
ATOM      7  C   UNL A   1      31.892  29.056  24.398  1.00  0.00     0.338 C 
ATOM      8  O   UNL A   1      32.914  29.043  23.735  1.00  0.00    -0.246 OA
BRANCH   7   9
ATOM      9  C   UNL A   1      30.503  29.175  23.859  1.00  0.00     0.071 A 
ATOM     10  C   UNL A   1      28.618  30.633  23.368  1.00  0.00     0.119 A 
ATOM     11  C   UNL A   1      27.874  29.518  22.987  1.00  0.00     0.047 A 
ATOM     12  C   UNL A   1      29.932  30.462  23.799  1.00  0.00     0.062 A 
ATOM     13  C   UNL A   1      28.432  28.238  23.032  1.00  0.00     0.013 A 
ATOM     14  C   UNL A   1      29.749  28.039  23.480  1.00  0.00    -0.004 A 
BRANCH  10  15
ATOM     15  O   UNL A   1      27.945  31.822  23.303  1.00  0.00    -0.497 OA
ATOM     16  C   UNL A   1      28.475  32.807  22.422  1.00  0.00     0.278 C 
ENDBRANCH  10  15
BRANCH  14  17
ATOM     17  C   UNL A   1      30.199  26.665  23.732  1.00  0.00    -0.017 A 
ATOM     18  C   UNL A   1      30.849  25.872  22.779  1.00  0.00     0.010 A 
ATOM     19  C   UNL A   1      29.996  26.135  25.009  1.00  0.00     0.010 A 
ATOM     20  C   UNL A   1      31.320  24.595  23.123  1.00  0.00     0.022 A 
ATOM     21  C   UNL A   1      30.563  24.926  25.387  1.00  0.00     0.022 A 
ATOM     22  C   UNL A   1      31.187  24.133  24.439  1.00  0.00     0.082 A 
BRANCH  22  23
ATOM     23  S   UNL A   1      31.830  22.540  24.871  1.00  0.00     0.241 S 
ATOM     24  O   UNL A   1      30.875  21.910  25.752  1.00  0.00    -0.207 OA
ATOM     25  O   UNL A   1      32.229  21.918  23.625  1.00  0.00    -0.207 OA
BRANCH  23  26
ATOM     26  N   UNL A   1      33.276  22.812  25.687  1.00  0.00    -0.206 NA
ATOM     27  H   UNL A   1      33.587  21.884  25.976  1.00  0.00     0.141 HD
BRANCH  26  28
ATOM     28  C   UNL A   1      34.504  23.479  25.179  1.00  0.00     0.025 C 
ATOM     29  C   UNL A   1      34.356  24.996  25.067  1.00  0.00     0.028 C 
ATOM     30  C   UNL A   1      35.610  23.175  26.213  1.00  0.00     0.028 C 
ATOM     31  C   UNL A   1      34.957  22.906  23.834  1.00  0.00     0.028 C 
ENDBRANCH  26  28
ENDBRANCH  23  26
ENDBRANCH  22  23
ENDBRANCH  14  17
ENDBRANCH   7   9
ENDBRANCH   6   7
ENDBRANCH   5   6
ENDBRANCH   4   5
ENDBRANCH   3   4
ENDBRANCH   2   3
ENDBRANCH   1   2
BRANCH   1  32
ATOM     32  O   UNL A   1      35.589  33.656  29.513  1.00  0.00    -0.377 OA
BRANCH  32  33
ATOM     33  C   UNL A   1      36.466  33.045  30.443  1.00  0.00     0.188 C 
BRANCH  33  34
ATOM     34  C   UNL A   1      36.489  33.609  31.875  1.00  0.00     0.188 C 
BRANCH  34  35
ATOM     35  O   UNL A   1      37.526  33.072  32.697  1.00  0.00    -0.376 OA
BRANCH  35  36
ATOM     36  C   UNL A   1      37.182  31.907  33.438  1.00  0.00     0.202 C 
BRANCH  36  37
ATOM     37  C   UNL A   1      38.341  30.920  33.635  1.00  0.00     0.261 C 
BRANCH  37  38
ATOM     38  O   UNL A   1      38.973  30.973  34.922  1.00  0.00    -0.460 OA
BRANCH  38  39
ATOM     39  C   UNL A   1      38.436  31.803  35.845  1.00  0.00     0.338 C 
ATOM     40  O   UNL A   1      37.515  31.560  36.602  1.00  0.00    -0.246 OA
BRANCH  39  41
ATOM     41  C   UNL A   1      39.303  32.996  35.922  1.00  0.00     0.060 A 
ATOM     42  C   UNL A   1      40.673  32.819  36.154  1.00  0.00     0.016 A 
ATOM     43  C   UNL A   1      38.775  34.274  35.717  1.00  0.00     0.016 A 
ATOM     44  C   UNL A   1      41.515  33.928  36.211  1.00  0.00     0.010 A 
ATOM     45  C   UNL A   1      39.615  35.386  35.799  1.00  0.00     0.010 A 
ATOM     46  C   UNL A   1      40.982  35.219  36.078  1.00  0.00    -0.014 A 
BRANCH  46  47
ATOM     47  C   UNL A   1      41.806  36.387  36.472  1.00  0.00     0.031 A 
ATOM     48  C   UNL A   1      41.845  36.751  37.932  1.00  0.00     0.074 A 
ATOM     49  C   UNL A   1      42.527  37.081  35.573  1.00  0.00     0.049 A 
ATOM     50  N   UNL A   1      42.482  37.721  38.532  1.00  0.00    -0.248 NA
ATOM     51  C   UNL A   1      41.056  35.897  38.836  1.00  0.00     0.031 C 
ATOM     52  C   UNL A   1      42.598  36.797  34.141  1.00  0.00     0.029 A 
ATOM     53  N   UNL A   1      43.340  38.175  35.739  1.00  0.00    -0.354 N 
ATOM     54  C   UNL A   1      42.195  37.577  39.885  1.00  0.00     0.074 A 
ATOM     55  C   UNL A   1      41.281  36.464  40.009  1.00  0.00     0.031 C 
ATOM     56  C   UNL A   1      43.405  37.702  33.557  1.00  0.00     0.029 A 
ATOM     57  C   UNL A   1      43.886  38.643  34.566  1.00  0.00     0.049 A 
ATOM     58  H   UNL A   1      43.517  38.585  36.616  1.00  0.00     0.167 HD
ATOM     59  C   UNL A   1      42.665  38.297  40.932  1.00  0.00     0.034 A 
ATOM     60  C   UNL A   1      44.669  39.720  34.341  1.00  0.00     0.034 A 
ATOM     61  C   UNL A   1      43.538  39.433  40.795  1.00  0.00     0.049 A 
ATOM     62  C   UNL A   1      45.089  40.575  35.516  1.00  0.00     0.074 A 
ATOM     63  C   UNL A   1      44.037  40.264  41.781  1.00  0.00     0.029 A 
ATOM     64  N   UNL A   1      44.036  39.905  39.587  1.00  0.00    -0.354 N 
ATOM     65  N   UNL A   1      44.812  40.427  36.793  1.00  0.00    -0.248 NA
ATOM     66  C   UNL A   1      45.939  41.738  35.221  1.00  0.00     0.031 C 
ATOM     67  C   UNL A   1      44.791  41.270  41.167  1.00  0.00     0.029 A 
ATOM     68  C   UNL A   1      44.822  41.025  39.804  1.00  0.00     0.049 A 
ATOM     69  H   UNL A   1      43.858  39.502  38.707  1.00  0.00     0.167 HD
ATOM     70  C   UNL A   1      45.488  41.453  37.451  1.00  0.00     0.074 A 
ATOM     71  C   UNL A   1      46.197  42.200  36.435  1.00  0.00     0.031 C 
ATOM     72  C   UNL A   1      45.524  41.754  38.774  1.00  0.00     0.034 A 
BRANCH  59  73
ATOM     73  C   UNL A   1      42.202  37.885  42.306  1.00  0.00     0.023 A 
ATOM     74  C   UNL A   1      41.090  38.493  42.915  1.00  0.00     0.031 A 
ATOM     75  C   UNL A   1      42.898  36.903  43.031  1.00  0.00     0.131 A 
ATOM     76  C   UNL A   1      40.742  38.158  44.232  1.00  0.00     0.055 A 
ATOM     77  C   UNL A   1      42.502  36.521  44.315  1.00  0.00     0.041 A 
ATOM     78  F   UNL A   1      43.983  36.310  42.510  1.00  0.00    -0.206 F 
ATOM     79  C   UNL A   1      41.426  37.158  44.926  1.00  0.00     0.022 A 
BRANCH  76  80
ATOM     80  S   UNL A   1      39.461  39.132  45.067  1.00  0.00     0.124 S 
ATOM     81  O   UNL A   1      39.030  40.030  43.997  1.00  0.00    -0.237 OA
ATOM     82  O   UNL A   1      38.500  38.113  45.471  1.00  0.00    -0.237 OA
ATOM     83  O   UNL A   1      40.182  39.780  46.160  1.00  0.00    -0.744 OA
ENDBRANCH  76  80
ENDBRANCH  59  73
BRANCH  60  84
ATOM     84  C   UNL A   1      45.085  40.093  32.955  1.00  0.00     0.023 A 
ATOM     85  C   UNL A   1      46.322  39.683  32.432  1.00  0.00     0.031 A 
ATOM     86  C   UNL A   1      44.296  40.958  32.176  1.00  0.00     0.131 A 
ATOM     87  C   UNL A   1      46.766  40.193  31.200  1.00  0.00     0.055 A 
ATOM     88  C   UNL A   1      44.715  41.413  30.924  1.00  0.00     0.041 A 
ATOM     89  F   UNL A   1      43.106  41.386  32.627  1.00  0.00    -0.206 F 
ATOM     90  C   UNL A   1      45.966  41.045  30.438  1.00  0.00     0.022 A 
BRANCH  87  91
ATOM     91  S   UNL A   1      48.463  39.827  30.670  1.00  0.00     0.124 S 
ATOM     92  O   UNL A   1      48.652  40.791  29.593  1.00  0.00    -0.237 OA
ATOM     93  O   UNL A   1      49.219  40.072  31.893  1.00  0.00    -0.237 OA
ATOM     94  O   UNL A   1      48.393  38.427  30.251  1.00  0.00    -0.744 OA
ENDBRANCH  87  91
ENDBRANCH  60  84
BRANCH  72  95
ATOM     95  C   UNL A   1      46.405  42.905  39.193  1.00  0.00     0.023 A 
ATOM     96  C   UNL A   1      45.923  44.224  39.259  1.00  0.00     0.031 A 
ATOM     97  C   UNL A   1      47.757  42.679  39.515  1.00  0.00     0.131 A 
ATOM     98  C   UNL A   1      46.798  45.274  39.575  1.00  0.00     0.055 A 
ATOM     99  C   UNL A   1      48.608  43.719  39.888  1.00  0.00     0.041 A 
ATOM    100  F   UNL A   1      48.270  41.439  39.472  1.00  0.00    -0.206 F 
ATOM    101  C   UNL A   1      48.134  45.028  39.905  1.00  0.00     0.022 A 
BRANCH  98 102
ATOM    102  S   UNL A   1      46.192  46.979  39.454  1.00  0.00     0.124 S 
ATOM    103  O   UNL A   1      45.663  47.019  38.095  1.00  0.00    -0.237 OA
ATOM    104  O   UNL A   1      45.203  47.035  40.525  1.00  0.00    -0.237 OA
ATOM    105  O   UNL A   1      47.391  47.786  39.677  1.00  0.00    -0.744 OA
ENDBRANCH  98 102
ENDBRANCH  72  95
ENDBRANCH  46  47
ENDBRANCH  39  41
ENDBRANCH  38  39
ENDBRANCH  37  38
ENDBRANCH  36  37
ENDBRANCH  35  36
ENDBRANCH  34  35
ENDBRANCH  33  34
ENDBRANCH  32  33
ENDBRANCH   1  32
TORSDOF 28
ENDMDL
MODEL 3
REMARK VINA RESULT:      -8.0      6.094     15.421
REMARK SMILES COc1ccc(-c2ccc(S(=O)(=O)NC(C)(C)C)cc2)c(C(=O)OCCOCCOCCOCCOC(=O)c2ccc(-c3c4nc(c(-c5cc(S(=O)(=O)[O-])ccc5F)c5ccc([nH]5)c(-c5cc(S(=O)(=O)[O-])ccc5F)c5nc(c(-c6cc(S(=O)(=O)[O-])ccc6F)c6ccc3[nH]6)C=C5)C=C4)cc2)c1
REMARK SMILES IDX 29 1 28 2 27 3 26 4 25 5 24 6 22 7 23 8 21 9 3 10 4 11
REMARK SMILES IDX 102 12 5 13 6 14 2 15 1 16 7 17 8 18 20 19 9 20 19 21 10 22
REMARK SMILES IDX 11 23 12 24 13 25 14 26 15 28 16 29 17 30 18 31 30 32 31 33
REMARK SMILES IDX 32 34 33 35 34 36 35 37 36 38 37 39 38 40 39 41 40 42 101 43
REMARK SMILES IDX 41 44 100 45 42 46 43 47 44 48 94 49 45 50 99 51 93 52 95 53
REMARK SMILES IDX 46 54 98 55 92 56 91 57 47 59 79 60 59 61 78 62 60 63 63 64
REMARK SMILES IDX 77 65 96 66 61 67 62 68 76 70 97 71 64 72 48 73 49 74 57 75
REMARK SMILES IDX 50 76 56 77 58 78 55 79 51 80 52 81 53 82 54 83 80 84 81 85
REMARK SMILES IDX 89 86 82 87 88 88 90 89 87 90 83 91 84 92 85 93 86 94 65 95
REMARK SMILES IDX 66 96 74 97 67 98 73 99 75 100 72 101 68 102 69 103 70 104
REMARK SMILES IDX 71 105
REMARK H PARENT 14 27 95 58 63 69
REMARK Flexibility Score: inf
ROOT
ATOM      1  C   UNL A   1      47.410  19.844  35.552  1.00  0.00     0.188 C 
ENDROOT
BRANCH   1   2
ATOM      2  C   UNL A   1      45.918  20.016  35.890  1.00  0.00     0.188 C 
BRANCH   2   3
ATOM      3  O   UNL A   1      45.260  21.041  35.156  1.00  0.00    -0.376 OA
BRANCH   3   4
ATOM      4  C   UNL A   1      45.028  22.229  35.907  1.00  0.00     0.202 C 
BRANCH   4   5
ATOM      5  C   UNL A   1      45.641  23.453  35.227  1.00  0.00     0.261 C 
BRANCH   5   6
ATOM      6  O   UNL A   1      46.005  24.507  36.137  1.00  0.00    -0.460 OA
BRANCH   6   7
ATOM      7  C   UNL A   1      45.031  25.079  36.884  1.00  0.00     0.338 C 
ATOM      8  O   UNL A   1      43.832  24.900  36.760  1.00  0.00    -0.246 OA
BRANCH   7   9
ATOM      9  C   UNL A   1      45.683  25.926  37.929  1.00  0.00     0.071 A 
ATOM     10  C   UNL A   1      46.366  28.156  38.622  1.00  0.00     0.119 A 
ATOM     11  C   UNL A   1      46.979  27.603  39.745  1.00  0.00     0.047 A 
ATOM     12  C   UNL A   1      45.715  27.318  37.719  1.00  0.00     0.062 A 
ATOM     13  C   UNL A   1      46.945  26.225  39.971  1.00  0.00     0.013 A 
ATOM     14  C   UNL A   1      46.311  25.359  39.064  1.00  0.00    -0.004 A 
BRANCH  10  15
ATOM     15  O   UNL A   1      46.496  29.512  38.506  1.00  0.00    -0.497 OA
ATOM     16  C   UNL A   1      47.763  30.062  38.853  1.00  0.00     0.278 C 
ENDBRANCH  10  15
BRANCH  14  17
ATOM     17  C   UNL A   1      46.510  23.914  39.224  1.00  0.00    -0.017 A 
ATOM     18  C   UNL A   1      47.711  23.256  38.931  1.00  0.00     0.010 A 
ATOM     19  C   UNL A   1      45.449  23.160  39.731  1.00  0.00     0.010 A 
ATOM     20  C   UNL A   1      47.848  21.883  39.188  1.00  0.00     0.022 A 
ATOM     21  C   UNL A   1      45.617  21.832  40.098  1.00  0.00     0.022 A 
ATOM     22  C   UNL A   1      46.797  21.178  39.788  1.00  0.00     0.082 A 
BRANCH  22  23
ATOM     23  S   UNL A   1      47.000  19.456  40.151  1.00  0.00     0.241 S 
ATOM     24  O   UNL A   1      48.146  18.986  39.409  1.00  0.00    -0.207 OA
ATOM     25  O   UNL A   1      46.939  19.342  41.594  1.00  0.00    -0.207 OA
BRANCH  23  26
ATOM     26  N   UNL A   1      45.606  18.684  39.610  1.00  0.00    -0.206 NA
ATOM     27  H   UNL A   1      45.696  18.673  38.594  1.00  0.00     0.141 HD
BRANCH  26  28
ATOM     28  C   UNL A   1      45.118  17.323  39.958  1.00  0.00     0.025 C 
ATOM     29  C   UNL A   1      44.121  17.325  41.115  1.00  0.00     0.028 C 
ATOM     30  C   UNL A   1      44.399  16.795  38.698  1.00  0.00     0.028 C 
ATOM     31  C   UNL A   1      46.267  16.361  40.272  1.00  0.00     0.028 C 
ENDBRANCH  26  28
ENDBRANCH  23  26
ENDBRANCH  22  23
ENDBRANCH  14  17
ENDBRANCH   7   9
ENDBRANCH   6   7
ENDBRANCH   5   6
ENDBRANCH   4   5
ENDBRANCH   3   4
ENDBRANCH   2   3
ENDBRANCH   1   2
BRANCH   1  32
ATOM     32  O   UNL A   1      48.403  20.542  36.283  1.00  0.00    -0.377 OA
BRANCH  32  33
ATOM     33  C   UNL A   1      49.508  21.086  35.583  1.00  0.00     0.188 C 
BRANCH  33  34
ATOM     34  C   UNL A   1      49.581  20.837  34.067  1.00  0.00     0.188 C 
BRANCH  34  35
ATOM     35  O   UNL A   1      50.478  21.708  33.375  1.00  0.00    -0.376 OA
BRANCH  35  36
ATOM     36  C   UNL A   1      51.756  21.877  33.976  1.00  0.00     0.202 C 
BRANCH  36  37
ATOM     37  C   UNL A   1      52.141  23.339  34.238  1.00  0.00     0.261 C 
BRANCH  37  38
ATOM     38  O   UNL A   1      52.141  24.186  33.079  1.00  0.00    -0.460 OA
BRANCH  38  39
ATOM     39  C   UNL A   1      51.972  25.512  33.278  1.00  0.00     0.338 C 
ATOM     40  O   UNL A   1      52.826  26.323  33.583  1.00  0.00    -0.246 OA
BRANCH  39  41
ATOM     41  C   UNL A   1      50.598  25.850  32.854  1.00  0.00     0.060 A 
ATOM     42  C   UNL A   1      50.413  26.912  31.959  1.00  0.00     0.016 A 
ATOM     43  C   UNL A   1      49.510  25.094  33.296  1.00  0.00     0.016 A 
ATOM     44  C   UNL A   1      49.128  27.238  31.528  1.00  0.00     0.010 A 
ATOM     45  C   UNL A   1      48.221  25.436  32.883  1.00  0.00     0.010 A 
ATOM     46  C   UNL A   1      48.022  26.530  32.022  1.00  0.00    -0.014 A 
BRANCH  46  47
ATOM     47  C   UNL A   1      46.662  27.085  31.832  1.00  0.00     0.031 A 
ATOM     48  C   UNL A   1      45.879  26.617  30.635  1.00  0.00     0.074 A 
ATOM     49  C   UNL A   1      46.119  27.948  32.710  1.00  0.00     0.049 A 
ATOM     50  N   UNL A   1      44.677  26.947  30.244  1.00  0.00    -0.248 NA
ATOM     51  C   UNL A   1      46.549  25.637  29.763  1.00  0.00     0.031 C 
ATOM     52  C   UNL A   1      46.766  28.440  33.925  1.00  0.00     0.029 A 
ATOM     53  N   UNL A   1      44.892  28.563  32.711  1.00  0.00    -0.354 N 
ATOM     54  C   UNL A   1      44.436  26.197  29.099  1.00  0.00     0.074 A 
ATOM     55  C   UNL A   1      45.637  25.439  28.827  1.00  0.00     0.031 C 
ATOM     56  C   UNL A   1      45.931  29.291  34.549  1.00  0.00     0.029 A 
ATOM     57  C   UNL A   1      44.703  29.424  33.767  1.00  0.00     0.049 A 
ATOM     58  H   UNL A   1      44.210  28.402  32.019  1.00  0.00     0.167 HD
ATOM     59  C   UNL A   1      43.309  26.131  28.350  1.00  0.00     0.034 A 
ATOM     60  C   UNL A   1      43.663  30.236  34.051  1.00  0.00     0.034 A 
ATOM     61  C   UNL A   1      42.134  26.923  28.601  1.00  0.00     0.049 A 
ATOM     62  C   UNL A   1      42.458  30.227  33.135  1.00  0.00     0.074 A 
ATOM     63  C   UNL A   1      40.955  26.973  27.881  1.00  0.00     0.029 A 
ATOM     64  N   UNL A   1      41.995  27.817  29.655  1.00  0.00    -0.354 N 
ATOM     65  N   UNL A   1      42.242  29.509  32.054  1.00  0.00    -0.248 NA
ATOM     66  C   UNL A   1      41.351  31.129  33.484  1.00  0.00     0.031 C 
ATOM     67  C   UNL A   1      40.124  27.936  28.466  1.00  0.00     0.029 A 
ATOM     68  C   UNL A   1      40.756  28.435  29.593  1.00  0.00     0.049 A 
ATOM     69  H   UNL A   1      42.676  27.986  30.345  1.00  0.00     0.167 HD
ATOM     70  C   UNL A   1      40.960  29.847  31.624  1.00  0.00     0.074 A 
ATOM     71  C   UNL A   1      40.447  30.816  32.569  1.00  0.00     0.031 C 
ATOM     72  C   UNL A   1      40.264  29.398  30.548  1.00  0.00     0.034 A 
BRANCH  59  73
ATOM     73  C   UNL A   1      43.326  25.191  27.172  1.00  0.00     0.023 A 
ATOM     74  C   UNL A   1      42.642  23.963  27.206  1.00  0.00     0.031 A 
ATOM     75  C   UNL A   1      44.063  25.505  26.017  1.00  0.00     0.131 A 
ATOM     76  C   UNL A   1      42.756  23.067  26.134  1.00  0.00     0.055 A 
ATOM     77  C   UNL A   1      44.113  24.640  24.922  1.00  0.00     0.041 A 
ATOM     78  F   UNL A   1      44.758  26.650  25.940  1.00  0.00    -0.206 F 
ATOM     79  C   UNL A   1      43.467  23.409  24.981  1.00  0.00     0.022 A 
BRANCH  76  80
ATOM     80  S   UNL A   1      42.064  21.401  26.316  1.00  0.00     0.124 S 
ATOM     81  O   UNL A   1      40.660  21.628  25.980  1.00  0.00    -0.237 OA
ATOM     82  O   UNL A   1      42.835  20.629  25.349  1.00  0.00    -0.237 OA
ATOM     83  O   UNL A   1      42.317  21.077  27.718  1.00  0.00    -0.744 OA
ENDBRANCH  76  80
ENDBRANCH  59  73
BRANCH  60  84
ATOM     84  C   UNL A   1      43.706  31.161  35.223  1.00  0.00     0.023 A 
ATOM     85  C   UNL A   1      44.231  32.459  35.107  1.00  0.00     0.031 A 
ATOM     86  C   UNL A   1      43.322  30.720  36.502  1.00  0.00     0.131 A 
ATOM     87  C   UNL A   1      44.425  33.242  36.257  1.00  0.00     0.055 A 
ATOM     88  C   UNL A   1      43.459  31.527  37.634  1.00  0.00     0.041 A 
ATOM     89  F   UNL A   1      42.817  29.488  36.674  1.00  0.00    -0.206 F 
ATOM     90  C   UNL A   1      44.031  32.790  37.517  1.00  0.00     0.022 A 
BRANCH  87  91
ATOM     91  S   UNL A   1      45.319  34.813  36.097  1.00  0.00     0.124 S 
ATOM     92  O   UNL A   1      44.361  35.628  35.360  1.00  0.00    -0.237 OA
ATOM     93  O   UNL A   1      45.536  35.179  37.493  1.00  0.00    -0.237 OA
ATOM     94  O   UNL A   1      46.525  34.444  35.357  1.00  0.00    -0.744 OA
ENDBRANCH  87  91
ENDBRANCH  60  84
BRANCH  72  95
ATOM     95  C   UNL A   1      38.856  29.913  30.378  1.00  0.00     0.023 A 
ATOM     96  C   UNL A   1      38.587  31.157  29.781  1.00  0.00     0.031 A 
ATOM     97  C   UNL A   1      37.765  29.151  30.837  1.00  0.00     0.131 A 
ATOM     98  C   UNL A   1      37.269  31.632  29.717  1.00  0.00     0.055 A 
ATOM     99  C   UNL A   1      36.450  29.601  30.714  1.00  0.00     0.041 A 
ATOM    100  F   UNL A   1      37.963  27.954  31.411  1.00  0.00    -0.206 F 
ATOM    101  C   UNL A   1      36.197  30.855  30.166  1.00  0.00     0.022 A 
BRANCH  98 102
ATOM    102  S   UNL A   1      36.979  33.323  29.127  1.00  0.00     0.124 S 
ATOM    103  O   UNL A   1      38.339  33.814  28.931  1.00  0.00    -0.237 OA
ATOM    104  O   UNL A   1      36.201  33.100  27.913  1.00  0.00    -0.237 OA
ATOM    105  O   UNL A   1      36.245  33.949  30.226  1.00  0.00    -0.744 OA
ENDBRANCH  98 102
ENDBRANCH  72  95
ENDBRANCH  46  47
ENDBRANCH  39  41
ENDBRANCH  38  39
ENDBRANCH  37  38
ENDBRANCH  36  37
ENDBRANCH  35  36
ENDBRANCH  34  35
ENDBRANCH  33  34
ENDBRANCH  32  33
ENDBRANCH   1  32
TORSDOF 28
ENDMDL
