MODEL 1
REMARK VINA RESULT:      -6.0      0.000      0.000
REMARK SMILES CS(=O)(=O)c1ccc(/C=C(/C(=O)OCCOCCOCCOCCOC(=O)c2ccc(-c3c4nc(c(-c5cc(S(=O)(=O)[O-])ccc5F)c5ccc([nH]5)c(-c5cc(S(=O)(=O)[O-])ccc5F)c5nc(c(-c6cc(S(=O)(=O)[O-])ccc6F)c6ccc3[nH]6)C=C5)C=C4)cc2)c2cccc(-c3ccc(S(C)(=O)=O)cc3)c2)cc1
REMARK SMILES IDX 19 1 18 2 17 3 16 4 15 5 14 6 13 7 11 8 12 9 10 10 9 11 8 12
REMARK SMILES IDX 5 13 6 14 108 15 7 16 107 17 2 18 1 19 3 20 4 21 91 22 92 23
REMARK SMILES IDX 106 24 93 25 95 26 94 27 96 28 97 29 105 30 98 31 104 32
REMARK SMILES IDX 99 33 100 34 101 35 102 36 103 37 20 38 21 39 22 40 23 41
REMARK SMILES IDX 24 42 25 43 26 44 27 45 28 46 29 47 90 48 30 49 89 50 31 51
REMARK SMILES IDX 32 52 33 53 83 54 34 55 88 56 82 57 84 58 35 59 87 60 81 61
REMARK SMILES IDX 80 62 36 64 68 65 48 66 67 67 49 68 52 69 66 70 85 71 50 72
REMARK SMILES IDX 51 73 65 75 86 76 53 77 37 78 38 79 46 80 39 81 45 82 47 83
REMARK SMILES IDX 44 84 40 85 41 86 42 87 43 88 69 89 70 90 78 91 71 92 77 93
REMARK SMILES IDX 79 94 76 95 72 96 73 97 74 98 75 99 54 100 55 101 63 102
REMARK SMILES IDX 56 103 62 104 64 105 61 106 57 107 58 108 59 109 60 110
REMARK H PARENT 84 63 52 74
REMARK Flexibility Score: inf
ROOT
ATOM      1  O   UNL A   1      48.752  27.293  30.293  1.00  0.00    -0.377 OA
ENDROOT
BRANCH   1   2
ATOM      2  C   UNL A   1      47.878  27.120  29.194  1.00  0.00     0.188 C 
BRANCH   2   3
ATOM      3  C   UNL A   1      47.781  25.723  28.539  1.00  0.00     0.188 C 
BRANCH   3   4
ATOM      4  O   UNL A   1      46.888  25.668  27.443  1.00  0.00    -0.376 OA
BRANCH   4   5
ATOM      5  C   UNL A   1      45.572  26.157  27.628  1.00  0.00     0.202 C 
BRANCH   5   6
ATOM      6  C   UNL A   1      44.446  25.177  28.000  1.00  0.00     0.261 C 
BRANCH   6   7
ATOM      7  O   UNL A   1      43.417  25.688  28.860  1.00  0.00    -0.460 OA
BRANCH   7   8
ATOM      8  C   UNL A   1      42.137  25.418  28.523  1.00  0.00     0.338 C 
ATOM      9  O   UNL A   1      41.677  24.305  28.312  1.00  0.00    -0.246 OA
BRANCH   8  10
ATOM     10  C   UNL A   1      41.301  26.662  28.609  1.00  0.00     0.067 C 
ATOM     11  C   UNL A   1      39.984  26.549  28.917  1.00  0.00     0.024 C 
BRANCH  11  12
ATOM     12  C   UNL A   1      39.027  27.612  29.329  1.00  0.00    -0.025 A 
ATOM     13  C   UNL A   1      37.735  29.875  30.376  1.00  0.00     0.067 A 
ATOM     14  C   UNL A   1      38.003  29.799  29.013  1.00  0.00     0.021 A 
ATOM     15  C   UNL A   1      37.988  28.783  31.204  1.00  0.00     0.021 A 
ATOM     16  C   UNL A   1      38.588  28.646  28.492  1.00  0.00     0.009 A 
ATOM     17  C   UNL A   1      38.637  27.658  30.678  1.00  0.00     0.009 A 
BRANCH  13  18
ATOM     18  S   UNL A   1      37.153  31.408  31.052  1.00  0.00     0.175 S 
ATOM     19  C   UNL A   1      37.420  31.258  32.796  1.00  0.00     0.163 C 
ATOM     20  O   UNL A   1      35.722  31.447  30.826  1.00  0.00    -0.224 OA
ATOM     21  O   UNL A   1      38.020  32.466  30.570  1.00  0.00    -0.224 OA
ENDBRANCH  13  18
ENDBRANCH  11  12
BRANCH  10  22
ATOM     22  C   UNL A   1      42.000  27.955  28.465  1.00  0.00    -0.010 A 
ATOM     23  C   UNL A   1      42.567  28.386  27.255  1.00  0.00     0.009 A 
ATOM     24  C   UNL A   1      41.969  28.838  29.534  1.00  0.00     0.017 A 
ATOM     25  C   UNL A   1      43.088  29.674  27.123  1.00  0.00     0.001 A 
ATOM     26  C   UNL A   1      42.432  30.157  29.404  1.00  0.00    -0.018 A 
ATOM     27  C   UNL A   1      43.010  30.561  28.192  1.00  0.00     0.009 A 
BRANCH  26  28
ATOM     28  C   UNL A   1      42.179  31.078  30.511  1.00  0.00    -0.018 A 
ATOM     29  C   UNL A   1      42.427  32.452  30.370  1.00  0.00     0.010 A 
ATOM     30  C   UNL A   1      41.522  30.616  31.665  1.00  0.00     0.010 A 
ATOM     31  C   UNL A   1      41.995  33.349  31.344  1.00  0.00     0.021 A 
ATOM     32  C   UNL A   1      41.084  31.504  32.639  1.00  0.00     0.021 A 
ATOM     33  C   UNL A   1      41.324  32.866  32.470  1.00  0.00     0.067 A 
BRANCH  33  34
ATOM     34  S   UNL A   1      40.773  34.008  33.705  1.00  0.00     0.175 S 
ATOM     35  C   UNL A   1      39.230  34.571  33.039  1.00  0.00     0.163 C 
ATOM     36  O   UNL A   1      40.497  33.259  34.914  1.00  0.00    -0.224 OA
ATOM     37  O   UNL A   1      41.682  35.138  33.710  1.00  0.00    -0.224 OA
ENDBRANCH  33  34
ENDBRANCH  26  28
ENDBRANCH  10  22
ENDBRANCH   8  10
ENDBRANCH   7   8
ENDBRANCH   6   7
ENDBRANCH   5   6
ENDBRANCH   4   5
ENDBRANCH   3   4
ENDBRANCH   2   3
ENDBRANCH   1   2
BRANCH   1  38
ATOM     38  C   UNL A   1      49.592  26.214  30.685  1.00  0.00     0.188 C 
BRANCH  38  39
ATOM     39  C   UNL A   1      49.243  25.336  31.913  1.00  0.00     0.188 C 
BRANCH  39  40
ATOM     40  O   UNL A   1      47.893  25.408  32.348  1.00  0.00    -0.376 OA
BRANCH  40  41
ATOM     41  C   UNL A   1      47.599  24.962  33.660  1.00  0.00     0.202 C 
BRANCH  41  42
ATOM     42  C   UNL A   1      46.369  24.059  33.825  1.00  0.00     0.261 C 
BRANCH  42  43
ATOM     43  O   UNL A   1      45.165  24.508  33.189  1.00  0.00    -0.460 OA
BRANCH  43  44
ATOM     44  C   UNL A   1      44.125  24.833  33.990  1.00  0.00     0.338 C 
ATOM     45  O   UNL A   1      43.414  24.061  34.613  1.00  0.00    -0.246 OA
BRANCH  44  46
ATOM     46  C   UNL A   1      44.129  26.301  34.143  1.00  0.00     0.060 A 
ATOM     47  C   UNL A   1      43.201  27.068  33.426  1.00  0.00     0.016 A 
ATOM     48  C   UNL A   1      45.020  26.910  35.029  1.00  0.00     0.016 A 
ATOM     49  C   UNL A   1      43.181  28.455  33.574  1.00  0.00     0.010 A 
ATOM     50  C   UNL A   1      45.017  28.300  35.155  1.00  0.00     0.010 A 
ATOM     51  C   UNL A   1      44.119  29.079  34.404  1.00  0.00    -0.014 A 
BRANCH  51  52
ATOM     52  C   UNL A   1      44.315  30.547  34.316  1.00  0.00     0.031 A 
ATOM     53  C   UNL A   1      43.861  31.388  35.475  1.00  0.00     0.074 A 
ATOM     54  C   UNL A   1      44.890  31.117  33.243  1.00  0.00     0.049 A 
ATOM     55  N   UNL A   1      43.859  32.687  35.615  1.00  0.00    -0.248 NA
ATOM     56  C   UNL A   1      43.325  30.654  36.633  1.00  0.00     0.031 C 
ATOM     57  C   UNL A   1      45.411  30.400  32.082  1.00  0.00     0.029 A 
ATOM     58  N   UNL A   1      45.121  32.440  32.958  1.00  0.00    -0.354 N 
ATOM     59  C   UNL A   1      43.314  32.929  36.872  1.00  0.00     0.074 A 
ATOM     60  C   UNL A   1      42.957  31.642  37.430  1.00  0.00     0.031 C 
ATOM     61  C   UNL A   1      45.889  31.296  31.200  1.00  0.00     0.029 A 
ATOM     62  C   UNL A   1      45.669  32.647  31.714  1.00  0.00     0.049 A 
ATOM     63  H   UNL A   1      44.914  33.171  33.583  1.00  0.00     0.167 HD
ATOM     64  C   UNL A   1      43.137  34.116  37.504  1.00  0.00     0.034 A 
ATOM     65  C   UNL A   1      45.931  33.795  31.057  1.00  0.00     0.034 A 
ATOM     66  C   UNL A   1      43.479  35.388  36.918  1.00  0.00     0.049 A 
ATOM     67  C   UNL A   1      45.635  35.113  31.736  1.00  0.00     0.074 A 
ATOM     68  C   UNL A   1      43.359  36.651  37.469  1.00  0.00     0.029 A 
ATOM     69  N   UNL A   1      43.989  35.563  35.636  1.00  0.00    -0.354 N 
ATOM     70  N   UNL A   1      45.132  35.335  32.929  1.00  0.00    -0.248 NA
ATOM     71  C   UNL A   1      45.949  36.332  30.980  1.00  0.00     0.031 C 
ATOM     72  C   UNL A   1      43.708  37.590  36.493  1.00  0.00     0.029 A 
ATOM     73  C   UNL A   1      44.144  36.914  35.364  1.00  0.00     0.049 A 
ATOM     74  H   UNL A   1      44.206  34.834  35.012  1.00  0.00     0.167 HD
ATOM     75  C   UNL A   1      45.101  36.721  33.079  1.00  0.00     0.074 A 
ATOM     76  C   UNL A   1      45.644  37.278  31.857  1.00  0.00     0.031 C 
ATOM     77  C   UNL A   1      44.671  37.463  34.133  1.00  0.00     0.034 A 
BRANCH  64  78
ATOM     78  C   UNL A   1      42.482  34.078  38.865  1.00  0.00     0.023 A 
ATOM     79  C   UNL A   1      41.101  34.292  39.031  1.00  0.00     0.031 A 
ATOM     80  C   UNL A   1      43.259  33.892  40.021  1.00  0.00     0.131 A 
ATOM     81  C   UNL A   1      40.561  34.412  40.321  1.00  0.00     0.055 A 
ATOM     82  C   UNL A   1      42.699  33.915  41.299  1.00  0.00     0.041 A 
ATOM     83  F   UNL A   1      44.586  33.711  39.932  1.00  0.00    -0.206 F 
ATOM     84  C   UNL A   1      41.345  34.198  41.456  1.00  0.00     0.022 A 
BRANCH  81  85
ATOM     85  S   UNL A   1      38.869  35.043  40.493  1.00  0.00     0.124 S 
ATOM     86  O   UNL A   1      38.791  35.295  41.930  1.00  0.00    -0.237 OA
ATOM     87  O   UNL A   1      38.883  36.223  39.636  1.00  0.00    -0.237 OA
ATOM     88  O   UNL A   1      38.041  33.936  40.018  1.00  0.00    -0.744 OA
ENDBRANCH  81  85
ENDBRANCH  64  78
BRANCH  65  89
ATOM     89  C   UNL A   1      46.462  33.755  29.664  1.00  0.00     0.023 A 
ATOM     90  C   UNL A   1      45.605  33.709  28.554  1.00  0.00     0.031 A 
ATOM     91  C   UNL A   1      47.850  33.734  29.426  1.00  0.00     0.131 A 
ATOM     92  C   UNL A   1      46.142  33.615  27.259  1.00  0.00     0.055 A 
ATOM     93  C   UNL A   1      48.378  33.692  28.135  1.00  0.00     0.041 A 
ATOM     94  F   UNL A   1      48.714  33.770  30.452  1.00  0.00    -0.206 F 
ATOM     95  C   UNL A   1      47.521  33.623  27.041  1.00  0.00     0.022 A 
BRANCH  92  96
ATOM     96  S   UNL A   1      45.006  33.415  25.858  1.00  0.00     0.124 S 
ATOM     97  O   UNL A   1      45.193  32.008  25.524  1.00  0.00    -0.237 OA
ATOM     98  O   UNL A   1      43.723  33.768  26.455  1.00  0.00    -0.237 OA
ATOM     99  O   UNL A   1      45.514  34.365  24.871  1.00  0.00    -0.744 OA
ENDBRANCH  92  96
ENDBRANCH  65  89
BRANCH  77 100
ATOM    100  C   UNL A   1      44.818  38.964  34.031  1.00  0.00     0.023 A 
ATOM    101  C   UNL A   1      43.725  39.804  33.752  1.00  0.00     0.031 A 
ATOM    102  C   UNL A   1      46.077  39.563  34.221  1.00  0.00     0.131 A 
ATOM    103  C   UNL A   1      43.924  41.187  33.613  1.00  0.00     0.055 A 
ATOM    104  C   UNL A   1      46.255  40.946  34.152  1.00  0.00     0.041 A 
ATOM    105  F   UNL A   1      47.158  38.813  34.486  1.00  0.00    -0.206 F 
ATOM    106  C   UNL A   1      45.177  41.765  33.834  1.00  0.00     0.022 A 
BRANCH 103 107
ATOM    107  S   UNL A   1      42.543  42.214  33.038  1.00  0.00     0.124 S 
ATOM    108  O   UNL A   1      41.811  41.284  32.184  1.00  0.00    -0.237 OA
ATOM    109  O   UNL A   1      41.888  42.585  34.287  1.00  0.00    -0.237 OA
ATOM    110  O   UNL A   1      43.203  43.313  32.334  1.00  0.00    -0.744 OA
ENDBRANCH 103 107
ENDBRANCH  77 100
ENDBRANCH  51  52
ENDBRANCH  44  46
ENDBRANCH  43  44
ENDBRANCH  42  43
ENDBRANCH  41  42
ENDBRANCH  40  41
ENDBRANCH  39  40
ENDBRANCH  38  39
ENDBRANCH   1  38
TORSDOF 28
ENDMDL
MODEL 2
REMARK VINA RESULT:      -6.0      5.413     12.280
REMARK SMILES CS(=O)(=O)c1ccc(/C=C(/C(=O)OCCOCCOCCOCCOC(=O)c2ccc(-c3c4nc(c(-c5cc(S(=O)(=O)[O-])ccc5F)c5ccc([nH]5)c(-c5cc(S(=O)(=O)[O-])ccc5F)c5nc(c(-c6cc(S(=O)(=O)[O-])ccc6F)c6ccc3[nH]6)C=C5)C=C4)cc2)c2cccc(-c3ccc(S(C)(=O)=O)cc3)c2)cc1
REMARK SMILES IDX 19 1 18 2 17 3 16 4 15 5 14 6 13 7 11 8 12 9 10 10 9 11 8 12
REMARK SMILES IDX 5 13 6 14 108 15 7 16 107 17 2 18 1 19 3 20 4 21 91 22 92 23
REMARK SMILES IDX 106 24 93 25 95 26 94 27 96 28 97 29 105 30 98 31 104 32
REMARK SMILES IDX 99 33 100 34 101 35 102 36 103 37 20 38 21 39 22 40 23 41
REMARK SMILES IDX 24 42 25 43 26 44 27 45 28 46 29 47 90 48 30 49 89 50 31 51
REMARK SMILES IDX 32 52 33 53 83 54 34 55 88 56 82 57 84 58 35 59 87 60 81 61
REMARK SMILES IDX 80 62 36 64 68 65 48 66 67 67 49 68 52 69 66 70 85 71 50 72
REMARK SMILES IDX 51 73 65 75 86 76 53 77 37 78 38 79 46 80 39 81 45 82 47 83
REMARK SMILES IDX 44 84 40 85 41 86 42 87 43 88 69 89 70 90 78 91 71 92 77 93
REMARK SMILES IDX 79 94 76 95 72 96 73 97 74 98 75 99 54 100 55 101 63 102
REMARK SMILES IDX 56 103 62 104 64 105 61 106 57 107 58 108 59 109 60 110
REMARK H PARENT 84 63 52 74
REMARK Flexibility Score: inf
ROOT
ATOM      1  O   UNL A   1      42.832  32.667  32.808  1.00  0.00    -0.377 OA
ENDROOT
BRANCH   1   2
ATOM      2  C   UNL A   1      41.622  32.849  33.517  1.00  0.00     0.188 C 
BRANCH   2   3
ATOM      3  C   UNL A   1      41.488  32.224  34.925  1.00  0.00     0.188 C 
BRANCH   3   4
ATOM      4  O   UNL A   1      40.192  31.731  35.210  1.00  0.00    -0.376 OA
BRANCH   4   5
ATOM      5  C   UNL A   1      39.212  32.649  35.660  1.00  0.00     0.202 C 
BRANCH   5   6
ATOM      6  C   UNL A   1      37.957  32.895  34.806  1.00  0.00     0.261 C 
BRANCH   6   7
ATOM      7  O   UNL A   1      37.297  31.728  34.294  1.00  0.00    -0.460 OA
BRANCH   7   8
ATOM      8  C   UNL A   1      36.450  31.901  33.255  1.00  0.00     0.338 C 
ATOM      9  O   UNL A   1      35.370  32.469  33.306  1.00  0.00    -0.246 OA
BRANCH   8  10
ATOM     10  C   UNL A   1      37.095  31.449  31.976  1.00  0.00     0.067 C 
ATOM     11  C   UNL A   1      37.994  30.433  32.017  1.00  0.00     0.024 C 
BRANCH  11  12
ATOM     12  C   UNL A   1      38.549  29.632  30.892  1.00  0.00    -0.025 A 
ATOM     13  C   UNL A   1      40.077  28.021  29.172  1.00  0.00     0.067 A 
ATOM     14  C   UNL A   1      38.940  27.501  29.781  1.00  0.00     0.021 A 
ATOM     15  C   UNL A   1      40.392  29.372  29.309  1.00  0.00     0.021 A 
ATOM     16  C   UNL A   1      38.152  28.325  30.584  1.00  0.00     0.009 A 
ATOM     17  C   UNL A   1      39.629  30.171  30.171  1.00  0.00     0.009 A 
BRANCH  13  18
ATOM     18  S   UNL A   1      41.162  26.924  28.298  1.00  0.00     0.175 S 
ATOM     19  C   UNL A   1      40.652  27.043  26.606  1.00  0.00     0.163 C 
ATOM     20  O   UNL A   1      40.856  25.583  28.757  1.00  0.00    -0.224 OA
ATOM     21  O   UNL A   1      42.506  27.461  28.386  1.00  0.00    -0.224 OA
ENDBRANCH  13  18
ENDBRANCH  11  12
BRANCH  10  22
ATOM     22  C   UNL A   1      36.619  32.071  30.725  1.00  0.00    -0.010 A 
ATOM     23  C   UNL A   1      37.172  33.249  30.198  1.00  0.00     0.009 A 
ATOM     24  C   UNL A   1      35.682  31.383  29.968  1.00  0.00     0.017 A 
ATOM     25  C   UNL A   1      36.793  33.722  28.941  1.00  0.00     0.001 A 
ATOM     26  C   UNL A   1      35.333  31.807  28.677  1.00  0.00    -0.018 A 
ATOM     27  C   UNL A   1      35.884  32.996  28.177  1.00  0.00     0.009 A 
BRANCH  26  28
ATOM     28  C   UNL A   1      34.496  30.920  27.873  1.00  0.00    -0.018 A 
ATOM     29  C   UNL A   1      33.259  31.357  27.375  1.00  0.00     0.010 A 
ATOM     30  C   UNL A   1      35.004  29.680  27.446  1.00  0.00     0.010 A 
ATOM     31  C   UNL A   1      32.562  30.591  26.444  1.00  0.00     0.021 A 
ATOM     32  C   UNL A   1      34.318  28.911  26.514  1.00  0.00     0.021 A 
ATOM     33  C   UNL A   1      33.101  29.373  26.021  1.00  0.00     0.067 A 
BRANCH  33  34
ATOM     34  S   UNL A   1      32.215  28.401  24.834  1.00  0.00     0.175 S 
ATOM     35  C   UNL A   1      31.619  27.053  25.817  1.00  0.00     0.163 C 
ATOM     36  O   UNL A   1      31.075  29.175  24.387  1.00  0.00    -0.224 OA
ATOM     37  O   UNL A   1      33.176  27.860  23.891  1.00  0.00    -0.224 OA
ENDBRANCH  33  34
ENDBRANCH  26  28
ENDBRANCH  10  22
ENDBRANCH   8  10
ENDBRANCH   7   8
ENDBRANCH   6   7
ENDBRANCH   5   6
ENDBRANCH   4   5
ENDBRANCH   3   4
ENDBRANCH   2   3
ENDBRANCH   1   2
BRANCH   1  38
ATOM     38  C   UNL A   1      42.808  31.974  31.566  1.00  0.00     0.188 C 
BRANCH  38  39
ATOM     39  C   UNL A   1      42.461  32.710  30.248  1.00  0.00     0.188 C 
BRANCH  39  40
ATOM     40  O   UNL A   1      41.099  33.083  30.101  1.00  0.00    -0.376 OA
BRANCH  40  41
ATOM     41  C   UNL A   1      40.766  34.447  30.292  1.00  0.00     0.202 C 
BRANCH  41  42
ATOM     42  C   UNL A   1      40.708  35.329  29.036  1.00  0.00     0.261 C 
BRANCH  42  43
ATOM     43  O   UNL A   1      41.815  36.217  28.837  1.00  0.00    -0.460 OA
BRANCH  43  44
ATOM     44  C   UNL A   1      42.253  36.387  27.569  1.00  0.00     0.338 C 
ATOM     45  O   UNL A   1      41.955  37.294  26.809  1.00  0.00    -0.246 OA
BRANCH  44  46
ATOM     46  C   UNL A   1      43.319  35.393  27.334  1.00  0.00     0.060 A 
ATOM     47  C   UNL A   1      44.206  35.079  28.374  1.00  0.00     0.016 A 
ATOM     48  C   UNL A   1      43.411  34.744  26.102  1.00  0.00     0.016 A 
ATOM     49  C   UNL A   1      45.207  34.129  28.172  1.00  0.00     0.010 A 
ATOM     50  C   UNL A   1      44.431  33.814  25.893  1.00  0.00     0.010 A 
ATOM     51  C   UNL A   1      45.352  33.527  26.917  1.00  0.00    -0.014 A 
BRANCH  51  52
ATOM     52  C   UNL A   1      46.591  32.777  26.602  1.00  0.00     0.031 A 
ATOM     53  C   UNL A   1      46.549  31.278  26.695  1.00  0.00     0.074 A 
ATOM     54  C   UNL A   1      47.721  33.405  26.231  1.00  0.00     0.049 A 
ATOM     55  N   UNL A   1      47.507  30.403  26.536  1.00  0.00    -0.248 NA
ATOM     56  C   UNL A   1      45.241  30.689  27.024  1.00  0.00     0.031 C 
ATOM     57  C   UNL A   1      47.868  34.849  26.061  1.00  0.00     0.029 A 
ATOM     58  N   UNL A   1      48.964  32.900  25.942  1.00  0.00    -0.354 N 
ATOM     59  C   UNL A   1      46.920  29.161  26.756  1.00  0.00     0.074 A 
ATOM     60  C   UNL A   1      45.537  29.404  27.102  1.00  0.00     0.031 C 
ATOM     61  C   UNL A   1      49.138  35.115  25.710  1.00  0.00     0.029 A 
ATOM     62  C   UNL A   1      49.902  33.868  25.672  1.00  0.00     0.049 A 
ATOM     63  H   UNL A   1      49.165  31.937  25.928  1.00  0.00     0.167 HD
ATOM     64  C   UNL A   1      47.485  27.931  26.666  1.00  0.00     0.034 A 
ATOM     65  C   UNL A   1      51.228  33.760  25.454  1.00  0.00     0.034 A 
ATOM     66  C   UNL A   1      48.873  27.714  26.342  1.00  0.00     0.049 A 
ATOM     67  C   UNL A   1      51.863  32.388  25.456  1.00  0.00     0.074 A 
ATOM     68  C   UNL A   1      49.550  26.515  26.209  1.00  0.00     0.029 A 
ATOM     69  N   UNL A   1      49.806  28.721  26.122  1.00  0.00    -0.354 N 
ATOM     70  N   UNL A   1      51.301  31.216  25.651  1.00  0.00    -0.248 NA
ATOM     71  C   UNL A   1      53.308  32.327  25.203  1.00  0.00     0.031 C 
ATOM     72  C   UNL A   1      50.904  26.797  25.999  1.00  0.00     0.029 A 
ATOM     73  C   UNL A   1      51.060  28.171  25.900  1.00  0.00     0.049 A 
ATOM     74  H   UNL A   1      49.606  29.685  26.125  1.00  0.00     0.167 HD
ATOM     75  C   UNL A   1      52.321  30.276  25.510  1.00  0.00     0.074 A 
ATOM     76  C   UNL A   1      53.526  31.019  25.206  1.00  0.00     0.031 C 
ATOM     77  C   UNL A   1      52.262  28.922  25.614  1.00  0.00     0.034 A 
BRANCH  64  78
ATOM     78  C   UNL A   1      46.606  26.746  26.996  1.00  0.00     0.023 A 
ATOM     79  C   UNL A   1      45.763  26.156  26.036  1.00  0.00     0.031 A 
ATOM     80  C   UNL A   1      46.561  26.240  28.306  1.00  0.00     0.131 A 
ATOM     81  C   UNL A   1      44.844  25.168  26.424  1.00  0.00     0.055 A 
ATOM     82  C   UNL A   1      45.715  25.189  28.663  1.00  0.00     0.041 A 
ATOM     83  F   UNL A   1      47.321  26.777  29.274  1.00  0.00    -0.206 F 
ATOM     84  C   UNL A   1      44.834  24.661  27.724  1.00  0.00     0.022 A 
BRANCH  81  85
ATOM     85  S   UNL A   1      43.539  24.697  25.255  1.00  0.00     0.124 S 
ATOM     86  O   UNL A   1      44.263  23.813  24.344  1.00  0.00    -0.237 OA
ATOM     87  O   UNL A   1      42.556  24.057  26.121  1.00  0.00    -0.237 OA
ATOM     88  O   UNL A   1      43.124  25.972  24.674  1.00  0.00    -0.744 OA
ENDBRANCH  81  85
ENDBRANCH  64  78
BRANCH  65  89
ATOM     89  C   UNL A   1      52.056  34.985  25.259  1.00  0.00     0.023 A 
ATOM     90  C   UNL A   1      52.426  35.799  26.341  1.00  0.00     0.031 A 
ATOM     91  C   UNL A   1      52.468  35.375  23.971  1.00  0.00     0.131 A 
ATOM     92  C   UNL A   1      53.158  36.976  26.113  1.00  0.00     0.055 A 
ATOM     93  C   UNL A   1      53.240  36.518  23.756  1.00  0.00     0.041 A 
ATOM     94  F   UNL A   1      52.137  34.636  22.900  1.00  0.00    -0.206 F 
ATOM     95  C   UNL A   1      53.582  37.332  24.831  1.00  0.00     0.022 A 
BRANCH  92  96
ATOM     96  S   UNL A   1      53.498  38.076  27.515  1.00  0.00     0.124 S 
ATOM     97  O   UNL A   1      54.954  38.146  27.491  1.00  0.00    -0.237 OA
ATOM     98  O   UNL A   1      52.790  39.290  27.126  1.00  0.00    -0.237 OA
ATOM     99  O   UNL A   1      52.925  37.362  28.654  1.00  0.00    -0.744 OA
ENDBRANCH  92  96
ENDBRANCH  65  89
BRANCH  77 100
ATOM    100  C   UNL A   1      53.534  28.150  25.346  1.00  0.00     0.023 A 
ATOM    101  C   UNL A   1      54.365  27.695  26.386  1.00  0.00     0.031 A 
ATOM    102  C   UNL A   1      53.920  27.864  24.024  1.00  0.00     0.131 A 
ATOM    103  C   UNL A   1      55.564  27.030  26.084  1.00  0.00     0.055 A 
ATOM    104  C   UNL A   1      55.077  27.140  23.731  1.00  0.00     0.041 A 
ATOM    105  F   UNL A   1      53.171  28.277  22.989  1.00  0.00    -0.206 F 
ATOM    106  C   UNL A   1      55.913  26.730  24.764  1.00  0.00     0.022 A 
BRANCH 103 107
ATOM    107  S   UNL A   1      56.715  26.651  27.433  1.00  0.00     0.124 S 
ATOM    108  O   UNL A   1      57.094  27.984  27.891  1.00  0.00    -0.237 OA
ATOM    109  O   UNL A   1      55.884  25.874  28.345  1.00  0.00    -0.237 OA
ATOM    110  O   UNL A   1      57.781  25.897  26.773  1.00  0.00    -0.744 OA
ENDBRANCH 103 107
ENDBRANCH  77 100
ENDBRANCH  51  52
ENDBRANCH  44  46
ENDBRANCH  43  44
ENDBRANCH  42  43
ENDBRANCH  41  42
ENDBRANCH  40  41
ENDBRANCH  39  40
ENDBRANCH  38  39
ENDBRANCH   1  38
TORSDOF 28
ENDMDL
MODEL 3
REMARK VINA RESULT:      -5.7      5.263     12.227
REMARK SMILES CS(=O)(=O)c1ccc(/C=C(/C(=O)OCCOCCOCCOCCOC(=O)c2ccc(-c3c4nc(c(-c5cc(S(=O)(=O)[O-])ccc5F)c5ccc([nH]5)c(-c5cc(S(=O)(=O)[O-])ccc5F)c5nc(c(-c6cc(S(=O)(=O)[O-])ccc6F)c6ccc3[nH]6)C=C5)C=C4)cc2)c2cccc(-c3ccc(S(C)(=O)=O)cc3)c2)cc1
REMARK SMILES IDX 19 1 18 2 17 3 16 4 15 5 14 6 13 7 11 8 12 9 10 10 9 11 8 12
REMARK SMILES IDX 5 13 6 14 108 15 7 16 107 17 2 18 1 19 3 20 4 21 91 22 92 23
REMARK SMILES IDX 106 24 93 25 95 26 94 27 96 28 97 29 105 30 98 31 104 32
REMARK SMILES IDX 99 33 100 34 101 35 102 36 103 37 20 38 21 39 22 40 23 41
REMARK SMILES IDX 24 42 25 43 26 44 27 45 28 46 29 47 90 48 30 49 89 50 31 51
REMARK SMILES IDX 32 52 33 53 83 54 34 55 88 56 82 57 84 58 35 59 87 60 81 61
REMARK SMILES IDX 80 62 36 64 68 65 48 66 67 67 49 68 52 69 66 70 85 71 50 72
REMARK SMILES IDX 51 73 65 75 86 76 53 77 37 78 38 79 46 80 39 81 45 82 47 83
REMARK SMILES IDX 44 84 40 85 41 86 42 87 43 88 69 89 70 90 78 91 71 92 77 93
REMARK SMILES IDX 79 94 76 95 72 96 73 97 74 98 75 99 54 100 55 101 63 102
REMARK SMILES IDX 56 103 62 104 64 105 61 106 57 107 58 108 59 109 60 110
REMARK H PARENT 84 63 52 74
REMARK Flexibility Score: inf
ROOT
ATOM      1  O   UNL A   1      42.958  32.668  32.863  1.00  0.00    -0.377 OA
ENDROOT
BRANCH   1   2
ATOM      2  C   UNL A   1      41.842  33.021  33.657  1.00  0.00     0.188 C 
BRANCH   2   3
ATOM      3  C   UNL A   1      41.867  32.679  35.164  1.00  0.00     0.188 C 
BRANCH   3   4
ATOM      4  O   UNL A   1      40.618  32.248  35.673  1.00  0.00    -0.376 OA
BRANCH   4   5
ATOM      5  C   UNL A   1      39.669  33.235  36.037  1.00  0.00     0.202 C 
BRANCH   5   6
ATOM      6  C   UNL A   1      38.352  33.344  35.250  1.00  0.00     0.261 C 
BRANCH   6   7
ATOM      7  O   UNL A   1      37.761  32.108  34.825  1.00  0.00    -0.460 OA
BRANCH   7   8
ATOM      8  C   UNL A   1      36.941  32.151  33.752  1.00  0.00     0.338 C 
ATOM      9  O   UNL A   1      35.775  32.515  33.763  1.00  0.00    -0.246 OA
BRANCH   8  10
ATOM     10  C   UNL A   1      37.708  31.850  32.497  1.00  0.00     0.067 C 
ATOM     11  C   UNL A   1      38.713  30.939  32.543  1.00  0.00     0.024 C 
BRANCH  11  12
ATOM     12  C   UNL A   1      39.422  30.273  31.416  1.00  0.00    -0.025 A 
ATOM     13  C   UNL A   1      40.350  28.545  29.406  1.00  0.00     0.067 A 
ATOM     14  C   UNL A   1      39.587  29.657  29.066  1.00  0.00     0.021 A 
ATOM     15  C   UNL A   1      40.765  28.353  30.723  1.00  0.00     0.021 A 
ATOM     16  C   UNL A   1      39.183  30.544  30.064  1.00  0.00     0.009 A 
ATOM     17  C   UNL A   1      40.296  29.214  31.723  1.00  0.00     0.009 A 
BRANCH  13  18
ATOM     18  S   UNL A   1      40.709  27.336  28.159  1.00  0.00     0.175 S 
ATOM     19  C   UNL A   1      41.667  28.209  26.952  1.00  0.00     0.163 C 
ATOM     20  O   UNL A   1      39.444  26.982  27.546  1.00  0.00    -0.224 OA
ATOM     21  O   UNL A   1      41.568  26.328  28.749  1.00  0.00    -0.224 OA
ENDBRANCH  13  18
ENDBRANCH  11  12
BRANCH  10  22
ATOM     22  C   UNL A   1      37.241  32.490  31.251  1.00  0.00    -0.010 A 
ATOM     23  C   UNL A   1      37.764  33.701  30.770  1.00  0.00     0.009 A 
ATOM     24  C   UNL A   1      36.348  31.791  30.452  1.00  0.00     0.017 A 
ATOM     25  C   UNL A   1      37.399  34.196  29.518  1.00  0.00     0.001 A 
ATOM     26  C   UNL A   1      36.015  32.239  29.164  1.00  0.00    -0.018 A 
ATOM     27  C   UNL A   1      36.535  33.460  28.712  1.00  0.00     0.009 A 
BRANCH  26  28
ATOM     28  C   UNL A   1      35.230  31.345  28.315  1.00  0.00    -0.018 A 
ATOM     29  C   UNL A   1      35.659  30.032  28.068  1.00  0.00     0.010 A 
ATOM     30  C   UNL A   1      33.952  31.740  27.882  1.00  0.00     0.010 A 
ATOM     31  C   UNL A   1      34.814  29.122  27.436  1.00  0.00     0.021 A 
ATOM     32  C   UNL A   1      33.102  30.838  27.254  1.00  0.00     0.021 A 
ATOM     33  C   UNL A   1      33.541  29.535  27.036  1.00  0.00     0.067 A 
BRANCH  33  34
ATOM     34  S   UNL A   1      32.468  28.377  26.235  1.00  0.00     0.175 S 
ATOM     35  C   UNL A   1      31.404  27.869  27.557  1.00  0.00     0.163 C 
ATOM     36  O   UNL A   1      31.672  29.103  25.266  1.00  0.00    -0.224 OA
ATOM     37  O   UNL A   1      33.260  27.224  25.848  1.00  0.00    -0.224 OA
ENDBRANCH  33  34
ENDBRANCH  26  28
ENDBRANCH  10  22
ENDBRANCH   8  10
ENDBRANCH   7   8
ENDBRANCH   6   7
ENDBRANCH   5   6
ENDBRANCH   4   5
ENDBRANCH   3   4
ENDBRANCH   2   3
ENDBRANCH   1   2
BRANCH   1  38
ATOM     38  C   UNL A   1      42.756  31.868  31.704  1.00  0.00     0.188 C 
BRANCH  38  39
ATOM     39  C   UNL A   1      42.421  32.513  30.336  1.00  0.00     0.188 C 
BRANCH  39  40
ATOM     40  O   UNL A   1      41.156  33.155  30.261  1.00  0.00    -0.376 OA
BRANCH  40  41
ATOM     41  C   UNL A   1      41.130  34.570  30.338  1.00  0.00     0.202 C 
BRANCH  41  42
ATOM     42  C   UNL A   1      41.190  35.338  29.011  1.00  0.00     0.261 C 
BRANCH  42  43
ATOM     43  O   UNL A   1      42.458  35.912  28.669  1.00  0.00    -0.460 OA
BRANCH  43  44
ATOM     44  C   UNL A   1      42.869  35.788  27.387  1.00  0.00     0.338 C 
ATOM     45  O   UNL A   1      42.635  36.555  26.467  1.00  0.00    -0.246 OA
BRANCH  44  46
ATOM     46  C   UNL A   1      43.829  34.667  27.339  1.00  0.00     0.060 A 
ATOM     47  C   UNL A   1      44.651  34.419  28.447  1.00  0.00     0.016 A 
ATOM     48  C   UNL A   1      43.880  33.839  26.216  1.00  0.00     0.016 A 
ATOM     49  C   UNL A   1      45.549  33.352  28.422  1.00  0.00     0.010 A 
ATOM     50  C   UNL A   1      44.800  32.789  26.182  1.00  0.00     0.010 A 
ATOM     51  C   UNL A   1      45.659  32.562  27.272  1.00  0.00    -0.014 A 
BRANCH  51  52
ATOM     52  C   UNL A   1      46.819  31.650  27.116  1.00  0.00     0.031 A 
ATOM     53  C   UNL A   1      46.576  30.174  27.257  1.00  0.00     0.074 A 
ATOM     54  C   UNL A   1      48.050  32.116  26.846  1.00  0.00     0.049 A 
ATOM     55  N   UNL A   1      47.426  29.181  27.231  1.00  0.00    -0.248 NA
ATOM     56  C   UNL A   1      45.178  29.767  27.466  1.00  0.00     0.031 C 
ATOM     57  C   UNL A   1      48.396  33.521  26.642  1.00  0.00     0.029 A 
ATOM     58  N   UNL A   1      49.242  31.449  26.708  1.00  0.00    -0.354 N 
ATOM     59  C   UNL A   1      46.668  28.033  27.430  1.00  0.00     0.074 A 
ATOM     60  C   UNL A   1      45.298  28.460  27.619  1.00  0.00     0.031 C 
ATOM     61  C   UNL A   1      49.719  33.613  26.418  1.00  0.00     0.029 A 
ATOM     62  C   UNL A   1      50.318  32.281  26.505  1.00  0.00     0.049 A 
ATOM     63  H   UNL A   1      49.319  30.469  26.749  1.00  0.00     0.167 HD
ATOM     64  C   UNL A   1      47.077  26.740  27.444  1.00  0.00     0.034 A 
ATOM     65  C   UNL A   1      51.635  32.000  26.433  1.00  0.00     0.034 A 
ATOM     66  C   UNL A   1      48.452  26.338  27.276  1.00  0.00     0.049 A 
ATOM     67  C   UNL A   1      52.086  30.562  26.550  1.00  0.00     0.074 A 
ATOM     68  C   UNL A   1      48.980  25.061  27.257  1.00  0.00     0.029 A 
ATOM     69  N   UNL A   1      49.523  27.211  27.121  1.00  0.00    -0.354 N 
ATOM     70  N   UNL A   1      51.363  29.479  26.724  1.00  0.00    -0.248 NA
ATOM     71  C   UNL A   1      53.529  30.312  26.453  1.00  0.00     0.031 C 
ATOM     72  C   UNL A   1      50.373  25.164  27.182  1.00  0.00     0.029 A 
ATOM     73  C   UNL A   1      50.712  26.502  27.052  1.00  0.00     0.049 A 
ATOM     74  H   UNL A   1      49.448  28.192  27.069  1.00  0.00     0.167 HD
ATOM     75  C   UNL A   1      52.264  28.415  26.726  1.00  0.00     0.074 A 
ATOM     76  C   UNL A   1      53.578  28.989  26.525  1.00  0.00     0.031 C 
ATOM     77  C   UNL A   1      52.023  27.085  26.869  1.00  0.00     0.034 A 
BRANCH  64  78
ATOM     78  C   UNL A   1      46.026  25.689  27.720  1.00  0.00     0.023 A 
ATOM     79  C   UNL A   1      45.293  25.082  26.684  1.00  0.00     0.031 A 
ATOM     80  C   UNL A   1      45.705  25.338  29.042  1.00  0.00     0.131 A 
ATOM     81  C   UNL A   1      44.216  24.236  26.991  1.00  0.00     0.055 A 
ATOM     82  C   UNL A   1      44.697  24.419  29.338  1.00  0.00     0.041 A 
ATOM     83  F   UNL A   1      46.350  25.902  30.076  1.00  0.00    -0.206 F 
ATOM     84  C   UNL A   1      43.930  23.878  28.310  1.00  0.00     0.022 A 
BRANCH  81  85
ATOM     85  S   UNL A   1      43.078  23.767  25.658  1.00  0.00     0.124 S 
ATOM     86  O   UNL A   1      42.437  22.580  26.218  1.00  0.00    -0.237 OA
ATOM     87  O   UNL A   1      42.235  24.950  25.531  1.00  0.00    -0.237 OA
ATOM     88  O   UNL A   1      43.966  23.509  24.525  1.00  0.00    -0.744 OA
ENDBRANCH  81  85
ENDBRANCH  64  78
BRANCH  65  89
ATOM     89  C   UNL A   1      52.627  33.104  26.284  1.00  0.00     0.023 A 
ATOM     90  C   UNL A   1      53.011  33.579  25.022  1.00  0.00     0.031 A 
ATOM     91  C   UNL A   1      53.231  33.683  27.417  1.00  0.00     0.131 A 
ATOM     92  C   UNL A   1      53.991  34.580  24.919  1.00  0.00     0.055 A 
ATOM     93  C   UNL A   1      54.165  34.713  27.311  1.00  0.00     0.041 A 
ATOM     94  F   UNL A   1      52.904  33.262  28.649  1.00  0.00    -0.206 F 
ATOM     95  C   UNL A   1      54.558  35.162  26.055  1.00  0.00     0.022 A 
BRANCH  92  96
ATOM     96  S   UNL A   1      54.565  35.071  23.269  1.00  0.00     0.124 S 
ATOM     97  O   UNL A   1      53.371  34.850  22.462  1.00  0.00    -0.237 OA
ATOM     98  O   UNL A   1      54.947  36.461  23.482  1.00  0.00    -0.237 OA
ATOM     99  O   UNL A   1      55.674  34.155  23.009  1.00  0.00    -0.744 OA
ENDBRANCH  92  96
ENDBRANCH  65  89
BRANCH  77 100
ATOM    100  C   UNL A   1      53.207  26.151  26.765  1.00  0.00     0.023 A 
ATOM    101  C   UNL A   1      54.115  25.974  27.825  1.00  0.00     0.031 A 
ATOM    102  C   UNL A   1      53.428  25.422  25.582  1.00  0.00     0.131 A 
ATOM    103  C   UNL A   1      55.229  25.136  27.659  1.00  0.00     0.055 A 
ATOM    104  C   UNL A   1      54.498  24.536  25.448  1.00  0.00     0.041 A 
ATOM    105  F   UNL A   1      52.598  25.552  24.534  1.00  0.00    -0.206 F 
ATOM    106  C   UNL A   1      55.414  24.400  26.486  1.00  0.00     0.022 A 
BRANCH 103 107
ATOM    107  S   UNL A   1      56.495  25.099  28.958  1.00  0.00     0.124 S 
ATOM    108  O   UNL A   1      57.661  25.628  28.259  1.00  0.00    -0.237 OA
ATOM    109  O   UNL A   1      55.918  25.964  29.981  1.00  0.00    -0.237 OA
ATOM    110  O   UNL A   1      56.576  23.684  29.317  1.00  0.00    -0.744 OA
ENDBRANCH 103 107
ENDBRANCH  77 100
ENDBRANCH  51  52
ENDBRANCH  44  46
ENDBRANCH  43  44
ENDBRANCH  42  43
ENDBRANCH  41  42
ENDBRANCH  40  41
ENDBRANCH  39  40
ENDBRANCH  38  39
ENDBRANCH   1  38
TORSDOF 28
ENDMDL
