MODEL 1
REMARK VINA RESULT:      -6.8      0.000      0.000
REMARK SMILES CC1=C(CC(=O)OCCOCCOCCOCCOC(=O)c2ccc(-c3c4nc(c(-c5cc(S(=O)(=O)[O-])ccc5F)c5ccc([nH]5)c(-c5cc(S(=O)(=O)[O-])ccc5F)c5nc(c(-c6cc(S(=O)(=O)[O-])ccc6F)c6ccc3[nH]6)C=C5)C=C4)cc2)c2cc(F)ccc2/C1=C\c1cccc(OCc2ccccc2)c1
REMARK SMILES IDX 12 1 11 2 10 3 9 4 8 5 7 6 5 7 6 8 4 9 3 10 1 11 2 12 92 13
REMARK SMILES IDX 85 14 91 15 93 16 86 17 90 18 87 19 89 20 88 21 94 22 95 23
REMARK SMILES IDX 107 24 96 25 98 26 97 27 99 28 100 29 101 30 102 31 106 32
REMARK SMILES IDX 103 33 105 34 104 35 13 36 14 37 15 38 16 39 17 40 18 41
REMARK SMILES IDX 19 42 20 43 21 44 22 45 23 46 84 47 24 48 83 49 25 50 26 51
REMARK SMILES IDX 27 52 77 53 28 54 82 55 76 56 78 57 29 58 81 59 75 60 74 61
REMARK SMILES IDX 30 63 62 64 42 65 61 66 43 67 46 68 60 69 79 70 44 71 45 72
REMARK SMILES IDX 59 74 80 75 47 76 31 77 32 78 40 79 33 80 39 81 41 82 38 83
REMARK SMILES IDX 34 84 35 85 36 86 37 87 63 88 64 89 72 90 65 91 71 92 73 93
REMARK SMILES IDX 70 94 66 95 67 96 68 97 69 98 48 99 49 100 57 101 50 102
REMARK SMILES IDX 56 103 58 104 55 105 51 106 52 107 53 108 54 109
REMARK H PARENT 78 62 46 73
REMARK Flexibility Score: inf
ROOT
ATOM      1  C   UNL A   1      42.625  31.968  44.781  1.00  0.00     0.188 C 
ENDROOT
BRANCH   1   2
ATOM      2  C   UNL A   1      43.316  32.038  43.404  1.00  0.00     0.188 C 
BRANCH   2   3
ATOM      3  O   UNL A   1      42.478  32.291  42.304  1.00  0.00    -0.376 OA
BRANCH   3   4
ATOM      4  C   UNL A   1      42.979  32.822  41.095  1.00  0.00     0.202 C 
BRANCH   4   5
ATOM      5  C   UNL A   1      42.387  32.580  39.691  1.00  0.00     0.261 C 
BRANCH   5   6
ATOM      6  O   UNL A   1      43.037  31.652  38.809  1.00  0.00    -0.463 OA
BRANCH   6   7
ATOM      7  C   UNL A   1      42.495  31.456  37.584  1.00  0.00     0.310 C 
ATOM      8  O   UNL A   1      41.358  31.803  37.279  1.00  0.00    -0.252 OA
BRANCH   7   9
ATOM      9  C   UNL A   1      43.420  30.760  36.570  1.00  0.00     0.159 C 
BRANCH   9  10
ATOM     10  C   UNL A   1      42.943  30.329  35.210  1.00  0.00    -0.025 C 
ATOM     11  C   UNL A   1      41.920  28.053  35.738  1.00  0.00     0.045 C 
ATOM     12  C   UNL A   1      42.298  29.192  34.852  1.00  0.00    -0.039 C 
ATOM     13  C   UNL A   1      41.987  29.215  33.410  1.00  0.00    -0.014 C 
ATOM     14  C   UNL A   1      43.019  31.182  33.999  1.00  0.00    -0.011 A 
ATOM     15  C   UNL A   1      42.487  30.497  32.888  1.00  0.00    -0.010 A 
ATOM     16  C   UNL A   1      41.353  28.235  32.737  1.00  0.00     0.017 C 
ATOM     17  C   UNL A   1      43.566  32.449  33.834  1.00  0.00     0.048 A 
ATOM     18  C   UNL A   1      42.533  31.047  31.612  1.00  0.00     0.012 A 
ATOM     19  C   UNL A   1      43.606  32.994  32.550  1.00  0.00     0.123 A 
ATOM     20  C   UNL A   1      43.102  32.308  31.445  1.00  0.00     0.040 A 
ATOM     21  F   UNL A   1      44.177  34.192  32.364  1.00  0.00    -0.207 F 
BRANCH  16  22
ATOM     22  C   UNL A   1      41.006  28.246  31.310  1.00  0.00    -0.021 A 
ATOM     23  C   UNL A   1      41.956  27.896  30.347  1.00  0.00     0.008 A 
ATOM     24  C   UNL A   1      39.725  28.655  30.906  1.00  0.00     0.054 A 
ATOM     25  C   UNL A   1      41.633  27.969  28.993  1.00  0.00     0.004 A 
ATOM     26  C   UNL A   1      39.387  28.707  29.552  1.00  0.00     0.120 A 
ATOM     27  C   UNL A   1      40.354  28.374  28.600  1.00  0.00     0.046 A 
BRANCH  26  28
ATOM     28  O   UNL A   1      38.171  29.061  29.032  1.00  0.00    -0.489 OA
BRANCH  28  29
ATOM     29  C   UNL A   1      37.963  30.418  28.623  1.00  0.00     0.265 C 
BRANCH  29  30
ATOM     30  C   UNL A   1      36.534  30.695  28.212  1.00  0.00    -0.011 A 
ATOM     31  C   UNL A   1      35.731  29.668  27.694  1.00  0.00     0.007 A 
ATOM     32  C   UNL A   1      35.980  31.973  28.372  1.00  0.00     0.007 A 
ATOM     33  C   UNL A   1      34.393  29.910  27.378  1.00  0.00     0.000 A 
ATOM     34  C   UNL A   1      34.638  32.208  28.072  1.00  0.00     0.000 A 
ATOM     35  C   UNL A   1      33.845  31.175  27.578  1.00  0.00     0.000 A 
ENDBRANCH  29  30
ENDBRANCH  28  29
ENDBRANCH  26  28
ENDBRANCH  16  22
ENDBRANCH   9  10
ENDBRANCH   7   9
ENDBRANCH   6   7
ENDBRANCH   5   6
ENDBRANCH   4   5
ENDBRANCH   3   4
ENDBRANCH   2   3
ENDBRANCH   1   2
BRANCH   1  36
ATOM     36  O   UNL A   1      41.286  31.566  45.004  1.00  0.00    -0.377 OA
BRANCH  36  37
ATOM     37  C   UNL A   1      40.939  30.209  44.859  1.00  0.00     0.188 C 
BRANCH  37  38
ATOM     38  C   UNL A   1      40.038  29.624  45.951  1.00  0.00     0.188 C 
BRANCH  38  39
ATOM     39  O   UNL A   1      38.659  29.565  45.595  1.00  0.00    -0.376 OA
BRANCH  39  40
ATOM     40  C   UNL A   1      37.735  29.985  46.592  1.00  0.00     0.202 C 
BRANCH  40  41
ATOM     41  C   UNL A   1      36.269  30.117  46.155  1.00  0.00     0.261 C 
BRANCH  41  42
ATOM     42  O   UNL A   1      35.913  31.332  45.485  1.00  0.00    -0.460 OA
BRANCH  42  43
ATOM     43  C   UNL A   1      35.207  31.249  44.339  1.00  0.00     0.338 C 
ATOM     44  O   UNL A   1      34.053  30.883  44.210  1.00  0.00    -0.246 OA
BRANCH  43  45
ATOM     45  C   UNL A   1      36.037  31.881  43.294  1.00  0.00     0.060 A 
ATOM     46  C   UNL A   1      35.634  33.086  42.709  1.00  0.00     0.016 A 
ATOM     47  C   UNL A   1      37.183  31.217  42.842  1.00  0.00     0.016 A 
ATOM     48  C   UNL A   1      36.387  33.632  41.669  1.00  0.00     0.010 A 
ATOM     49  C   UNL A   1      37.921  31.752  41.786  1.00  0.00     0.010 A 
ATOM     50  C   UNL A   1      37.539  32.973  41.208  1.00  0.00    -0.014 A 
BRANCH  50  51
ATOM     51  C   UNL A   1      38.473  33.677  40.298  1.00  0.00     0.031 A 
ATOM     52  C   UNL A   1      39.483  34.667  40.785  1.00  0.00     0.074 A 
ATOM     53  C   UNL A   1      38.346  33.412  38.984  1.00  0.00     0.049 A 
ATOM     54  N   UNL A   1      40.382  35.317  40.093  1.00  0.00    -0.248 NA
ATOM     55  C   UNL A   1      39.486  34.976  42.222  1.00  0.00     0.031 C 
ATOM     56  C   UNL A   1      37.360  32.489  38.420  1.00  0.00     0.029 A 
ATOM     57  N   UNL A   1      39.023  33.889  37.893  1.00  0.00    -0.354 N 
ATOM     58  C   UNL A   1      41.074  36.105  41.005  1.00  0.00     0.074 A 
ATOM     59  C   UNL A   1      40.459  35.878  42.298  1.00  0.00     0.031 C 
ATOM     60  C   UNL A   1      37.497  32.462  37.089  1.00  0.00     0.029 A 
ATOM     61  C   UNL A   1      38.557  33.387  36.700  1.00  0.00     0.049 A 
ATOM     62  H   UNL A   1      39.768  34.529  37.955  1.00  0.00     0.167 HD
ATOM     63  C   UNL A   1      42.129  36.923  40.772  1.00  0.00     0.034 A 
ATOM     64  C   UNL A   1      38.935  33.642  35.432  1.00  0.00     0.034 A 
ATOM     65  C   UNL A   1      42.704  37.135  39.463  1.00  0.00     0.049 A 
ATOM     66  C   UNL A   1      40.101  34.564  35.201  1.00  0.00     0.074 A 
ATOM     67  C   UNL A   1      43.814  37.895  39.133  1.00  0.00     0.029 A 
ATOM     68  N   UNL A   1      42.220  36.607  38.274  1.00  0.00    -0.354 N 
ATOM     69  N   UNL A   1      40.825  35.209  36.087  1.00  0.00    -0.248 NA
ATOM     70  C   UNL A   1      40.521  34.781  33.813  1.00  0.00     0.031 C 
ATOM     71  C   UNL A   1      43.950  37.892  37.744  1.00  0.00     0.029 A 
ATOM     72  C   UNL A   1      42.982  37.057  37.207  1.00  0.00     0.049 A 
ATOM     73  H   UNL A   1      41.448  36.000  38.199  1.00  0.00     0.167 HD
ATOM     74  C   UNL A   1      41.799  35.889  35.365  1.00  0.00     0.074 A 
ATOM     75  C   UNL A   1      41.588  35.554  33.971  1.00  0.00     0.031 C 
ATOM     76  C   UNL A   1      42.774  36.717  35.818  1.00  0.00     0.034 A 
BRANCH  63  77
ATOM     77  C   UNL A   1      42.773  37.646  41.932  1.00  0.00     0.023 A 
ATOM     78  C   UNL A   1      42.628  39.042  42.066  1.00  0.00     0.031 A 
ATOM     79  C   UNL A   1      43.673  36.989  42.790  1.00  0.00     0.131 A 
ATOM     80  C   UNL A   1      43.405  39.739  43.000  1.00  0.00     0.055 A 
ATOM     81  C   UNL A   1      44.415  37.683  43.748  1.00  0.00     0.041 A 
ATOM     82  F   UNL A   1      43.858  35.662  42.699  1.00  0.00    -0.206 F 
ATOM     83  C   UNL A   1      44.294  39.066  43.846  1.00  0.00     0.022 A 
BRANCH  80  84
ATOM     84  S   UNL A   1      43.357  41.550  43.104  1.00  0.00     0.124 S 
ATOM     85  O   UNL A   1      44.232  41.936  41.999  1.00  0.00    -0.237 OA
ATOM     86  O   UNL A   1      41.937  41.830  42.900  1.00  0.00    -0.237 OA
ATOM     87  O   UNL A   1      43.874  41.839  44.436  1.00  0.00    -0.744 OA
ENDBRANCH  80  84
ENDBRANCH  63  77
BRANCH  64  88
ATOM     88  C   UNL A   1      38.232  32.939  34.322  1.00  0.00     0.023 A 
ATOM     89  C   UNL A   1      37.131  33.535  33.677  1.00  0.00     0.031 A 
ATOM     90  C   UNL A   1      38.550  31.611  33.997  1.00  0.00     0.131 A 
ATOM     91  C   UNL A   1      36.343  32.776  32.801  1.00  0.00     0.055 A 
ATOM     92  C   UNL A   1      37.808  30.884  33.065  1.00  0.00     0.041 A 
ATOM     93  F   UNL A   1      39.577  30.994  34.602  1.00  0.00    -0.206 F 
ATOM     94  C   UNL A   1      36.685  31.460  32.478  1.00  0.00     0.022 A 
BRANCH  91  95
ATOM     95  S   UNL A   1      34.765  33.420  32.179  1.00  0.00     0.124 S 
ATOM     96  O   UNL A   1      34.198  32.247  31.520  1.00  0.00    -0.237 OA
ATOM     97  O   UNL A   1      34.103  33.832  33.413  1.00  0.00    -0.237 OA
ATOM     98  O   UNL A   1      35.161  34.510  31.294  1.00  0.00    -0.744 OA
ENDBRANCH  91  95
ENDBRANCH  64  88
BRANCH  76  99
ATOM     99  C   UNL A   1      43.711  37.345  34.813  1.00  0.00     0.023 A 
ATOM    100  C   UNL A   1      43.371  38.568  34.201  1.00  0.00     0.031 A 
ATOM    101  C   UNL A   1      44.849  36.664  34.348  1.00  0.00     0.131 A 
ATOM    102  C   UNL A   1      44.131  39.045  33.125  1.00  0.00     0.055 A 
ATOM    103  C   UNL A   1      45.636  37.172  33.312  1.00  0.00     0.041 A 
ATOM    104  F   UNL A   1      45.211  35.490  34.891  1.00  0.00    -0.206 F 
ATOM    105  C   UNL A   1      45.267  38.359  32.685  1.00  0.00     0.022 A 
BRANCH 102 106
ATOM    106  S   UNL A   1      43.619  40.516  32.196  1.00  0.00     0.124 S 
ATOM    107  O   UNL A   1      43.637  40.025  30.819  1.00  0.00    -0.237 OA
ATOM    108  O   UNL A   1      42.292  40.780  32.746  1.00  0.00    -0.237 OA
ATOM    109  O   UNL A   1      44.639  41.508  32.515  1.00  0.00    -0.744 OA
ENDBRANCH 102 106
ENDBRANCH  76  99
ENDBRANCH  50  51
ENDBRANCH  43  45
ENDBRANCH  42  43
ENDBRANCH  41  42
ENDBRANCH  40  41
ENDBRANCH  39  40
ENDBRANCH  38  39
ENDBRANCH  37  38
ENDBRANCH  36  37
ENDBRANCH   1  36
TORSDOF 28
ENDMDL
MODEL 2
REMARK VINA RESULT:      -6.5      5.448     14.978
REMARK SMILES CC1=C(CC(=O)OCCOCCOCCOCCOC(=O)c2ccc(-c3c4nc(c(-c5cc(S(=O)(=O)[O-])ccc5F)c5ccc([nH]5)c(-c5cc(S(=O)(=O)[O-])ccc5F)c5nc(c(-c6cc(S(=O)(=O)[O-])ccc6F)c6ccc3[nH]6)C=C5)C=C4)cc2)c2cc(F)ccc2/C1=C\c1cccc(OCc2ccccc2)c1
REMARK SMILES IDX 12 1 11 2 10 3 9 4 8 5 7 6 5 7 6 8 4 9 3 10 1 11 2 12 92 13
REMARK SMILES IDX 85 14 91 15 93 16 86 17 90 18 87 19 89 20 88 21 94 22 95 23
REMARK SMILES IDX 107 24 96 25 98 26 97 27 99 28 100 29 101 30 102 31 106 32
REMARK SMILES IDX 103 33 105 34 104 35 13 36 14 37 15 38 16 39 17 40 18 41
REMARK SMILES IDX 19 42 20 43 21 44 22 45 23 46 84 47 24 48 83 49 25 50 26 51
REMARK SMILES IDX 27 52 77 53 28 54 82 55 76 56 78 57 29 58 81 59 75 60 74 61
REMARK SMILES IDX 30 63 62 64 42 65 61 66 43 67 46 68 60 69 79 70 44 71 45 72
REMARK SMILES IDX 59 74 80 75 47 76 31 77 32 78 40 79 33 80 39 81 41 82 38 83
REMARK SMILES IDX 34 84 35 85 36 86 37 87 63 88 64 89 72 90 65 91 71 92 73 93
REMARK SMILES IDX 70 94 66 95 67 96 68 97 69 98 48 99 49 100 57 101 50 102
REMARK SMILES IDX 56 103 58 104 55 105 51 106 52 107 53 108 54 109
REMARK H PARENT 78 62 46 73
REMARK Flexibility Score: inf
ROOT
ATOM      1  C   UNL A   1      37.785  32.847  35.048  1.00  0.00     0.188 C 
ENDROOT
BRANCH   1   2
ATOM      2  C   UNL A   1      37.737  33.712  36.323  1.00  0.00     0.188 C 
BRANCH   2   3
ATOM      3  O   UNL A   1      38.495  33.249  37.413  1.00  0.00    -0.376 OA
BRANCH   3   4
ATOM      4  C   UNL A   1      39.392  34.091  38.107  1.00  0.00     0.202 C 
BRANCH   4   5
ATOM      5  C   UNL A   1      39.009  35.114  39.196  1.00  0.00     0.261 C 
BRANCH   5   6
ATOM      6  O   UNL A   1      39.190  34.766  40.577  1.00  0.00    -0.463 OA
BRANCH   6   7
ATOM      7  C   UNL A   1      38.096  34.405  41.288  1.00  0.00     0.310 C 
ATOM      8  O   UNL A   1      37.404  35.196  41.923  1.00  0.00    -0.252 OA
BRANCH   7   9
ATOM      9  C   UNL A   1      37.761  32.904  41.245  1.00  0.00     0.159 C 
BRANCH   9  10
ATOM     10  C   UNL A   1      37.135  32.185  42.408  1.00  0.00    -0.025 C 
ATOM     11  C   UNL A   1      34.690  32.867  42.159  1.00  0.00     0.045 C 
ATOM     12  C   UNL A   1      35.836  32.155  42.794  1.00  0.00    -0.039 C 
ATOM     13  C   UNL A   1      35.675  31.281  43.973  1.00  0.00    -0.014 C 
ATOM     14  C   UNL A   1      37.873  31.259  43.301  1.00  0.00    -0.011 A 
ATOM     15  C   UNL A   1      37.007  30.742  44.287  1.00  0.00    -0.010 A 
ATOM     16  C   UNL A   1      34.510  31.037  44.605  1.00  0.00     0.017 C 
ATOM     17  C   UNL A   1      39.221  30.919  43.316  1.00  0.00     0.048 A 
ATOM     18  C   UNL A   1      37.483  29.924  45.307  1.00  0.00     0.012 A 
ATOM     19  C   UNL A   1      39.688  30.097  44.342  1.00  0.00     0.123 A 
ATOM     20  C   UNL A   1      38.839  29.603  45.333  1.00  0.00     0.040 A 
ATOM     21  F   UNL A   1      40.993  29.801  44.402  1.00  0.00    -0.207 F 
BRANCH  16  22
ATOM     22  C   UNL A   1      34.319  30.151  45.759  1.00  0.00    -0.021 A 
ATOM     23  C   UNL A   1      34.939  30.431  46.979  1.00  0.00     0.008 A 
ATOM     24  C   UNL A   1      33.543  28.988  45.626  1.00  0.00     0.054 A 
ATOM     25  C   UNL A   1      34.799  29.550  48.050  1.00  0.00     0.004 A 
ATOM     26  C   UNL A   1      33.378  28.113  46.702  1.00  0.00     0.120 A 
ATOM     27  C   UNL A   1      34.022  28.396  47.908  1.00  0.00     0.046 A 
BRANCH  26  28
ATOM     28  O   UNL A   1      32.629  26.967  46.708  1.00  0.00    -0.489 OA
BRANCH  28  29
ATOM     29  C   UNL A   1      31.410  26.934  45.958  1.00  0.00     0.265 C 
BRANCH  29  30
ATOM     30  C   UNL A   1      30.186  27.164  46.816  1.00  0.00    -0.011 A 
ATOM     31  C   UNL A   1      29.071  26.320  46.706  1.00  0.00     0.007 A 
ATOM     32  C   UNL A   1      30.158  28.204  47.757  1.00  0.00     0.007 A 
ATOM     33  C   UNL A   1      27.969  26.493  47.545  1.00  0.00     0.000 A 
ATOM     34  C   UNL A   1      29.064  28.363  48.606  1.00  0.00     0.000 A 
ATOM     35  C   UNL A   1      27.971  27.506  48.502  1.00  0.00     0.000 A 
ENDBRANCH  29  30
ENDBRANCH  28  29
ENDBRANCH  26  28
ENDBRANCH  16  22
ENDBRANCH   9  10
ENDBRANCH   7   9
ENDBRANCH   6   7
ENDBRANCH   5   6
ENDBRANCH   4   5
ENDBRANCH   3   4
ENDBRANCH   2   3
ENDBRANCH   1   2
BRANCH   1  36
ATOM     36  O   UNL A   1      36.660  32.289  34.395  1.00  0.00    -0.377 OA
BRANCH  36  37
ATOM     37  C   UNL A   1      35.627  33.137  33.952  1.00  0.00     0.188 C 
BRANCH  37  38
ATOM     38  C   UNL A   1      35.222  32.993  32.481  1.00  0.00     0.188 C 
BRANCH  38  39
ATOM     39  O   UNL A   1      34.610  34.157  31.932  1.00  0.00    -0.376 OA
BRANCH  39  40
ATOM     40  C   UNL A   1      34.972  34.484  30.596  1.00  0.00     0.202 C 
BRANCH  40  41
ATOM     41  C   UNL A   1      34.230  33.730  29.481  1.00  0.00     0.261 C 
BRANCH  41  42
ATOM     42  O   UNL A   1      34.338  32.302  29.502  1.00  0.00    -0.460 OA
BRANCH  42  43
ATOM     43  C   UNL A   1      34.725  31.672  28.374  1.00  0.00     0.338 C 
ATOM     44  O   UNL A   1      34.238  31.783  27.264  1.00  0.00    -0.246 OA
BRANCH  43  45
ATOM     45  C   UNL A   1      35.985  30.974  28.701  1.00  0.00     0.060 A 
ATOM     46  C   UNL A   1      37.214  31.543  28.356  1.00  0.00     0.016 A 
ATOM     47  C   UNL A   1      35.927  29.702  29.284  1.00  0.00     0.016 A 
ATOM     48  C   UNL A   1      38.393  30.838  28.600  1.00  0.00     0.010 A 
ATOM     49  C   UNL A   1      37.104  28.988  29.506  1.00  0.00     0.010 A 
ATOM     50  C   UNL A   1      38.345  29.561  29.185  1.00  0.00    -0.014 A 
BRANCH  50  51
ATOM     51  C   UNL A   1      39.592  28.934  29.683  1.00  0.00     0.031 A 
ATOM     52  C   UNL A   1      40.215  27.743  29.027  1.00  0.00     0.074 A 
ATOM     53  C   UNL A   1      40.130  29.467  30.796  1.00  0.00     0.049 A 
ATOM     54  N   UNL A   1      41.326  27.130  29.344  1.00  0.00    -0.248 NA
ATOM     55  C   UNL A   1      39.508  27.158  27.879  1.00  0.00     0.031 C 
ATOM     56  C   UNL A   1      39.563  30.606  31.522  1.00  0.00     0.029 A 
ATOM     57  N   UNL A   1      41.245  29.131  31.516  1.00  0.00    -0.354 N 
ATOM     58  C   UNL A   1      41.468  26.093  28.429  1.00  0.00     0.074 A 
ATOM     59  C   UNL A   1      40.303  26.139  27.568  1.00  0.00     0.031 C 
ATOM     60  C   UNL A   1      40.336  30.877  32.581  1.00  0.00     0.029 A 
ATOM     61  C   UNL A   1      41.434  29.915  32.629  1.00  0.00     0.049 A 
ATOM     62  H   UNL A   1      41.852  28.399  31.262  1.00  0.00     0.167 HD
ATOM     63  C   UNL A   1      42.486  25.206  28.323  1.00  0.00     0.034 A 
ATOM     64  C   UNL A   1      42.379  29.868  33.588  1.00  0.00     0.034 A 
ATOM     65  C   UNL A   1      43.625  25.183  29.213  1.00  0.00     0.049 A 
ATOM     66  C   UNL A   1      43.491  28.865  33.452  1.00  0.00     0.074 A 
ATOM     67  C   UNL A   1      44.740  24.363  29.149  1.00  0.00     0.029 A 
ATOM     68  N   UNL A   1      43.795  25.995  30.326  1.00  0.00    -0.354 N 
ATOM     69  N   UNL A   1      43.677  27.969  32.511  1.00  0.00    -0.248 NA
ATOM     70  C   UNL A   1      44.534  28.874  34.484  1.00  0.00     0.031 C 
ATOM     71  C   UNL A   1      45.539  24.623  30.263  1.00  0.00     0.029 A 
ATOM     72  C   UNL A   1      44.974  25.668  30.978  1.00  0.00     0.049 A 
ATOM     73  H   UNL A   1      43.170  26.700  30.611  1.00  0.00     0.167 HD
ATOM     74  C   UNL A   1      44.867  27.322  32.825  1.00  0.00     0.074 A 
ATOM     75  C   UNL A   1      45.372  27.951  34.029  1.00  0.00     0.031 C 
ATOM     76  C   UNL A   1      45.479  26.300  32.176  1.00  0.00     0.034 A 
BRANCH  63  77
ATOM     77  C   UNL A   1      42.466  24.189  27.205  1.00  0.00     0.023 A 
ATOM     78  C   UNL A   1      41.964  22.892  27.435  1.00  0.00     0.031 A 
ATOM     79  C   UNL A   1      43.107  24.442  25.979  1.00  0.00     0.131 A 
ATOM     80  C   UNL A   1      42.153  21.889  26.475  1.00  0.00     0.055 A 
ATOM     81  C   UNL A   1      43.257  23.449  25.009  1.00  0.00     0.041 A 
ATOM     82  F   UNL A   1      43.613  25.657  25.712  1.00  0.00    -0.206 F 
ATOM     83  C   UNL A   1      42.792  22.162  25.261  1.00  0.00     0.022 A 
BRANCH  80  84
ATOM     84  S   UNL A   1      41.652  20.174  26.794  1.00  0.00     0.124 S 
ATOM     85  O   UNL A   1      40.392  20.358  27.509  1.00  0.00    -0.237 OA
ATOM     86  O   UNL A   1      41.528  19.636  25.441  1.00  0.00    -0.237 OA
ATOM     87  O   UNL A   1      42.746  19.632  27.593  1.00  0.00    -0.744 OA
ENDBRANCH  80  84
ENDBRANCH  63  77
BRANCH  64  88
ATOM     88  C   UNL A   1      42.323  30.864  34.696  1.00  0.00     0.023 A 
ATOM     89  C   UNL A   1      42.785  32.180  34.504  1.00  0.00     0.031 A 
ATOM     90  C   UNL A   1      41.952  30.475  35.993  1.00  0.00     0.131 A 
ATOM     91  C   UNL A   1      42.939  33.031  35.606  1.00  0.00     0.055 A 
ATOM     92  C   UNL A   1      42.034  31.353  37.075  1.00  0.00     0.041 A 
ATOM     93  F   UNL A   1      41.527  29.224  36.229  1.00  0.00    -0.206 F 
ATOM     94  C   UNL A   1      42.550  32.632  36.888  1.00  0.00     0.022 A 
BRANCH  91  95
ATOM     95  S   UNL A   1      43.794  34.623  35.437  1.00  0.00     0.124 S 
ATOM     96  O   UNL A   1      42.819  35.414  34.693  1.00  0.00    -0.237 OA
ATOM     97  O   UNL A   1      43.986  35.008  36.832  1.00  0.00    -0.237 OA
ATOM     98  O   UNL A   1      45.015  34.284  34.714  1.00  0.00    -0.744 OA
ENDBRANCH  91  95
ENDBRANCH  64  88
BRANCH  76  99
ATOM     99  C   UNL A   1      46.777  25.765  32.735  1.00  0.00     0.023 A 
ATOM    100  C   UNL A   1      46.757  24.754  33.717  1.00  0.00     0.031 A 
ATOM    101  C   UNL A   1      48.011  26.358  32.418  1.00  0.00     0.131 A 
ATOM    102  C   UNL A   1      47.939  24.406  34.383  1.00  0.00     0.055 A 
ATOM    103  C   UNL A   1      49.195  25.967  33.045  1.00  0.00     0.041 A 
ATOM    104  F   UNL A   1      48.083  27.332  31.496  1.00  0.00    -0.206 F 
ATOM    105  C   UNL A   1      49.159  24.999  34.044  1.00  0.00     0.022 A 
BRANCH 102 106
ATOM    106  S   UNL A   1      47.922  23.244  35.776  1.00  0.00     0.124 S 
ATOM    107  O   UNL A   1      46.999  23.898  36.703  1.00  0.00    -0.237 OA
ATOM    108  O   UNL A   1      47.417  22.024  35.152  1.00  0.00    -0.237 OA
ATOM    109  O   UNL A   1      49.312  23.197  36.215  1.00  0.00    -0.744 OA
ENDBRANCH 102 106
ENDBRANCH  76  99
ENDBRANCH  50  51
ENDBRANCH  43  45
ENDBRANCH  42  43
ENDBRANCH  41  42
ENDBRANCH  40  41
ENDBRANCH  39  40
ENDBRANCH  38  39
ENDBRANCH  37  38
ENDBRANCH  36  37
ENDBRANCH   1  36
TORSDOF 28
ENDMDL
MODEL 3
REMARK VINA RESULT:      -6.1      3.778     11.990
REMARK SMILES CC1=C(CC(=O)OCCOCCOCCOCCOC(=O)c2ccc(-c3c4nc(c(-c5cc(S(=O)(=O)[O-])ccc5F)c5ccc([nH]5)c(-c5cc(S(=O)(=O)[O-])ccc5F)c5nc(c(-c6cc(S(=O)(=O)[O-])ccc6F)c6ccc3[nH]6)C=C5)C=C4)cc2)c2cc(F)ccc2/C1=C\c1cccc(OCc2ccccc2)c1
REMARK SMILES IDX 12 1 11 2 10 3 9 4 8 5 7 6 5 7 6 8 4 9 3 10 1 11 2 12 92 13
REMARK SMILES IDX 85 14 91 15 93 16 86 17 90 18 87 19 89 20 88 21 94 22 95 23
REMARK SMILES IDX 107 24 96 25 98 26 97 27 99 28 100 29 101 30 102 31 106 32
REMARK SMILES IDX 103 33 105 34 104 35 13 36 14 37 15 38 16 39 17 40 18 41
REMARK SMILES IDX 19 42 20 43 21 44 22 45 23 46 84 47 24 48 83 49 25 50 26 51
REMARK SMILES IDX 27 52 77 53 28 54 82 55 76 56 78 57 29 58 81 59 75 60 74 61
REMARK SMILES IDX 30 63 62 64 42 65 61 66 43 67 46 68 60 69 79 70 44 71 45 72
REMARK SMILES IDX 59 74 80 75 47 76 31 77 32 78 40 79 33 80 39 81 41 82 38 83
REMARK SMILES IDX 34 84 35 85 36 86 37 87 63 88 64 89 72 90 65 91 71 92 73 93
REMARK SMILES IDX 70 94 66 95 67 96 68 97 69 98 48 99 49 100 57 101 50 102
REMARK SMILES IDX 56 103 58 104 55 105 51 106 52 107 53 108 54 109
REMARK H PARENT 78 62 46 73
REMARK Flexibility Score: inf
ROOT
ATOM      1  C   UNL A   1      34.503  32.688  31.509  1.00  0.00     0.188 C 
ENDROOT
BRANCH   1   2
ATOM      2  C   UNL A   1      35.227  32.907  32.853  1.00  0.00     0.188 C 
BRANCH   2   3
ATOM      3  O   UNL A   1      36.560  32.469  32.915  1.00  0.00    -0.376 OA
BRANCH   3   4
ATOM      4  C   UNL A   1      37.163  32.089  34.135  1.00  0.00     0.202 C 
BRANCH   4   5
ATOM      5  C   UNL A   1      38.254  32.880  34.886  1.00  0.00     0.261 C 
BRANCH   5   6
ATOM      6  O   UNL A   1      39.278  32.161  35.592  1.00  0.00    -0.463 OA
BRANCH   6   7
ATOM      7  C   UNL A   1      39.444  32.424  36.909  1.00  0.00     0.310 C 
ATOM      8  O   UNL A   1      40.320  31.913  37.601  1.00  0.00    -0.252 OA
BRANCH   7   9
ATOM      9  C   UNL A   1      38.446  33.436  37.498  1.00  0.00     0.159 C 
BRANCH   9  10
ATOM     10  C   UNL A   1      38.869  34.527  38.443  1.00  0.00    -0.025 C 
ATOM     11  C   UNL A   1      40.029  36.146  36.848  1.00  0.00     0.045 C 
ATOM     12  C   UNL A   1      39.528  35.681  38.174  1.00  0.00    -0.039 C 
ATOM     13  C   UNL A   1      39.693  36.473  39.409  1.00  0.00    -0.014 C 
ATOM     14  C   UNL A   1      38.515  34.557  39.883  1.00  0.00    -0.011 A 
ATOM     15  C   UNL A   1      39.053  35.710  40.492  1.00  0.00    -0.010 A 
ATOM     16  C   UNL A   1      40.307  37.670  39.487  1.00  0.00     0.017 C 
ATOM     17  C   UNL A   1      37.826  33.626  40.651  1.00  0.00     0.048 A 
ATOM     18  C   UNL A   1      38.944  35.919  41.862  1.00  0.00     0.012 A 
ATOM     19  C   UNL A   1      37.720  33.846  42.025  1.00  0.00     0.123 A 
ATOM     20  C   UNL A   1      38.272  34.973  42.634  1.00  0.00     0.040 A 
ATOM     21  F   UNL A   1      37.104  32.933  42.789  1.00  0.00    -0.207 F 
BRANCH  16  22
ATOM     22  C   UNL A   1      40.459  38.490  40.695  1.00  0.00    -0.021 A 
ATOM     23  C   UNL A   1      41.400  38.149  41.670  1.00  0.00     0.008 A 
ATOM     24  C   UNL A   1      39.622  39.599  40.896  1.00  0.00     0.054 A 
ATOM     25  C   UNL A   1      41.493  38.900  42.841  1.00  0.00     0.004 A 
ATOM     26  C   UNL A   1      39.726  40.371  42.055  1.00  0.00     0.120 A 
ATOM     27  C   UNL A   1      40.658  40.005  43.030  1.00  0.00     0.046 A 
BRANCH  26  28
ATOM     28  O   UNL A   1      38.992  41.486  42.356  1.00  0.00    -0.489 OA
BRANCH  28  29
ATOM     29  C   UNL A   1      39.569  42.486  43.204  1.00  0.00     0.265 C 
BRANCH  29  30
ATOM     30  C   UNL A   1      39.685  43.834  42.528  1.00  0.00    -0.011 A 
ATOM     31  C   UNL A   1      38.553  44.456  41.982  1.00  0.00     0.007 A 
ATOM     32  C   UNL A   1      40.919  44.497  42.465  1.00  0.00     0.007 A 
ATOM     33  C   UNL A   1      38.650  45.729  41.418  1.00  0.00     0.000 A 
ATOM     34  C   UNL A   1      41.010  45.776  41.917  1.00  0.00     0.000 A 
ATOM     35  C   UNL A   1      39.875  46.393  41.397  1.00  0.00     0.000 A 
ENDBRANCH  29  30
ENDBRANCH  28  29
ENDBRANCH  26  28
ENDBRANCH  16  22
ENDBRANCH   9  10
ENDBRANCH   7   9
ENDBRANCH   6   7
ENDBRANCH   5   6
ENDBRANCH   4   5
ENDBRANCH   3   4
ENDBRANCH   2   3
ENDBRANCH   1   2
BRANCH   1  36
ATOM     36  O   UNL A   1      33.926  33.709  30.715  1.00  0.00    -0.377 OA
BRANCH  36  37
ATOM     37  C   UNL A   1      34.712  34.354  29.742  1.00  0.00     0.188 C 
BRANCH  37  38
ATOM     38  C   UNL A   1      35.881  33.543  29.174  1.00  0.00     0.188 C 
BRANCH  38  39
ATOM     39  O   UNL A   1      37.085  33.656  29.928  1.00  0.00    -0.376 OA
BRANCH  39  40
ATOM     40  C   UNL A   1      38.221  32.982  29.399  1.00  0.00     0.202 C 
BRANCH  40  41
ATOM     41  C   UNL A   1      39.246  32.464  30.420  1.00  0.00     0.261 C 
BRANCH  41  42
ATOM     42  O   UNL A   1      40.433  33.247  30.581  1.00  0.00    -0.460 OA
BRANCH  42  43
ATOM     43  C   UNL A   1      41.511  32.668  31.149  1.00  0.00     0.338 C 
ATOM     44  O   UNL A   1      42.096  31.670  30.770  1.00  0.00    -0.246 OA
BRANCH  43  45
ATOM     45  C   UNL A   1      41.971  33.593  32.204  1.00  0.00     0.060 A 
ATOM     46  C   UNL A   1      41.056  34.425  32.857  1.00  0.00     0.016 A 
ATOM     47  C   UNL A   1      43.340  33.684  32.481  1.00  0.00     0.016 A 
ATOM     48  C   UNL A   1      41.513  35.350  33.797  1.00  0.00     0.010 A 
ATOM     49  C   UNL A   1      43.798  34.625  33.403  1.00  0.00     0.010 A 
ATOM     50  C   UNL A   1      42.886  35.448  34.082  1.00  0.00    -0.014 A 
BRANCH  50  51
ATOM     51  C   UNL A   1      43.338  36.231  35.255  1.00  0.00     0.031 A 
ATOM     52  C   UNL A   1      43.771  37.659  35.156  1.00  0.00     0.074 A 
ATOM     53  C   UNL A   1      43.381  35.578  36.433  1.00  0.00     0.049 A 
ATOM     54  N   UNL A   1      44.149  38.462  36.117  1.00  0.00    -0.248 NA
ATOM     55  C   UNL A   1      43.793  38.266  33.818  1.00  0.00     0.031 C 
ATOM     56  C   UNL A   1      43.014  34.173  36.610  1.00  0.00     0.029 A 
ATOM     57  N   UNL A   1      43.756  35.989  37.684  1.00  0.00    -0.354 N 
ATOM     58  C   UNL A   1      44.441  39.678  35.510  1.00  0.00     0.074 A 
ATOM     59  C   UNL A   1      44.233  39.491  34.087  1.00  0.00     0.031 C 
ATOM     60  C   UNL A   1      43.176  33.838  37.896  1.00  0.00     0.029 A 
ATOM     61  C   UNL A   1      43.689  34.991  38.628  1.00  0.00     0.049 A 
ATOM     62  H   UNL A   1      44.047  36.907  37.888  1.00  0.00     0.167 HD
ATOM     63  C   UNL A   1      44.830  40.834  36.099  1.00  0.00     0.034 A 
ATOM     64  C   UNL A   1      44.007  34.998  39.938  1.00  0.00     0.034 A 
ATOM     65  C   UNL A   1      45.041  40.977  37.522  1.00  0.00     0.049 A 
ATOM     66  C   UNL A   1      44.448  36.292  40.564  1.00  0.00     0.074 A 
ATOM     67  C   UNL A   1      45.375  42.123  38.223  1.00  0.00     0.029 A 
ATOM     68  N   UNL A   1      44.957  39.953  38.457  1.00  0.00    -0.354 N 
ATOM     69  N   UNL A   1      44.603  37.466  39.998  1.00  0.00    -0.248 NA
ATOM     70  C   UNL A   1      44.736  36.278  42.002  1.00  0.00     0.031 C 
ATOM     71  C   UNL A   1      45.570  41.778  39.561  1.00  0.00     0.029 A 
ATOM     72  C   UNL A   1      45.271  40.433  39.719  1.00  0.00     0.049 A 
ATOM     73  H   UNL A   1      44.709  39.022  38.253  1.00  0.00     0.167 HD
ATOM     74  C   UNL A   1      44.984  38.336  41.013  1.00  0.00     0.074 A 
ATOM     75  C   UNL A   1      45.010  37.556  42.235  1.00  0.00     0.031 C 
ATOM     76  C   UNL A   1      45.290  39.655  40.937  1.00  0.00     0.034 A 
BRANCH  63  77
ATOM     77  C   UNL A   1      45.037  42.064  35.246  1.00  0.00     0.023 A 
ATOM     78  C   UNL A   1      43.928  42.782  34.756  1.00  0.00     0.031 A 
ATOM     79  C   UNL A   1      46.314  42.413  34.769  1.00  0.00     0.131 A 
ATOM     80  C   UNL A   1      44.112  43.777  33.788  1.00  0.00     0.055 A 
ATOM     81  C   UNL A   1      46.496  43.433  33.834  1.00  0.00     0.041 A 
ATOM     82  F   UNL A   1      47.404  41.754  35.194  1.00  0.00    -0.206 F 
ATOM     83  C   UNL A   1      45.391  44.110  33.328  1.00  0.00     0.022 A 
BRANCH  80  84
ATOM     84  S   UNL A   1      42.699  44.624  33.025  1.00  0.00     0.124 S 
ATOM     85  O   UNL A   1      41.848  44.887  34.183  1.00  0.00    -0.237 OA
ATOM     86  O   UNL A   1      43.330  45.801  32.434  1.00  0.00    -0.237 OA
ATOM     87  O   UNL A   1      42.173  43.646  32.080  1.00  0.00    -0.744 OA
ENDBRANCH  80  84
ENDBRANCH  63  77
BRANCH  64  88
ATOM     88  C   UNL A   1      43.831  33.742  40.722  1.00  0.00     0.023 A 
ATOM     89  C   UNL A   1      44.804  32.725  40.677  1.00  0.00     0.031 A 
ATOM     90  C   UNL A   1      42.629  33.479  41.397  1.00  0.00     0.131 A 
ATOM     91  C   UNL A   1      44.523  31.468  41.229  1.00  0.00     0.055 A 
ATOM     92  C   UNL A   1      42.385  32.250  42.012  1.00  0.00     0.041 A 
ATOM     93  F   UNL A   1      41.663  34.410  41.447  1.00  0.00    -0.206 F 
ATOM     94  C   UNL A   1      43.326  31.230  41.911  1.00  0.00     0.022 A 
BRANCH  91  95
ATOM     95  S   UNL A   1      45.630  30.060  40.941  1.00  0.00     0.124 S 
ATOM     96  O   UNL A   1      45.003  29.411  39.793  1.00  0.00    -0.237 OA
ATOM     97  O   UNL A   1      46.900  30.728  40.672  1.00  0.00    -0.237 OA
ATOM     98  O   UNL A   1      45.575  29.315  42.194  1.00  0.00    -0.744 OA
ENDBRANCH  91  95
ENDBRANCH  64  88
BRANCH  76  99
ATOM     99  C   UNL A   1      45.689  40.378  42.202  1.00  0.00     0.023 A 
ATOM    100  C   UNL A   1      46.971  40.179  42.753  1.00  0.00     0.031 A 
ATOM    101  C   UNL A   1      44.759  41.129  42.941  1.00  0.00     0.131 A 
ATOM    102  C   UNL A   1      47.268  40.680  44.026  1.00  0.00     0.055 A 
ATOM    103  C   UNL A   1      45.079  41.674  44.186  1.00  0.00     0.041 A 
ATOM    104  F   UNL A   1      43.521  41.340  42.466  1.00  0.00    -0.206 F 
ATOM    105  C   UNL A   1      46.333  41.435  44.741  1.00  0.00     0.022 A 
BRANCH 102 106
ATOM    106  S   UNL A   1      48.840  40.289  44.843  1.00  0.00     0.124 S 
ATOM    107  O   UNL A   1      48.397  39.492  45.986  1.00  0.00    -0.237 OA
ATOM    108  O   UNL A   1      49.549  39.546  43.804  1.00  0.00    -0.237 OA
ATOM    109  O   UNL A   1      49.400  41.593  45.176  1.00  0.00    -0.744 OA
ENDBRANCH 102 106
ENDBRANCH  76  99
ENDBRANCH  50  51
ENDBRANCH  43  45
ENDBRANCH  42  43
ENDBRANCH  41  42
ENDBRANCH  40  41
ENDBRANCH  39  40
ENDBRANCH  38  39
ENDBRANCH  37  38
ENDBRANCH  36  37
ENDBRANCH   1  36
TORSDOF 28
ENDMDL
