MODEL 1
REMARK VINA RESULT:      -9.3      0.000      0.000
REMARK SMILES CC1(C)C(Nc2cc(C(=O)OCCOCCOCCOCCOC(=O)c3ccc(-c4c5nc(c(-c6cc(S(=O)(=O)[O-])ccc6F)c6ccc([nH]6)c(-c6cc(S(=O)(=O)[O-])ccc6F)c6nc(c(-c7cc(S(=O)(=O)[O-])ccc7F)c7ccc4[nH]7)C=C6)C=C5)cc3)cc(Cl)n2)C1(C)C
REMARK SMILES IDX 18 1 17 2 16 3 15 4 14 5 13 6 12 7 11 8 9 9 10 10 8 11 6 12
REMARK SMILES IDX 7 13 92 14 90 15 89 16 91 17 5 18 4 20 1 21 2 22 3 23 93 24
REMARK SMILES IDX 94 25 95 26 19 27 20 28 21 29 22 30 23 31 24 32 25 33 26 34
REMARK SMILES IDX 27 35 88 36 28 37 87 38 29 39 30 40 31 41 81 42 32 43 86 44
REMARK SMILES IDX 80 45 82 46 33 47 85 48 79 49 78 50 34 52 66 53 46 54 65 55
REMARK SMILES IDX 47 56 50 57 64 58 83 59 48 60 49 61 63 63 84 64 51 65 35 66
REMARK SMILES IDX 36 67 44 68 37 69 43 70 45 71 42 72 38 73 39 74 40 75 41 76
REMARK SMILES IDX 67 77 68 78 76 79 69 80 75 81 77 82 74 83 70 84 71 85 72 86
REMARK SMILES IDX 73 87 52 88 53 89 61 90 54 91 60 92 62 93 59 94 55 95 56 96
REMARK SMILES IDX 57 97 58 98
REMARK H PARENT 5 19 82 51 50 62
REMARK Flexibility Score: inf
ROOT
ATOM      1  C   UNL A   1      35.003  21.454  26.520  1.00  0.00     0.188 C 
ENDROOT
BRANCH   1   2
ATOM      2  O   UNL A   1      33.822  22.232  26.311  1.00  0.00    -0.377 OA
BRANCH   2   3
ATOM      3  C   UNL A   1      32.782  21.697  25.509  1.00  0.00     0.188 C 
BRANCH   3   4
ATOM      4  C   UNL A   1      31.979  22.755  24.729  1.00  0.00     0.188 C 
BRANCH   4   5
ATOM      5  O   UNL A   1      31.917  22.516  23.336  1.00  0.00    -0.376 OA
BRANCH   5   6
ATOM      6  C   UNL A   1      32.816  23.145  22.440  1.00  0.00     0.202 C 
BRANCH   6   7
ATOM      7  C   UNL A   1      34.139  23.816  22.858  1.00  0.00     0.261 C 
BRANCH   7   8
ATOM      8  O   UNL A   1      34.125  25.221  23.125  1.00  0.00    -0.460 OA
BRANCH   8   9
ATOM      9  C   UNL A   1      33.452  26.030  22.281  1.00  0.00     0.338 C 
ATOM     10  O   UNL A   1      33.410  25.956  21.069  1.00  0.00    -0.246 OA
BRANCH   9  11
ATOM     11  C   UNL A   1      32.593  26.915  23.105  1.00  0.00     0.066 A 
ATOM     12  C   UNL A   1      31.291  28.915  23.310  1.00  0.00     0.128 A 
ATOM     13  C   UNL A   1      32.123  28.108  22.547  1.00  0.00     0.062 A 
ATOM     14  N   UNL A   1      30.944  28.596  24.569  1.00  0.00    -0.219 NA
ATOM     15  C   UNL A   1      31.373  27.413  25.057  1.00  0.00     0.132 A 
ATOM     16  C   UNL A   1      32.186  26.533  24.380  1.00  0.00     0.057 A 
ATOM     17  Cl  UNL A   1      30.789  27.047  26.628  1.00  0.00    -0.062 Cl
BRANCH  12  18
ATOM     18  N   UNL A   1      30.707  30.083  22.795  1.00  0.00    -0.366 N 
ATOM     19  H   UNL A   1      31.136  30.957  22.939  1.00  0.00     0.162 HD
BRANCH  18  20
ATOM     20  C   UNL A   1      29.447  29.992  22.038  1.00  0.00     0.093 C 
ATOM     21  C   UNL A   1      27.090  29.093  22.514  1.00  0.00     0.014 C 
ATOM     22  C   UNL A   1      28.121  30.174  22.777  1.00  0.00    -0.008 C 
ATOM     23  C   UNL A   1      28.041  30.681  24.200  1.00  0.00     0.014 C 
ATOM     24  C   UNL A   1      28.554  31.157  21.676  1.00  0.00    -0.008 C 
ATOM     25  C   UNL A   1      27.800  31.119  20.364  1.00  0.00     0.014 C 
ATOM     26  C   UNL A   1      29.057  32.549  21.993  1.00  0.00     0.014 C 
ENDBRANCH  18  20
ENDBRANCH  12  18
ENDBRANCH   9  11
ENDBRANCH   8   9
ENDBRANCH   7   8
ENDBRANCH   6   7
ENDBRANCH   5   6
ENDBRANCH   4   5
ENDBRANCH   3   4
ENDBRANCH   2   3
ENDBRANCH   1   2
BRANCH   1  27
ATOM     27  C   UNL A   1      36.205  21.481  25.544  1.00  0.00     0.188 C 
BRANCH  27  28
ATOM     28  O   UNL A   1      37.119  22.549  25.755  1.00  0.00    -0.376 OA
BRANCH  28  29
ATOM     29  C   UNL A   1      38.498  22.305  25.547  1.00  0.00     0.202 C 
BRANCH  29  30
ATOM     30  C   UNL A   1      39.090  21.092  26.277  1.00  0.00     0.261 C 
BRANCH  30  31
ATOM     31  O   UNL A   1      40.078  20.346  25.553  1.00  0.00    -0.460 OA
BRANCH  31  32
ATOM     32  C   UNL A   1      41.190  19.976  26.233  1.00  0.00     0.338 C 
ATOM     33  O   UNL A   1      41.587  18.846  26.420  1.00  0.00    -0.246 OA
BRANCH  32  34
ATOM     34  C   UNL A   1      41.943  21.212  26.547  1.00  0.00     0.060 A 
ATOM     35  C   UNL A   1      42.270  21.494  27.879  1.00  0.00     0.016 A 
ATOM     36  C   UNL A   1      42.343  22.070  25.521  1.00  0.00     0.016 A 
ATOM     37  C   UNL A   1      42.980  22.656  28.191  1.00  0.00     0.010 A 
ATOM     38  C   UNL A   1      43.037  23.241  25.838  1.00  0.00     0.010 A 
ATOM     39  C   UNL A   1      43.337  23.553  27.176  1.00  0.00    -0.014 A 
BRANCH  39  40
ATOM     40  C   UNL A   1      43.865  24.899  27.519  1.00  0.00     0.031 A 
ATOM     41  C   UNL A   1      42.895  25.943  28.001  1.00  0.00     0.074 A 
ATOM     42  C   UNL A   1      45.174  25.190  27.400  1.00  0.00     0.049 A 
ATOM     43  N   UNL A   1      43.097  27.206  28.267  1.00  0.00    -0.248 NA
ATOM     44  C   UNL A   1      41.506  25.498  28.203  1.00  0.00     0.031 C 
ATOM     45  C   UNL A   1      46.214  24.250  26.989  1.00  0.00     0.029 A 
ATOM     46  N   UNL A   1      45.848  26.370  27.600  1.00  0.00    -0.354 N 
ATOM     47  C   UNL A   1      41.861  27.714  28.652  1.00  0.00     0.074 A 
ATOM     48  C   UNL A   1      40.910  26.625  28.561  1.00  0.00     0.031 C 
ATOM     49  C   UNL A   1      47.394  24.896  26.946  1.00  0.00     0.029 A 
ATOM     50  C   UNL A   1      47.185  26.304  27.279  1.00  0.00     0.049 A 
ATOM     51  H   UNL A   1      45.417  27.186  27.940  1.00  0.00     0.167 HD
ATOM     52  C   UNL A   1      41.548  28.972  29.044  1.00  0.00     0.034 A 
ATOM     53  C   UNL A   1      48.121  27.276  27.220  1.00  0.00     0.034 A 
ATOM     54  C   UNL A   1      42.507  30.046  29.122  1.00  0.00     0.049 A 
ATOM     55  C   UNL A   1      47.728  28.693  27.579  1.00  0.00     0.074 A 
ATOM     56  C   UNL A   1      42.304  31.349  29.542  1.00  0.00     0.029 A 
ATOM     57  N   UNL A   1      43.844  29.951  28.755  1.00  0.00    -0.354 N 
ATOM     58  N   UNL A   1      46.560  29.156  27.966  1.00  0.00    -0.248 NA
ATOM     59  C   UNL A   1      48.779  29.718  27.497  1.00  0.00     0.031 C 
ATOM     60  C   UNL A   1      43.489  32.063  29.343  1.00  0.00     0.029 A 
ATOM     61  C   UNL A   1      44.462  31.184  28.893  1.00  0.00     0.049 A 
ATOM     62  H   UNL A   1      44.286  29.129  28.444  1.00  0.00     0.167 HD
ATOM     63  C   UNL A   1      46.749  30.516  28.204  1.00  0.00     0.074 A 
ATOM     64  C   UNL A   1      48.144  30.795  27.934  1.00  0.00     0.031 C 
ATOM     65  C   UNL A   1      45.853  31.452  28.614  1.00  0.00     0.034 A 
BRANCH  52  66
ATOM     66  C   UNL A   1      40.103  29.273  29.355  1.00  0.00     0.023 A 
ATOM     67  C   UNL A   1      39.627  29.379  30.672  1.00  0.00     0.031 A 
ATOM     68  C   UNL A   1      39.184  29.460  28.305  1.00  0.00     0.131 A 
ATOM     69  C   UNL A   1      38.262  29.610  30.906  1.00  0.00     0.055 A 
ATOM     70  C   UNL A   1      37.845  29.766  28.544  1.00  0.00     0.041 A 
ATOM     71  F   UNL A   1      39.575  29.342  27.026  1.00  0.00    -0.206 F 
ATOM     72  C   UNL A   1      37.373  29.832  29.852  1.00  0.00     0.022 A 
BRANCH  69  73
ATOM     73  S   UNL A   1      37.639  29.491  32.605  1.00  0.00     0.124 S 
ATOM     74  O   UNL A   1      38.646  30.250  33.344  1.00  0.00    -0.237 OA
ATOM     75  O   UNL A   1      36.322  30.110  32.502  1.00  0.00    -0.237 OA
ATOM     76  O   UNL A   1      37.635  28.055  32.870  1.00  0.00    -0.744 OA
ENDBRANCH  69  73
ENDBRANCH  52  66
BRANCH  53  77
ATOM     77  C   UNL A   1      49.504  26.976  26.742  1.00  0.00     0.023 A 
ATOM     78  C   UNL A   1      50.572  26.824  27.640  1.00  0.00     0.031 A 
ATOM     79  C   UNL A   1      49.794  26.919  25.365  1.00  0.00     0.131 A 
ATOM     80  C   UNL A   1      51.883  26.683  27.154  1.00  0.00     0.055 A 
ATOM     81  C   UNL A   1      51.089  26.711  24.889  1.00  0.00     0.041 A 
ATOM     82  F   UNL A   1      48.816  27.068  24.458  1.00  0.00    -0.206 F 
ATOM     83  C   UNL A   1      52.146  26.609  25.786  1.00  0.00     0.022 A 
BRANCH  80  84
ATOM     84  S   UNL A   1      53.257  26.718  28.340  1.00  0.00     0.124 S 
ATOM     85  O   UNL A   1      54.204  25.796  27.723  1.00  0.00    -0.237 OA
ATOM     86  O   UNL A   1      53.631  28.128  28.327  1.00  0.00    -0.237 OA
ATOM     87  O   UNL A   1      52.646  26.248  29.582  1.00  0.00    -0.744 OA
ENDBRANCH  80  84
ENDBRANCH  53  77
BRANCH  65  88
ATOM     88  C   UNL A   1      46.366  32.853  28.847  1.00  0.00     0.023 A 
ATOM     89  C   UNL A   1      46.241  33.864  27.877  1.00  0.00     0.031 A 
ATOM     90  C   UNL A   1      46.986  33.185  30.067  1.00  0.00     0.131 A 
ATOM     91  C   UNL A   1      46.772  35.139  28.123  1.00  0.00     0.055 A 
ATOM     92  C   UNL A   1      47.451  34.473  30.332  1.00  0.00     0.041 A 
ATOM     93  F   UNL A   1      47.138  32.260  31.029  1.00  0.00    -0.206 F 
ATOM     94  C   UNL A   1      47.357  35.456  29.353  1.00  0.00     0.022 A 
BRANCH  91  95
ATOM     95  S   UNL A   1      46.776  36.358  26.779  1.00  0.00     0.124 S 
ATOM     96  O   UNL A   1      46.797  35.503  25.596  1.00  0.00    -0.237 OA
ATOM     97  O   UNL A   1      45.535  37.089  27.015  1.00  0.00    -0.237 OA
ATOM     98  O   UNL A   1      48.000  37.123  27.012  1.00  0.00    -0.744 OA
ENDBRANCH  91  95
ENDBRANCH  65  88
ENDBRANCH  39  40
ENDBRANCH  32  34
ENDBRANCH  31  32
ENDBRANCH  30  31
ENDBRANCH  29  30
ENDBRANCH  28  29
ENDBRANCH  27  28
ENDBRANCH   1  27
TORSDOF 25
ENDMDL
MODEL 2
REMARK VINA RESULT:      -8.7      4.664     10.293
REMARK SMILES CC1(C)C(Nc2cc(C(=O)OCCOCCOCCOCCOC(=O)c3ccc(-c4c5nc(c(-c6cc(S(=O)(=O)[O-])ccc6F)c6ccc([nH]6)c(-c6cc(S(=O)(=O)[O-])ccc6F)c6nc(c(-c7cc(S(=O)(=O)[O-])ccc7F)c7ccc4[nH]7)C=C6)C=C5)cc3)cc(Cl)n2)C1(C)C
REMARK SMILES IDX 18 1 17 2 16 3 15 4 14 5 13 6 12 7 11 8 9 9 10 10 8 11 6 12
REMARK SMILES IDX 7 13 92 14 90 15 89 16 91 17 5 18 4 20 1 21 2 22 3 23 93 24
REMARK SMILES IDX 94 25 95 26 19 27 20 28 21 29 22 30 23 31 24 32 25 33 26 34
REMARK SMILES IDX 27 35 88 36 28 37 87 38 29 39 30 40 31 41 81 42 32 43 86 44
REMARK SMILES IDX 80 45 82 46 33 47 85 48 79 49 78 50 34 52 66 53 46 54 65 55
REMARK SMILES IDX 47 56 50 57 64 58 83 59 48 60 49 61 63 63 84 64 51 65 35 66
REMARK SMILES IDX 36 67 44 68 37 69 43 70 45 71 42 72 38 73 39 74 40 75 41 76
REMARK SMILES IDX 67 77 68 78 76 79 69 80 75 81 77 82 74 83 70 84 71 85 72 86
REMARK SMILES IDX 73 87 52 88 53 89 61 90 54 91 60 92 62 93 59 94 55 95 56 96
REMARK SMILES IDX 57 97 58 98
REMARK H PARENT 5 19 82 51 50 62
REMARK Flexibility Score: inf
ROOT
ATOM      1  C   UNL A   1      43.725  22.888  29.177  1.00  0.00     0.188 C 
ENDROOT
BRANCH   1   2
ATOM      2  O   UNL A   1      42.576  22.208  28.664  1.00  0.00    -0.377 OA
BRANCH   2   3
ATOM      3  C   UNL A   1      42.560  21.823  27.300  1.00  0.00     0.188 C 
BRANCH   3   4
ATOM      4  C   UNL A   1      41.528  20.731  26.964  1.00  0.00     0.188 C 
BRANCH   4   5
ATOM      5  O   UNL A   1      40.191  21.098  27.248  1.00  0.00    -0.376 OA
BRANCH   5   6
ATOM      6  C   UNL A   1      39.522  22.089  26.488  1.00  0.00     0.202 C 
BRANCH   6   7
ATOM      7  C   UNL A   1      38.332  21.812  25.548  1.00  0.00     0.261 C 
BRANCH   7   8
ATOM      8  O   UNL A   1      37.029  22.222  25.975  1.00  0.00    -0.460 OA
BRANCH   8   9
ATOM      9  C   UNL A   1      35.956  21.574  25.478  1.00  0.00     0.338 C 
ATOM     10  O   UNL A   1      35.903  20.418  25.107  1.00  0.00    -0.246 OA
BRANCH   9  11
ATOM     11  C   UNL A   1      34.782  22.462  25.654  1.00  0.00     0.066 A 
ATOM     12  C   UNL A   1      33.873  24.673  25.797  1.00  0.00     0.128 A 
ATOM     13  C   UNL A   1      34.979  23.847  25.668  1.00  0.00     0.062 A 
ATOM     14  N   UNL A   1      32.627  24.185  25.930  1.00  0.00    -0.219 NA
ATOM     15  C   UNL A   1      32.467  22.846  25.860  1.00  0.00     0.132 A 
ATOM     16  C   UNL A   1      33.493  21.940  25.718  1.00  0.00     0.057 A 
ATOM     17  Cl  UNL A   1      30.834  22.328  25.931  1.00  0.00    -0.062 Cl
BRANCH  12  18
ATOM     18  N   UNL A   1      33.974  26.072  25.733  1.00  0.00    -0.366 N 
ATOM     19  H   UNL A   1      34.854  26.502  25.639  1.00  0.00     0.162 HD
BRANCH  18  20
ATOM     20  C   UNL A   1      32.754  26.893  25.808  1.00  0.00     0.093 C 
ATOM     21  C   UNL A   1      31.600  28.291  27.626  1.00  0.00     0.014 C 
ATOM     22  C   UNL A   1      32.762  28.163  26.659  1.00  0.00    -0.008 C 
ATOM     23  C   UNL A   1      34.031  28.750  27.237  1.00  0.00     0.014 C 
ATOM     24  C   UNL A   1      32.554  28.233  25.137  1.00  0.00    -0.008 C 
ATOM     25  C   UNL A   1      31.175  28.599  24.633  1.00  0.00     0.014 C 
ATOM     26  C   UNL A   1      33.639  28.713  24.198  1.00  0.00     0.014 C 
ENDBRANCH  18  20
ENDBRANCH  12  18
ENDBRANCH   9  11
ENDBRANCH   8   9
ENDBRANCH   7   8
ENDBRANCH   6   7
ENDBRANCH   5   6
ENDBRANCH   4   5
ENDBRANCH   3   4
ENDBRANCH   2   3
ENDBRANCH   1   2
BRANCH   1  27
ATOM     27  C   UNL A   1      44.747  23.608  28.263  1.00  0.00     0.188 C 
BRANCH  27  28
ATOM     28  O   UNL A   1      44.482  24.988  28.045  1.00  0.00    -0.376 OA
BRANCH  28  29
ATOM     29  C   UNL A   1      43.882  25.373  26.823  1.00  0.00     0.202 C 
BRANCH  29  30
ATOM     30  C   UNL A   1      42.361  25.572  26.847  1.00  0.00     0.261 C 
BRANCH  30  31
ATOM     31  O   UNL A   1      41.731  25.438  28.128  1.00  0.00    -0.460 OA
BRANCH  31  32
ATOM     32  C   UNL A   1      40.611  26.168  28.344  1.00  0.00     0.338 C 
ATOM     33  O   UNL A   1      39.465  25.778  28.289  1.00  0.00    -0.246 OA
BRANCH  32  34
ATOM     34  C   UNL A   1      41.043  27.491  28.850  1.00  0.00     0.060 A 
ATOM     35  C   UNL A   1      41.870  27.556  29.978  1.00  0.00     0.016 A 
ATOM     36  C   UNL A   1      40.649  28.658  28.192  1.00  0.00     0.016 A 
ATOM     37  C   UNL A   1      42.287  28.796  30.466  1.00  0.00     0.010 A 
ATOM     38  C   UNL A   1      41.051  29.899  28.694  1.00  0.00     0.010 A 
ATOM     39  C   UNL A   1      41.851  29.976  29.849  1.00  0.00    -0.014 A 
BRANCH  39  40
ATOM     40  C   UNL A   1      42.079  31.291  30.501  1.00  0.00     0.031 A 
ATOM     41  C   UNL A   1      43.346  32.035  30.180  1.00  0.00     0.074 A 
ATOM     42  C   UNL A   1      41.184  31.811  31.361  1.00  0.00     0.049 A 
ATOM     43  N   UNL A   1      43.811  33.144  30.691  1.00  0.00    -0.248 NA
ATOM     44  C   UNL A   1      44.208  31.438  29.146  1.00  0.00     0.031 C 
ATOM     45  C   UNL A   1      39.901  31.207  31.713  1.00  0.00     0.029 A 
ATOM     46  N   UNL A   1      41.229  32.963  32.109  1.00  0.00    -0.354 N 
ATOM     47  C   UNL A   1      45.027  33.373  30.054  1.00  0.00     0.074 A 
ATOM     48  C   UNL A   1      45.237  32.273  29.138  1.00  0.00     0.031 C 
ATOM     49  C   UNL A   1      39.289  31.983  32.626  1.00  0.00     0.029 A 
ATOM     50  C   UNL A   1      40.157  33.112  32.959  1.00  0.00     0.049 A 
ATOM     51  H   UNL A   1      41.959  33.620  32.043  1.00  0.00     0.167 HD
ATOM     52  C   UNL A   1      45.887  34.406  30.222  1.00  0.00     0.034 A 
ATOM     53  C   UNL A   1      39.924  34.029  33.923  1.00  0.00     0.034 A 
ATOM     54  C   UNL A   1      45.665  35.490  31.145  1.00  0.00     0.049 A 
ATOM     55  C   UNL A   1      40.942  35.125  34.151  1.00  0.00     0.074 A 
ATOM     56  C   UNL A   1      46.455  36.605  31.366  1.00  0.00     0.029 A 
ATOM     57  N   UNL A   1      44.586  35.590  32.015  1.00  0.00    -0.354 N 
ATOM     58  N   UNL A   1      42.077  35.345  33.525  1.00  0.00    -0.248 NA
ATOM     59  C   UNL A   1      40.648  36.099  35.212  1.00  0.00     0.031 C 
ATOM     60  C   UNL A   1      45.904  37.327  32.429  1.00  0.00     0.029 A 
ATOM     61  C   UNL A   1      44.717  36.720  32.806  1.00  0.00     0.049 A 
ATOM     62  H   UNL A   1      43.838  34.951  32.062  1.00  0.00     0.167 HD
ATOM     63  C   UNL A   1      42.610  36.500  34.096  1.00  0.00     0.074 A 
ATOM     64  C   UNL A   1      41.667  36.938  35.103  1.00  0.00     0.031 C 
ATOM     65  C   UNL A   1      43.772  37.144  33.812  1.00  0.00     0.034 A 
BRANCH  52  66
ATOM     66  C   UNL A   1      47.177  34.380  29.439  1.00  0.00     0.023 A 
ATOM     67  C   UNL A   1      47.308  35.009  28.190  1.00  0.00     0.031 A 
ATOM     68  C   UNL A   1      48.299  33.709  29.960  1.00  0.00     0.131 A 
ATOM     69  C   UNL A   1      48.515  34.911  27.480  1.00  0.00     0.055 A 
ATOM     70  C   UNL A   1      49.520  33.681  29.286  1.00  0.00     0.041 A 
ATOM     71  F   UNL A   1      48.226  33.065  31.136  1.00  0.00    -0.206 F 
ATOM     72  C   UNL A   1      49.631  34.275  28.032  1.00  0.00     0.022 A 
BRANCH  69  73
ATOM     73  S   UNL A   1      48.571  35.515  25.772  1.00  0.00     0.124 S 
ATOM     74  O   UNL A   1      47.150  35.617  25.447  1.00  0.00    -0.237 OA
ATOM     75  O   UNL A   1      49.287  36.779  25.907  1.00  0.00    -0.237 OA
ATOM     76  O   UNL A   1      49.291  34.463  25.058  1.00  0.00    -0.744 OA
ENDBRANCH  69  73
ENDBRANCH  52  66
BRANCH  53  77
ATOM     77  C   UNL A   1      38.717  33.927  34.798  1.00  0.00     0.023 A 
ATOM     78  C   UNL A   1      38.810  33.475  36.124  1.00  0.00     0.031 A 
ATOM     79  C   UNL A   1      37.434  34.203  34.289  1.00  0.00     0.131 A 
ATOM     80  C   UNL A   1      37.642  33.257  36.874  1.00  0.00     0.055 A 
ATOM     81  C   UNL A   1      36.281  34.049  35.062  1.00  0.00     0.041 A 
ATOM     82  F   UNL A   1      37.281  34.629  33.025  1.00  0.00    -0.206 F 
ATOM     83  C   UNL A   1      36.381  33.556  36.358  1.00  0.00     0.022 A 
BRANCH  80  84
ATOM     84  S   UNL A   1      37.790  32.460  38.498  1.00  0.00     0.124 S 
ATOM     85  O   UNL A   1      39.220  32.182  38.563  1.00  0.00    -0.237 OA
ATOM     86  O   UNL A   1      37.296  33.501  39.392  1.00  0.00    -0.237 OA
ATOM     87  O   UNL A   1      36.930  31.283  38.378  1.00  0.00    -0.744 OA
ENDBRANCH  80  84
ENDBRANCH  53  77
BRANCH  65  88
ATOM     88  C   UNL A   1      44.063  38.421  34.565  1.00  0.00     0.023 A 
ATOM     89  C   UNL A   1      43.550  39.663  34.152  1.00  0.00     0.031 A 
ATOM     90  C   UNL A   1      44.862  38.391  35.723  1.00  0.00     0.131 A 
ATOM     91  C   UNL A   1      43.883  40.829  34.859  1.00  0.00     0.055 A 
ATOM     92  C   UNL A   1      45.134  39.542  36.463  1.00  0.00     0.041 A 
ATOM     93  F   UNL A   1      45.383  37.234  36.164  1.00  0.00    -0.206 F 
ATOM     94  C   UNL A   1      44.654  40.773  36.025  1.00  0.00     0.022 A 
BRANCH  91  95
ATOM     95  S   UNL A   1      43.376  42.435  34.186  1.00  0.00     0.124 S 
ATOM     96  O   UNL A   1      42.574  42.039  33.033  1.00  0.00    -0.237 OA
ATOM     97  O   UNL A   1      42.642  43.024  35.301  1.00  0.00    -0.237 OA
ATOM     98  O   UNL A   1      44.644  43.088  33.865  1.00  0.00    -0.744 OA
ENDBRANCH  91  95
ENDBRANCH  65  88
ENDBRANCH  39  40
ENDBRANCH  32  34
ENDBRANCH  31  32
ENDBRANCH  30  31
ENDBRANCH  29  30
ENDBRANCH  28  29
ENDBRANCH  27  28
ENDBRANCH   1  27
TORSDOF 25
ENDMDL
MODEL 3
REMARK VINA RESULT:      -8.6      5.775     10.257
REMARK SMILES CC1(C)C(Nc2cc(C(=O)OCCOCCOCCOCCOC(=O)c3ccc(-c4c5nc(c(-c6cc(S(=O)(=O)[O-])ccc6F)c6ccc([nH]6)c(-c6cc(S(=O)(=O)[O-])ccc6F)c6nc(c(-c7cc(S(=O)(=O)[O-])ccc7F)c7ccc4[nH]7)C=C6)C=C5)cc3)cc(Cl)n2)C1(C)C
REMARK SMILES IDX 18 1 17 2 16 3 15 4 14 5 13 6 12 7 11 8 9 9 10 10 8 11 6 12
REMARK SMILES IDX 7 13 92 14 90 15 89 16 91 17 5 18 4 20 1 21 2 22 3 23 93 24
REMARK SMILES IDX 94 25 95 26 19 27 20 28 21 29 22 30 23 31 24 32 25 33 26 34
REMARK SMILES IDX 27 35 88 36 28 37 87 38 29 39 30 40 31 41 81 42 32 43 86 44
REMARK SMILES IDX 80 45 82 46 33 47 85 48 79 49 78 50 34 52 66 53 46 54 65 55
REMARK SMILES IDX 47 56 50 57 64 58 83 59 48 60 49 61 63 63 84 64 51 65 35 66
REMARK SMILES IDX 36 67 44 68 37 69 43 70 45 71 42 72 38 73 39 74 40 75 41 76
REMARK SMILES IDX 67 77 68 78 76 79 69 80 75 81 77 82 74 83 70 84 71 85 72 86
REMARK SMILES IDX 73 87 52 88 53 89 61 90 54 91 60 92 62 93 59 94 55 95 56 96
REMARK SMILES IDX 57 97 58 98
REMARK H PARENT 5 19 82 51 50 62
REMARK Flexibility Score: inf
ROOT
ATOM      1  C   UNL A   1      35.802  32.418  30.336  1.00  0.00     0.188 C 
ENDROOT
BRANCH   1   2
ATOM      2  O   UNL A   1      36.963  32.782  29.585  1.00  0.00    -0.377 OA
BRANCH   2   3
ATOM      3  C   UNL A   1      37.612  31.794  28.804  1.00  0.00     0.188 C 
BRANCH   3   4
ATOM      4  C   UNL A   1      36.652  30.818  28.097  1.00  0.00     0.188 C 
BRANCH   4   5
ATOM      5  O   UNL A   1      36.773  29.477  28.534  1.00  0.00    -0.376 OA
BRANCH   5   6
ATOM      6  C   UNL A   1      37.980  28.755  28.367  1.00  0.00     0.202 C 
BRANCH   6   7
ATOM      7  C   UNL A   1      38.757  28.074  29.511  1.00  0.00     0.261 C 
BRANCH   7   8
ATOM      8  O   UNL A   1      39.521  26.905  29.203  1.00  0.00    -0.460 OA
BRANCH   8   9
ATOM      9  C   UNL A   1      39.932  26.721  27.932  1.00  0.00     0.338 C 
ATOM     10  O   UNL A   1      40.343  27.567  27.162  1.00  0.00    -0.246 OA
BRANCH   9  11
ATOM     11  C   UNL A   1      39.991  25.259  27.693  1.00  0.00     0.066 A 
ATOM     12  C   UNL A   1      38.974  23.268  26.831  1.00  0.00     0.128 A 
ATOM     13  C   UNL A   1      38.899  24.630  27.084  1.00  0.00     0.062 A 
ATOM     14  N   UNL A   1      40.050  22.536  27.171  1.00  0.00    -0.219 NA
ATOM     15  C   UNL A   1      41.106  23.184  27.708  1.00  0.00     0.132 A 
ATOM     16  C   UNL A   1      41.141  24.531  27.985  1.00  0.00     0.057 A 
ATOM     17  Cl  UNL A   1      42.467  22.184  28.006  1.00  0.00    -0.062 Cl
BRANCH  12  18
ATOM     18  N   UNL A   1      37.961  22.579  26.147  1.00  0.00    -0.366 N 
ATOM     19  H   UNL A   1      37.915  21.597  26.187  1.00  0.00     0.162 HD
BRANCH  18  20
ATOM     20  C   UNL A   1      36.968  23.335  25.366  1.00  0.00     0.093 C 
ATOM     21  C   UNL A   1      35.777  23.007  23.115  1.00  0.00     0.014 C 
ATOM     22  C   UNL A   1      35.915  22.572  24.561  1.00  0.00    -0.008 C 
ATOM     23  C   UNL A   1      35.690  21.084  24.716  1.00  0.00     0.014 C 
ATOM     24  C   UNL A   1      35.507  23.495  25.722  1.00  0.00    -0.008 C 
ATOM     25  C   UNL A   1      34.808  24.792  25.375  1.00  0.00     0.014 C 
ATOM     26  C   UNL A   1      35.051  22.953  27.059  1.00  0.00     0.014 C 
ENDBRANCH  18  20
ENDBRANCH  12  18
ENDBRANCH   9  11
ENDBRANCH   8   9
ENDBRANCH   7   8
ENDBRANCH   6   7
ENDBRANCH   5   6
ENDBRANCH   4   5
ENDBRANCH   3   4
ENDBRANCH   2   3
ENDBRANCH   1   2
BRANCH   1  27
ATOM     27  C   UNL A   1      35.176  33.343  31.410  1.00  0.00     0.188 C 
BRANCH  27  28
ATOM     28  O   UNL A   1      36.022  34.395  31.854  1.00  0.00    -0.376 OA
BRANCH  28  29
ATOM     29  C   UNL A   1      36.306  34.491  33.237  1.00  0.00     0.202 C 
BRANCH  29  30
ATOM     30  C   UNL A   1      37.598  33.812  33.713  1.00  0.00     0.261 C 
BRANCH  30  31
ATOM     31  O   UNL A   1      38.162  32.843  32.820  1.00  0.00    -0.460 OA
BRANCH  31  32
ATOM     32  C   UNL A   1      37.918  31.538  33.092  1.00  0.00     0.338 C 
ATOM     33  O   UNL A   1      36.843  31.034  33.337  1.00  0.00    -0.246 OA
BRANCH  32  34
ATOM     34  C   UNL A   1      39.176  30.797  32.848  1.00  0.00     0.060 A 
ATOM     35  C   UNL A   1      39.223  29.423  33.114  1.00  0.00     0.016 A 
ATOM     36  C   UNL A   1      40.293  31.459  32.335  1.00  0.00     0.016 A 
ATOM     37  C   UNL A   1      40.403  28.710  32.889  1.00  0.00     0.010 A 
ATOM     38  C   UNL A   1      41.478  30.747  32.128  1.00  0.00     0.010 A 
ATOM     39  C   UNL A   1      41.547  29.374  32.428  1.00  0.00    -0.014 A 
BRANCH  39  40
ATOM     40  C   UNL A   1      42.863  28.684  32.424  1.00  0.00     0.031 A 
ATOM     41  C   UNL A   1      43.670  28.684  33.693  1.00  0.00     0.074 A 
ATOM     42  C   UNL A   1      43.333  28.076  31.319  1.00  0.00     0.049 A 
ATOM     43  N   UNL A   1      44.879  28.237  33.910  1.00  0.00    -0.248 NA
ATOM     44  C   UNL A   1      43.025  29.277  34.876  1.00  0.00     0.031 C 
ATOM     45  C   UNL A   1      42.622  27.970  30.046  1.00  0.00     0.029 A 
ATOM     46  N   UNL A   1      44.532  27.447  31.087  1.00  0.00    -0.354 N 
ATOM     47  C   UNL A   1      45.148  28.507  35.248  1.00  0.00     0.074 A 
ATOM     48  C   UNL A   1      43.984  29.179  35.785  1.00  0.00     0.031 C 
ATOM     49  C   UNL A   1      43.408  27.333  29.160  1.00  0.00     0.029 A 
ATOM     50  C   UNL A   1      44.694  27.029  29.786  1.00  0.00     0.049 A 
ATOM     51  H   UNL A   1      45.211  27.307  31.785  1.00  0.00     0.167 HD
ATOM     52  C   UNL A   1      46.264  28.221  35.960  1.00  0.00     0.034 A 
ATOM     53  C   UNL A   1      45.770  26.502  29.163  1.00  0.00     0.034 A 
ATOM     54  C   UNL A   1      47.417  27.556  35.406  1.00  0.00     0.049 A 
ATOM     55  C   UNL A   1      47.036  26.271  29.959  1.00  0.00     0.074 A 
ATOM     56  C   UNL A   1      48.585  27.185  36.050  1.00  0.00     0.029 A 
ATOM     57  N   UNL A   1      47.560  27.180  34.077  1.00  0.00    -0.354 N 
ATOM     58  N   UNL A   1      47.270  26.508  31.230  1.00  0.00    -0.248 NA
ATOM     59  C   UNL A   1      48.183  25.699  29.238  1.00  0.00     0.031 C 
ATOM     60  C   UNL A   1      49.467  26.671  35.094  1.00  0.00     0.029 A 
ATOM     61  C   UNL A   1      48.814  26.627  33.872  1.00  0.00     0.049 A 
ATOM     62  H   UNL A   1      46.871  27.289  33.382  1.00  0.00     0.167 HD
ATOM     63  C   UNL A   1      48.577  26.082  31.464  1.00  0.00     0.074 A 
ATOM     64  C   UNL A   1      49.073  25.559  30.209  1.00  0.00     0.031 C 
ATOM     65  C   UNL A   1      49.301  26.115  32.613  1.00  0.00     0.034 A 
BRANCH  52  66
ATOM     66  C   UNL A   1      46.319  28.682  37.396  1.00  0.00     0.023 A 
ATOM     67  C   UNL A   1      45.931  27.855  38.463  1.00  0.00     0.031 A 
ATOM     68  C   UNL A   1      46.771  29.980  37.698  1.00  0.00     0.131 A 
ATOM     69  C   UNL A   1      45.954  28.351  39.776  1.00  0.00     0.055 A 
ATOM     70  C   UNL A   1      46.865  30.440  39.011  1.00  0.00     0.041 A 
ATOM     71  F   UNL A   1      47.127  30.825  36.718  1.00  0.00    -0.206 F 
ATOM     72  C   UNL A   1      46.444  29.628  40.060  1.00  0.00     0.022 A 
BRANCH  69  73
ATOM     73  S   UNL A   1      45.215  27.351  41.096  1.00  0.00     0.124 S 
ATOM     74  O   UNL A   1      46.353  27.156  41.992  1.00  0.00    -0.237 OA
ATOM     75  O   UNL A   1      44.153  28.220  41.593  1.00  0.00    -0.237 OA
ATOM     76  O   UNL A   1      44.763  26.146  40.404  1.00  0.00    -0.744 OA
ENDBRANCH  69  73
ENDBRANCH  52  66
BRANCH  53  77
ATOM     77  C   UNL A   1      45.739  26.215  27.696  1.00  0.00     0.023 A 
ATOM     78  C   UNL A   1      45.436  24.934  27.208  1.00  0.00     0.031 A 
ATOM     79  C   UNL A   1      46.096  27.205  26.761  1.00  0.00     0.131 A 
ATOM     80  C   UNL A   1      45.552  24.662  25.834  1.00  0.00     0.055 A 
ATOM     81  C   UNL A   1      46.145  26.946  25.391  1.00  0.00     0.041 A 
ATOM     82  F   UNL A   1      46.406  28.446  27.169  1.00  0.00    -0.206 F 
ATOM     83  C   UNL A   1      45.888  25.662  24.922  1.00  0.00     0.022 A 
BRANCH  80  84
ATOM     84  S   UNL A   1      45.374  22.945  25.271  1.00  0.00     0.124 S 
ATOM     85  O   UNL A   1      45.838  22.202  26.437  1.00  0.00    -0.237 OA
ATOM     86  O   UNL A   1      43.946  22.867  24.985  1.00  0.00    -0.237 OA
ATOM     87  O   UNL A   1      46.247  22.880  24.100  1.00  0.00    -0.744 OA
ENDBRANCH  80  84
ENDBRANCH  53  77
BRANCH  65  88
ATOM     88  C   UNL A   1      50.690  25.521  32.578  1.00  0.00     0.023 A 
ATOM     89  C   UNL A   1      50.921  24.152  32.801  1.00  0.00     0.031 A 
ATOM     90  C   UNL A   1      51.801  26.341  32.307  1.00  0.00     0.131 A 
ATOM     91  C   UNL A   1      52.234  23.655  32.801  1.00  0.00     0.055 A 
ATOM     92  C   UNL A   1      53.097  25.830  32.240  1.00  0.00     0.041 A 
ATOM     93  F   UNL A   1      51.642  27.657  32.090  1.00  0.00    -0.206 F 
ATOM     94  C   UNL A   1      53.321  24.481  32.500  1.00  0.00     0.022 A 
BRANCH  91  95
ATOM     95  S   UNL A   1      52.516  21.932  33.292  1.00  0.00     0.124 S 
ATOM     96  O   UNL A   1      51.693  21.822  34.493  1.00  0.00    -0.237 OA
ATOM     97  O   UNL A   1      52.044  21.193  32.126  1.00  0.00    -0.237 OA
ATOM     98  O   UNL A   1      53.959  21.873  33.522  1.00  0.00    -0.744 OA
ENDBRANCH  91  95
ENDBRANCH  65  88
ENDBRANCH  39  40
ENDBRANCH  32  34
ENDBRANCH  31  32
ENDBRANCH  30  31
ENDBRANCH  29  30
ENDBRANCH  28  29
ENDBRANCH  27  28
ENDBRANCH   1  27
TORSDOF 25
ENDMDL
