MODEL 1
REMARK VINA RESULT:      -8.9      0.000      0.000
REMARK SMILES Cc1coc2cc3c(cc12)[C@@H](C)[C@H](CCC(=O)N[C@@H](Cc1c[nH]c2ccccc12)C(=O)OCCOCCOCCOCCOC(=O)c1ccc(-c2c4nc(c(-c5cc(S(=O)(=O)[O-])ccc5F)c5ccc([nH]5)c(-c5cc(S(=O)(=O)[O-])ccc5F)c5nc(c(-c6cc(S(=O)(=O)[O-])ccc6F)c6ccc2[nH]6)C=C5)C=C4)cc1)C(=O)O3
REMARK SMILES IDX 37 1 36 2 35 3 34 4 33 5 32 6 30 7 31 8 19 9 18 10 16 11
REMARK SMILES IDX 17 12 15 14 14 15 13 16 1 17 2 18 3 19 10 20 4 21 5 22 9 23
REMARK SMILES IDX 6 24 8 25 7 26 11 27 112 28 12 29 110 30 111 31 20 32 21 33
REMARK SMILES IDX 22 34 29 35 23 36 24 37 28 38 25 40 27 41 26 42 38 43 39 44
REMARK SMILES IDX 40 45 41 46 42 47 43 48 44 49 45 50 46 51 47 52 48 53 109 54
REMARK SMILES IDX 49 55 108 56 50 57 51 58 52 59 102 60 53 61 107 62 101 63
REMARK SMILES IDX 103 64 54 65 106 66 100 67 99 68 55 70 87 71 67 72 86 73
REMARK SMILES IDX 68 74 71 75 85 76 104 77 69 78 70 79 84 81 105 82 72 83
REMARK SMILES IDX 56 84 57 85 65 86 58 87 64 88 66 89 63 90 59 91 60 92 61 93
REMARK SMILES IDX 62 94 88 95 89 96 97 97 90 98 96 99 98 100 95 101 91 102
REMARK SMILES IDX 92 103 93 104 94 105 73 106 74 107 82 108 75 109 81 110
REMARK SMILES IDX 83 111 80 112 76 113 77 114 78 115 79 116
REMARK H PARENT 18 13 23 39 103 69 71 80
REMARK Flexibility Score: inf
ROOT
ATOM      1  C   UNL A   1      44.492  39.918  27.582  1.00  0.00     0.188 C 
ENDROOT
BRANCH   1   2
ATOM      2  C   UNL A   1      43.538  40.216  26.429  1.00  0.00     0.188 C 
BRANCH   2   3
ATOM      3  O   UNL A   1      43.518  41.530  25.897  1.00  0.00    -0.376 OA
BRANCH   3   4
ATOM      4  C   UNL A   1      42.661  41.804  24.768  1.00  0.00     0.202 C 
BRANCH   4   5
ATOM      5  C   UNL A   1      43.045  42.781  23.617  1.00  0.00     0.261 C 
BRANCH   5   6
ATOM      6  O   UNL A   1      43.084  42.247  22.284  1.00  0.00    -0.462 OA
BRANCH   6   7
ATOM      7  C   UNL A   1      42.386  42.859  21.295  1.00  0.00     0.329 C 
ATOM      8  O   UNL A   1      41.174  43.029  21.294  1.00  0.00    -0.250 OA
BRANCH   7   9
ATOM      9  C   UNL A   1      43.350  43.502  20.277  1.00  0.00     0.196 C 
BRANCH   9  10
ATOM     10  N   UNL A   1      44.788  42.901  20.142  1.00  0.00    -0.342 N 
ATOM     11  C   UNL A   1      46.080  43.146  19.694  1.00  0.00     0.220 C 
ATOM     12  O   UNL A   1      46.909  42.246  19.919  1.00  0.00    -0.275 OA
ATOM     13  H   UNL A   1      44.770  41.994  20.525  1.00  0.00     0.164 HD
BRANCH  11  14
ATOM     14  C   UNL A   1      46.656  44.327  18.840  1.00  0.00     0.101 C 
BRANCH  14  15
ATOM     15  C   UNL A   1      47.439  45.567  19.566  1.00  0.00     0.026 C 
BRANCH  15  16
ATOM     16  C   UNL A   1      48.145  45.271  20.959  1.00  0.00     0.107 C 
ATOM     17  C   UNL A   1      54.002  41.301  19.091  1.00  0.00     0.048 C 
ATOM     18  C   UNL A   1      53.224  42.344  18.392  1.00  0.00    -0.005 A 
ATOM     19  C   UNL A   1      53.515  42.886  17.155  1.00  0.00     0.199 A 
ATOM     20  C   UNL A   1      52.073  43.042  18.878  1.00  0.00     0.024 A 
ATOM     21  O   UNL A   1      52.661  43.889  16.854  1.00  0.00    -0.464 OA
ATOM     22  C   UNL A   1      51.845  44.033  17.928  1.00  0.00     0.137 A 
ATOM     23  C   UNL A   1      51.236  42.993  20.032  1.00  0.00     0.020 A 
ATOM     24  C   UNL A   1      50.973  45.083  18.113  1.00  0.00     0.095 A 
ATOM     25  C   UNL A   1      50.273  43.989  20.211  1.00  0.00    -0.001 A 
ATOM     26  C   UNL A   1      50.343  45.058  19.354  1.00  0.00     0.138 A 
ATOM     27  C   UNL A   1      49.244  44.152  21.315  1.00  0.00     0.034 C 
ATOM     28  O   UNL A   1      49.952  46.271  19.976  1.00  0.00    -0.426 OA
ATOM     29  C   UNL A   1      50.002  44.564  22.620  1.00  0.00     0.014 C 
ATOM     30  C   UNL A   1      49.004  46.433  20.999  1.00  0.00     0.314 C 
ATOM     31  O   UNL A   1      48.812  47.432  21.688  1.00  0.00    -0.251 OA
ENDBRANCH  15  16
ENDBRANCH  14  15
ENDBRANCH  11  14
ENDBRANCH   9  10
BRANCH   9  32
ATOM     32  C   UNL A   1      42.476  43.788  18.999  1.00  0.00     0.074 C 
BRANCH  32  33
ATOM     33  C   UNL A   1      42.471  44.993  18.068  1.00  0.00    -0.020 A 
ATOM     34  C   UNL A   1      41.572  44.975  17.006  1.00  0.00     0.087 A 
ATOM     35  C   UNL A   1      43.132  46.278  17.967  1.00  0.00     0.003 A 
ATOM     36  N   UNL A   1      41.719  46.089  16.237  1.00  0.00    -0.361 N 
ATOM     37  C   UNL A   1      42.637  46.925  16.818  1.00  0.00     0.046 A 
ATOM     38  C   UNL A   1      44.103  46.993  18.702  1.00  0.00     0.010 A 
ATOM     39  H   UNL A   1      41.240  46.267  15.395  1.00  0.00     0.166 HD
ATOM     40  C   UNL A   1      43.061  48.191  16.384  1.00  0.00     0.026 A 
ATOM     41  C   UNL A   1      44.515  48.277  18.301  1.00  0.00     0.001 A 
ATOM     42  C   UNL A   1      44.009  48.863  17.149  1.00  0.00     0.002 A 
ENDBRANCH  32  33
ENDBRANCH   9  32
ENDBRANCH   7   9
ENDBRANCH   6   7
ENDBRANCH   5   6
ENDBRANCH   4   5
ENDBRANCH   3   4
ENDBRANCH   2   3
ENDBRANCH   1   2
BRANCH   1  43
ATOM     43  O   UNL A   1      44.947  38.581  27.570  1.00  0.00    -0.377 OA
BRANCH  43  44
ATOM     44  C   UNL A   1      45.423  38.171  26.308  1.00  0.00     0.188 C 
BRANCH  44  45
ATOM     45  C   UNL A   1      46.941  38.181  26.101  1.00  0.00     0.188 C 
BRANCH  45  46
ATOM     46  O   UNL A   1      47.665  37.631  27.186  1.00  0.00    -0.376 OA
BRANCH  46  47
ATOM     47  C   UNL A   1      48.662  38.461  27.775  1.00  0.00     0.202 C 
BRANCH  47  48
ATOM     48  C   UNL A   1      48.981  38.452  29.298  1.00  0.00     0.261 C 
BRANCH  48  49
ATOM     49  O   UNL A   1      48.028  37.828  30.188  1.00  0.00    -0.460 OA
BRANCH  49  50
ATOM     50  C   UNL A   1      48.277  36.660  30.826  1.00  0.00     0.338 C 
ATOM     51  O   UNL A   1      49.268  36.405  31.486  1.00  0.00    -0.246 OA
BRANCH  50  52
ATOM     52  C   UNL A   1      46.974  35.897  30.861  1.00  0.00     0.060 A 
ATOM     53  C   UNL A   1      46.553  35.192  31.997  1.00  0.00     0.016 A 
ATOM     54  C   UNL A   1      46.426  35.554  29.608  1.00  0.00     0.016 A 
ATOM     55  C   UNL A   1      45.729  34.057  31.833  1.00  0.00     0.010 A 
ATOM     56  C   UNL A   1      45.621  34.408  29.449  1.00  0.00     0.010 A 
ATOM     57  C   UNL A   1      45.305  33.610  30.549  1.00  0.00    -0.014 A 
BRANCH  57  58
ATOM     58  C   UNL A   1      44.307  32.502  30.491  1.00  0.00     0.031 A 
ATOM     59  C   UNL A   1      42.979  33.026  30.898  1.00  0.00     0.074 A 
ATOM     60  C   UNL A   1      44.334  31.231  30.010  1.00  0.00     0.049 A 
ATOM     61  N   UNL A   1      42.303  32.755  31.964  1.00  0.00    -0.248 NA
ATOM     62  C   UNL A   1      42.466  34.159  30.112  1.00  0.00     0.031 C 
ATOM     63  C   UNL A   1      45.387  30.580  29.232  1.00  0.00     0.029 A 
ATOM     64  N   UNL A   1      43.355  30.251  30.052  1.00  0.00    -0.354 N 
ATOM     65  C   UNL A   1      41.175  33.564  31.889  1.00  0.00     0.074 A 
ATOM     66  C   UNL A   1      41.443  34.543  30.867  1.00  0.00     0.031 C 
ATOM     67  C   UNL A   1      44.930  29.406  28.730  1.00  0.00     0.029 A 
ATOM     68  C   UNL A   1      43.573  29.165  29.200  1.00  0.00     0.049 A 
ATOM     69  H   UNL A   1      42.566  30.315  30.639  1.00  0.00     0.167 HD
ATOM     70  C   UNL A   1      40.006  33.226  32.496  1.00  0.00     0.034 A 
ATOM     71  C   UNL A   1      42.700  28.183  28.822  1.00  0.00     0.034 A 
ATOM     72  C   UNL A   1      40.202  32.218  33.504  1.00  0.00     0.049 A 
ATOM     73  C   UNL A   1      41.561  28.147  29.759  1.00  0.00     0.074 A 
ATOM     74  C   UNL A   1      40.958  32.127  34.657  1.00  0.00     0.029 A 
ATOM     75  N   UNL A   1      39.830  30.934  33.198  1.00  0.00    -0.354 N 
ATOM     76  N   UNL A   1      41.610  27.672  30.966  1.00  0.00    -0.248 NA
ATOM     77  C   UNL A   1      40.422  28.999  29.463  1.00  0.00     0.031 C 
ATOM     78  C   UNL A   1      41.380  30.770  34.724  1.00  0.00     0.029 A 
ATOM     79  C   UNL A   1      40.813  30.090  33.645  1.00  0.00     0.049 A 
ATOM     80  H   UNL A   1      39.001  30.664  32.739  1.00  0.00     0.167 HD
ATOM     81  C   UNL A   1      40.852  28.566  31.697  1.00  0.00     0.074 A 
ATOM     82  C   UNL A   1      40.043  29.280  30.710  1.00  0.00     0.031 C 
ATOM     83  C   UNL A   1      41.171  28.850  32.992  1.00  0.00     0.034 A 
BRANCH  70  84
ATOM     84  C   UNL A   1      38.663  33.555  31.893  1.00  0.00     0.023 A 
ATOM     85  C   UNL A   1      38.148  32.887  30.764  1.00  0.00     0.031 A 
ATOM     86  C   UNL A   1      37.759  34.395  32.570  1.00  0.00     0.131 A 
ATOM     87  C   UNL A   1      36.835  33.077  30.322  1.00  0.00     0.055 A 
ATOM     88  C   UNL A   1      36.420  34.523  32.178  1.00  0.00     0.041 A 
ATOM     89  F   UNL A   1      38.133  35.064  33.671  1.00  0.00    -0.206 F 
ATOM     90  C   UNL A   1      35.952  33.866  31.046  1.00  0.00     0.022 A 
BRANCH  87  91
ATOM     91  S   UNL A   1      36.266  32.281  28.794  1.00  0.00     0.124 S 
ATOM     92  O   UNL A   1      35.964  33.432  27.951  1.00  0.00    -0.237 OA
ATOM     93  O   UNL A   1      37.442  31.505  28.413  1.00  0.00    -0.237 OA
ATOM     94  O   UNL A   1      35.117  31.490  29.227  1.00  0.00    -0.744 OA
ENDBRANCH  87  91
ENDBRANCH  70  84
BRANCH  71  95
ATOM     95  C   UNL A   1      42.541  27.554  27.478  1.00  0.00     0.023 A 
ATOM     96  C   UNL A   1      43.092  26.285  27.262  1.00  0.00     0.031 A 
ATOM     97  C   UNL A   1      42.214  28.311  26.331  1.00  0.00     0.131 A 
ATOM     98  C   UNL A   1      43.393  25.844  25.967  1.00  0.00     0.055 A 
ATOM     99  C   UNL A   1      42.489  27.857  25.031  1.00  0.00     0.041 A 
ATOM    100  F   UNL A   1      41.708  29.549  26.445  1.00  0.00    -0.206 F 
ATOM    101  C   UNL A   1      43.105  26.623  24.847  1.00  0.00     0.022 A 
BRANCH  98 102
ATOM    102  S   UNL A   1      44.293  24.287  25.748  1.00  0.00     0.124 S 
ATOM    103  O   UNL A   1      44.819  24.039  27.087  1.00  0.00    -0.237 OA
ATOM    104  O   UNL A   1      43.229  23.392  25.310  1.00  0.00    -0.237 OA
ATOM    105  O   UNL A   1      45.300  24.618  24.742  1.00  0.00    -0.744 OA
ENDBRANCH  98 102
ENDBRANCH  71  95
BRANCH  83 106
ATOM    106  C   UNL A   1      42.154  27.952  33.712  1.00  0.00     0.023 A 
ATOM    107  C   UNL A   1      41.622  27.091  34.689  1.00  0.00     0.031 A 
ATOM    108  C   UNL A   1      43.559  28.026  33.612  1.00  0.00     0.131 A 
ATOM    109  C   UNL A   1      42.468  26.379  35.545  1.00  0.00     0.055 A 
ATOM    110  C   UNL A   1      44.399  27.237  34.407  1.00  0.00     0.041 A 
ATOM    111  F   UNL A   1      44.166  28.911  32.808  1.00  0.00    -0.206 F 
ATOM    112  C   UNL A   1      43.855  26.420  35.390  1.00  0.00     0.022 A 
BRANCH 109 113
ATOM    113  S   UNL A   1      41.787  25.534  36.992  1.00  0.00     0.124 S 
ATOM    114  O   UNL A   1      41.394  24.240  36.444  1.00  0.00    -0.237 OA
ATOM    115  O   UNL A   1      42.935  25.516  37.900  1.00  0.00    -0.237 OA
ATOM    116  O   UNL A   1      40.688  26.392  37.423  1.00  0.00    -0.744 OA
ENDBRANCH 109 113
ENDBRANCH  83 106
ENDBRANCH  57  58
ENDBRANCH  50  52
ENDBRANCH  49  50
ENDBRANCH  48  49
ENDBRANCH  47  48
ENDBRANCH  46  47
ENDBRANCH  45  46
ENDBRANCH  44  45
ENDBRANCH  43  44
ENDBRANCH   1  43
TORSDOF 29
ENDMDL
MODEL 2
REMARK VINA RESULT:      -8.6      2.443      5.870
REMARK SMILES Cc1coc2cc3c(cc12)[C@@H](C)[C@H](CCC(=O)N[C@@H](Cc1c[nH]c2ccccc12)C(=O)OCCOCCOCCOCCOC(=O)c1ccc(-c2c4nc(c(-c5cc(S(=O)(=O)[O-])ccc5F)c5ccc([nH]5)c(-c5cc(S(=O)(=O)[O-])ccc5F)c5nc(c(-c6cc(S(=O)(=O)[O-])ccc6F)c6ccc2[nH]6)C=C5)C=C4)cc1)C(=O)O3
REMARK SMILES IDX 37 1 36 2 35 3 34 4 33 5 32 6 30 7 31 8 19 9 18 10 16 11
REMARK SMILES IDX 17 12 15 14 14 15 13 16 1 17 2 18 3 19 10 20 4 21 5 22 9 23
REMARK SMILES IDX 6 24 8 25 7 26 11 27 112 28 12 29 110 30 111 31 20 32 21 33
REMARK SMILES IDX 22 34 29 35 23 36 24 37 28 38 25 40 27 41 26 42 38 43 39 44
REMARK SMILES IDX 40 45 41 46 42 47 43 48 44 49 45 50 46 51 47 52 48 53 109 54
REMARK SMILES IDX 49 55 108 56 50 57 51 58 52 59 102 60 53 61 107 62 101 63
REMARK SMILES IDX 103 64 54 65 106 66 100 67 99 68 55 70 87 71 67 72 86 73
REMARK SMILES IDX 68 74 71 75 85 76 104 77 69 78 70 79 84 81 105 82 72 83
REMARK SMILES IDX 56 84 57 85 65 86 58 87 64 88 66 89 63 90 59 91 60 92 61 93
REMARK SMILES IDX 62 94 88 95 89 96 97 97 90 98 96 99 98 100 95 101 91 102
REMARK SMILES IDX 92 103 93 104 94 105 73 106 74 107 82 108 75 109 81 110
REMARK SMILES IDX 83 111 80 112 76 113 77 114 78 115 79 116
REMARK H PARENT 18 13 23 39 103 69 71 80
REMARK Flexibility Score: inf
ROOT
ATOM      1  C   UNL A   1      47.144  43.567  24.035  1.00  0.00     0.188 C 
ENDROOT
BRANCH   1   2
ATOM      2  C   UNL A   1      47.800  44.943  24.110  1.00  0.00     0.188 C 
BRANCH   2   3
ATOM      3  O   UNL A   1      48.361  45.485  22.926  1.00  0.00    -0.376 OA
BRANCH   3   4
ATOM      4  C   UNL A   1      47.910  44.976  21.653  1.00  0.00     0.202 C 
BRANCH   4   5
ATOM      5  C   UNL A   1      48.826  44.182  20.675  1.00  0.00     0.261 C 
BRANCH   5   6
ATOM      6  O   UNL A   1      50.199  44.592  20.577  1.00  0.00    -0.462 OA
BRANCH   6   7
ATOM      7  C   UNL A   1      51.066  43.862  19.833  1.00  0.00     0.329 C 
ATOM      8  O   UNL A   1      50.959  42.664  19.605  1.00  0.00    -0.250 OA
BRANCH   7   9
ATOM      9  C   UNL A   1      52.086  44.787  19.136  1.00  0.00     0.196 C 
BRANCH   9  10
ATOM     10  N   UNL A   1      51.558  45.779  18.049  1.00  0.00    -0.342 N 
ATOM     11  C   UNL A   1      50.464  46.122  17.266  1.00  0.00     0.220 C 
ATOM     12  O   UNL A   1      50.606  47.131  16.552  1.00  0.00    -0.275 OA
ATOM     13  H   UNL A   1      52.288  46.405  17.836  1.00  0.00     0.164 HD
BRANCH  11  14
ATOM     14  C   UNL A   1      49.101  45.382  17.037  1.00  0.00     0.101 C 
BRANCH  14  15
ATOM     15  C   UNL A   1      47.769  45.823  17.878  1.00  0.00     0.026 C 
BRANCH  15  16
ATOM     16  C   UNL A   1      46.763  46.835  17.178  1.00  0.00     0.107 C 
ATOM     17  C   UNL A   1      40.192  43.913  18.533  1.00  0.00     0.048 C 
ATOM     18  C   UNL A   1      41.478  43.884  19.257  1.00  0.00    -0.005 A 
ATOM     19  C   UNL A   1      41.706  43.306  20.492  1.00  0.00     0.199 A 
ATOM     20  C   UNL A   1      42.710  44.501  18.867  1.00  0.00     0.024 A 
ATOM     21  O   UNL A   1      42.968  43.549  20.913  1.00  0.00    -0.464 OA
ATOM     22  C   UNL A   1      43.543  44.335  19.969  1.00  0.00     0.137 A 
ATOM     23  C   UNL A   1      43.199  45.226  17.740  1.00  0.00     0.020 A 
ATOM     24  C   UNL A   1      44.751  44.979  20.117  1.00  0.00     0.095 A 
ATOM     25  C   UNL A   1      44.463  45.818  17.815  1.00  0.00    -0.001 A 
ATOM     26  C   UNL A   1      45.056  45.821  19.053  1.00  0.00     0.138 A 
ATOM     27  C   UNL A   1      45.226  46.604  16.765  1.00  0.00     0.034 C 
ATOM     28  O   UNL A   1      45.843  46.981  19.267  1.00  0.00    -0.426 OA
ATOM     29  C   UNL A   1      44.519  47.990  16.595  1.00  0.00     0.014 C 
ATOM     30  C   UNL A   1      46.550  47.718  18.303  1.00  0.00     0.314 C 
ATOM     31  O   UNL A   1      47.053  48.831  18.435  1.00  0.00    -0.251 OA
ENDBRANCH  15  16
ENDBRANCH  14  15
ENDBRANCH  11  14
ENDBRANCH   9  10
BRANCH   9  32
ATOM     32  C   UNL A   1      53.045  45.286  20.281  1.00  0.00     0.074 C 
BRANCH  32  33
ATOM     33  C   UNL A   1      53.046  44.955  21.767  1.00  0.00    -0.020 A 
ATOM     34  C   UNL A   1      53.669  43.773  22.158  1.00  0.00     0.087 A 
ATOM     35  C   UNL A   1      52.606  45.564  23.006  1.00  0.00     0.003 A 
ATOM     36  N   UNL A   1      53.545  43.589  23.501  1.00  0.00    -0.361 N 
ATOM     37  C   UNL A   1      52.935  44.684  24.055  1.00  0.00     0.046 A 
ATOM     38  C   UNL A   1      51.960  46.759  23.388  1.00  0.00     0.010 A 
ATOM     39  H   UNL A   1      53.847  42.794  23.997  1.00  0.00     0.166 HD
ATOM     40  C   UNL A   1      52.645  44.929  25.407  1.00  0.00     0.026 A 
ATOM     41  C   UNL A   1      51.692  47.038  24.741  1.00  0.00     0.001 A 
ATOM     42  C   UNL A   1      52.019  46.127  25.737  1.00  0.00     0.002 A 
ENDBRANCH  32  33
ENDBRANCH   9  32
ENDBRANCH   7   9
ENDBRANCH   6   7
ENDBRANCH   5   6
ENDBRANCH   4   5
ENDBRANCH   3   4
ENDBRANCH   2   3
ENDBRANCH   1   2
BRANCH   1  43
ATOM     43  O   UNL A   1      45.828  43.572  24.548  1.00  0.00    -0.377 OA
BRANCH  43  44
ATOM     44  C   UNL A   1      45.264  42.283  24.632  1.00  0.00     0.188 C 
BRANCH  44  45
ATOM     45  C   UNL A   1      44.162  42.073  25.676  1.00  0.00     0.188 C 
BRANCH  45  46
ATOM     46  O   UNL A   1      44.546  42.444  26.987  1.00  0.00    -0.376 OA
BRANCH  46  47
ATOM     47  C   UNL A   1      44.872  41.383  27.881  1.00  0.00     0.202 C 
BRANCH  47  48
ATOM     48  C   UNL A   1      43.951  40.150  28.105  1.00  0.00     0.261 C 
BRANCH  48  49
ATOM     49  O   UNL A   1      44.564  38.841  28.138  1.00  0.00    -0.460 OA
BRANCH  49  50
ATOM     50  C   UNL A   1      45.306  38.405  29.185  1.00  0.00     0.338 C 
ATOM     51  O   UNL A   1      45.877  39.110  29.997  1.00  0.00    -0.246 OA
BRANCH  50  52
ATOM     52  C   UNL A   1      44.997  36.937  29.354  1.00  0.00     0.060 A 
ATOM     53  C   UNL A   1      44.765  36.092  28.259  1.00  0.00     0.016 A 
ATOM     54  C   UNL A   1      44.521  36.548  30.623  1.00  0.00     0.016 A 
ATOM     55  C   UNL A   1      43.922  34.972  28.423  1.00  0.00     0.010 A 
ATOM     56  C   UNL A   1      43.663  35.440  30.776  1.00  0.00     0.010 A 
ATOM     57  C   UNL A   1      43.305  34.667  29.671  1.00  0.00    -0.014 A 
BRANCH  57  58
ATOM     58  C   UNL A   1      42.565  33.377  29.785  1.00  0.00     0.031 A 
ATOM     59  C   UNL A   1      41.154  33.661  30.150  1.00  0.00     0.074 A 
ATOM     60  C   UNL A   1      42.861  32.087  29.475  1.00  0.00     0.049 A 
ATOM     61  N   UNL A   1      40.546  33.400  31.259  1.00  0.00    -0.248 NA
ATOM     62  C   UNL A   1      40.416  34.545  29.234  1.00  0.00     0.031 C 
ATOM     63  C   UNL A   1      44.031  31.572  28.764  1.00  0.00     0.029 A 
ATOM     64  N   UNL A   1      42.110  30.938  29.671  1.00  0.00    -0.354 N 
ATOM     65  C   UNL A   1      39.273  33.936  31.105  1.00  0.00     0.074 A 
ATOM     66  C   UNL A   1      39.332  34.803  29.956  1.00  0.00     0.031 C 
ATOM     67  C   UNL A   1      43.834  30.272  28.434  1.00  0.00     0.029 A 
ATOM     68  C   UNL A   1      42.556  29.818  28.964  1.00  0.00     0.049 A 
ATOM     69  H   UNL A   1      41.323  30.914  30.262  1.00  0.00     0.167 HD
ATOM     70  C   UNL A   1      38.200  33.447  31.780  1.00  0.00     0.034 A 
ATOM     71  C   UNL A   1      41.911  28.633  28.741  1.00  0.00     0.034 A 
ATOM     72  C   UNL A   1      38.600  32.647  32.907  1.00  0.00     0.049 A 
ATOM     73  C   UNL A   1      40.802  28.485  29.702  1.00  0.00     0.074 A 
ATOM     74  C   UNL A   1      39.353  32.872  34.044  1.00  0.00     0.029 A 
ATOM     75  N   UNL A   1      38.508  31.283  32.783  1.00  0.00    -0.354 N 
ATOM     76  N   UNL A   1      40.945  28.198  30.960  1.00  0.00    -0.248 NA
ATOM     77  C   UNL A   1      39.510  29.032  29.324  1.00  0.00     0.031 C 
ATOM     78  C   UNL A   1      40.052  31.655  34.279  1.00  0.00     0.029 A 
ATOM     79  C   UNL A   1      39.645  30.733  33.314  1.00  0.00     0.049 A 
ATOM     80  H   UNL A   1      37.757  30.787  32.384  1.00  0.00     0.167 HD
ATOM     81  C   UNL A   1      40.013  29.003  31.584  1.00  0.00     0.074 A 
ATOM     82  C   UNL A   1      39.076  29.392  30.531  1.00  0.00     0.031 C 
ATOM     83  C   UNL A   1      40.260  29.519  32.822  1.00  0.00     0.034 A 
BRANCH  70  84
ATOM     84  C   UNL A   1      36.819  33.402  31.172  1.00  0.00     0.023 A 
ATOM     85  C   UNL A   1      35.771  34.245  31.593  1.00  0.00     0.031 A 
ATOM     86  C   UNL A   1      36.577  32.668  29.997  1.00  0.00     0.131 A 
ATOM     87  C   UNL A   1      34.554  34.317  30.908  1.00  0.00     0.055 A 
ATOM     88  C   UNL A   1      35.391  32.801  29.263  1.00  0.00     0.041 A 
ATOM     89  F   UNL A   1      37.512  31.850  29.490  1.00  0.00    -0.206 F 
ATOM     90  C   UNL A   1      34.369  33.625  29.719  1.00  0.00     0.022 A 
BRANCH  87  91
ATOM     91  S   UNL A   1      33.200  35.330  31.564  1.00  0.00     0.124 S 
ATOM     92  O   UNL A   1      32.780  34.553  32.725  1.00  0.00    -0.237 OA
ATOM     93  O   UNL A   1      33.887  36.585  31.854  1.00  0.00    -0.237 OA
ATOM     94  O   UNL A   1      32.248  35.388  30.458  1.00  0.00    -0.744 OA
ENDBRANCH  87  91
ENDBRANCH  70  84
BRANCH  71  95
ATOM     95  C   UNL A   1      41.895  27.809  27.497  1.00  0.00     0.023 A 
ATOM     96  C   UNL A   1      42.154  26.437  27.597  1.00  0.00     0.031 A 
ATOM     97  C   UNL A   1      42.014  28.389  26.213  1.00  0.00     0.131 A 
ATOM     98  C   UNL A   1      42.608  25.709  26.488  1.00  0.00     0.055 A 
ATOM     99  C   UNL A   1      42.440  27.653  25.097  1.00  0.00     0.041 A 
ATOM    100  F   UNL A   1      41.811  29.704  26.032  1.00  0.00    -0.206 F 
ATOM    101  C   UNL A   1      42.763  26.308  25.238  1.00  0.00     0.022 A 
BRANCH  98 102
ATOM    102  S   UNL A   1      43.128  23.989  26.712  1.00  0.00     0.124 S 
ATOM    103  O   UNL A   1      42.855  23.406  25.401  1.00  0.00    -0.237 OA
ATOM    104  O   UNL A   1      44.536  24.151  27.052  1.00  0.00    -0.237 OA
ATOM    105  O   UNL A   1      42.264  23.513  27.790  1.00  0.00    -0.744 OA
ENDBRANCH  98 102
ENDBRANCH  71  95
BRANCH  83 106
ATOM    106  C   UNL A   1      41.407  28.952  33.631  1.00  0.00     0.023 A 
ATOM    107  C   UNL A   1      41.135  27.797  34.386  1.00  0.00     0.031 A 
ATOM    108  C   UNL A   1      42.659  29.572  33.825  1.00  0.00     0.131 A 
ATOM    109  C   UNL A   1      42.063  27.324  35.319  1.00  0.00     0.055 A 
ATOM    110  C   UNL A   1      43.621  29.037  34.689  1.00  0.00     0.041 A 
ATOM    111  F   UNL A   1      42.964  30.746  33.255  1.00  0.00    -0.206 F 
ATOM    112  C   UNL A   1      43.320  27.917  35.453  1.00  0.00     0.022 A 
BRANCH 109 113
ATOM    113  S   UNL A   1      41.582  26.046  36.505  1.00  0.00     0.124 S 
ATOM    114  O   UNL A   1      40.884  26.814  37.530  1.00  0.00    -0.237 OA
ATOM    115  O   UNL A   1      40.743  25.171  35.684  1.00  0.00    -0.237 OA
ATOM    116  O   UNL A   1      42.849  25.451  36.922  1.00  0.00    -0.744 OA
ENDBRANCH 109 113
ENDBRANCH  83 106
ENDBRANCH  57  58
ENDBRANCH  50  52
ENDBRANCH  49  50
ENDBRANCH  48  49
ENDBRANCH  47  48
ENDBRANCH  46  47
ENDBRANCH  45  46
ENDBRANCH  44  45
ENDBRANCH  43  44
ENDBRANCH   1  43
TORSDOF 29
ENDMDL
MODEL 3
REMARK VINA RESULT:      -8.4      2.133      3.251
REMARK SMILES Cc1coc2cc3c(cc12)[C@@H](C)[C@H](CCC(=O)N[C@@H](Cc1c[nH]c2ccccc12)C(=O)OCCOCCOCCOCCOC(=O)c1ccc(-c2c4nc(c(-c5cc(S(=O)(=O)[O-])ccc5F)c5ccc([nH]5)c(-c5cc(S(=O)(=O)[O-])ccc5F)c5nc(c(-c6cc(S(=O)(=O)[O-])ccc6F)c6ccc2[nH]6)C=C5)C=C4)cc1)C(=O)O3
REMARK SMILES IDX 37 1 36 2 35 3 34 4 33 5 32 6 30 7 31 8 19 9 18 10 16 11
REMARK SMILES IDX 17 12 15 14 14 15 13 16 1 17 2 18 3 19 10 20 4 21 5 22 9 23
REMARK SMILES IDX 6 24 8 25 7 26 11 27 112 28 12 29 110 30 111 31 20 32 21 33
REMARK SMILES IDX 22 34 29 35 23 36 24 37 28 38 25 40 27 41 26 42 38 43 39 44
REMARK SMILES IDX 40 45 41 46 42 47 43 48 44 49 45 50 46 51 47 52 48 53 109 54
REMARK SMILES IDX 49 55 108 56 50 57 51 58 52 59 102 60 53 61 107 62 101 63
REMARK SMILES IDX 103 64 54 65 106 66 100 67 99 68 55 70 87 71 67 72 86 73
REMARK SMILES IDX 68 74 71 75 85 76 104 77 69 78 70 79 84 81 105 82 72 83
REMARK SMILES IDX 56 84 57 85 65 86 58 87 64 88 66 89 63 90 59 91 60 92 61 93
REMARK SMILES IDX 62 94 88 95 89 96 97 97 90 98 96 99 98 100 95 101 91 102
REMARK SMILES IDX 92 103 93 104 94 105 73 106 74 107 82 108 75 109 81 110
REMARK SMILES IDX 83 111 80 112 76 113 77 114 78 115 79 116
REMARK H PARENT 18 13 23 39 103 69 71 80
REMARK Flexibility Score: inf
ROOT
ATOM      1  C   UNL A   1      44.195  39.625  27.879  1.00  0.00     0.188 C 
ENDROOT
BRANCH   1   2
ATOM      2  C   UNL A   1      43.394  39.965  26.626  1.00  0.00     0.188 C 
BRANCH   2   3
ATOM      3  O   UNL A   1      43.614  41.222  26.008  1.00  0.00    -0.376 OA
BRANCH   3   4
ATOM      4  C   UNL A   1      42.674  41.675  25.011  1.00  0.00     0.202 C 
BRANCH   4   5
ATOM      5  C   UNL A   1      43.044  42.675  23.876  1.00  0.00     0.261 C 
BRANCH   5   6
ATOM      6  O   UNL A   1      43.066  42.168  22.532  1.00  0.00    -0.462 OA
BRANCH   6   7
ATOM      7  C   UNL A   1      42.364  42.806  21.562  1.00  0.00     0.329 C 
ATOM      8  O   UNL A   1      41.171  43.074  21.622  1.00  0.00    -0.250 OA
BRANCH   7   9
ATOM      9  C   UNL A   1      43.317  43.337  20.470  1.00  0.00     0.196 C 
BRANCH   9  10
ATOM     10  N   UNL A   1      44.711  42.647  20.310  1.00  0.00    -0.342 N 
ATOM     11  C   UNL A   1      46.046  42.854  19.989  1.00  0.00     0.220 C 
ATOM     12  O   UNL A   1      46.787  41.859  20.091  1.00  0.00    -0.275 OA
ATOM     13  H   UNL A   1      44.596  41.691  20.517  1.00  0.00     0.164 HD
BRANCH  11  14
ATOM     14  C   UNL A   1      46.770  44.114  19.403  1.00  0.00     0.101 C 
BRANCH  14  15
ATOM     15  C   UNL A   1      47.699  45.057  20.366  1.00  0.00     0.026 C 
BRANCH  15  16
ATOM     16  C   UNL A   1      49.267  45.042  20.112  1.00  0.00     0.107 C 
ATOM     17  C   UNL A   1      51.973  48.485  25.976  1.00  0.00     0.048 C 
ATOM     18  C   UNL A   1      50.762  47.669  25.753  1.00  0.00    -0.005 A 
ATOM     19  C   UNL A   1      49.844  47.293  26.716  1.00  0.00     0.199 A 
ATOM     20  C   UNL A   1      50.340  47.054  24.531  1.00  0.00     0.024 A 
ATOM     21  O   UNL A   1      48.911  46.464  26.195  1.00  0.00    -0.464 OA
ATOM     22  C   UNL A   1      49.260  46.260  24.901  1.00  0.00     0.137 A 
ATOM     23  C   UNL A   1      50.778  47.029  23.174  1.00  0.00     0.020 A 
ATOM     24  C   UNL A   1      48.692  45.311  24.078  1.00  0.00     0.095 A 
ATOM     25  C   UNL A   1      50.164  46.146  22.282  1.00  0.00    -0.001 A 
ATOM     26  C   UNL A   1      49.313  45.222  22.837  1.00  0.00     0.138 A 
ATOM     27  C   UNL A   1      50.408  45.944  20.798  1.00  0.00     0.034 C 
ATOM     28  O   UNL A   1      49.337  43.987  22.141  1.00  0.00    -0.426 OA
ATOM     29  C   UNL A   1      51.797  45.243  20.631  1.00  0.00     0.014 C 
ATOM     30  C   UNL A   1      49.565  43.788  20.770  1.00  0.00     0.314 C 
ATOM     31  O   UNL A   1      49.798  42.727  20.197  1.00  0.00    -0.251 OA
ENDBRANCH  15  16
ENDBRANCH  14  15
ENDBRANCH  11  14
ENDBRANCH   9  10
BRANCH   9  32
ATOM     32  C   UNL A   1      42.403  43.606  19.216  1.00  0.00     0.074 C 
BRANCH  32  33
ATOM     33  C   UNL A   1      42.400  44.778  18.244  1.00  0.00    -0.020 A 
ATOM     34  C   UNL A   1      41.416  44.788  17.260  1.00  0.00     0.087 A 
ATOM     35  C   UNL A   1      43.134  46.010  18.041  1.00  0.00     0.003 A 
ATOM     36  N   UNL A   1      41.571  45.863  16.440  1.00  0.00    -0.361 N 
ATOM     37  C   UNL A   1      42.587  46.652  16.913  1.00  0.00     0.046 A 
ATOM     38  C   UNL A   1      44.207  46.680  18.667  1.00  0.00     0.010 A 
ATOM     39  H   UNL A   1      41.036  46.046  15.634  1.00  0.00     0.166 HD
ATOM     40  C   UNL A   1      43.056  47.872  16.397  1.00  0.00     0.026 A 
ATOM     41  C   UNL A   1      44.668  47.919  18.185  1.00  0.00     0.001 A 
ATOM     42  C   UNL A   1      44.107  48.501  17.056  1.00  0.00     0.002 A 
ENDBRANCH  32  33
ENDBRANCH   9  32
ENDBRANCH   7   9
ENDBRANCH   6   7
ENDBRANCH   5   6
ENDBRANCH   4   5
ENDBRANCH   3   4
ENDBRANCH   2   3
ENDBRANCH   1   2
BRANCH   1  43
ATOM     43  O   UNL A   1      44.406  38.235  28.020  1.00  0.00    -0.377 OA
BRANCH  43  44
ATOM     44  C   UNL A   1      44.814  37.615  26.822  1.00  0.00     0.188 C 
BRANCH  44  45
ATOM     45  C   UNL A   1      46.322  37.492  26.580  1.00  0.00     0.188 C 
BRANCH  45  46
ATOM     46  O   UNL A   1      47.064  37.218  27.755  1.00  0.00    -0.376 OA
BRANCH  46  47
ATOM     47  C   UNL A   1      47.896  38.266  28.244  1.00  0.00     0.202 C 
BRANCH  47  48
ATOM     48  C   UNL A   1      48.030  38.606  29.756  1.00  0.00     0.261 C 
BRANCH  48  49
ATOM     49  O   UNL A   1      47.037  38.074  30.663  1.00  0.00    -0.460 OA
BRANCH  49  50
ATOM     50  C   UNL A   1      47.316  37.111  31.572  1.00  0.00     0.338 C 
ATOM     51  O   UNL A   1      48.279  37.091  32.318  1.00  0.00    -0.246 OA
BRANCH  50  52
ATOM     52  C   UNL A   1      46.062  36.285  31.731  1.00  0.00     0.060 A 
ATOM     53  C   UNL A   1      45.742  35.638  32.933  1.00  0.00     0.016 A 
ATOM     54  C   UNL A   1      45.468  35.830  30.536  1.00  0.00     0.016 A 
ATOM     55  C   UNL A   1      44.975  34.454  32.890  1.00  0.00     0.010 A 
ATOM     56  C   UNL A   1      44.720  34.635  30.498  1.00  0.00     0.010 A 
ATOM     57  C   UNL A   1      44.508  33.899  31.664  1.00  0.00    -0.014 A 
BRANCH  57  58
ATOM     58  C   UNL A   1      43.573  32.738  31.735  1.00  0.00     0.031 A 
ATOM     59  C   UNL A   1      42.349  33.149  32.470  1.00  0.00     0.074 A 
ATOM     60  C   UNL A   1      43.545  31.510  31.153  1.00  0.00     0.049 A 
ATOM     61  N   UNL A   1      41.945  32.760  33.633  1.00  0.00    -0.248 NA
ATOM     62  C   UNL A   1      41.623  34.303  31.917  1.00  0.00     0.031 C 
ATOM     63  C   UNL A   1      44.421  30.983  30.108  1.00  0.00     0.029 A 
ATOM     64  N   UNL A   1      42.644  30.472  31.329  1.00  0.00    -0.354 N 
ATOM     65  C   UNL A   1      40.795  33.501  33.879  1.00  0.00     0.074 A 
ATOM     66  C   UNL A   1      40.782  34.567  32.910  1.00  0.00     0.031 C 
ATOM     67  C   UNL A   1      43.913  29.824  29.623  1.00  0.00     0.029 A 
ATOM     68  C   UNL A   1      42.710  29.467  30.360  1.00  0.00     0.049 A 
ATOM     69  H   UNL A   1      42.006  30.445  32.079  1.00  0.00     0.167 HD
ATOM     70  C   UNL A   1      39.810  33.050  34.700  1.00  0.00     0.034 A 
ATOM     71  C   UNL A   1      41.817  28.463  30.103  1.00  0.00     0.034 A 
ATOM     72  C   UNL A   1      40.273  31.984  35.549  1.00  0.00     0.049 A 
ATOM     73  C   UNL A   1      40.923  28.289  31.264  1.00  0.00     0.074 A 
ATOM     74  C   UNL A   1      41.273  31.856  36.493  1.00  0.00     0.029 A 
ATOM     75  N   UNL A   1      39.896  30.705  35.225  1.00  0.00    -0.354 N 
ATOM     76  N   UNL A   1      41.264  27.731  32.385  1.00  0.00    -0.248 NA
ATOM     77  C   UNL A   1      39.711  29.089  31.302  1.00  0.00     0.031 C 
ATOM     78  C   UNL A   1      41.758  30.525  36.349  1.00  0.00     0.029 A 
ATOM     79  C   UNL A   1      40.991  29.893  35.370  1.00  0.00     0.049 A 
ATOM     80  H   UNL A   1      38.998  30.420  34.941  1.00  0.00     0.167 HD
ATOM     81  C   UNL A   1      40.654  28.521  33.339  1.00  0.00     0.074 A 
ATOM     82  C   UNL A   1      39.612  29.254  32.620  1.00  0.00     0.031 C 
ATOM     83  C   UNL A   1      41.245  28.729  34.550  1.00  0.00     0.034 A 
BRANCH  70  84
ATOM     84  C   UNL A   1      38.352  33.339  34.441  1.00  0.00     0.023 A 
ATOM     85  C   UNL A   1      37.674  32.880  33.293  1.00  0.00     0.031 A 
ATOM     86  C   UNL A   1      37.541  33.892  35.448  1.00  0.00     0.131 A 
ATOM     87  C   UNL A   1      36.289  33.003  33.149  1.00  0.00     0.055 A 
ATOM     88  C   UNL A   1      36.145  33.941  35.341  1.00  0.00     0.041 A 
ATOM     89  F   UNL A   1      38.075  34.342  36.594  1.00  0.00    -0.206 F 
ATOM     90  C   UNL A   1      35.511  33.499  34.185  1.00  0.00     0.022 A 
BRANCH  87  91
ATOM     91  S   UNL A   1      35.488  32.502  31.600  1.00  0.00     0.124 S 
ATOM     92  O   UNL A   1      34.078  32.517  31.974  1.00  0.00    -0.237 OA
ATOM     93  O   UNL A   1      35.916  33.563  30.693  1.00  0.00    -0.237 OA
ATOM     94  O   UNL A   1      36.061  31.187  31.327  1.00  0.00    -0.744 OA
ENDBRANCH  87  91
ENDBRANCH  70  84
BRANCH  71  95
ATOM     95  C   UNL A   1      41.386  27.925  28.780  1.00  0.00     0.023 A 
ATOM     96  C   UNL A   1      41.887  26.685  28.364  1.00  0.00     0.031 A 
ATOM     97  C   UNL A   1      40.823  28.754  27.783  1.00  0.00     0.131 A 
ATOM     98  C   UNL A   1      41.913  26.341  27.006  1.00  0.00     0.055 A 
ATOM     99  C   UNL A   1      40.824  28.396  26.425  1.00  0.00     0.041 A 
ATOM    100  F   UNL A   1      40.345  29.970  28.089  1.00  0.00    -0.206 F 
ATOM    101  C   UNL A   1      41.394  27.190  26.029  1.00  0.00     0.022 A 
BRANCH  98 102
ATOM    102  S   UNL A   1      42.757  24.822  26.495  1.00  0.00     0.124 S 
ATOM    103  O   UNL A   1      42.906  25.016  25.056  1.00  0.00    -0.237 OA
ATOM    104  O   UNL A   1      43.987  24.894  27.274  1.00  0.00    -0.237 OA
ATOM    105  O   UNL A   1      41.820  23.770  26.882  1.00  0.00    -0.744 OA
ENDBRANCH  98 102
ENDBRANCH  71  95
BRANCH  83 106
ATOM    106  C   UNL A   1      42.403  27.842  34.955  1.00  0.00     0.023 A 
ATOM    107  C   UNL A   1      43.672  28.197  34.464  1.00  0.00     0.031 A 
ATOM    108  C   UNL A   1      42.294  26.609  35.632  1.00  0.00     0.131 A 
ATOM    109  C   UNL A   1      44.759  27.330  34.611  1.00  0.00     0.055 A 
ATOM    110  C   UNL A   1      43.407  25.791  35.860  1.00  0.00     0.041 A 
ATOM    111  F   UNL A   1      41.109  26.117  36.021  1.00  0.00    -0.206 F 
ATOM    112  C   UNL A   1      44.644  26.142  35.336  1.00  0.00     0.022 A 
BRANCH 109 113
ATOM    113  S   UNL A   1      46.294  27.641  33.705  1.00  0.00     0.124 S 
ATOM    114  O   UNL A   1      45.812  27.910  32.354  1.00  0.00    -0.237 OA
ATOM    115  O   UNL A   1      46.842  28.792  34.425  1.00  0.00    -0.237 OA
ATOM    116  O   UNL A   1      47.059  26.408  33.864  1.00  0.00    -0.744 OA
ENDBRANCH 109 113
ENDBRANCH  83 106
ENDBRANCH  57  58
ENDBRANCH  50  52
ENDBRANCH  49  50
ENDBRANCH  48  49
ENDBRANCH  47  48
ENDBRANCH  46  47
ENDBRANCH  45  46
ENDBRANCH  44  45
ENDBRANCH  43  44
ENDBRANCH   1  43
TORSDOF 29
ENDMDL
