MODEL 1
REMARK VINA RESULT:      -8.5      0.000      0.000
REMARK SMILES C=CCN(CC(=O)OCCOCCOCCOCCOC(=O)c1ccc(-c2c3nc(c(-c4cc(S(=O)(=O)[O-])ccc4F)c4ccc([nH]4)c(-c4cc(S(=O)(=O)[O-])ccc4F)c4nc(c(-c5cc(S(=O)(=O)[O-])ccc5F)c5ccc2[nH]5)C=C4)C=C3)cc1)C(=O)N1CC[C@@H]([NH+]2CCCCC2)C1
REMARK SMILES IDX 13 1 12 2 11 3 10 4 9 5 8 6 6 7 7 8 5 9 4 10 3 11 2 12 1 13
REMARK SMILES IDX 86 14 87 15 88 16 89 17 98 18 90 19 91 20 92 21 93 22 97 23
REMARK SMILES IDX 94 25 96 26 95 27 14 28 15 29 16 30 17 31 18 32 19 33 20 34
REMARK SMILES IDX 21 35 22 36 23 37 24 38 85 39 25 40 84 41 26 42 27 43 28 44
REMARK SMILES IDX 78 45 29 46 83 47 77 48 79 49 30 50 82 51 76 52 75 53 31 55
REMARK SMILES IDX 63 56 43 57 62 58 44 59 47 60 61 61 80 62 45 63 46 64 60 66
REMARK SMILES IDX 81 67 48 68 32 69 33 70 41 71 34 72 40 73 42 74 39 75 35 76
REMARK SMILES IDX 36 77 37 78 38 79 64 80 65 81 73 82 66 83 72 84 74 85 71 86
REMARK SMILES IDX 67 87 68 88 69 89 70 90 49 91 50 92 58 93 51 94 57 95 59 96
REMARK SMILES IDX 56 97 52 98 53 99 54 100 55 101
REMARK H PARENT 92 24 79 54 47 65
REMARK Flexibility Score: inf
ROOT
ATOM      1  C   UNL A   1      37.536  23.223  25.672  1.00  0.00     0.188 C 
ENDROOT
BRANCH   1   2
ATOM      2  C   UNL A   1      36.095  23.741  25.730  1.00  0.00     0.188 C 
BRANCH   2   3
ATOM      3  O   UNL A   1      35.072  22.867  26.164  1.00  0.00    -0.376 OA
BRANCH   3   4
ATOM      4  C   UNL A   1      34.088  22.479  25.210  1.00  0.00     0.202 C 
BRANCH   4   5
ATOM      5  C   UNL A   1      32.782  21.878  25.760  1.00  0.00     0.261 C 
BRANCH   5   6
ATOM      6  O   UNL A   1      31.625  22.735  25.563  1.00  0.00    -0.462 OA
BRANCH   6   7
ATOM      7  C   UNL A   1      31.466  23.773  26.429  1.00  0.00     0.325 C 
ATOM      8  O   UNL A   1      31.661  23.683  27.639  1.00  0.00    -0.250 OA
BRANCH   7   9
ATOM      9  C   UNL A   1      30.888  25.070  25.810  1.00  0.00     0.244 C 
BRANCH   9  10
ATOM     10  N   UNL A   1      31.711  26.078  25.118  1.00  0.00    -0.310 N 
BRANCH  10  11
ATOM     11  C   UNL A   1      31.197  26.481  23.801  1.00  0.00     0.149 C 
BRANCH  11  12
ATOM     12  C   UNL A   1      32.294  27.158  23.016  1.00  0.00    -0.013 C 
ATOM     13  C   UNL A   1      33.129  26.512  22.189  1.00  0.00     0.006 C 
ENDBRANCH  11  12
ENDBRANCH  10  11
BRANCH  10  14
ATOM     14  C   UNL A   1      32.805  26.795  25.579  1.00  0.00     0.321 C 
ATOM     15  O   UNL A   1      33.943  26.323  25.451  1.00  0.00    -0.248 OA
BRANCH  14  16
ATOM     16  N   UNL A   1      32.695  28.022  26.191  1.00  0.00    -0.318 N 
ATOM     17  C   UNL A   1      31.771  28.586  27.155  1.00  0.00     0.128 C 
ATOM     18  C   UNL A   1      33.797  28.983  25.991  1.00  0.00     0.186 C 
ATOM     19  C   UNL A   1      31.968  30.086  27.034  1.00  0.00     0.088 C 
ATOM     20  C   UNL A   1      33.484  30.252  26.834  1.00  0.00     0.205 C 
BRANCH  20  21
ATOM     21  N   UNL A   1      34.285  30.609  28.011  1.00  0.00    -0.331 N 
ATOM     22  C   UNL A   1      34.501  31.972  28.465  1.00  0.00     0.262 C 
ATOM     23  C   UNL A   1      35.340  29.701  28.445  1.00  0.00     0.262 C 
ATOM     24  H   UNL A   1      33.421  30.419  28.520  1.00  0.00     0.348 HD
ATOM     25  C   UNL A   1      35.861  32.515  28.043  1.00  0.00     0.062 C 
ATOM     26  C   UNL A   1      36.728  30.149  27.978  1.00  0.00     0.062 C 
ATOM     27  C   UNL A   1      37.025  31.592  28.366  1.00  0.00     0.012 C 
ENDBRANCH  20  21
ENDBRANCH  14  16
ENDBRANCH  10  14
ENDBRANCH   9  10
ENDBRANCH   7   9
ENDBRANCH   6   7
ENDBRANCH   5   6
ENDBRANCH   4   5
ENDBRANCH   3   4
ENDBRANCH   2   3
ENDBRANCH   1   2
BRANCH   1  28
ATOM     28  O   UNL A   1      37.784  21.852  25.867  1.00  0.00    -0.377 OA
BRANCH  28  29
ATOM     29  C   UNL A   1      39.132  21.425  25.966  1.00  0.00     0.188 C 
BRANCH  29  30
ATOM     30  C   UNL A   1      40.091  22.267  26.810  1.00  0.00     0.188 C 
BRANCH  30  31
ATOM     31  O   UNL A   1      41.331  22.696  26.247  1.00  0.00    -0.376 OA
BRANCH  31  32
ATOM     32  C   UNL A   1      41.795  24.029  26.445  1.00  0.00     0.202 C 
BRANCH  32  33
ATOM     33  C   UNL A   1      40.718  25.055  26.102  1.00  0.00     0.261 C 
BRANCH  33  34
ATOM     34  O   UNL A   1      41.074  26.299  26.712  1.00  0.00    -0.460 OA
BRANCH  34  35
ATOM     35  C   UNL A   1      40.629  26.446  27.984  1.00  0.00     0.338 C 
ATOM     36  O   UNL A   1      40.040  25.624  28.649  1.00  0.00    -0.246 OA
BRANCH  35  37
ATOM     37  C   UNL A   1      41.224  27.697  28.517  1.00  0.00     0.060 A 
ATOM     38  C   UNL A   1      41.700  27.692  29.837  1.00  0.00     0.016 A 
ATOM     39  C   UNL A   1      41.382  28.833  27.713  1.00  0.00     0.016 A 
ATOM     40  C   UNL A   1      42.288  28.834  30.373  1.00  0.00     0.010 A 
ATOM     41  C   UNL A   1      41.948  29.982  28.251  1.00  0.00     0.010 A 
ATOM     42  C   UNL A   1      42.348  29.997  29.597  1.00  0.00    -0.014 A 
BRANCH  42  43
ATOM     43  C   UNL A   1      42.458  31.309  30.262  1.00  0.00     0.031 A 
ATOM     44  C   UNL A   1      43.716  32.088  29.995  1.00  0.00     0.074 A 
ATOM     45  C   UNL A   1      41.514  31.753  31.105  1.00  0.00     0.049 A 
ATOM     46  N   UNL A   1      44.150  33.190  30.543  1.00  0.00    -0.248 NA
ATOM     47  C   UNL A   1      44.620  31.521  28.979  1.00  0.00     0.031 C 
ATOM     48  C   UNL A   1      40.247  31.084  31.387  1.00  0.00     0.029 A 
ATOM     49  N   UNL A   1      41.494  32.872  31.894  1.00  0.00    -0.354 N 
ATOM     50  C   UNL A   1      45.380  33.441  29.943  1.00  0.00     0.074 A 
ATOM     51  C   UNL A   1      45.641  32.357  29.026  1.00  0.00     0.031 C 
ATOM     52  C   UNL A   1      39.574  31.803  32.305  1.00  0.00     0.029 A 
ATOM     53  C   UNL A   1      40.387  32.952  32.702  1.00  0.00     0.049 A 
ATOM     54  H   UNL A   1      42.206  33.552  31.884  1.00  0.00     0.167 HD
ATOM     55  C   UNL A   1      46.217  34.486  30.143  1.00  0.00     0.034 A 
ATOM     56  C   UNL A   1      40.093  33.843  33.669  1.00  0.00     0.034 A 
ATOM     57  C   UNL A   1      45.950  35.522  31.105  1.00  0.00     0.049 A 
ATOM     58  C   UNL A   1      41.082  34.949  33.953  1.00  0.00     0.074 A 
ATOM     59  C   UNL A   1      46.714  36.627  31.426  1.00  0.00     0.029 A 
ATOM     60  N   UNL A   1      44.826  35.560  31.925  1.00  0.00    -0.354 N 
ATOM     61  N   UNL A   1      42.243  35.188  33.384  1.00  0.00    -0.248 NA
ATOM     62  C   UNL A   1      40.723  35.904  35.007  1.00  0.00     0.031 C 
ATOM     63  C   UNL A   1      46.089  37.293  32.486  1.00  0.00     0.029 A 
ATOM     64  C   UNL A   1      44.891  36.653  32.771  1.00  0.00     0.049 A 
ATOM     65  H   UNL A   1      44.091  34.905  31.906  1.00  0.00     0.167 HD
ATOM     66  C   UNL A   1      42.731  36.347  33.982  1.00  0.00     0.074 A 
ATOM     67  C   UNL A   1      41.742  36.750  34.962  1.00  0.00     0.031 C 
ATOM     68  C   UNL A   1      43.881  37.026  33.736  1.00  0.00     0.034 A 
BRANCH  55  69
ATOM     69  C   UNL A   1      47.510  34.482  29.361  1.00  0.00     0.023 A 
ATOM     70  C   UNL A   1      47.589  35.022  28.063  1.00  0.00     0.031 A 
ATOM     71  C   UNL A   1      48.646  33.832  29.871  1.00  0.00     0.131 A 
ATOM     72  C   UNL A   1      48.734  34.805  27.283  1.00  0.00     0.055 A 
ATOM     73  C   UNL A   1      49.819  33.704  29.123  1.00  0.00     0.041 A 
ATOM     74  F   UNL A   1      48.625  33.269  31.090  1.00  0.00    -0.206 F 
ATOM     75  C   UNL A   1      49.860  34.172  27.813  1.00  0.00     0.022 A 
BRANCH  72  76
ATOM     76  S   UNL A   1      48.655  35.179  25.508  1.00  0.00     0.124 S 
ATOM     77  O   UNL A   1      48.766  36.636  25.509  1.00  0.00    -0.237 OA
ATOM     78  O   UNL A   1      49.804  34.451  24.982  1.00  0.00    -0.237 OA
ATOM     79  O   UNL A   1      47.349  34.661  25.106  1.00  0.00    -0.744 OA
ENDBRANCH  72  76
ENDBRANCH  55  69
BRANCH  56  80
ATOM     80  C   UNL A   1      38.828  33.718  34.446  1.00  0.00     0.023 A 
ATOM     81  C   UNL A   1      38.810  33.073  35.693  1.00  0.00     0.031 A 
ATOM     82  C   UNL A   1      37.616  34.231  33.951  1.00  0.00     0.131 A 
ATOM     83  C   UNL A   1      37.600  32.934  36.391  1.00  0.00     0.055 A 
ATOM     84  C   UNL A   1      36.422  34.127  34.668  1.00  0.00     0.041 A 
ATOM     85  F   UNL A   1      37.579  34.861  32.766  1.00  0.00    -0.206 F 
ATOM     86  C   UNL A   1      36.409  33.467  35.893  1.00  0.00     0.022 A 
BRANCH  83  87
ATOM     87  S   UNL A   1      37.595  32.000  37.946  1.00  0.00     0.124 S 
ATOM     88  O   UNL A   1      38.869  32.396  38.533  1.00  0.00    -0.237 OA
ATOM     89  O   UNL A   1      36.397  32.513  38.603  1.00  0.00    -0.237 OA
ATOM     90  O   UNL A   1      37.513  30.609  37.508  1.00  0.00    -0.744 OA
ENDBRANCH  83  87
ENDBRANCH  56  80
BRANCH  68  91
ATOM     91  C   UNL A   1      44.092  38.317  34.487  1.00  0.00     0.023 A 
ATOM     92  C   UNL A   1      43.518  39.527  34.067  1.00  0.00     0.031 A 
ATOM     93  C   UNL A   1      44.860  38.315  35.666  1.00  0.00     0.131 A 
ATOM     94  C   UNL A   1      43.753  40.698  34.802  1.00  0.00     0.055 A 
ATOM     95  C   UNL A   1      45.044  39.472  36.422  1.00  0.00     0.041 A 
ATOM     96  F   UNL A   1      45.429  37.182  36.109  1.00  0.00    -0.206 F 
ATOM     97  C   UNL A   1      44.496  40.674  35.987  1.00  0.00     0.022 A 
BRANCH  94  98
ATOM     98  S   UNL A   1      43.128  42.274  34.158  1.00  0.00     0.124 S 
ATOM     99  O   UNL A   1      42.891  43.029  35.385  1.00  0.00    -0.237 OA
ATOM    100  O   UNL A   1      44.237  42.736  33.331  1.00  0.00    -0.237 OA
ATOM    101  O   UNL A   1      41.924  41.891  33.423  1.00  0.00    -0.744 OA
ENDBRANCH  94  98
ENDBRANCH  68  91
ENDBRANCH  42  43
ENDBRANCH  35  37
ENDBRANCH  34  35
ENDBRANCH  33  34
ENDBRANCH  32  33
ENDBRANCH  31  32
ENDBRANCH  30  31
ENDBRANCH  29  30
ENDBRANCH  28  29
ENDBRANCH   1  28
TORSDOF 29
ENDMDL
MODEL 2
REMARK VINA RESULT:      -7.8      5.405     10.758
REMARK SMILES C=CCN(CC(=O)OCCOCCOCCOCCOC(=O)c1ccc(-c2c3nc(c(-c4cc(S(=O)(=O)[O-])ccc4F)c4ccc([nH]4)c(-c4cc(S(=O)(=O)[O-])ccc4F)c4nc(c(-c5cc(S(=O)(=O)[O-])ccc5F)c5ccc2[nH]5)C=C4)C=C3)cc1)C(=O)N1CC[C@@H]([NH+]2CCCCC2)C1
REMARK SMILES IDX 13 1 12 2 11 3 10 4 9 5 8 6 6 7 7 8 5 9 4 10 3 11 2 12 1 13
REMARK SMILES IDX 86 14 87 15 88 16 89 17 98 18 90 19 91 20 92 21 93 22 97 23
REMARK SMILES IDX 94 25 96 26 95 27 14 28 15 29 16 30 17 31 18 32 19 33 20 34
REMARK SMILES IDX 21 35 22 36 23 37 24 38 85 39 25 40 84 41 26 42 27 43 28 44
REMARK SMILES IDX 78 45 29 46 83 47 77 48 79 49 30 50 82 51 76 52 75 53 31 55
REMARK SMILES IDX 63 56 43 57 62 58 44 59 47 60 61 61 80 62 45 63 46 64 60 66
REMARK SMILES IDX 81 67 48 68 32 69 33 70 41 71 34 72 40 73 42 74 39 75 35 76
REMARK SMILES IDX 36 77 37 78 38 79 64 80 65 81 73 82 66 83 72 84 74 85 71 86
REMARK SMILES IDX 67 87 68 88 69 89 70 90 49 91 50 92 58 93 51 94 57 95 59 96
REMARK SMILES IDX 56 97 52 98 53 99 54 100 55 101
REMARK H PARENT 92 24 79 54 47 65
REMARK Flexibility Score: inf
ROOT
ATOM      1  C   UNL A   1      32.672  35.994  30.895  1.00  0.00     0.188 C 
ENDROOT
BRANCH   1   2
ATOM      2  C   UNL A   1      33.479  35.423  29.726  1.00  0.00     0.188 C 
BRANCH   2   3
ATOM      3  O   UNL A   1      33.265  34.080  29.339  1.00  0.00    -0.376 OA
BRANCH   3   4
ATOM      4  C   UNL A   1      34.354  33.384  28.742  1.00  0.00     0.202 C 
BRANCH   4   5
ATOM      5  C   UNL A   1      35.526  33.000  29.663  1.00  0.00     0.261 C 
BRANCH   5   6
ATOM      6  O   UNL A   1      36.772  33.664  29.320  1.00  0.00    -0.462 OA
BRANCH   6   7
ATOM      7  C   UNL A   1      37.921  33.114  29.800  1.00  0.00     0.325 C 
ATOM      8  O   UNL A   1      39.039  33.565  29.562  1.00  0.00    -0.250 OA
BRANCH   7   9
ATOM      9  C   UNL A   1      37.747  31.784  30.574  1.00  0.00     0.244 C 
BRANCH   9  10
ATOM     10  N   UNL A   1      38.408  30.524  30.187  1.00  0.00    -0.310 N 
BRANCH  10  11
ATOM     11  C   UNL A   1      38.597  29.573  31.291  1.00  0.00     0.149 C 
BRANCH  11  12
ATOM     12  C   UNL A   1      38.116  28.207  30.869  1.00  0.00    -0.013 C 
ATOM     13  C   UNL A   1      38.712  27.059  31.228  1.00  0.00     0.006 C 
ENDBRANCH  11  12
ENDBRANCH  10  11
BRANCH  10  14
ATOM     14  C   UNL A   1      38.745  30.054  28.926  1.00  0.00     0.321 C 
ATOM     15  O   UNL A   1      37.852  29.849  28.092  1.00  0.00    -0.248 OA
BRANCH  14  16
ATOM     16  N   UNL A   1      40.039  29.789  28.544  1.00  0.00    -0.318 N 
ATOM     17  C   UNL A   1      41.322  29.871  29.214  1.00  0.00     0.128 C 
ATOM     18  C   UNL A   1      40.243  29.138  27.235  1.00  0.00     0.186 C 
ATOM     19  C   UNL A   1      42.337  29.871  28.086  1.00  0.00     0.088 C 
ATOM     20  C   UNL A   1      41.765  28.875  27.064  1.00  0.00     0.205 C 
BRANCH  20  21
ATOM     21  N   UNL A   1      42.315  27.513  27.069  1.00  0.00    -0.331 N 
ATOM     22  C   UNL A   1      41.561  26.333  27.458  1.00  0.00     0.262 C 
ATOM     23  C   UNL A   1      43.752  27.336  27.231  1.00  0.00     0.262 C 
ATOM     24  H   UNL A   1      42.067  27.527  26.080  1.00  0.00     0.348 HD
ATOM     25  C   UNL A   1      41.873  25.887  28.881  1.00  0.00     0.062 C 
ATOM     26  C   UNL A   1      44.141  26.967  28.666  1.00  0.00     0.062 C 
ATOM     27  C   UNL A   1      43.360  25.765  29.180  1.00  0.00     0.012 C 
ENDBRANCH  20  21
ENDBRANCH  14  16
ENDBRANCH  10  14
ENDBRANCH   9  10
ENDBRANCH   7   9
ENDBRANCH   6   7
ENDBRANCH   5   6
ENDBRANCH   4   5
ENDBRANCH   3   4
ENDBRANCH   2   3
ENDBRANCH   1   2
BRANCH   1  28
ATOM     28  O   UNL A   1      32.581  35.262  32.093  1.00  0.00    -0.377 OA
BRANCH  28  29
ATOM     29  C   UNL A   1      33.785  34.908  32.752  1.00  0.00     0.188 C 
BRANCH  29  30
ATOM     30  C   UNL A   1      33.985  33.442  33.144  1.00  0.00     0.188 C 
BRANCH  30  31
ATOM     31  O   UNL A   1      34.974  33.102  34.115  1.00  0.00    -0.376 OA
BRANCH  31  32
ATOM     32  C   UNL A   1      35.643  34.120  34.857  1.00  0.00     0.202 C 
BRANCH  32  33
ATOM     33  C   UNL A   1      37.020  33.657  35.327  1.00  0.00     0.261 C 
BRANCH  33  34
ATOM     34  O   UNL A   1      37.958  33.904  34.275  1.00  0.00    -0.460 OA
BRANCH  34  35
ATOM     35  C   UNL A   1      39.118  34.473  34.682  1.00  0.00     0.338 C 
ATOM     36  O   UNL A   1      39.243  35.441  35.399  1.00  0.00    -0.246 OA
BRANCH  35  37
ATOM     37  C   UNL A   1      40.217  33.545  34.317  1.00  0.00     0.060 A 
ATOM     38  C   UNL A   1      41.521  33.871  34.722  1.00  0.00     0.016 A 
ATOM     39  C   UNL A   1      39.964  32.337  33.655  1.00  0.00     0.016 A 
ATOM     40  C   UNL A   1      42.579  33.019  34.423  1.00  0.00     0.010 A 
ATOM     41  C   UNL A   1      41.021  31.494  33.335  1.00  0.00     0.010 A 
ATOM     42  C   UNL A   1      42.333  31.865  33.671  1.00  0.00    -0.014 A 
BRANCH  42  43
ATOM     43  C   UNL A   1      43.434  31.248  32.906  1.00  0.00     0.031 A 
ATOM     44  C   UNL A   1      43.725  31.846  31.558  1.00  0.00     0.074 A 
ATOM     45  C   UNL A   1      44.097  30.176  33.365  1.00  0.00     0.049 A 
ATOM     46  N   UNL A   1      44.526  31.432  30.615  1.00  0.00    -0.248 NA
ATOM     47  C   UNL A   1      42.982  33.074  31.225  1.00  0.00     0.031 C 
ATOM     48  C   UNL A   1      43.909  29.560  34.676  1.00  0.00     0.029 A 
ATOM     49  N   UNL A   1      45.052  29.406  32.758  1.00  0.00    -0.354 N 
ATOM     50  C   UNL A   1      44.376  32.345  29.575  1.00  0.00     0.074 A 
ATOM     51  C   UNL A   1      43.379  33.305  29.987  1.00  0.00     0.031 C 
ATOM     52  C   UNL A   1      44.718  28.489  34.770  1.00  0.00     0.029 A 
ATOM     53  C   UNL A   1      45.441  28.325  33.510  1.00  0.00     0.049 A 
ATOM     54  H   UNL A   1      45.423  29.607  31.869  1.00  0.00     0.167 HD
ATOM     55  C   UNL A   1      45.016  32.378  28.383  1.00  0.00     0.034 A 
ATOM     56  C   UNL A   1      46.267  27.308  33.189  1.00  0.00     0.034 A 
ATOM     57  C   UNL A   1      45.966  31.373  27.985  1.00  0.00     0.049 A 
ATOM     58  C   UNL A   1      46.898  27.301  31.816  1.00  0.00     0.074 A 
ATOM     59  C   UNL A   1      46.675  31.268  26.803  1.00  0.00     0.029 A 
ATOM     60  N   UNL A   1      46.321  30.275  28.763  1.00  0.00    -0.354 N 
ATOM     61  N   UNL A   1      46.758  28.166  30.836  1.00  0.00    -0.248 NA
ATOM     62  C   UNL A   1      47.798  26.183  31.507  1.00  0.00     0.031 C 
ATOM     63  C   UNL A   1      47.403  30.073  26.839  1.00  0.00     0.029 A 
ATOM     64  C   UNL A   1      47.216  29.474  28.077  1.00  0.00     0.049 A 
ATOM     65  H   UNL A   1      45.985  30.096  29.671  1.00  0.00     0.167 HD
ATOM     66  C   UNL A   1      47.587  27.719  29.810  1.00  0.00     0.074 A 
ATOM     67  C   UNL A   1      48.214  26.503  30.290  1.00  0.00     0.031 C 
ATOM     68  C   UNL A   1      47.823  28.267  28.591  1.00  0.00     0.034 A 
BRANCH  55  69
ATOM     69  C   UNL A   1      44.627  33.483  27.431  1.00  0.00     0.023 A 
ATOM     70  C   UNL A   1      44.889  34.836  27.724  1.00  0.00     0.031 A 
ATOM     71  C   UNL A   1      43.885  33.196  26.273  1.00  0.00     0.131 A 
ATOM     72  C   UNL A   1      44.321  35.847  26.934  1.00  0.00     0.055 A 
ATOM     73  C   UNL A   1      43.405  34.207  25.436  1.00  0.00     0.041 A 
ATOM     74  F   UNL A   1      43.575  31.930  25.954  1.00  0.00    -0.206 F 
ATOM     75  C   UNL A   1      43.602  35.542  25.777  1.00  0.00     0.022 A 
BRANCH  72  76
ATOM     76  S   UNL A   1      44.364  37.553  27.552  1.00  0.00     0.124 S 
ATOM     77  O   UNL A   1      45.780  37.885  27.405  1.00  0.00    -0.237 OA
ATOM     78  O   UNL A   1      43.450  38.239  26.646  1.00  0.00    -0.237 OA
ATOM     79  O   UNL A   1      43.900  37.429  28.933  1.00  0.00    -0.744 OA
ENDBRANCH  72  76
ENDBRANCH  55  69
BRANCH  56  80
ATOM     80  C   UNL A   1      46.527  26.215  34.166  1.00  0.00     0.023 A 
ATOM     81  C   UNL A   1      45.795  25.018  34.119  1.00  0.00     0.031 A 
ATOM     82  C   UNL A   1      47.504  26.353  35.169  1.00  0.00     0.131 A 
ATOM     83  C   UNL A   1      46.031  24.016  35.073  1.00  0.00     0.055 A 
ATOM     84  C   UNL A   1      47.764  25.335  36.090  1.00  0.00     0.041 A 
ATOM     85  F   UNL A   1      48.235  27.475  35.256  1.00  0.00    -0.206 F 
ATOM     86  C   UNL A   1      47.019  24.161  36.050  1.00  0.00     0.022 A 
BRANCH  83  87
ATOM     87  S   UNL A   1      44.993  22.529  35.048  1.00  0.00     0.124 S 
ATOM     88  O   UNL A   1      45.638  21.734  34.010  1.00  0.00    -0.237 OA
ATOM     89  O   UNL A   1      45.135  22.037  36.415  1.00  0.00    -0.237 OA
ATOM     90  O   UNL A   1      43.668  23.044  34.709  1.00  0.00    -0.744 OA
ENDBRANCH  83  87
ENDBRANCH  56  80
BRANCH  68  91
ATOM     91  C   UNL A   1      48.858  27.596  27.722  1.00  0.00     0.023 A 
ATOM     92  C   UNL A   1      50.225  27.899  27.822  1.00  0.00     0.031 A 
ATOM     93  C   UNL A   1      48.457  26.610  26.803  1.00  0.00     0.131 A 
ATOM     94  C   UNL A   1      51.143  27.246  26.985  1.00  0.00     0.055 A 
ATOM     95  C   UNL A   1      49.380  25.926  26.013  1.00  0.00     0.041 A 
ATOM     96  F   UNL A   1      47.161  26.284  26.671  1.00  0.00    -0.206 F 
ATOM     97  C   UNL A   1      50.731  26.248  26.095  1.00  0.00     0.022 A 
BRANCH  94  98
ATOM     98  S   UNL A   1      52.881  27.761  27.025  1.00  0.00     0.124 S 
ATOM     99  O   UNL A   1      53.339  27.381  25.692  1.00  0.00    -0.237 OA
ATOM    100  O   UNL A   1      52.777  29.195  27.277  1.00  0.00    -0.237 OA
ATOM    101  O   UNL A   1      53.446  26.978  28.122  1.00  0.00    -0.744 OA
ENDBRANCH  94  98
ENDBRANCH  68  91
ENDBRANCH  42  43
ENDBRANCH  35  37
ENDBRANCH  34  35
ENDBRANCH  33  34
ENDBRANCH  32  33
ENDBRANCH  31  32
ENDBRANCH  30  31
ENDBRANCH  29  30
ENDBRANCH  28  29
ENDBRANCH   1  28
TORSDOF 29
ENDMDL
MODEL 3
REMARK VINA RESULT:      -7.3      5.769     12.822
REMARK SMILES C=CCN(CC(=O)OCCOCCOCCOCCOC(=O)c1ccc(-c2c3nc(c(-c4cc(S(=O)(=O)[O-])ccc4F)c4ccc([nH]4)c(-c4cc(S(=O)(=O)[O-])ccc4F)c4nc(c(-c5cc(S(=O)(=O)[O-])ccc5F)c5ccc2[nH]5)C=C4)C=C3)cc1)C(=O)N1CC[C@@H]([NH+]2CCCCC2)C1
REMARK SMILES IDX 13 1 12 2 11 3 10 4 9 5 8 6 6 7 7 8 5 9 4 10 3 11 2 12 1 13
REMARK SMILES IDX 86 14 87 15 88 16 89 17 98 18 90 19 91 20 92 21 93 22 97 23
REMARK SMILES IDX 94 25 96 26 95 27 14 28 15 29 16 30 17 31 18 32 19 33 20 34
REMARK SMILES IDX 21 35 22 36 23 37 24 38 85 39 25 40 84 41 26 42 27 43 28 44
REMARK SMILES IDX 78 45 29 46 83 47 77 48 79 49 30 50 82 51 76 52 75 53 31 55
REMARK SMILES IDX 63 56 43 57 62 58 44 59 47 60 61 61 80 62 45 63 46 64 60 66
REMARK SMILES IDX 81 67 48 68 32 69 33 70 41 71 34 72 40 73 42 74 39 75 35 76
REMARK SMILES IDX 36 77 37 78 38 79 64 80 65 81 73 82 66 83 72 84 74 85 71 86
REMARK SMILES IDX 67 87 68 88 69 89 70 90 49 91 50 92 58 93 51 94 57 95 59 96
REMARK SMILES IDX 56 97 52 98 53 99 54 100 55 101
REMARK H PARENT 92 24 79 54 47 65
REMARK Flexibility Score: inf
ROOT
ATOM      1  C   UNL A   1      33.840  37.331  32.999  1.00  0.00     0.188 C 
ENDROOT
BRANCH   1   2
ATOM      2  C   UNL A   1      34.820  36.171  32.799  1.00  0.00     0.188 C 
BRANCH   2   3
ATOM      3  O   UNL A   1      35.211  35.406  33.922  1.00  0.00    -0.376 OA
BRANCH   3   4
ATOM      4  C   UNL A   1      36.290  34.491  33.752  1.00  0.00     0.202 C 
BRANCH   4   5
ATOM      5  C   UNL A   1      36.162  33.126  34.452  1.00  0.00     0.261 C 
BRANCH   5   6
ATOM      6  O   UNL A   1      36.943  33.028  35.674  1.00  0.00    -0.462 OA
BRANCH   6   7
ATOM      7  C   UNL A   1      38.012  32.185  35.662  1.00  0.00     0.325 C 
ATOM      8  O   UNL A   1      37.958  31.026  35.256  1.00  0.00    -0.250 OA
BRANCH   7   9
ATOM      9  C   UNL A   1      39.300  32.738  36.320  1.00  0.00     0.244 C 
BRANCH   9  10
ATOM     10  N   UNL A   1      40.245  33.636  35.632  1.00  0.00    -0.310 N 
BRANCH  10  11
ATOM     11  C   UNL A   1      39.678  34.342  34.474  1.00  0.00     0.149 C 
BRANCH  11  12
ATOM     12  C   UNL A   1      39.977  33.568  33.214  1.00  0.00    -0.013 C 
ATOM     13  C   UNL A   1      40.266  34.139  32.035  1.00  0.00     0.006 C 
ENDBRANCH  11  12
ENDBRANCH  10  11
BRANCH  10  14
ATOM     14  C   UNL A   1      41.529  34.015  35.995  1.00  0.00     0.321 C 
ATOM     15  O   UNL A   1      42.500  33.394  35.541  1.00  0.00    -0.248 OA
BRANCH  14  16
ATOM     16  N   UNL A   1      41.790  35.056  36.854  1.00  0.00    -0.318 N 
ATOM     17  C   UNL A   1      41.582  36.489  36.790  1.00  0.00     0.128 C 
ATOM     18  C   UNL A   1      42.245  34.717  38.217  1.00  0.00     0.186 C 
ATOM     19  C   UNL A   1      42.500  37.052  37.859  1.00  0.00     0.088 C 
ATOM     20  C   UNL A   1      42.397  36.043  39.014  1.00  0.00     0.205 C 
BRANCH  20  21
ATOM     21  N   UNL A   1      41.498  36.378  40.125  1.00  0.00    -0.331 N 
ATOM     22  C   UNL A   1      40.771  35.394  40.909  1.00  0.00     0.262 C 
ATOM     23  C   UNL A   1      40.860  37.689  40.142  1.00  0.00     0.262 C 
ATOM     24  H   UNL A   1      42.360  36.395  40.672  1.00  0.00     0.348 HD
ATOM     25  C   UNL A   1      39.315  35.270  40.476  1.00  0.00     0.062 C 
ATOM     26  C   UNL A   1      39.415  37.644  39.636  1.00  0.00     0.062 C 
ATOM     27  C   UNL A   1      38.584  36.599  40.369  1.00  0.00     0.012 C 
ENDBRANCH  20  21
ENDBRANCH  14  16
ENDBRANCH  10  14
ENDBRANCH   9  10
ENDBRANCH   7   9
ENDBRANCH   6   7
ENDBRANCH   5   6
ENDBRANCH   4   5
ENDBRANCH   3   4
ENDBRANCH   2   3
ENDBRANCH   1   2
BRANCH   1  28
ATOM     28  O   UNL A   1      32.587  37.293  32.360  1.00  0.00    -0.377 OA
BRANCH  28  29
ATOM     29  C   UNL A   1      32.495  36.627  31.112  1.00  0.00     0.188 C 
BRANCH  29  30
ATOM     30  C   UNL A   1      32.723  35.114  31.087  1.00  0.00     0.188 C 
BRANCH  30  31
ATOM     31  O   UNL A   1      33.505  34.538  30.041  1.00  0.00    -0.376 OA
BRANCH  31  32
ATOM     32  C   UNL A   1      34.390  33.453  30.309  1.00  0.00     0.202 C 
BRANCH  32  33
ATOM     33  C   UNL A   1      35.175  33.049  29.064  1.00  0.00     0.261 C 
BRANCH  33  34
ATOM     34  O   UNL A   1      36.408  32.457  29.485  1.00  0.00    -0.460 OA
BRANCH  34  35
ATOM     35  C   UNL A   1      36.432  31.104  29.417  1.00  0.00     0.338 C 
ATOM     36  O   UNL A   1      35.641  30.390  28.841  1.00  0.00    -0.246 OA
BRANCH  35  37
ATOM     37  C   UNL A   1      37.747  30.659  29.942  1.00  0.00     0.060 A 
ATOM     38  C   UNL A   1      38.889  31.381  29.563  1.00  0.00     0.016 A 
ATOM     39  C   UNL A   1      37.849  29.599  30.852  1.00  0.00     0.016 A 
ATOM     40  C   UNL A   1      40.140  31.015  30.050  1.00  0.00     0.010 A 
ATOM     41  C   UNL A   1      39.099  29.216  31.322  1.00  0.00     0.010 A 
ATOM     42  C   UNL A   1      40.247  29.890  30.876  1.00  0.00    -0.014 A 
BRANCH  42  43
ATOM     43  C   UNL A   1      41.536  29.179  30.970  1.00  0.00     0.031 A 
ATOM     44  C   UNL A   1      42.480  29.651  32.041  1.00  0.00     0.074 A 
ATOM     45  C   UNL A   1      41.870  28.206  30.110  1.00  0.00     0.049 A 
ATOM     46  N   UNL A   1      43.721  29.319  32.269  1.00  0.00    -0.248 NA
ATOM     47  C   UNL A   1      41.946  30.663  32.970  1.00  0.00     0.031 C 
ATOM     48  C   UNL A   1      41.001  27.658  29.071  1.00  0.00     0.029 A 
ATOM     49  N   UNL A   1      43.048  27.523  29.967  1.00  0.00    -0.354 N 
ATOM     50  C   UNL A   1      44.116  30.086  33.361  1.00  0.00     0.074 A 
ATOM     51  C   UNL A   1      42.999  30.929  33.719  1.00  0.00     0.031 C 
ATOM     52  C   UNL A   1      41.686  26.726  28.382  1.00  0.00     0.029 A 
ATOM     53  C   UNL A   1      43.049  26.651  28.906  1.00  0.00     0.049 A 
ATOM     54  H   UNL A   1      43.819  27.645  30.567  1.00  0.00     0.167 HD
ATOM     55  C   UNL A   1      45.306  30.086  34.005  1.00  0.00     0.034 A 
ATOM     56  C   UNL A   1      44.056  25.906  28.408  1.00  0.00     0.034 A 
ATOM     57  C   UNL A   1      46.415  29.270  33.587  1.00  0.00     0.049 A 
ATOM     58  C   UNL A   1      45.409  25.989  29.075  1.00  0.00     0.074 A 
ATOM     59  C   UNL A   1      47.681  29.181  34.131  1.00  0.00     0.029 A 
ATOM     60  N   UNL A   1      46.389  28.412  32.490  1.00  0.00    -0.354 N 
ATOM     61  N   UNL A   1      45.780  26.712  30.109  1.00  0.00    -0.248 NA
ATOM     62  C   UNL A   1      46.478  25.157  28.510  1.00  0.00     0.031 C 
ATOM     63  C   UNL A   1      48.441  28.325  33.325  1.00  0.00     0.029 A 
ATOM     64  C   UNL A   1      47.625  27.813  32.326  1.00  0.00     0.049 A 
ATOM     65  H   UNL A   1      45.605  28.255  31.917  1.00  0.00     0.167 HD
ATOM     66  C   UNL A   1      47.114  26.388  30.343  1.00  0.00     0.074 A 
ATOM     67  C   UNL A   1      47.482  25.412  29.336  1.00  0.00     0.031 C 
ATOM     68  C   UNL A   1      47.955  26.840  31.309  1.00  0.00     0.034 A 
BRANCH  55  69
ATOM     69  C   UNL A   1      45.458  31.054  35.154  1.00  0.00     0.023 A 
ATOM     70  C   UNL A   1      45.037  30.726  36.457  1.00  0.00     0.031 A 
ATOM     71  C   UNL A   1      45.924  32.360  34.926  1.00  0.00     0.131 A 
ATOM     72  C   UNL A   1      44.986  31.718  37.448  1.00  0.00     0.055 A 
ATOM     73  C   UNL A   1      45.962  33.317  35.943  1.00  0.00     0.041 A 
ATOM     74  F   UNL A   1      46.311  32.745  33.699  1.00  0.00    -0.206 F 
ATOM     75  C   UNL A   1      45.469  33.005  37.207  1.00  0.00     0.022 A 
BRANCH  72  76
ATOM     76  S   UNL A   1      44.093  31.358  38.986  1.00  0.00     0.124 S 
ATOM     77  O   UNL A   1      44.723  30.108  39.408  1.00  0.00    -0.237 OA
ATOM     78  O   UNL A   1      44.387  32.530  39.803  1.00  0.00    -0.237 OA
ATOM     79  O   UNL A   1      42.702  31.230  38.554  1.00  0.00    -0.744 OA
ENDBRANCH  72  76
ENDBRANCH  55  69
BRANCH  56  80
ATOM     80  C   UNL A   1      43.832  25.040  27.217  1.00  0.00     0.023 A 
ATOM     81  C   UNL A   1      43.092  23.852  27.320  1.00  0.00     0.031 A 
ATOM     82  C   UNL A   1      44.364  25.380  25.960  1.00  0.00     0.131 A 
ATOM     83  C   UNL A   1      42.925  23.032  26.193  1.00  0.00     0.055 A 
ATOM     84  C   UNL A   1      44.159  24.582  24.832  1.00  0.00     0.041 A 
ATOM     85  F   UNL A   1      45.076  26.508  25.806  1.00  0.00    -0.206 F 
ATOM     86  C   UNL A   1      43.442  23.395  24.947  1.00  0.00     0.022 A 
BRANCH  83  87
ATOM     87  S   UNL A   1      42.055  21.452  26.387  1.00  0.00     0.124 S 
ATOM     88  O   UNL A   1      42.309  21.145  27.790  1.00  0.00    -0.237 OA
ATOM     89  O   UNL A   1      40.684  21.818  26.047  1.00  0.00    -0.237 OA
ATOM     90  O   UNL A   1      42.720  20.577  25.425  1.00  0.00    -0.744 OA
ENDBRANCH  83  87
ENDBRANCH  56  80
BRANCH  68  91
ATOM     91  C   UNL A   1      49.330  26.225  31.367  1.00  0.00     0.023 A 
ATOM     92  C   UNL A   1      50.427  26.784  30.691  1.00  0.00     0.031 A 
ATOM     93  C   UNL A   1      49.543  25.073  32.147  1.00  0.00     0.131 A 
ATOM     94  C   UNL A   1      51.684  26.166  30.778  1.00  0.00     0.055 A 
ATOM     95  C   UNL A   1      50.805  24.496  32.273  1.00  0.00     0.041 A 
ATOM     96  F   UNL A   1      48.526  24.502  32.813  1.00  0.00    -0.206 F 
ATOM     97  C   UNL A   1      51.884  25.037  31.580  1.00  0.00     0.022 A 
BRANCH  94  98
ATOM     98  S   UNL A   1      53.048  26.817  29.778  1.00  0.00     0.124 S 
ATOM     99  O   UNL A   1      53.015  28.239  30.110  1.00  0.00    -0.237 OA
ATOM    100  O   UNL A   1      54.194  26.071  30.286  1.00  0.00    -0.237 OA
ATOM    101  O   UNL A   1      52.655  26.492  28.408  1.00  0.00    -0.744 OA
ENDBRANCH  94  98
ENDBRANCH  68  91
ENDBRANCH  42  43
ENDBRANCH  35  37
ENDBRANCH  34  35
ENDBRANCH  33  34
ENDBRANCH  32  33
ENDBRANCH  31  32
ENDBRANCH  30  31
ENDBRANCH  29  30
ENDBRANCH  28  29
ENDBRANCH   1  28
TORSDOF 29
ENDMDL
