MODEL 1
REMARK VINA RESULT:     -10.3      0.000      0.000
REMARK SMILES [H]/N=C1\C=CC2=NC(C(=O)OCCOCCOCCOCCOC(=O)c3ccc(-c4c5nc(c(-c6cc(S(=O)(=O)[O-])ccc6F)c6ccc([nH]6)c(-c6cc(S(=O)(=O)[O-])ccc6F)c6nc(c(-c7cc(S(=O)(=O)[O-])ccc7F)c7ccc4[nH]7)C=C6)C=C5)cc3)=C[C@@H]2C1
REMARK SMILES IDX 18 1 17 2 16 3 15 4 14 5 13 6 12 7 11 8 9 9 10 10 8 11 2 12
REMARK SMILES IDX 3 13 1 14 4 15 91 16 5 17 90 18 6 19 89 20 7 21 19 22 20 23
REMARK SMILES IDX 21 24 22 25 23 26 24 27 25 28 26 29 27 30 88 31 28 32 87 33
REMARK SMILES IDX 29 34 30 35 31 36 81 37 32 38 86 39 80 40 82 41 33 42 85 43
REMARK SMILES IDX 79 44 78 45 34 47 66 48 46 49 65 50 47 51 50 52 64 53 83 54
REMARK SMILES IDX 48 55 49 56 63 58 84 59 51 60 35 61 36 62 44 63 37 64 43 65
REMARK SMILES IDX 45 66 42 67 38 68 39 69 40 70 41 71 67 72 68 73 76 74 69 75
REMARK SMILES IDX 75 76 77 77 74 78 70 79 71 80 72 81 73 82 52 83 53 84 61 85
REMARK SMILES IDX 54 86 60 87 62 88 59 89 55 90 56 91 57 92 58 93
REMARK H PARENT 82 46 50 57
REMARK Flexibility Score: inf
ROOT
ATOM      1  C   UNL A   1      32.358  28.981  25.067  1.00  0.00     0.188 C 
ENDROOT
BRANCH   1   2
ATOM      2  O   UNL A   1      31.652  29.267  23.861  1.00  0.00    -0.377 OA
BRANCH   2   3
ATOM      3  C   UNL A   1      31.152  28.184  23.093  1.00  0.00     0.188 C 
BRANCH   3   4
ATOM      4  C   UNL A   1      29.701  27.781  23.432  1.00  0.00     0.188 C 
BRANCH   4   5
ATOM      5  O   UNL A   1      29.550  26.623  24.233  1.00  0.00    -0.376 OA
BRANCH   5   6
ATOM      6  C   UNL A   1      30.547  25.621  24.290  1.00  0.00     0.202 C 
BRANCH   6   7
ATOM      7  C   UNL A   1      31.075  24.800  23.094  1.00  0.00     0.261 C 
BRANCH   7   8
ATOM      8  O   UNL A   1      31.204  23.384  23.262  1.00  0.00    -0.459 OA
BRANCH   8   9
ATOM      9  C   UNL A   1      31.591  22.965  24.484  1.00  0.00     0.356 C 
ATOM     10  O   UNL A   1      30.851  22.687  25.417  1.00  0.00    -0.244 OA
BRANCH   9  11
ATOM     11  C   UNL A   1      33.065  22.722  24.508  1.00  0.00     0.145 C 
ATOM     12  N   UNL A   1      38.730  22.441  25.504  1.00  0.00    -0.305 NA
ATOM     13  C   UNL A   1      37.560  22.128  25.055  1.00  0.00     0.032 C 
ATOM     14  H   UNL A   1      39.317  21.743  25.876  1.00  0.00     0.187 HD
ATOM     15  C   UNL A   1      37.066  20.726  25.071  1.00  0.00     0.025 C 
ATOM     16  C   UNL A   1      36.654  23.212  24.480  1.00  0.00     0.069 C 
ATOM     17  C   UNL A   1      35.762  20.465  24.937  1.00  0.00     0.026 C 
ATOM     18  C   UNL A   1      35.275  23.004  25.065  1.00  0.00     0.069 C 
ATOM     19  C   UNL A   1      34.811  21.582  24.848  1.00  0.00     0.049 C 
ATOM     20  C   UNL A   1      34.025  23.660  24.559  1.00  0.00     0.019 C 
ATOM     21  N   UNL A   1      33.548  21.433  24.626  1.00  0.00    -0.245 NA
ENDBRANCH   9  11
ENDBRANCH   8   9
ENDBRANCH   7   8
ENDBRANCH   6   7
ENDBRANCH   5   6
ENDBRANCH   4   5
ENDBRANCH   3   4
ENDBRANCH   2   3
ENDBRANCH   1   2
BRANCH   1  22
ATOM     22  C   UNL A   1      31.936  29.564  26.443  1.00  0.00     0.188 C 
BRANCH  22  23
ATOM     23  O   UNL A   1      32.991  30.056  27.257  1.00  0.00    -0.376 OA
BRANCH  23  24
ATOM     24  C   UNL A   1      34.310  29.549  27.190  1.00  0.00     0.202 C 
BRANCH  24  25
ATOM     25  C   UNL A   1      35.418  30.390  27.812  1.00  0.00     0.261 C 
BRANCH  25  26
ATOM     26  O   UNL A   1      35.899  29.862  29.030  1.00  0.00    -0.460 OA
BRANCH  26  27
ATOM     27  C   UNL A   1      37.191  30.121  29.285  1.00  0.00     0.338 C 
ATOM     28  O   UNL A   1      37.652  31.116  29.841  1.00  0.00    -0.246 OA
BRANCH  27  29
ATOM     29  C   UNL A   1      37.988  29.061  28.679  1.00  0.00     0.060 A 
ATOM     30  C   UNL A   1      38.381  28.035  29.536  1.00  0.00     0.016 A 
ATOM     31  C   UNL A   1      38.667  29.366  27.489  1.00  0.00     0.016 A 
ATOM     32  C   UNL A   1      39.653  27.550  29.384  1.00  0.00     0.010 A 
ATOM     33  C   UNL A   1      39.948  28.915  27.365  1.00  0.00     0.010 A 
ATOM     34  C   UNL A   1      40.449  28.106  28.379  1.00  0.00    -0.014 A 
BRANCH  34  35
ATOM     35  C   UNL A   1      41.842  27.750  28.335  1.00  0.00     0.031 A 
ATOM     36  C   UNL A   1      42.040  26.474  27.633  1.00  0.00     0.074 A 
ATOM     37  C   UNL A   1      42.803  28.571  28.795  1.00  0.00     0.049 A 
ATOM     38  N   UNL A   1      42.298  25.335  28.177  1.00  0.00    -0.248 NA
ATOM     39  C   UNL A   1      41.631  26.387  26.220  1.00  0.00     0.031 C 
ATOM     40  C   UNL A   1      42.678  29.942  29.294  1.00  0.00     0.029 A 
ATOM     41  N   UNL A   1      44.142  28.370  28.809  1.00  0.00    -0.354 N 
ATOM     42  C   UNL A   1      42.369  24.446  27.119  1.00  0.00     0.074 A 
ATOM     43  C   UNL A   1      41.673  25.069  26.029  1.00  0.00     0.031 C 
ATOM     44  C   UNL A   1      43.904  30.515  29.321  1.00  0.00     0.029 A 
ATOM     45  C   UNL A   1      44.901  29.528  28.938  1.00  0.00     0.049 A 
ATOM     46  H   UNL A   1      44.546  27.476  28.735  1.00  0.00     0.167 HD
ATOM     47  C   UNL A   1      43.273  23.432  27.131  1.00  0.00     0.034 A 
ATOM     48  C   UNL A   1      46.224  29.654  28.635  1.00  0.00     0.034 A 
ATOM     49  C   UNL A   1      43.790  23.220  28.468  1.00  0.00     0.049 A 
ATOM     50  C   UNL A   1      46.799  28.277  28.687  1.00  0.00     0.074 A 
ATOM     51  C   UNL A   1      43.203  22.936  29.687  1.00  0.00     0.029 A 
ATOM     52  N   UNL A   1      45.042  23.717  28.762  1.00  0.00    -0.354 N 
ATOM     53  N   UNL A   1      46.870  27.581  29.792  1.00  0.00    -0.248 NA
ATOM     54  C   UNL A   1      46.781  27.478  27.466  1.00  0.00     0.031 C 
ATOM     55  C   UNL A   1      43.917  23.729  30.633  1.00  0.00     0.029 A 
ATOM     56  C   UNL A   1      44.963  24.374  29.969  1.00  0.00     0.049 A 
ATOM     57  H   UNL A   1      45.850  23.619  28.207  1.00  0.00     0.167 HD
ATOM     58  C   UNL A   1      46.452  26.303  29.445  1.00  0.00     0.074 A 
ATOM     59  C   UNL A   1      46.498  26.276  27.983  1.00  0.00     0.031 C 
ATOM     60  C   UNL A   1      45.807  25.498  30.344  1.00  0.00     0.034 A 
BRANCH  47  61
ATOM     61  C   UNL A   1      43.969  22.914  25.899  1.00  0.00     0.023 A 
ATOM     62  C   UNL A   1      43.824  21.546  25.621  1.00  0.00     0.031 A 
ATOM     63  C   UNL A   1      44.965  23.593  25.156  1.00  0.00     0.131 A 
ATOM     64  C   UNL A   1      44.694  20.898  24.732  1.00  0.00     0.055 A 
ATOM     65  C   UNL A   1      45.778  22.959  24.216  1.00  0.00     0.041 A 
ATOM     66  F   UNL A   1      45.284  24.876  25.356  1.00  0.00    -0.206 F 
ATOM     67  C   UNL A   1      45.669  21.595  24.023  1.00  0.00     0.022 A 
BRANCH  64  68
ATOM     68  S   UNL A   1      44.643  19.093  24.658  1.00  0.00     0.124 S 
ATOM     69  O   UNL A   1      43.273  18.822  25.084  1.00  0.00    -0.237 OA
ATOM     70  O   UNL A   1      44.943  18.844  23.252  1.00  0.00    -0.237 OA
ATOM     71  O   UNL A   1      45.681  18.688  25.600  1.00  0.00    -0.744 OA
ENDBRANCH  64  68
ENDBRANCH  47  61
BRANCH  48  72
ATOM     72  C   UNL A   1      46.877  30.812  27.944  1.00  0.00     0.023 A 
ATOM     73  C   UNL A   1      46.163  31.737  27.146  1.00  0.00     0.031 A 
ATOM     74  C   UNL A   1      48.213  31.163  28.253  1.00  0.00     0.131 A 
ATOM     75  C   UNL A   1      46.786  32.933  26.700  1.00  0.00     0.055 A 
ATOM     76  C   UNL A   1      48.822  32.337  27.807  1.00  0.00     0.041 A 
ATOM     77  F   UNL A   1      48.960  30.417  29.082  1.00  0.00    -0.206 F 
ATOM     78  C   UNL A   1      48.107  33.235  27.036  1.00  0.00     0.022 A 
BRANCH  75  79
ATOM     79  S   UNL A   1      45.857  34.182  25.746  1.00  0.00     0.124 S 
ATOM     80  O   UNL A   1      44.915  33.360  24.996  1.00  0.00    -0.237 OA
ATOM     81  O   UNL A   1      45.293  35.025  26.794  1.00  0.00    -0.237 OA
ATOM     82  O   UNL A   1      46.889  34.830  24.935  1.00  0.00    -0.744 OA
ENDBRANCH  75  79
ENDBRANCH  48  72
BRANCH  60  83
ATOM     83  C   UNL A   1      45.789  25.909  31.808  1.00  0.00     0.023 A 
ATOM     84  C   UNL A   1      44.667  26.430  32.496  1.00  0.00     0.031 A 
ATOM     85  C   UNL A   1      46.942  25.641  32.569  1.00  0.00     0.131 A 
ATOM     86  C   UNL A   1      44.737  26.679  33.883  1.00  0.00     0.055 A 
ATOM     87  C   UNL A   1      46.998  25.861  33.945  1.00  0.00     0.041 A 
ATOM     88  F   UNL A   1      48.035  25.121  31.986  1.00  0.00    -0.206 F 
ATOM     89  C   UNL A   1      45.897  26.389  34.606  1.00  0.00     0.022 A 
BRANCH  86  90
ATOM     90  S   UNL A   1      43.326  27.416  34.773  1.00  0.00     0.124 S 
ATOM     91  O   UNL A   1      43.951  28.113  35.889  1.00  0.00    -0.237 OA
ATOM     92  O   UNL A   1      42.716  28.262  33.750  1.00  0.00    -0.237 OA
ATOM     93  O   UNL A   1      42.522  26.252  35.155  1.00  0.00    -0.744 OA
ENDBRANCH  86  90
ENDBRANCH  60  83
ENDBRANCH  34  35
ENDBRANCH  27  29
ENDBRANCH  26  27
ENDBRANCH  25  26
ENDBRANCH  24  25
ENDBRANCH  23  24
ENDBRANCH  22  23
ENDBRANCH   1  22
TORSDOF 23
ENDMDL
MODEL 2
REMARK VINA RESULT:     -10.1      4.946      9.934
REMARK SMILES [H]/N=C1\C=CC2=NC(C(=O)OCCOCCOCCOCCOC(=O)c3ccc(-c4c5nc(c(-c6cc(S(=O)(=O)[O-])ccc6F)c6ccc([nH]6)c(-c6cc(S(=O)(=O)[O-])ccc6F)c6nc(c(-c7cc(S(=O)(=O)[O-])ccc7F)c7ccc4[nH]7)C=C6)C=C5)cc3)=C[C@@H]2C1
REMARK SMILES IDX 18 1 17 2 16 3 15 4 14 5 13 6 12 7 11 8 9 9 10 10 8 11 2 12
REMARK SMILES IDX 3 13 1 14 4 15 91 16 5 17 90 18 6 19 89 20 7 21 19 22 20 23
REMARK SMILES IDX 21 24 22 25 23 26 24 27 25 28 26 29 27 30 88 31 28 32 87 33
REMARK SMILES IDX 29 34 30 35 31 36 81 37 32 38 86 39 80 40 82 41 33 42 85 43
REMARK SMILES IDX 79 44 78 45 34 47 66 48 46 49 65 50 47 51 50 52 64 53 83 54
REMARK SMILES IDX 48 55 49 56 63 58 84 59 51 60 35 61 36 62 44 63 37 64 43 65
REMARK SMILES IDX 45 66 42 67 38 68 39 69 40 70 41 71 67 72 68 73 76 74 69 75
REMARK SMILES IDX 75 76 77 77 74 78 70 79 71 80 72 81 73 82 52 83 53 84 61 85
REMARK SMILES IDX 54 86 60 87 62 88 59 89 55 90 56 91 57 92 58 93
REMARK H PARENT 82 46 50 57
REMARK Flexibility Score: inf
ROOT
ATOM      1  C   UNL A   1      34.429  31.686  28.015  1.00  0.00     0.188 C 
ENDROOT
BRANCH   1   2
ATOM      2  O   UNL A   1      35.459  30.763  27.664  1.00  0.00    -0.377 OA
BRANCH   2   3
ATOM      3  C   UNL A   1      35.103  29.414  27.406  1.00  0.00     0.188 C 
BRANCH   3   4
ATOM      4  C   UNL A   1      33.699  29.233  26.790  1.00  0.00     0.188 C 
BRANCH   4   5
ATOM      5  O   UNL A   1      32.875  28.258  27.403  1.00  0.00    -0.376 OA
BRANCH   5   6
ATOM      6  C   UNL A   1      31.707  27.767  26.775  1.00  0.00     0.202 C 
BRANCH   6   7
ATOM      7  C   UNL A   1      31.310  27.992  25.300  1.00  0.00     0.261 C 
BRANCH   7   8
ATOM      8  O   UNL A   1      31.553  26.928  24.374  1.00  0.00    -0.459 OA
BRANCH   8   9
ATOM      9  C   UNL A   1      32.846  26.614  24.157  1.00  0.00     0.356 C 
ATOM     10  O   UNL A   1      33.738  27.398  23.867  1.00  0.00    -0.244 OA
BRANCH   9  11
ATOM     11  C   UNL A   1      33.094  25.175  24.478  1.00  0.00     0.145 C 
ATOM     12  N   UNL A   1      33.269  19.786  26.500  1.00  0.00    -0.305 NA
ATOM     13  C   UNL A   1      33.414  20.785  25.693  1.00  0.00     0.032 C 
ATOM     14  H   UNL A   1      32.929  18.926  26.161  1.00  0.00     0.187 HD
ATOM     15  C   UNL A   1      33.091  20.675  24.246  1.00  0.00     0.025 C 
ATOM     16  C   UNL A   1      33.940  22.116  26.223  1.00  0.00     0.069 C 
ATOM     17  C   UNL A   1      32.911  21.774  23.507  1.00  0.00     0.026 C 
ATOM     18  C   UNL A   1      33.056  23.205  25.658  1.00  0.00     0.069 C 
ATOM     19  C   UNL A   1      32.962  23.091  24.154  1.00  0.00     0.049 C 
ATOM     20  C   UNL A   1      33.381  24.669  25.689  1.00  0.00     0.019 C 
ATOM     21  N   UNL A   1      32.892  24.210  23.512  1.00  0.00    -0.245 NA
ENDBRANCH   9  11
ENDBRANCH   8   9
ENDBRANCH   7   8
ENDBRANCH   6   7
ENDBRANCH   5   6
ENDBRANCH   4   5
ENDBRANCH   3   4
ENDBRANCH   2   3
ENDBRANCH   1   2
BRANCH   1  22
ATOM     22  C   UNL A   1      34.642  33.225  27.996  1.00  0.00     0.188 C 
BRANCH  22  23
ATOM     23  O   UNL A   1      33.498  34.011  28.296  1.00  0.00    -0.376 OA
BRANCH  23  24
ATOM     24  C   UNL A   1      33.581  35.371  28.681  1.00  0.00     0.202 C 
BRANCH  24  25
ATOM     25  C   UNL A   1      32.905  35.774  29.985  1.00  0.00     0.261 C 
BRANCH  25  26
ATOM     26  O   UNL A   1      33.755  35.665  31.107  1.00  0.00    -0.460 OA
BRANCH  26  27
ATOM     27  C   UNL A   1      33.193  35.095  32.186  1.00  0.00     0.338 C 
ATOM     28  O   UNL A   1      32.011  35.149  32.521  1.00  0.00    -0.246 OA
BRANCH  27  29
ATOM     29  C   UNL A   1      34.256  34.487  32.977  1.00  0.00     0.060 A 
ATOM     30  C   UNL A   1      35.334  35.318  33.279  1.00  0.00     0.016 A 
ATOM     31  C   UNL A   1      34.349  33.087  32.964  1.00  0.00     0.016 A 
ATOM     32  C   UNL A   1      36.584  34.761  33.219  1.00  0.00     0.010 A 
ATOM     33  C   UNL A   1      35.595  32.542  32.861  1.00  0.00     0.010 A 
ATOM     34  C   UNL A   1      36.682  33.409  32.877  1.00  0.00    -0.014 A 
BRANCH  34  35
ATOM     35  C   UNL A   1      37.987  32.863  32.616  1.00  0.00     0.031 A 
ATOM     36  C   UNL A   1      38.810  32.859  33.834  1.00  0.00     0.074 A 
ATOM     37  C   UNL A   1      38.316  32.338  31.422  1.00  0.00     0.049 A 
ATOM     38  N   UNL A   1      39.773  33.671  34.109  1.00  0.00    -0.248 NA
ATOM     39  C   UNL A   1      38.344  32.067  34.986  1.00  0.00     0.031 C 
ATOM     40  C   UNL A   1      37.465  32.114  30.252  1.00  0.00     0.029 A 
ATOM     41  N   UNL A   1      39.494  31.788  31.044  1.00  0.00    -0.354 N 
ATOM     42  C   UNL A   1      40.215  33.284  35.362  1.00  0.00     0.074 A 
ATOM     43  C   UNL A   1      39.141  32.533  35.948  1.00  0.00     0.031 C 
ATOM     44  C   UNL A   1      38.092  31.261  29.408  1.00  0.00     0.029 A 
ATOM     45  C   UNL A   1      39.416  30.960  29.930  1.00  0.00     0.049 A 
ATOM     46  H   UNL A   1      40.339  31.960  31.520  1.00  0.00     0.167 HD
ATOM     47  C   UNL A   1      41.536  33.331  35.671  1.00  0.00     0.034 A 
ATOM     48  C   UNL A   1      40.341  30.031  29.558  1.00  0.00     0.034 A 
ATOM     49  C   UNL A   1      42.257  34.156  34.722  1.00  0.00     0.049 A 
ATOM     50  C   UNL A   1      41.626  30.440  30.197  1.00  0.00     0.074 A 
ATOM     51  C   UNL A   1      42.135  35.469  34.308  1.00  0.00     0.029 A 
ATOM     52  N   UNL A   1      42.986  33.521  33.739  1.00  0.00    -0.354 N 
ATOM     53  N   UNL A   1      42.254  31.543  29.881  1.00  0.00    -0.248 NA
ATOM     54  C   UNL A   1      41.922  29.936  31.534  1.00  0.00     0.031 C 
ATOM     55  C   UNL A   1      42.353  35.435  32.901  1.00  0.00     0.029 A 
ATOM     56  C   UNL A   1      42.699  34.130  32.539  1.00  0.00     0.049 A 
ATOM     57  H   UNL A   1      43.605  32.765  33.872  1.00  0.00     0.167 HD
ATOM     58  C   UNL A   1      42.642  32.102  31.091  1.00  0.00     0.074 A 
ATOM     59  C   UNL A   1      42.492  31.023  32.069  1.00  0.00     0.031 C 
ATOM     60  C   UNL A   1      42.742  33.458  31.250  1.00  0.00     0.034 A 
BRANCH  47  61
ATOM     61  C   UNL A   1      42.224  32.335  36.568  1.00  0.00     0.023 A 
ATOM     62  C   UNL A   1      42.953  32.858  37.648  1.00  0.00     0.031 A 
ATOM     63  C   UNL A   1      42.438  30.964  36.285  1.00  0.00     0.131 A 
ATOM     64  C   UNL A   1      43.903  32.073  38.319  1.00  0.00     0.055 A 
ATOM     65  C   UNL A   1      43.329  30.168  37.005  1.00  0.00     0.041 A 
ATOM     66  F   UNL A   1      41.883  30.335  35.243  1.00  0.00    -0.206 F 
ATOM     67  C   UNL A   1      44.094  30.729  38.008  1.00  0.00     0.022 A 
BRANCH  64  68
ATOM     68  S   UNL A   1      45.011  32.896  39.485  1.00  0.00     0.124 S 
ATOM     69  O   UNL A   1      46.320  32.550  38.939  1.00  0.00    -0.237 OA
ATOM     70  O   UNL A   1      44.604  34.291  39.350  1.00  0.00    -0.237 OA
ATOM     71  O   UNL A   1      44.682  32.270  40.762  1.00  0.00    -0.744 OA
ENDBRANCH  64  68
ENDBRANCH  47  61
BRANCH  48  72
ATOM     72  C   UNL A   1      40.064  28.656  29.030  1.00  0.00     0.023 A 
ATOM     73  C   UNL A   1      40.783  28.082  27.955  1.00  0.00     0.031 A 
ATOM     74  C   UNL A   1      39.214  27.779  29.746  1.00  0.00     0.131 A 
ATOM     75  C   UNL A   1      40.632  26.704  27.644  1.00  0.00     0.055 A 
ATOM     76  C   UNL A   1      39.066  26.427  29.431  1.00  0.00     0.041 A 
ATOM     77  F   UNL A   1      38.556  28.180  30.844  1.00  0.00    -0.206 F 
ATOM     78  C   UNL A   1      39.782  25.879  28.383  1.00  0.00     0.022 A 
BRANCH  75  79
ATOM     79  S   UNL A   1      41.617  25.924  26.320  1.00  0.00     0.124 S 
ATOM     80  O   UNL A   1      40.912  24.665  26.110  1.00  0.00    -0.237 OA
ATOM     81  O   UNL A   1      41.533  26.903  25.243  1.00  0.00    -0.237 OA
ATOM     82  O   UNL A   1      42.947  25.791  26.917  1.00  0.00    -0.744 OA
ENDBRANCH  75  79
ENDBRANCH  48  72
BRANCH  60  83
ATOM     83  C   UNL A   1      42.685  34.341  30.014  1.00  0.00     0.023 A 
ATOM     84  C   UNL A   1      43.778  34.620  29.158  1.00  0.00     0.031 A 
ATOM     85  C   UNL A   1      41.422  34.824  29.623  1.00  0.00     0.131 A 
ATOM     86  C   UNL A   1      43.582  35.369  27.979  1.00  0.00     0.055 A 
ATOM     87  C   UNL A   1      41.229  35.540  28.442  1.00  0.00     0.041 A 
ATOM     88  F   UNL A   1      40.336  34.575  30.374  1.00  0.00    -0.206 F 
ATOM     89  C   UNL A   1      42.311  35.823  27.619  1.00  0.00     0.022 A 
BRANCH  86  90
ATOM     90  S   UNL A   1      44.990  35.799  26.901  1.00  0.00     0.124 S 
ATOM     91  O   UNL A   1      44.766  34.993  25.708  1.00  0.00    -0.237 OA
ATOM     92  O   UNL A   1      44.834  37.242  26.739  1.00  0.00    -0.237 OA
ATOM     93  O   UNL A   1      46.156  35.401  27.694  1.00  0.00    -0.744 OA
ENDBRANCH  86  90
ENDBRANCH  60  83
ENDBRANCH  34  35
ENDBRANCH  27  29
ENDBRANCH  26  27
ENDBRANCH  25  26
ENDBRANCH  24  25
ENDBRANCH  23  24
ENDBRANCH  22  23
ENDBRANCH   1  22
TORSDOF 23
ENDMDL
MODEL 3
REMARK VINA RESULT:      -9.7      4.327     10.485
REMARK SMILES [H]/N=C1\C=CC2=NC(C(=O)OCCOCCOCCOCCOC(=O)c3ccc(-c4c5nc(c(-c6cc(S(=O)(=O)[O-])ccc6F)c6ccc([nH]6)c(-c6cc(S(=O)(=O)[O-])ccc6F)c6nc(c(-c7cc(S(=O)(=O)[O-])ccc7F)c7ccc4[nH]7)C=C6)C=C5)cc3)=C[C@@H]2C1
REMARK SMILES IDX 18 1 17 2 16 3 15 4 14 5 13 6 12 7 11 8 9 9 10 10 8 11 2 12
REMARK SMILES IDX 3 13 1 14 4 15 91 16 5 17 90 18 6 19 89 20 7 21 19 22 20 23
REMARK SMILES IDX 21 24 22 25 23 26 24 27 25 28 26 29 27 30 88 31 28 32 87 33
REMARK SMILES IDX 29 34 30 35 31 36 81 37 32 38 86 39 80 40 82 41 33 42 85 43
REMARK SMILES IDX 79 44 78 45 34 47 66 48 46 49 65 50 47 51 50 52 64 53 83 54
REMARK SMILES IDX 48 55 49 56 63 58 84 59 51 60 35 61 36 62 44 63 37 64 43 65
REMARK SMILES IDX 45 66 42 67 38 68 39 69 40 70 41 71 67 72 68 73 76 74 69 75
REMARK SMILES IDX 75 76 77 77 74 78 70 79 71 80 72 81 73 82 52 83 53 84 61 85
REMARK SMILES IDX 54 86 60 87 62 88 59 89 55 90 56 91 57 92 58 93
REMARK H PARENT 82 46 50 57
REMARK Flexibility Score: inf
ROOT
ATOM      1  C   UNL A   1      43.553  19.937  25.653  1.00  0.00     0.188 C 
ENDROOT
BRANCH   1   2
ATOM      2  O   UNL A   1      42.265  19.407  25.345  1.00  0.00    -0.377 OA
BRANCH   2   3
ATOM      3  C   UNL A   1      41.242  19.496  26.324  1.00  0.00     0.188 C 
BRANCH   3   4
ATOM      4  C   UNL A   1      39.868  19.932  25.771  1.00  0.00     0.188 C 
BRANCH   4   5
ATOM      5  O   UNL A   1      39.345  21.140  26.292  1.00  0.00    -0.376 OA
BRANCH   5   6
ATOM      6  C   UNL A   1      38.314  21.851  25.635  1.00  0.00     0.202 C 
BRANCH   6   7
ATOM      7  C   UNL A   1      37.386  21.290  24.536  1.00  0.00     0.261 C 
BRANCH   7   8
ATOM      8  O   UNL A   1      36.257  22.080  24.149  1.00  0.00    -0.459 OA
BRANCH   8   9
ATOM      9  C   UNL A   1      35.138  21.917  24.884  1.00  0.00     0.356 C 
ATOM     10  O   UNL A   1      34.725  20.861  25.340  1.00  0.00    -0.244 OA
BRANCH   9  11
ATOM     11  C   UNL A   1      34.536  23.244  25.217  1.00  0.00     0.145 C 
ATOM     12  N   UNL A   1      32.345  28.565  25.412  1.00  0.00    -0.305 NA
ATOM     13  C   UNL A   1      32.600  27.345  25.750  1.00  0.00     0.032 C 
ATOM     14  H   UNL A   1      31.428  28.916  25.491  1.00  0.00     0.187 HD
ATOM     15  C   UNL A   1      31.542  26.441  26.274  1.00  0.00     0.025 C 
ATOM     16  C   UNL A   1      34.022  26.806  25.626  1.00  0.00     0.069 C 
ATOM     17  C   UNL A   1      31.728  25.118  26.289  1.00  0.00     0.026 C 
ATOM     18  C   UNL A   1      33.931  25.445  24.971  1.00  0.00     0.069 C 
ATOM     19  C   UNL A   1      32.958  24.559  25.714  1.00  0.00     0.049 C 
ATOM     20  C   UNL A   1      35.050  24.448  24.918  1.00  0.00     0.019 C 
ATOM     21  N   UNL A   1      33.269  23.306  25.764  1.00  0.00    -0.245 NA
ENDBRANCH   9  11
ENDBRANCH   8   9
ENDBRANCH   7   8
ENDBRANCH   6   7
ENDBRANCH   5   6
ENDBRANCH   4   5
ENDBRANCH   3   4
ENDBRANCH   2   3
ENDBRANCH   1   2
BRANCH   1  22
ATOM     22  C   UNL A   1      44.131  21.195  24.947  1.00  0.00     0.188 C 
BRANCH  22  23
ATOM     23  O   UNL A   1      43.288  22.338  24.932  1.00  0.00    -0.376 OA
BRANCH  23  24
ATOM     24  C   UNL A   1      42.552  22.762  26.065  1.00  0.00     0.202 C 
BRANCH  24  25
ATOM     25  C   UNL A   1      42.731  24.205  26.518  1.00  0.00     0.261 C 
BRANCH  25  26
ATOM     26  O   UNL A   1      41.518  24.825  26.888  1.00  0.00    -0.460 OA
BRANCH  26  27
ATOM     27  C   UNL A   1      41.159  25.866  26.119  1.00  0.00     0.338 C 
ATOM     28  O   UNL A   1      41.545  26.111  24.978  1.00  0.00    -0.246 OA
BRANCH  27  29
ATOM     29  C   UNL A   1      40.309  26.741  26.917  1.00  0.00     0.060 A 
ATOM     30  C   UNL A   1      40.296  28.081  26.534  1.00  0.00     0.016 A 
ATOM     31  C   UNL A   1      39.974  26.311  28.210  1.00  0.00     0.016 A 
ATOM     32  C   UNL A   1      40.292  29.014  27.537  1.00  0.00     0.010 A 
ATOM     33  C   UNL A   1      40.015  27.238  29.210  1.00  0.00     0.010 A 
ATOM     34  C   UNL A   1      40.288  28.556  28.858  1.00  0.00    -0.014 A 
BRANCH  34  35
ATOM     35  C   UNL A   1      40.484  29.512  29.914  1.00  0.00     0.031 A 
ATOM     36  C   UNL A   1      39.274  30.319  30.127  1.00  0.00     0.074 A 
ATOM     37  C   UNL A   1      41.610  29.542  30.649  1.00  0.00     0.049 A 
ATOM     38  N   UNL A   1      39.096  31.541  29.756  1.00  0.00    -0.248 NA
ATOM     39  C   UNL A   1      38.039  29.627  30.532  1.00  0.00     0.031 C 
ATOM     40  C   UNL A   1      42.746  28.619  30.627  1.00  0.00     0.029 A 
ATOM     41  N   UNL A   1      41.922  30.375  31.671  1.00  0.00    -0.354 N 
ATOM     42  C   UNL A   1      37.806  31.846  30.156  1.00  0.00     0.074 A 
ATOM     43  C   UNL A   1      37.137  30.588  30.336  1.00  0.00     0.031 C 
ATOM     44  C   UNL A   1      43.486  28.803  31.746  1.00  0.00     0.029 A 
ATOM     45  C   UNL A   1      42.934  29.914  32.505  1.00  0.00     0.049 A 
ATOM     46  H   UNL A   1      41.470  31.238  31.811  1.00  0.00     0.167 HD
ATOM     47  C   UNL A   1      37.505  33.086  30.622  1.00  0.00     0.034 A 
ATOM     48  C   UNL A   1      43.196  30.362  33.766  1.00  0.00     0.034 A 
ATOM     49  C   UNL A   1      38.543  34.033  30.269  1.00  0.00     0.049 A 
ATOM     50  C   UNL A   1      42.610  31.732  33.853  1.00  0.00     0.074 A 
ATOM     51  C   UNL A   1      39.105  34.436  29.072  1.00  0.00     0.029 A 
ATOM     52  N   UNL A   1      39.447  34.394  31.247  1.00  0.00    -0.354 N 
ATOM     53  N   UNL A   1      43.051  32.738  33.144  1.00  0.00    -0.248 NA
ATOM     54  C   UNL A   1      41.224  31.860  34.291  1.00  0.00     0.031 C 
ATOM     55  C   UNL A   1      40.499  34.555  29.341  1.00  0.00     0.029 A 
ATOM     56  C   UNL A   1      40.709  34.322  30.703  1.00  0.00     0.049 A 
ATOM     57  H   UNL A   1      39.228  34.657  32.171  1.00  0.00     0.167 HD
ATOM     58  C   UNL A   1      41.913  33.377  32.669  1.00  0.00     0.074 A 
ATOM     59  C   UNL A   1      40.818  32.847  33.484  1.00  0.00     0.031 C 
ATOM     60  C   UNL A   1      41.912  34.027  31.465  1.00  0.00     0.034 A 
BRANCH  47  61
ATOM     61  C   UNL A   1      36.499  33.351  31.712  1.00  0.00     0.023 A 
ATOM     62  C   UNL A   1      37.009  33.569  33.001  1.00  0.00     0.031 A 
ATOM     63  C   UNL A   1      35.102  33.134  31.629  1.00  0.00     0.131 A 
ATOM     64  C   UNL A   1      36.179  33.471  34.127  1.00  0.00     0.055 A 
ATOM     65  C   UNL A   1      34.268  33.113  32.747  1.00  0.00     0.041 A 
ATOM     66  F   UNL A   1      34.473  32.833  30.488  1.00  0.00    -0.206 F 
ATOM     67  C   UNL A   1      34.810  33.248  34.011  1.00  0.00     0.022 A 
BRANCH  64  68
ATOM     68  S   UNL A   1      36.959  33.460  35.758  1.00  0.00     0.124 S 
ATOM     69  O   UNL A   1      37.403  32.074  35.861  1.00  0.00    -0.237 OA
ATOM     70  O   UNL A   1      38.006  34.463  35.593  1.00  0.00    -0.237 OA
ATOM     71  O   UNL A   1      35.870  33.835  36.655  1.00  0.00    -0.744 OA
ENDBRANCH  64  68
ENDBRANCH  47  61
BRANCH  48  72
ATOM     72  C   UNL A   1      43.562  29.526  34.954  1.00  0.00     0.023 A 
ATOM     73  C   UNL A   1      42.796  28.416  35.382  1.00  0.00     0.031 A 
ATOM     74  C   UNL A   1      44.830  29.677  35.565  1.00  0.00     0.131 A 
ATOM     75  C   UNL A   1      43.303  27.531  36.371  1.00  0.00     0.055 A 
ATOM     76  C   UNL A   1      45.320  28.807  36.540  1.00  0.00     0.041 A 
ATOM     77  F   UNL A   1      45.688  30.631  35.175  1.00  0.00    -0.206 F 
ATOM     78  C   UNL A   1      44.563  27.722  36.941  1.00  0.00     0.022 A 
BRANCH  75  79
ATOM     79  S   UNL A   1      42.371  26.043  36.872  1.00  0.00     0.124 S 
ATOM     80  O   UNL A   1      42.224  25.330  35.609  1.00  0.00    -0.237 OA
ATOM     81  O   UNL A   1      43.253  25.437  37.863  1.00  0.00    -0.237 OA
ATOM     82  O   UNL A   1      41.127  26.588  37.418  1.00  0.00    -0.744 OA
ENDBRANCH  75  79
ENDBRANCH  48  72
BRANCH  60  83
ATOM     83  C   UNL A   1      43.242  34.275  30.771  1.00  0.00     0.023 A 
ATOM     84  C   UNL A   1      43.876  33.379  29.877  1.00  0.00     0.031 A 
ATOM     85  C   UNL A   1      43.830  35.543  30.936  1.00  0.00     0.131 A 
ATOM     86  C   UNL A   1      45.058  33.761  29.209  1.00  0.00     0.055 A 
ATOM     87  C   UNL A   1      44.983  35.927  30.252  1.00  0.00     0.041 A 
ATOM     88  F   UNL A   1      43.267  36.453  31.749  1.00  0.00    -0.206 F 
ATOM     89  C   UNL A   1      45.606  35.033  29.392  1.00  0.00     0.022 A 
BRANCH  86  90
ATOM     90  S   UNL A   1      45.929  32.595  28.110  1.00  0.00     0.124 S 
ATOM     91  O   UNL A   1      47.331  32.774  28.462  1.00  0.00    -0.237 OA
ATOM     92  O   UNL A   1      45.334  31.312  28.476  1.00  0.00    -0.237 OA
ATOM     93  O   UNL A   1      45.573  33.066  26.768  1.00  0.00    -0.744 OA
ENDBRANCH  86  90
ENDBRANCH  60  83
ENDBRANCH  34  35
ENDBRANCH  27  29
ENDBRANCH  26  27
ENDBRANCH  25  26
ENDBRANCH  24  25
ENDBRANCH  23  24
ENDBRANCH  22  23
ENDBRANCH   1  22
TORSDOF 23
ENDMDL
