MODEL 1
REMARK VINA RESULT:     -11.1      0.000      0.000
REMARK SMILES O=C(OCCOCCOCCOCCOC(=O)c1ccc(-c2c3nc(c(-c4cc(S(=O)(=O)[O-])ccc4F)c4ccc([nH]4)c(-c4cc(S(=O)(=O)[O-])ccc4F)c4nc(c(-c5cc(S(=O)(=O)[O-])ccc5F)c5ccc2[nH]5)C=C4)C=C3)cc1)C1=Cc2cc(Cl)c(Cl)c(Cl)c2O[C@@H]1C(F)(F)F
REMARK SMILES IDX 10 1 9 2 8 3 7 4 6 5 5 6 4 7 3 8 2 9 1 10 81 11 82 12 93 13
REMARK SMILES IDX 83 14 92 15 84 16 91 17 85 18 89 19 86 20 87 21 90 22 88 23
REMARK SMILES IDX 94 24 95 25 96 26 97 27 11 28 12 29 13 30 14 31 15 32 16 33
REMARK SMILES IDX 17 34 18 35 19 36 80 37 20 38 79 39 21 40 22 41 23 42 73 43
REMARK SMILES IDX 24 44 78 45 72 46 74 47 25 48 77 49 71 50 70 51 26 53 58 54
REMARK SMILES IDX 38 55 57 56 39 57 42 58 56 59 75 60 40 61 41 62 55 64 76 65
REMARK SMILES IDX 43 66 27 67 28 68 36 69 29 70 35 71 37 72 34 73 30 74 31 75
REMARK SMILES IDX 32 76 33 77 59 78 60 79 68 80 61 81 67 82 69 83 66 84 62 85
REMARK SMILES IDX 63 86 64 87 65 88 44 89 45 90 53 91 46 92 52 93 54 94 51 95
REMARK SMILES IDX 47 96 48 97 49 98 50 99
REMARK H PARENT 74 52 42 63
REMARK Flexibility Score: inf
ROOT
ATOM      1  C   UNL A   1      33.675  28.228  24.835  1.00  0.00     0.188 C 
ENDROOT
BRANCH   1   2
ATOM      2  O   UNL A   1      32.796  27.533  23.981  1.00  0.00    -0.377 OA
BRANCH   2   3
ATOM      3  C   UNL A   1      32.256  28.373  22.989  1.00  0.00     0.188 C 
BRANCH   3   4
ATOM      4  C   UNL A   1      30.739  28.246  22.809  1.00  0.00     0.188 C 
BRANCH   4   5
ATOM      5  O   UNL A   1      30.010  26.979  22.887  1.00  0.00    -0.376 OA
BRANCH   5   6
ATOM      6  C   UNL A   1      29.452  26.061  24.126  1.00  0.00     0.202 C 
BRANCH   6   7
ATOM      7  C   UNL A   1      30.407  25.649  26.042  1.00  0.00     0.261 C 
BRANCH   7   8
ATOM      8  O   UNL A   1      31.877  25.280  26.259  1.00  0.00    -0.460 OA
BRANCH   8   9
ATOM      9  C   UNL A   1      32.122  23.980  26.061  1.00  0.00     0.338 C 
ATOM     10  O   UNL A   1      31.927  23.044  26.794  1.00  0.00    -0.246 OA
BRANCH   9  11
ATOM     11  C   UNL A   1      33.036  24.166  24.956  1.00  0.00     0.087 C 
ATOM     12  C   UNL A   1      34.353  24.674  25.381  1.00  0.00     0.027 C 
ATOM     13  C   UNL A   1      32.715  22.432  24.177  1.00  0.00     0.316 C 
ATOM     14  C   UNL A   1      35.845  23.659  25.435  1.00  0.00     0.020 A 
ATOM     15  O   UNL A   1      34.280  21.288  24.342  1.00  0.00    -0.474 OA
ATOM     16  C   UNL A   1      36.999  24.208  25.923  1.00  0.00     0.034 A 
ATOM     17  C   UNL A   1      35.835  21.973  25.037  1.00  0.00     0.148 A 
ATOM     18  C   UNL A   1      38.098  23.327  26.030  1.00  0.00     0.062 A 
ATOM     19  C   UNL A   1      36.938  21.171  25.237  1.00  0.00     0.103 A 
ATOM     20  Cl  UNL A   1      39.547  24.097  26.635  1.00  0.00    -0.083 Cl
ATOM     21  C   UNL A   1      38.081  21.889  25.710  1.00  0.00     0.082 A 
ATOM     22  Cl  UNL A   1      36.897  19.472  25.053  1.00  0.00    -0.079 Cl
ATOM     23  Cl  UNL A   1      39.583  21.012  25.918  1.00  0.00    -0.081 Cl
BRANCH  13  24
ATOM     24  C   UNL A   1      31.905  23.017  22.871  1.00  0.00     0.430 C 
ATOM     25  F   UNL A   1      32.466  24.024  22.178  1.00  0.00    -0.167 F 
ATOM     26  F   UNL A   1      31.843  21.990  21.965  1.00  0.00    -0.167 F 
ATOM     27  F   UNL A   1      30.608  23.336  23.097  1.00  0.00    -0.167 F 
ENDBRANCH  13  24
ENDBRANCH   9  11
ENDBRANCH   8   9
ENDBRANCH   7   8
ENDBRANCH   6   7
ENDBRANCH   5   6
ENDBRANCH   4   5
ENDBRANCH   3   4
ENDBRANCH   2   3
ENDBRANCH   1   2
BRANCH   1  28
ATOM     28  C   UNL A   1      33.028  28.961  26.013  1.00  0.00     0.188 C 
BRANCH  28  29
ATOM     29  O   UNL A   1      32.897  30.372  26.049  1.00  0.00    -0.376 OA
BRANCH  29  30
ATOM     30  C   UNL A   1      31.726  30.988  26.555  1.00  0.00     0.202 C 
BRANCH  30  31
ATOM     31  C   UNL A   1      31.684  32.475  26.944  1.00  0.00     0.261 C 
BRANCH  31  32
ATOM     32  O   UNL A   1      32.927  33.185  26.893  1.00  0.00    -0.460 OA
BRANCH  32  33
ATOM     33  C   UNL A   1      33.421  33.573  28.092  1.00  0.00     0.338 C 
ATOM     34  O   UNL A   1      32.849  34.255  28.926  1.00  0.00    -0.246 OA
BRANCH  33  35
ATOM     35  C   UNL A   1      34.699  32.871  28.351  1.00  0.00     0.060 A 
ATOM     36  C   UNL A   1      34.654  31.493  28.613  1.00  0.00     0.016 A 
ATOM     37  C   UNL A   1      35.921  33.546  28.348  1.00  0.00     0.016 A 
ATOM     38  C   UNL A   1      35.819  30.791  28.908  1.00  0.00     0.010 A 
ATOM     39  C   UNL A   1      37.086  32.852  28.692  1.00  0.00     0.010 A 
ATOM     40  C   UNL A   1      37.030  31.482  29.014  1.00  0.00    -0.014 A 
BRANCH  40  41
ATOM     41  C   UNL A   1      38.168  30.840  29.712  1.00  0.00     0.031 A 
ATOM     42  C   UNL A   1      38.392  31.199  31.156  1.00  0.00     0.074 A 
ATOM     43  C   UNL A   1      38.959  29.941  29.102  1.00  0.00     0.049 A 
ATOM     44  N   UNL A   1      39.361  30.856  31.961  1.00  0.00    -0.248 NA
ATOM     45  C   UNL A   1      37.379  32.075  31.771  1.00  0.00     0.031 C 
ATOM     46  C   UNL A   1      38.787  29.458  27.735  1.00  0.00     0.029 A 
ATOM     47  N   UNL A   1      40.073  29.280  29.556  1.00  0.00    -0.354 N 
ATOM     48  C   UNL A   1      39.087  31.483  33.171  1.00  0.00     0.074 A 
ATOM     49  C   UNL A   1      37.877  32.254  32.983  1.00  0.00     0.031 C 
ATOM     50  C   UNL A   1      39.774  28.590  27.453  1.00  0.00     0.029 A 
ATOM     51  C   UNL A   1      40.677  28.498  28.600  1.00  0.00     0.049 A 
ATOM     52  H   UNL A   1      40.409  29.360  30.478  1.00  0.00     0.167 HD
ATOM     53  C   UNL A   1      39.782  31.421  34.331  1.00  0.00     0.034 A 
ATOM     54  C   UNL A   1      41.843  27.821  28.638  1.00  0.00     0.034 A 
ATOM     55  C   UNL A   1      40.995  30.656  34.488  1.00  0.00     0.049 A 
ATOM     56  C   UNL A   1      42.667  27.859  29.907  1.00  0.00     0.074 A 
ATOM     57  C   UNL A   1      41.777  30.511  35.619  1.00  0.00     0.029 A 
ATOM     58  N   UNL A   1      41.610  29.923  33.481  1.00  0.00    -0.354 N 
ATOM     59  N   UNL A   1      42.405  28.460  31.046  1.00  0.00    -0.248 NA
ATOM     60  C   UNL A   1      43.941  27.128  29.896  1.00  0.00     0.031 C 
ATOM     61  C   UNL A   1      42.912  29.772  35.271  1.00  0.00     0.029 A 
ATOM     62  C   UNL A   1      42.787  29.364  33.952  1.00  0.00     0.049 A 
ATOM     63  H   UNL A   1      41.260  29.816  32.567  1.00  0.00     0.167 HD
ATOM     64  C   UNL A   1      43.465  28.146  31.896  1.00  0.00     0.074 A 
ATOM     65  C   UNL A   1      44.361  27.296  31.141  1.00  0.00     0.031 C 
ATOM     66  C   UNL A   1      43.675  28.521  33.185  1.00  0.00     0.034 A 
BRANCH  53  67
ATOM     67  C   UNL A   1      39.288  32.253  35.488  1.00  0.00     0.023 A 
ATOM     68  C   UNL A   1      39.678  33.592  35.664  1.00  0.00     0.031 A 
ATOM     69  C   UNL A   1      38.430  31.687  36.447  1.00  0.00     0.131 A 
ATOM     70  C   UNL A   1      39.269  34.295  36.808  1.00  0.00     0.055 A 
ATOM     71  C   UNL A   1      37.955  32.419  37.536  1.00  0.00     0.041 A 
ATOM     72  F   UNL A   1      38.048  30.404  36.350  1.00  0.00    -0.206 F 
ATOM     73  C   UNL A   1      38.386  33.728  37.729  1.00  0.00     0.022 A 
BRANCH  70  74
ATOM     74  S   UNL A   1      40.030  35.905  37.154  1.00  0.00     0.124 S 
ATOM     75  O   UNL A   1      39.673  36.664  35.958  1.00  0.00    -0.237 OA
ATOM     76  O   UNL A   1      39.365  36.309  38.389  1.00  0.00    -0.237 OA
ATOM     77  O   UNL A   1      41.451  35.591  37.284  1.00  0.00    -0.744 OA
ENDBRANCH  70  74
ENDBRANCH  53  67
BRANCH  54  78
ATOM     78  C   UNL A   1      42.344  27.101  27.430  1.00  0.00     0.023 A 
ATOM     79  C   UNL A   1      42.392  25.698  27.384  1.00  0.00     0.031 A 
ATOM     80  C   UNL A   1      42.850  27.809  26.324  1.00  0.00     0.131 A 
ATOM     81  C   UNL A   1      42.977  25.052  26.283  1.00  0.00     0.055 A 
ATOM     82  C   UNL A   1      43.369  27.161  25.202  1.00  0.00     0.041 A 
ATOM     83  F   UNL A   1      42.845  29.152  26.317  1.00  0.00    -0.206 F 
ATOM     84  C   UNL A   1      43.448  25.773  25.184  1.00  0.00     0.022 A 
BRANCH  81  85
ATOM     85  S   UNL A   1      43.218  23.256  26.358  1.00  0.00     0.124 S 
ATOM     86  O   UNL A   1      42.512  22.813  25.161  1.00  0.00    -0.237 OA
ATOM     87  O   UNL A   1      44.672  23.143  26.324  1.00  0.00    -0.237 OA
ATOM     88  O   UNL A   1      42.594  22.881  27.626  1.00  0.00    -0.744 OA
ENDBRANCH  81  85
ENDBRANCH  54  78
BRANCH  66  89
ATOM     89  C   UNL A   1      44.896  27.968  33.881  1.00  0.00     0.023 A 
ATOM     90  C   UNL A   1      44.901  26.697  34.480  1.00  0.00     0.031 A 
ATOM     91  C   UNL A   1      46.081  28.724  33.931  1.00  0.00     0.131 A 
ATOM     92  C   UNL A   1      46.050  26.242  35.147  1.00  0.00     0.055 A 
ATOM     93  C   UNL A   1      47.243  28.238  34.531  1.00  0.00     0.041 A 
ATOM     94  F   UNL A   1      46.135  29.949  33.381  1.00  0.00    -0.206 F 
ATOM     95  C   UNL A   1      47.228  26.994  35.155  1.00  0.00     0.022 A 
BRANCH  92  96
ATOM     96  S   UNL A   1      45.957  24.697  36.092  1.00  0.00     0.124 S 
ATOM     97  O   UNL A   1      45.198  25.108  37.268  1.00  0.00    -0.237 OA
ATOM     98  O   UNL A   1      45.266  23.805  35.166  1.00  0.00    -0.237 OA
ATOM     99  O   UNL A   1      47.358  24.364  36.343  1.00  0.00    -0.744 OA
ENDBRANCH  92  96
ENDBRANCH  66  89
ENDBRANCH  40  41
ENDBRANCH  33  35
ENDBRANCH  32  33
ENDBRANCH  31  32
ENDBRANCH  30  31
ENDBRANCH  29  30
ENDBRANCH  28  29
ENDBRANCH   1  28
TORSDOF 24
ENDMDL
MODEL 2
REMARK VINA RESULT:     -10.8      1.782      2.007
REMARK SMILES O=C(OCCOCCOCCOCCOC(=O)c1ccc(-c2c3nc(c(-c4cc(S(=O)(=O)[O-])ccc4F)c4ccc([nH]4)c(-c4cc(S(=O)(=O)[O-])ccc4F)c4nc(c(-c5cc(S(=O)(=O)[O-])ccc5F)c5ccc2[nH]5)C=C4)C=C3)cc1)C1=Cc2cc(Cl)c(Cl)c(Cl)c2O[C@@H]1C(F)(F)F
REMARK SMILES IDX 10 1 9 2 8 3 7 4 6 5 5 6 4 7 3 8 2 9 1 10 81 11 82 12 93 13
REMARK SMILES IDX 83 14 92 15 84 16 91 17 85 18 89 19 86 20 87 21 90 22 88 23
REMARK SMILES IDX 94 24 95 25 96 26 97 27 11 28 12 29 13 30 14 31 15 32 16 33
REMARK SMILES IDX 17 34 18 35 19 36 80 37 20 38 79 39 21 40 22 41 23 42 73 43
REMARK SMILES IDX 24 44 78 45 72 46 74 47 25 48 77 49 71 50 70 51 26 53 58 54
REMARK SMILES IDX 38 55 57 56 39 57 42 58 56 59 75 60 40 61 41 62 55 64 76 65
REMARK SMILES IDX 43 66 27 67 28 68 36 69 29 70 35 71 37 72 34 73 30 74 31 75
REMARK SMILES IDX 32 76 33 77 59 78 60 79 68 80 61 81 67 82 69 83 66 84 62 85
REMARK SMILES IDX 63 86 64 87 65 88 44 89 45 90 53 91 46 92 52 93 54 94 51 95
REMARK SMILES IDX 47 96 48 97 49 98 50 99
REMARK H PARENT 74 52 42 63
REMARK Flexibility Score: inf
ROOT
ATOM      1  C   UNL A   1      32.624  28.472  25.312  1.00  0.00     0.188 C 
ENDROOT
BRANCH   1   2
ATOM      2  O   UNL A   1      32.350  28.103  23.980  1.00  0.00    -0.377 OA
BRANCH   2   3
ATOM      3  C   UNL A   1      31.528  29.044  23.334  1.00  0.00     0.188 C 
BRANCH   3   4
ATOM      4  C   UNL A   1      30.225  28.465  22.769  1.00  0.00     0.188 C 
BRANCH   4   5
ATOM      5  O   UNL A   1      29.765  27.097  23.013  1.00  0.00    -0.376 OA
BRANCH   5   6
ATOM      6  C   UNL A   1      29.055  26.346  24.286  1.00  0.00     0.202 C 
BRANCH   6   7
ATOM      7  C   UNL A   1      30.007  25.279  25.932  1.00  0.00     0.261 C 
BRANCH   7   8
ATOM      8  O   UNL A   1      31.485  25.355  26.325  1.00  0.00    -0.460 OA
BRANCH   8   9
ATOM      9  C   UNL A   1      32.068  24.153  26.391  1.00  0.00     0.338 C 
ATOM     10  O   UNL A   1      32.094  23.363  27.300  1.00  0.00    -0.246 OA
BRANCH   9  11
ATOM     11  C   UNL A   1      32.947  24.351  25.259  1.00  0.00     0.087 C 
ATOM     12  C   UNL A   1      34.309  24.750  25.655  1.00  0.00     0.027 C 
ATOM     13  C   UNL A   1      32.486  22.690  24.395  1.00  0.00     0.316 C 
ATOM     14  C   UNL A   1      35.736  23.646  25.584  1.00  0.00     0.020 A 
ATOM     15  O   UNL A   1      33.981  21.445  24.424  1.00  0.00    -0.474 OA
ATOM     16  C   UNL A   1      36.940  24.093  26.053  1.00  0.00     0.034 A 
ATOM     17  C   UNL A   1      35.603  21.991  25.089  1.00  0.00     0.148 A 
ATOM     18  C   UNL A   1      37.985  23.143  26.060  1.00  0.00     0.062 A 
ATOM     19  C   UNL A   1      36.660  21.113  25.194  1.00  0.00     0.103 A 
ATOM     20  Cl  UNL A   1      39.502  23.784  26.645  1.00  0.00    -0.083 Cl
ATOM     21  C   UNL A   1      37.864  21.731  25.657  1.00  0.00     0.082 A 
ATOM     22  Cl  UNL A   1      36.505  19.434  24.912  1.00  0.00    -0.079 Cl
ATOM     23  Cl  UNL A   1      39.315  20.753  25.748  1.00  0.00    -0.081 Cl
BRANCH  13  24
ATOM     24  C   UNL A   1      31.664  23.402  23.162  1.00  0.00     0.430 C 
ATOM     25  F   UNL A   1      32.051  24.628  22.767  1.00  0.00    -0.167 F 
ATOM     26  F   UNL A   1      31.876  22.620  22.056  1.00  0.00    -0.167 F 
ATOM     27  F   UNL A   1      30.316  23.414  23.304  1.00  0.00    -0.167 F 
ENDBRANCH  13  24
ENDBRANCH   9  11
ENDBRANCH   8   9
ENDBRANCH   7   8
ENDBRANCH   6   7
ENDBRANCH   5   6
ENDBRANCH   4   5
ENDBRANCH   3   4
ENDBRANCH   2   3
ENDBRANCH   1   2
BRANCH   1  28
ATOM     28  C   UNL A   1      31.720  29.553  25.909  1.00  0.00     0.188 C 
BRANCH  28  29
ATOM     29  O   UNL A   1      32.233  30.758  26.451  1.00  0.00    -0.376 OA
BRANCH  29  30
ATOM     30  C   UNL A   1      31.415  31.906  26.596  1.00  0.00     0.202 C 
BRANCH  30  31
ATOM     31  C   UNL A   1      31.943  33.219  27.196  1.00  0.00     0.261 C 
BRANCH  31  32
ATOM     32  O   UNL A   1      33.364  33.397  27.196  1.00  0.00    -0.460 OA
BRANCH  32  33
ATOM     33  C   UNL A   1      33.906  33.726  28.391  1.00  0.00     0.338 C 
ATOM     34  O   UNL A   1      33.402  34.435  29.246  1.00  0.00    -0.246 OA
BRANCH  33  35
ATOM     35  C   UNL A   1      35.131  32.925  28.616  1.00  0.00     0.060 A 
ATOM     36  C   UNL A   1      34.981  31.586  29.010  1.00  0.00     0.016 A 
ATOM     37  C   UNL A   1      36.406  33.471  28.455  1.00  0.00     0.016 A 
ATOM     38  C   UNL A   1      36.097  30.798  29.279  1.00  0.00     0.010 A 
ATOM     39  C   UNL A   1      37.526  32.696  28.773  1.00  0.00     0.010 A 
ATOM     40  C   UNL A   1      37.371  31.371  29.226  1.00  0.00    -0.014 A 
BRANCH  40  41
ATOM     41  C   UNL A   1      38.500  30.681  29.893  1.00  0.00     0.031 A 
ATOM     42  C   UNL A   1      38.788  31.040  31.325  1.00  0.00     0.074 A 
ATOM     43  C   UNL A   1      39.227  29.742  29.265  1.00  0.00     0.049 A 
ATOM     44  N   UNL A   1      39.766  30.657  32.101  1.00  0.00    -0.248 NA
ATOM     45  C   UNL A   1      37.839  31.967  31.966  1.00  0.00     0.031 C 
ATOM     46  C   UNL A   1      38.988  29.257  27.909  1.00  0.00     0.029 A 
ATOM     47  N   UNL A   1      40.324  29.033  29.688  1.00  0.00    -0.354 N 
ATOM     48  C   UNL A   1      39.562  31.305  33.313  1.00  0.00     0.074 A 
ATOM     49  C   UNL A   1      38.384  32.131  33.159  1.00  0.00     0.031 C 
ATOM     50  C   UNL A   1      39.923  28.342  27.602  1.00  0.00     0.029 A 
ATOM     51  C   UNL A   1      40.858  28.215  28.720  1.00  0.00     0.049 A 
ATOM     52  H   UNL A   1      40.693  29.103  30.597  1.00  0.00     0.167 HD
ATOM     53  C   UNL A   1      40.292  31.218  34.451  1.00  0.00     0.034 A 
ATOM     54  C   UNL A   1      41.992  27.484  28.725  1.00  0.00     0.034 A 
ATOM     55  C   UNL A   1      41.471  30.399  34.575  1.00  0.00     0.049 A 
ATOM     56  C   UNL A   1      42.858  27.493  29.966  1.00  0.00     0.074 A 
ATOM     57  C   UNL A   1      42.283  30.224  35.681  1.00  0.00     0.029 A 
ATOM     58  N   UNL A   1      42.018  29.630  33.555  1.00  0.00    -0.354 N 
ATOM     59  N   UNL A   1      42.662  28.113  31.108  1.00  0.00    -0.248 NA
ATOM     60  C   UNL A   1      44.096  26.703  29.920  1.00  0.00     0.031 C 
ATOM     61  C   UNL A   1      43.370  29.430  35.303  1.00  0.00     0.029 A 
ATOM     62  C   UNL A   1      43.182  29.019  33.992  1.00  0.00     0.049 A 
ATOM     63  H   UNL A   1      41.633  29.533  32.653  1.00  0.00     0.167 HD
ATOM     64  C   UNL A   1      43.734  27.756  31.926  1.00  0.00     0.074 A 
ATOM     65  C   UNL A   1      44.564  26.860  31.150  1.00  0.00     0.031 C 
ATOM     66  C   UNL A   1      44.004  28.130  33.204  1.00  0.00     0.034 A 
BRANCH  53  67
ATOM     67  C   UNL A   1      39.875  32.082  35.616  1.00  0.00     0.023 A 
ATOM     68  C   UNL A   1      38.973  31.630  36.595  1.00  0.00     0.031 A 
ATOM     69  C   UNL A   1      40.371  33.392  35.734  1.00  0.00     0.131 A 
ATOM     70  C   UNL A   1      38.542  32.502  37.605  1.00  0.00     0.055 A 
ATOM     71  C   UNL A   1      40.006  34.226  36.792  1.00  0.00     0.041 A 
ATOM     72  F   UNL A   1      41.210  33.892  34.814  1.00  0.00    -0.206 F 
ATOM     73  C   UNL A   1      39.075  33.787  37.728  1.00  0.00     0.022 A 
BRANCH  70  74
ATOM     74  S   UNL A   1      37.160  31.989  38.663  1.00  0.00     0.124 S 
ATOM     75  O   UNL A   1      36.077  32.833  38.164  1.00  0.00    -0.237 OA
ATOM     76  O   UNL A   1      37.049  30.565  38.367  1.00  0.00    -0.237 OA
ATOM     77  O   UNL A   1      37.623  32.313  40.011  1.00  0.00    -0.744 OA
ENDBRANCH  70  74
ENDBRANCH  53  67
BRANCH  54  78
ATOM     78  C   UNL A   1      42.418  26.733  27.508  1.00  0.00     0.023 A 
ATOM     79  C   UNL A   1      42.421  25.329  27.480  1.00  0.00     0.031 A 
ATOM     80  C   UNL A   1      42.899  27.411  26.371  1.00  0.00     0.131 A 
ATOM     81  C   UNL A   1      42.938  24.650  26.366  1.00  0.00     0.055 A 
ATOM     82  C   UNL A   1      43.349  26.731  25.238  1.00  0.00     0.041 A 
ATOM     83  F   UNL A   1      42.935  28.753  26.345  1.00  0.00    -0.206 F 
ATOM     84  C   UNL A   1      43.385  25.341  25.237  1.00  0.00     0.022 A 
BRANCH  81  85
ATOM     85  S   UNL A   1      43.126  22.848  26.456  1.00  0.00     0.124 S 
ATOM     86  O   UNL A   1      42.332  22.411  25.314  1.00  0.00    -0.237 OA
ATOM     87  O   UNL A   1      44.571  22.687  26.333  1.00  0.00    -0.237 OA
ATOM     88  O   UNL A   1      42.572  22.514  27.767  1.00  0.00    -0.744 OA
ENDBRANCH  81  85
ENDBRANCH  54  78
BRANCH  66  89
ATOM     89  C   UNL A   1      45.220  27.525  33.865  1.00  0.00     0.023 A 
ATOM     90  C   UNL A   1      46.477  28.152  33.832  1.00  0.00     0.031 A 
ATOM     91  C   UNL A   1      45.112  26.303  34.554  1.00  0.00     0.131 A 
ATOM     92  C   UNL A   1      47.585  27.531  34.430  1.00  0.00     0.055 A 
ATOM     93  C   UNL A   1      46.199  25.726  35.209  1.00  0.00     0.041 A 
ATOM     94  F   UNL A   1      43.936  25.654  34.614  1.00  0.00    -0.206 F 
ATOM     95  C   UNL A   1      47.448  26.334  35.139  1.00  0.00     0.022 A 
BRANCH  92  96
ATOM     96  S   UNL A   1      49.229  28.255  34.186  1.00  0.00     0.124 S 
ATOM     97  O   UNL A   1      48.912  29.496  33.487  1.00  0.00    -0.237 OA
ATOM     98  O   UNL A   1      49.714  28.400  35.555  1.00  0.00    -0.237 OA
ATOM     99  O   UNL A   1      49.929  27.253  33.384  1.00  0.00    -0.744 OA
ENDBRANCH  92  96
ENDBRANCH  66  89
ENDBRANCH  40  41
ENDBRANCH  33  35
ENDBRANCH  32  33
ENDBRANCH  31  32
ENDBRANCH  30  31
ENDBRANCH  29  30
ENDBRANCH  28  29
ENDBRANCH   1  28
TORSDOF 24
ENDMDL
MODEL 3
REMARK VINA RESULT:     -10.2      2.104      2.956
REMARK SMILES O=C(OCCOCCOCCOCCOC(=O)c1ccc(-c2c3nc(c(-c4cc(S(=O)(=O)[O-])ccc4F)c4ccc([nH]4)c(-c4cc(S(=O)(=O)[O-])ccc4F)c4nc(c(-c5cc(S(=O)(=O)[O-])ccc5F)c5ccc2[nH]5)C=C4)C=C3)cc1)C1=Cc2cc(Cl)c(Cl)c(Cl)c2O[C@@H]1C(F)(F)F
REMARK SMILES IDX 10 1 9 2 8 3 7 4 6 5 5 6 4 7 3 8 2 9 1 10 81 11 82 12 93 13
REMARK SMILES IDX 83 14 92 15 84 16 91 17 85 18 89 19 86 20 87 21 90 22 88 23
REMARK SMILES IDX 94 24 95 25 96 26 97 27 11 28 12 29 13 30 14 31 15 32 16 33
REMARK SMILES IDX 17 34 18 35 19 36 80 37 20 38 79 39 21 40 22 41 23 42 73 43
REMARK SMILES IDX 24 44 78 45 72 46 74 47 25 48 77 49 71 50 70 51 26 53 58 54
REMARK SMILES IDX 38 55 57 56 39 57 42 58 56 59 75 60 40 61 41 62 55 64 76 65
REMARK SMILES IDX 43 66 27 67 28 68 36 69 29 70 35 71 37 72 34 73 30 74 31 75
REMARK SMILES IDX 32 76 33 77 59 78 60 79 68 80 61 81 67 82 69 83 66 84 62 85
REMARK SMILES IDX 63 86 64 87 65 88 44 89 45 90 53 91 46 92 52 93 54 94 51 95
REMARK SMILES IDX 47 96 48 97 49 98 50 99
REMARK H PARENT 74 52 42 63
REMARK Flexibility Score: inf
ROOT
ATOM      1  C   UNL A   1      32.569  29.176  27.374  1.00  0.00     0.188 C 
ENDROOT
BRANCH   1   2
ATOM      2  O   UNL A   1      31.721  28.347  26.612  1.00  0.00    -0.377 OA
BRANCH   2   3
ATOM      3  C   UNL A   1      31.924  28.519  25.231  1.00  0.00     0.188 C 
BRANCH   3   4
ATOM      4  C   UNL A   1      30.655  28.869  24.444  1.00  0.00     0.188 C 
BRANCH   4   5
ATOM      5  O   UNL A   1      30.332  28.318  23.127  1.00  0.00    -0.376 OA
BRANCH   5   6
ATOM      6  C   UNL A   1      31.230  27.733  21.886  1.00  0.00     0.202 C 
BRANCH   6   7
ATOM      7  C   UNL A   1      31.927  25.692  21.564  1.00  0.00     0.261 C 
BRANCH   7   8
ATOM      8  O   UNL A   1      31.790  24.524  22.543  1.00  0.00    -0.460 OA
BRANCH   8   9
ATOM      9  C   UNL A   1      32.855  23.715  22.540  1.00  0.00     0.338 C 
ATOM     10  O   UNL A   1      33.507  23.311  21.610  1.00  0.00    -0.246 OA
BRANCH   9  11
ATOM     11  C   UNL A   1      32.655  23.197  23.875  1.00  0.00     0.087 C 
ATOM     12  C   UNL A   1      32.127  21.821  23.882  1.00  0.00     0.027 C 
ATOM     13  C   UNL A   1      34.395  23.720  24.522  1.00  0.00     0.316 C 
ATOM     14  C   UNL A   1      33.118  20.372  24.304  1.00  0.00     0.020 A 
ATOM     15  O   UNL A   1      35.514  22.165  24.861  1.00  0.00    -0.474 OA
ATOM     16  C   UNL A   1      32.551  19.132  24.200  1.00  0.00     0.034 A 
ATOM     17  C   UNL A   1      34.804  20.481  24.687  1.00  0.00     0.148 A 
ATOM     18  C   UNL A   1      33.414  18.041  24.447  1.00  0.00     0.062 A 
ATOM     19  C   UNL A   1      35.589  19.359  24.846  1.00  0.00     0.103 A 
ATOM     20  Cl  UNL A   1      32.622  16.488  24.324  1.00  0.00    -0.083 Cl
ATOM     21  C   UNL A   1      34.852  18.137  24.753  1.00  0.00     0.082 A 
ATOM     22  Cl  UNL A   1      37.289  19.430  25.016  1.00  0.00    -0.079 Cl
ATOM     23  Cl  UNL A   1      35.706  16.632  25.030  1.00  0.00    -0.081 Cl
BRANCH  13  24
ATOM     24  C   UNL A   1      33.822  24.907  25.506  1.00  0.00     0.430 C 
ATOM     25  F   UNL A   1      32.594  25.396  25.260  1.00  0.00    -0.167 F 
ATOM     26  F   UNL A   1      33.710  24.351  26.754  1.00  0.00    -0.167 F 
ATOM     27  F   UNL A   1      34.661  25.956  25.686  1.00  0.00    -0.167 F 
ENDBRANCH  13  24
ENDBRANCH   9  11
ENDBRANCH   8   9
ENDBRANCH   7   8
ENDBRANCH   6   7
ENDBRANCH   5   6
ENDBRANCH   4   5
ENDBRANCH   3   4
ENDBRANCH   2   3
ENDBRANCH   1   2
BRANCH   1  28
ATOM     28  C   UNL A   1      32.736  30.611  26.868  1.00  0.00     0.188 C 
BRANCH  28  29
ATOM     29  O   UNL A   1      31.633  31.483  26.680  1.00  0.00    -0.376 OA
BRANCH  29  30
ATOM     30  C   UNL A   1      31.715  32.855  27.025  1.00  0.00     0.202 C 
BRANCH  30  31
ATOM     31  C   UNL A   1      32.985  33.473  27.632  1.00  0.00     0.261 C 
BRANCH  31  32
ATOM     32  O   UNL A   1      32.859  34.793  28.172  1.00  0.00    -0.460 OA
BRANCH  32  33
ATOM     33  C   UNL A   1      33.464  34.990  29.366  1.00  0.00     0.338 C 
ATOM     34  O   UNL A   1      33.081  35.723  30.262  1.00  0.00    -0.246 OA
BRANCH  33  35
ATOM     35  C   UNL A   1      34.570  34.018  29.526  1.00  0.00     0.060 A 
ATOM     36  C   UNL A   1      34.291  32.802  30.170  1.00  0.00     0.016 A 
ATOM     37  C   UNL A   1      35.860  34.289  29.065  1.00  0.00     0.016 A 
ATOM     38  C   UNL A   1      35.302  31.870  30.389  1.00  0.00     0.010 A 
ATOM     39  C   UNL A   1      36.885  33.376  29.328  1.00  0.00     0.010 A 
ATOM     40  C   UNL A   1      36.616  32.183  30.027  1.00  0.00    -0.014 A 
BRANCH  40  41
ATOM     41  C   UNL A   1      37.731  31.401  30.612  1.00  0.00     0.031 A 
ATOM     42  C   UNL A   1      38.111  31.690  32.039  1.00  0.00     0.074 A 
ATOM     43  C   UNL A   1      38.365  30.442  29.918  1.00  0.00     0.049 A 
ATOM     44  N   UNL A   1      39.100  31.220  32.750  1.00  0.00    -0.248 NA
ATOM     45  C   UNL A   1      37.255  32.650  32.757  1.00  0.00     0.031 C 
ATOM     46  C   UNL A   1      38.028  30.022  28.560  1.00  0.00     0.029 A 
ATOM     47  N   UNL A   1      39.434  29.652  30.260  1.00  0.00    -0.354 N 
ATOM     48  C   UNL A   1      38.997  31.836  33.992  1.00  0.00     0.074 A 
ATOM     49  C   UNL A   1      37.868  32.738  33.926  1.00  0.00     0.031 C 
ATOM     50  C   UNL A   1      38.888  29.062  28.177  1.00  0.00     0.029 A 
ATOM     51  C   UNL A   1      39.867  28.838  29.240  1.00  0.00     0.049 A 
ATOM     52  H   UNL A   1      39.851  29.667  31.151  1.00  0.00     0.167 HD
ATOM     53  C   UNL A   1      39.775  31.664  35.087  1.00  0.00     0.034 A 
ATOM     54  C   UNL A   1      40.951  28.039  29.163  1.00  0.00     0.034 A 
ATOM     55  C   UNL A   1      40.905  30.769  35.124  1.00  0.00     0.049 A 
ATOM     56  C   UNL A   1      41.876  27.950  30.358  1.00  0.00     0.074 A 
ATOM     57  C   UNL A   1      41.758  30.505  36.180  1.00  0.00     0.029 A 
ATOM     58  N   UNL A   1      41.350  30.005  34.052  1.00  0.00    -0.354 N 
ATOM     59  N   UNL A   1      41.776  28.540  31.528  1.00  0.00    -0.248 NA
ATOM     60  C   UNL A   1      43.057  27.087  30.222  1.00  0.00     0.031 C 
ATOM     61  C   UNL A   1      42.772  29.660  35.721  1.00  0.00     0.029 A 
ATOM     62  C   UNL A   1      42.494  29.308  34.409  1.00  0.00     0.049 A 
ATOM     63  H   UNL A   1      40.917  29.964  33.169  1.00  0.00     0.167 HD
ATOM     64  C   UNL A   1      42.862  28.088  32.277  1.00  0.00     0.074 A 
ATOM     65  C   UNL A   1      43.595  27.170  31.430  1.00  0.00     0.031 C 
ATOM     66  C   UNL A   1      43.218  28.399  33.551  1.00  0.00     0.034 A 
BRANCH  53  67
ATOM     67  C   UNL A   1      39.472  32.509  36.300  1.00  0.00     0.023 A 
ATOM     68  C   UNL A   1      38.639  32.054  37.337  1.00  0.00     0.031 A 
ATOM     69  C   UNL A   1      40.006  33.805  36.406  1.00  0.00     0.131 A 
ATOM     70  C   UNL A   1      38.310  32.913  38.396  1.00  0.00     0.055 A 
ATOM     71  C   UNL A   1      39.745  34.623  37.507  1.00  0.00     0.041 A 
ATOM     72  F   UNL A   1      40.782  34.307  35.433  1.00  0.00    -0.206 F 
ATOM     73  C   UNL A   1      38.881  34.182  38.504  1.00  0.00     0.022 A 
BRANCH  70  74
ATOM     74  S   UNL A   1      37.004  32.405  39.550  1.00  0.00     0.124 S 
ATOM     75  O   UNL A   1      35.798  32.743  38.797  1.00  0.00    -0.237 OA
ATOM     76  O   UNL A   1      37.272  30.982  39.722  1.00  0.00    -0.237 OA
ATOM     77  O   UNL A   1      37.247  33.235  40.728  1.00  0.00    -0.744 OA
ENDBRANCH  70  74
ENDBRANCH  53  67
BRANCH  54  78
ATOM     78  C   UNL A   1      41.268  27.307  27.902  1.00  0.00     0.023 A 
ATOM     79  C   UNL A   1      41.110  25.915  27.806  1.00  0.00     0.031 A 
ATOM     80  C   UNL A   1      41.803  27.982  26.788  1.00  0.00     0.131 A 
ATOM     81  C   UNL A   1      41.528  25.239  26.649  1.00  0.00     0.055 A 
ATOM     82  C   UNL A   1      42.154  27.314  25.614  1.00  0.00     0.041 A 
ATOM     83  F   UNL A   1      41.991  29.311  26.826  1.00  0.00    -0.206 F 
ATOM     84  C   UNL A   1      42.031  25.931  25.545  1.00  0.00     0.022 A 
BRANCH  81  85
ATOM     85  S   UNL A   1      41.511  23.425  26.648  1.00  0.00     0.124 S 
ATOM     86  O   UNL A   1      42.133  23.124  27.932  1.00  0.00    -0.237 OA
ATOM     87  O   UNL A   1      40.086  23.134  26.540  1.00  0.00    -0.237 OA
ATOM     88  O   UNL A   1      42.308  23.078  25.472  1.00  0.00    -0.744 OA
ENDBRANCH  81  85
ENDBRANCH  54  78
BRANCH  66  89
ATOM     89  C   UNL A   1      44.424  27.696  34.128  1.00  0.00     0.023 A 
ATOM     90  C   UNL A   1      44.309  26.526  34.896  1.00  0.00     0.031 A 
ATOM     91  C   UNL A   1      45.715  28.203  33.890  1.00  0.00     0.131 A 
ATOM     92  C   UNL A   1      45.458  25.930  35.441  1.00  0.00     0.055 A 
ATOM     93  C   UNL A   1      46.859  27.567  34.372  1.00  0.00     0.041 A 
ATOM     94  F   UNL A   1      45.887  29.323  33.167  1.00  0.00    -0.206 F 
ATOM     95  C   UNL A   1      46.733  26.430  35.164  1.00  0.00     0.022 A 
BRANCH  92  96
ATOM     96  S   UNL A   1      45.259  24.551  36.602  1.00  0.00     0.124 S 
ATOM     97  O   UNL A   1      46.540  24.558  37.301  1.00  0.00    -0.237 OA
ATOM     98  O   UNL A   1      44.102  24.967  37.388  1.00  0.00    -0.237 OA
ATOM     99  O   UNL A   1      45.034  23.399  35.731  1.00  0.00    -0.744 OA
ENDBRANCH  92  96
ENDBRANCH  66  89
ENDBRANCH  40  41
ENDBRANCH  33  35
ENDBRANCH  32  33
ENDBRANCH  31  32
ENDBRANCH  30  31
ENDBRANCH  29  30
ENDBRANCH  28  29
ENDBRANCH   1  28
TORSDOF 24
ENDMDL
