MODEL 1
REMARK VINA RESULT:      -9.1      0.000      0.000
REMARK SMILES O=C(OCCOCCOCCOCCOC(=O)[C@H]1Cc2[nH]cnc2CN1C(=O)c1ccncc1Cl)c1ccc(-c2c3nc(c(-c4cc(S(=O)(=O)[O-])ccc4F)c4ccc([nH]4)c(-c4cc(S(=O)(=O)[O-])ccc4F)c4nc(c(-c5cc(S(=O)(=O)[O-])ccc5F)c5ccc2[nH]5)C=C4)C=C3)cc1
REMARK SMILES IDX 8 1 7 2 6 3 5 4 4 5 3 6 2 7 1 8 36 9 37 10 98 11 38 12 97 13
REMARK SMILES IDX 39 14 40 15 41 16 91 17 42 18 96 19 90 20 92 21 43 22 95 23
REMARK SMILES IDX 89 24 88 25 44 27 76 28 56 29 75 30 57 31 60 32 74 33 93 34
REMARK SMILES IDX 58 35 59 36 73 38 94 39 61 40 45 41 46 42 54 43 47 44 53 45
REMARK SMILES IDX 55 46 52 47 48 48 49 49 50 50 51 51 77 52 78 53 86 54 79 55
REMARK SMILES IDX 85 56 87 57 84 58 80 59 81 60 82 61 83 62 62 63 63 64 71 65
REMARK SMILES IDX 64 66 70 67 72 68 69 69 65 70 66 71 67 72 68 73 9 74 10 75
REMARK SMILES IDX 11 76 12 77 13 78 14 79 15 80 16 81 17 82 18 83 19 84 26 85
REMARK SMILES IDX 20 86 25 87 21 88 24 89 22 90 23 92 27 93 28 94 29 95 30 96
REMARK SMILES IDX 34 97 31 98 33 99 35 100 32 101
REMARK H PARENT 92 26 60 37 21 91
REMARK Flexibility Score: inf
ROOT
ATOM      1  C   UNL A   1      42.237  20.337  26.821  1.00  0.00     0.188 C 
ENDROOT
BRANCH   1   2
ATOM      2  C   UNL A   1      43.397  20.927  26.008  1.00  0.00     0.188 C 
BRANCH   2   3
ATOM      3  O   UNL A   1      42.996  21.844  25.005  1.00  0.00    -0.376 OA
BRANCH   3   4
ATOM      4  C   UNL A   1      43.680  23.081  24.881  1.00  0.00     0.202 C 
BRANCH   4   5
ATOM      5  C   UNL A   1      44.994  23.361  25.635  1.00  0.00     0.261 C 
BRANCH   5   6
ATOM      6  O   UNL A   1      45.091  24.649  26.246  1.00  0.00    -0.460 OA
BRANCH   6   7
ATOM      7  C   UNL A   1      44.927  25.852  25.662  1.00  0.00     0.338 C 
ATOM      8  O   UNL A   1      45.549  26.114  24.634  1.00  0.00    -0.246 OA
BRANCH   7   9
ATOM      9  C   UNL A   1      44.256  26.961  26.393  1.00  0.00     0.060 A 
ATOM     10  C   UNL A   1      43.313  27.834  25.850  1.00  0.00     0.016 A 
ATOM     11  C   UNL A   1      44.646  27.128  27.737  1.00  0.00     0.016 A 
ATOM     12  C   UNL A   1      42.870  28.921  26.587  1.00  0.00     0.010 A 
ATOM     13  C   UNL A   1      44.198  28.210  28.481  1.00  0.00     0.010 A 
ATOM     14  C   UNL A   1      43.364  29.139  27.875  1.00  0.00    -0.014 A 
BRANCH  14  15
ATOM     15  C   UNL A   1      42.945  30.358  28.551  1.00  0.00     0.031 A 
ATOM     16  C   UNL A   1      43.809  31.536  28.285  1.00  0.00     0.074 A 
ATOM     17  C   UNL A   1      41.872  30.412  29.366  1.00  0.00     0.049 A 
ATOM     18  N   UNL A   1      44.641  32.098  29.098  1.00  0.00    -0.248 NA
ATOM     19  C   UNL A   1      43.885  32.045  26.909  1.00  0.00     0.031 C 
ATOM     20  C   UNL A   1      40.823  29.409  29.565  1.00  0.00     0.029 A 
ATOM     21  N   UNL A   1      41.464  31.436  30.165  1.00  0.00    -0.354 N 
ATOM     22  C   UNL A   1      45.184  33.178  28.411  1.00  0.00     0.074 A 
ATOM     23  C   UNL A   1      44.818  32.993  27.031  1.00  0.00     0.031 C 
ATOM     24  C   UNL A   1      39.795  29.963  30.252  1.00  0.00     0.029 A 
ATOM     25  C   UNL A   1      40.175  31.302  30.672  1.00  0.00     0.049 A 
ATOM     26  H   UNL A   1      42.036  32.212  30.367  1.00  0.00     0.167 HD
ATOM     27  C   UNL A   1      45.709  34.244  29.077  1.00  0.00     0.034 A 
ATOM     28  C   UNL A   1      39.461  32.236  31.358  1.00  0.00     0.034 A 
ATOM     29  C   UNL A   1      46.038  33.892  30.440  1.00  0.00     0.049 A 
ATOM     30  C   UNL A   1      40.454  33.159  31.965  1.00  0.00     0.074 A 
ATOM     31  C   UNL A   1      46.886  32.964  31.014  1.00  0.00     0.029 A 
ATOM     32  N   UNL A   1      45.165  34.258  31.440  1.00  0.00    -0.354 N 
ATOM     33  N   UNL A   1      41.300  32.786  32.889  1.00  0.00    -0.248 NA
ATOM     34  C   UNL A   1      40.851  34.332  31.199  1.00  0.00     0.031 C 
ATOM     35  C   UNL A   1      46.157  32.442  32.123  1.00  0.00     0.029 A 
ATOM     36  C   UNL A   1      44.954  33.146  32.219  1.00  0.00     0.049 A 
ATOM     37  H   UNL A   1      44.767  35.148  31.572  1.00  0.00     0.167 HD
ATOM     38  C   UNL A   1      42.501  33.388  32.541  1.00  0.00     0.074 A 
ATOM     39  C   UNL A   1      42.144  34.389  31.535  1.00  0.00     0.031 C 
ATOM     40  C   UNL A   1      43.703  32.844  32.890  1.00  0.00     0.034 A 
BRANCH  27  41
ATOM     41  C   UNL A   1      45.593  35.682  28.619  1.00  0.00     0.023 A 
ATOM     42  C   UNL A   1      44.329  36.297  28.719  1.00  0.00     0.031 A 
ATOM     43  C   UNL A   1      46.546  36.366  27.831  1.00  0.00     0.131 A 
ATOM     44  C   UNL A   1      44.028  37.456  27.981  1.00  0.00     0.055 A 
ATOM     45  C   UNL A   1      46.261  37.552  27.150  1.00  0.00     0.041 A 
ATOM     46  F   UNL A   1      47.772  35.886  27.596  1.00  0.00    -0.206 F 
ATOM     47  C   UNL A   1      44.986  38.086  27.193  1.00  0.00     0.022 A 
BRANCH  44  48
ATOM     48  S   UNL A   1      42.306  38.017  27.923  1.00  0.00     0.124 S 
ATOM     49  O   UNL A   1      42.129  38.284  26.502  1.00  0.00    -0.237 OA
ATOM     50  O   UNL A   1      41.596  36.863  28.460  1.00  0.00    -0.237 OA
ATOM     51  O   UNL A   1      42.310  39.203  28.784  1.00  0.00    -0.744 OA
ENDBRANCH  44  48
ENDBRANCH  27  41
BRANCH  28  52
ATOM     52  C   UNL A   1      38.022  32.581  31.151  1.00  0.00     0.023 A 
ATOM     53  C   UNL A   1      37.137  32.906  32.206  1.00  0.00     0.031 A 
ATOM     54  C   UNL A   1      37.553  32.832  29.840  1.00  0.00     0.131 A 
ATOM     55  C   UNL A   1      35.856  33.448  31.925  1.00  0.00     0.055 A 
ATOM     56  C   UNL A   1      36.292  33.368  29.571  1.00  0.00     0.041 A 
ATOM     57  F   UNL A   1      38.343  32.640  28.773  1.00  0.00    -0.206 F 
ATOM     58  C   UNL A   1      35.440  33.687  30.613  1.00  0.00     0.022 A 
BRANCH  55  59
ATOM     59  S   UNL A   1      34.723  33.927  33.274  1.00  0.00     0.124 S 
ATOM     60  O   UNL A   1      35.331  33.283  34.434  1.00  0.00    -0.237 OA
ATOM     61  O   UNL A   1      34.784  35.383  33.234  1.00  0.00    -0.237 OA
ATOM     62  O   UNL A   1      33.439  33.357  32.863  1.00  0.00    -0.744 OA
ENDBRANCH  55  59
ENDBRANCH  28  52
BRANCH  40  63
ATOM     63  C   UNL A   1      43.736  31.718  33.906  1.00  0.00     0.023 A 
ATOM     64  C   UNL A   1      43.566  30.345  33.615  1.00  0.00     0.031 A 
ATOM     65  C   UNL A   1      44.117  32.065  35.216  1.00  0.00     0.131 A 
ATOM     66  C   UNL A   1      43.785  29.381  34.624  1.00  0.00     0.055 A 
ATOM     67  C   UNL A   1      44.351  31.110  36.201  1.00  0.00     0.041 A 
ATOM     68  F   UNL A   1      44.319  33.352  35.546  1.00  0.00    -0.206 F 
ATOM     69  C   UNL A   1      44.184  29.763  35.910  1.00  0.00     0.022 A 
BRANCH  66  70
ATOM     70  S   UNL A   1      43.561  27.603  34.287  1.00  0.00     0.124 S 
ATOM     71  O   UNL A   1      42.839  27.586  33.020  1.00  0.00    -0.237 OA
ATOM     72  O   UNL A   1      44.936  27.112  34.250  1.00  0.00    -0.237 OA
ATOM     73  O   UNL A   1      42.784  27.133  35.437  1.00  0.00    -0.744 OA
ENDBRANCH  66  70
ENDBRANCH  40  63
ENDBRANCH  14  15
ENDBRANCH   7   9
ENDBRANCH   6   7
ENDBRANCH   5   6
ENDBRANCH   4   5
ENDBRANCH   3   4
ENDBRANCH   2   3
ENDBRANCH   1   2
BRANCH   1  74
ATOM     74  O   UNL A   1      41.299  21.207  27.425  1.00  0.00    -0.377 OA
BRANCH  74  75
ATOM     75  C   UNL A   1      40.112  21.566  26.758  1.00  0.00     0.188 C 
BRANCH  75  76
ATOM     76  C   UNL A   1      39.551  23.003  26.839  1.00  0.00     0.188 C 
BRANCH  76  77
ATOM     77  O   UNL A   1      38.214  23.203  26.440  1.00  0.00    -0.376 OA
BRANCH  77  78
ATOM     78  C   UNL A   1      37.583  22.344  25.510  1.00  0.00     0.202 C 
BRANCH  78  79
ATOM     79  C   UNL A   1      36.194  22.590  24.909  1.00  0.00     0.261 C 
BRANCH  79  80
ATOM     80  O   UNL A   1      36.097  23.590  23.884  1.00  0.00    -0.462 OA
BRANCH  80  81
ATOM     81  C   UNL A   1      34.836  23.879  23.487  1.00  0.00     0.329 C 
ATOM     82  O   UNL A   1      34.404  23.605  22.364  1.00  0.00    -0.250 OA
BRANCH  81  83
ATOM     83  C   UNL A   1      33.874  24.386  24.578  1.00  0.00     0.201 C 
ATOM     84  C   UNL A   1      33.669  25.920  24.200  1.00  0.00     0.093 C 
ATOM     85  N   UNL A   1      32.651  23.780  25.267  1.00  0.00    -0.318 N 
ATOM     86  C   UNL A   1      32.794  26.593  25.172  1.00  0.00     0.042 A 
ATOM     87  C   UNL A   1      32.256  24.523  26.507  1.00  0.00     0.179 C 
ATOM     88  N   UNL A   1      32.394  27.897  25.201  1.00  0.00    -0.348 N 
ATOM     89  C   UNL A   1      32.155  25.978  26.215  1.00  0.00     0.081 A 
ATOM     90  C   UNL A   1      31.588  28.032  26.300  1.00  0.00     0.197 A 
ATOM     91  H   UNL A   1      32.638  28.602  24.558  1.00  0.00     0.167 HD
ATOM     92  N   UNL A   1      31.437  26.892  26.940  1.00  0.00    -0.240 NA
BRANCH  85  93
ATOM     93  C   UNL A   1      31.853  22.643  25.059  1.00  0.00     0.256 C 
ATOM     94  O   UNL A   1      30.617  22.738  25.053  1.00  0.00    -0.269 OA
BRANCH  93  95
ATOM     95  C   UNL A   1      32.279  21.250  24.863  1.00  0.00     0.061 A 
ATOM     96  C   UNL A   1      33.004  20.682  25.931  1.00  0.00     0.035 A 
ATOM     97  C   UNL A   1      32.321  20.609  23.633  1.00  0.00     0.072 A 
ATOM     98  C   UNL A   1      33.631  19.460  25.760  1.00  0.00     0.112 A 
ATOM     99  C   UNL A   1      32.934  19.357  23.576  1.00  0.00     0.132 A 
ATOM    100  Cl  UNL A   1      31.782  21.327  22.161  1.00  0.00    -0.082 Cl
ATOM    101  N   UNL A   1      33.578  18.760  24.608  1.00  0.00    -0.263 NA
ENDBRANCH  93  95
ENDBRANCH  85  93
ENDBRANCH  81  83
ENDBRANCH  80  81
ENDBRANCH  79  80
ENDBRANCH  78  79
ENDBRANCH  77  78
ENDBRANCH  76  77
ENDBRANCH  75  76
ENDBRANCH  74  75
ENDBRANCH   1  74
TORSDOF 25
ENDMDL
MODEL 2
REMARK VINA RESULT:      -9.1      2.071      3.444
REMARK SMILES O=C(OCCOCCOCCOCCOC(=O)[C@H]1Cc2[nH]cnc2CN1C(=O)c1ccncc1Cl)c1ccc(-c2c3nc(c(-c4cc(S(=O)(=O)[O-])ccc4F)c4ccc([nH]4)c(-c4cc(S(=O)(=O)[O-])ccc4F)c4nc(c(-c5cc(S(=O)(=O)[O-])ccc5F)c5ccc2[nH]5)C=C4)C=C3)cc1
REMARK SMILES IDX 8 1 7 2 6 3 5 4 4 5 3 6 2 7 1 8 36 9 37 10 98 11 38 12 97 13
REMARK SMILES IDX 39 14 40 15 41 16 91 17 42 18 96 19 90 20 92 21 43 22 95 23
REMARK SMILES IDX 89 24 88 25 44 27 76 28 56 29 75 30 57 31 60 32 74 33 93 34
REMARK SMILES IDX 58 35 59 36 73 38 94 39 61 40 45 41 46 42 54 43 47 44 53 45
REMARK SMILES IDX 55 46 52 47 48 48 49 49 50 50 51 51 77 52 78 53 86 54 79 55
REMARK SMILES IDX 85 56 87 57 84 58 80 59 81 60 82 61 83 62 62 63 63 64 71 65
REMARK SMILES IDX 64 66 70 67 72 68 69 69 65 70 66 71 67 72 68 73 9 74 10 75
REMARK SMILES IDX 11 76 12 77 13 78 14 79 15 80 16 81 17 82 18 83 19 84 26 85
REMARK SMILES IDX 20 86 25 87 21 88 24 89 22 90 23 92 27 93 28 94 29 95 30 96
REMARK SMILES IDX 34 97 31 98 33 99 35 100 32 101
REMARK H PARENT 92 26 60 37 21 91
REMARK Flexibility Score: inf
ROOT
ATOM      1  C   UNL A   1      42.431  20.515  26.832  1.00  0.00     0.188 C 
ENDROOT
BRANCH   1   2
ATOM      2  C   UNL A   1      43.449  20.984  25.784  1.00  0.00     0.188 C 
BRANCH   2   3
ATOM      3  O   UNL A   1      42.971  22.005  24.925  1.00  0.00    -0.376 OA
BRANCH   3   4
ATOM      4  C   UNL A   1      43.735  23.190  24.762  1.00  0.00     0.202 C 
BRANCH   4   5
ATOM      5  C   UNL A   1      45.213  23.268  25.194  1.00  0.00     0.261 C 
BRANCH   5   6
ATOM      6  O   UNL A   1      45.587  24.455  25.896  1.00  0.00    -0.460 OA
BRANCH   6   7
ATOM      7  C   UNL A   1      45.566  25.722  25.441  1.00  0.00     0.338 C 
ATOM      8  O   UNL A   1      46.330  26.052  24.535  1.00  0.00    -0.246 OA
BRANCH   7   9
ATOM      9  C   UNL A   1      44.865  26.789  26.208  1.00  0.00     0.060 A 
ATOM     10  C   UNL A   1      43.530  27.158  26.043  1.00  0.00     0.016 A 
ATOM     11  C   UNL A   1      45.652  27.476  27.153  1.00  0.00     0.016 A 
ATOM     12  C   UNL A   1      43.031  28.267  26.709  1.00  0.00     0.010 A 
ATOM     13  C   UNL A   1      45.154  28.581  27.828  1.00  0.00     0.010 A 
ATOM     14  C   UNL A   1      43.864  29.010  27.548  1.00  0.00    -0.014 A 
BRANCH  14  15
ATOM     15  C   UNL A   1      43.311  30.225  28.129  1.00  0.00     0.031 A 
ATOM     16  C   UNL A   1      43.925  31.480  27.626  1.00  0.00     0.074 A 
ATOM     17  C   UNL A   1      42.335  30.214  29.059  1.00  0.00     0.049 A 
ATOM     18  N   UNL A   1      44.726  32.270  28.261  1.00  0.00    -0.248 NA
ATOM     19  C   UNL A   1      43.769  31.808  26.203  1.00  0.00     0.031 C 
ATOM     20  C   UNL A   1      41.503  29.092  29.499  1.00  0.00     0.029 A 
ATOM     21  N   UNL A   1      41.840  31.256  29.781  1.00  0.00    -0.354 N 
ATOM     22  C   UNL A   1      44.999  33.323  27.394  1.00  0.00     0.074 A 
ATOM     23  C   UNL A   1      44.530  32.900  26.101  1.00  0.00     0.031 C 
ATOM     24  C   UNL A   1      40.471  29.560  30.241  1.00  0.00     0.029 A 
ATOM     25  C   UNL A   1      40.654  30.986  30.457  1.00  0.00     0.049 A 
ATOM     26  H   UNL A   1      42.287  32.133  29.822  1.00  0.00     0.167 HD
ATOM     27  C   UNL A   1      45.397  34.538  27.865  1.00  0.00     0.034 A 
ATOM     28  C   UNL A   1      39.863  31.877  31.116  1.00  0.00     0.034 A 
ATOM     29  C   UNL A   1      45.920  34.426  29.208  1.00  0.00     0.049 A 
ATOM     30  C   UNL A   1      40.737  33.019  31.487  1.00  0.00     0.074 A 
ATOM     31  C   UNL A   1      46.972  33.730  29.773  1.00  0.00     0.029 A 
ATOM     32  N   UNL A   1      45.105  34.777  30.260  1.00  0.00    -0.354 N 
ATOM     33  N   UNL A   1      41.726  32.912  32.335  1.00  0.00    -0.248 NA
ATOM     34  C   UNL A   1      40.843  34.128  30.549  1.00  0.00     0.031 C 
ATOM     35  C   UNL A   1      46.463  33.249  31.016  1.00  0.00     0.029 A 
ATOM     36  C   UNL A   1      45.173  33.759  31.181  1.00  0.00     0.049 A 
ATOM     37  H   UNL A   1      44.574  35.602  30.339  1.00  0.00     0.167 HD
ATOM     38  C   UNL A   1      42.761  33.646  31.775  1.00  0.00     0.074 A 
ATOM     39  C   UNL A   1      42.134  34.435  30.714  1.00  0.00     0.031 C 
ATOM     40  C   UNL A   1      44.069  33.352  32.031  1.00  0.00     0.034 A 
BRANCH  27  41
ATOM     41  C   UNL A   1      44.985  35.865  27.265  1.00  0.00     0.023 A 
ATOM     42  C   UNL A   1      46.011  36.756  26.890  1.00  0.00     0.031 A 
ATOM     43  C   UNL A   1      43.685  36.416  27.320  1.00  0.00     0.131 A 
ATOM     44  C   UNL A   1      45.747  38.124  26.700  1.00  0.00     0.055 A 
ATOM     45  C   UNL A   1      43.418  37.764  27.068  1.00  0.00     0.041 A 
ATOM     46  F   UNL A   1      42.615  35.714  27.709  1.00  0.00    -0.206 F 
ATOM     47  C   UNL A   1      44.455  38.635  26.789  1.00  0.00     0.022 A 
BRANCH  44  48
ATOM     48  S   UNL A   1      47.151  39.255  26.516  1.00  0.00     0.124 S 
ATOM     49  O   UNL A   1      46.717  40.395  27.312  1.00  0.00    -0.237 OA
ATOM     50  O   UNL A   1      48.247  38.463  27.060  1.00  0.00    -0.237 OA
ATOM     51  O   UNL A   1      47.208  39.488  25.071  1.00  0.00    -0.744 OA
ENDBRANCH  44  48
ENDBRANCH  27  41
BRANCH  28  52
ATOM     52  C   UNL A   1      38.372  31.957  31.051  1.00  0.00     0.023 A 
ATOM     53  C   UNL A   1      37.654  32.207  29.859  1.00  0.00     0.031 A 
ATOM     54  C   UNL A   1      37.609  31.536  32.166  1.00  0.00     0.131 A 
ATOM     55  C   UNL A   1      36.246  32.037  29.821  1.00  0.00     0.055 A 
ATOM     56  C   UNL A   1      36.223  31.368  32.122  1.00  0.00     0.041 A 
ATOM     57  F   UNL A   1      38.199  31.190  33.320  1.00  0.00    -0.206 F 
ATOM     58  C   UNL A   1      35.535  31.611  30.946  1.00  0.00     0.022 A 
BRANCH  55  59
ATOM     59  S   UNL A   1      35.309  32.300  28.277  1.00  0.00     0.124 S 
ATOM     60  O   UNL A   1      34.001  32.716  28.773  1.00  0.00    -0.237 OA
ATOM     61  O   UNL A   1      36.099  33.320  27.599  1.00  0.00    -0.237 OA
ATOM     62  O   UNL A   1      35.329  30.985  27.634  1.00  0.00    -0.744 OA
ENDBRANCH  55  59
ENDBRANCH  28  52
BRANCH  40  63
ATOM     63  C   UNL A   1      44.402  32.391  33.156  1.00  0.00     0.023 A 
ATOM     64  C   UNL A   1      44.472  30.983  33.039  1.00  0.00     0.031 A 
ATOM     65  C   UNL A   1      44.822  32.966  34.371  1.00  0.00     0.131 A 
ATOM     66  C   UNL A   1      44.955  30.212  34.119  1.00  0.00     0.055 A 
ATOM     67  C   UNL A   1      45.317  32.203  35.425  1.00  0.00     0.041 A 
ATOM     68  F   UNL A   1      44.803  34.300  34.532  1.00  0.00    -0.206 F 
ATOM     69  C   UNL A   1      45.383  30.821  35.303  1.00  0.00     0.022 A 
BRANCH  66  70
ATOM     70  S   UNL A   1      45.044  28.394  34.008  1.00  0.00     0.124 S 
ATOM     71  O   UNL A   1      44.137  28.076  32.911  1.00  0.00    -0.237 OA
ATOM     72  O   UNL A   1      46.464  28.162  33.755  1.00  0.00    -0.237 OA
ATOM     73  O   UNL A   1      44.585  27.948  35.325  1.00  0.00    -0.744 OA
ENDBRANCH  66  70
ENDBRANCH  40  63
ENDBRANCH  14  15
ENDBRANCH   7   9
ENDBRANCH   6   7
ENDBRANCH   5   6
ENDBRANCH   4   5
ENDBRANCH   3   4
ENDBRANCH   2   3
ENDBRANCH   1   2
BRANCH   1  74
ATOM     74  O   UNL A   1      41.769  21.473  27.635  1.00  0.00    -0.377 OA
BRANCH  74  75
ATOM     75  C   UNL A   1      40.567  22.069  27.207  1.00  0.00     0.188 C 
BRANCH  75  76
ATOM     76  C   UNL A   1      40.543  23.506  26.640  1.00  0.00     0.188 C 
BRANCH  76  77
ATOM     77  O   UNL A   1      39.502  24.356  27.067  1.00  0.00    -0.376 OA
BRANCH  77  78
ATOM     78  C   UNL A   1      38.145  23.973  26.965  1.00  0.00     0.202 C 
BRANCH  78  79
ATOM     79  C   UNL A   1      37.349  23.948  25.654  1.00  0.00     0.261 C 
BRANCH  79  80
ATOM     80  O   UNL A   1      37.312  22.702  24.941  1.00  0.00    -0.462 OA
BRANCH  80  81
ATOM     81  C   UNL A   1      36.455  22.671  23.894  1.00  0.00     0.329 C 
ATOM     82  O   UNL A   1      36.787  22.972  22.745  1.00  0.00    -0.250 OA
BRANCH  81  83
ATOM     83  C   UNL A   1      35.076  22.038  24.155  1.00  0.00     0.201 C 
ATOM     84  C   UNL A   1      35.436  20.553  24.607  1.00  0.00     0.093 C 
ATOM     85  N   UNL A   1      33.785  22.551  24.792  1.00  0.00    -0.318 N 
ATOM     86  C   UNL A   1      34.218  19.768  24.866  1.00  0.00     0.042 A 
ATOM     87  C   UNL A   1      32.606  21.672  24.505  1.00  0.00     0.179 C 
ATOM     88  N   UNL A   1      34.110  18.466  25.255  1.00  0.00    -0.348 N 
ATOM     89  C   UNL A   1      32.941  20.258  24.820  1.00  0.00     0.081 A 
ATOM     90  C   UNL A   1      32.770  18.201  25.361  1.00  0.00     0.197 A 
ATOM     91  H   UNL A   1      34.850  17.839  25.427  1.00  0.00     0.167 HD
ATOM     92  N   UNL A   1      32.039  19.262  25.090  1.00  0.00    -0.240 NA
BRANCH  85  93
ATOM     93  C   UNL A   1      33.421  23.697  25.518  1.00  0.00     0.256 C 
ATOM     94  O   UNL A   1      33.274  23.639  26.747  1.00  0.00    -0.269 OA
BRANCH  93  95
ATOM     95  C   UNL A   1      33.136  25.048  25.013  1.00  0.00     0.061 A 
ATOM     96  C   UNL A   1      33.812  26.096  25.672  1.00  0.00     0.035 A 
ATOM     97  C   UNL A   1      32.049  25.374  24.214  1.00  0.00     0.072 A 
ATOM     98  C   UNL A   1      33.453  27.409  25.418  1.00  0.00     0.112 A 
ATOM     99  C   UNL A   1      31.801  26.726  23.979  1.00  0.00     0.132 A 
ATOM    100  Cl  UNL A   1      30.922  24.215  23.615  1.00  0.00    -0.082 Cl
ATOM    101  N   UNL A   1      32.480  27.751  24.548  1.00  0.00    -0.263 NA
ENDBRANCH  93  95
ENDBRANCH  85  93
ENDBRANCH  81  83
ENDBRANCH  80  81
ENDBRANCH  79  80
ENDBRANCH  78  79
ENDBRANCH  77  78
ENDBRANCH  76  77
ENDBRANCH  75  76
ENDBRANCH  74  75
ENDBRANCH   1  74
TORSDOF 25
ENDMDL
MODEL 3
REMARK VINA RESULT:      -8.8      4.345      9.463
REMARK SMILES O=C(OCCOCCOCCOCCOC(=O)[C@H]1Cc2[nH]cnc2CN1C(=O)c1ccncc1Cl)c1ccc(-c2c3nc(c(-c4cc(S(=O)(=O)[O-])ccc4F)c4ccc([nH]4)c(-c4cc(S(=O)(=O)[O-])ccc4F)c4nc(c(-c5cc(S(=O)(=O)[O-])ccc5F)c5ccc2[nH]5)C=C4)C=C3)cc1
REMARK SMILES IDX 8 1 7 2 6 3 5 4 4 5 3 6 2 7 1 8 36 9 37 10 98 11 38 12 97 13
REMARK SMILES IDX 39 14 40 15 41 16 91 17 42 18 96 19 90 20 92 21 43 22 95 23
REMARK SMILES IDX 89 24 88 25 44 27 76 28 56 29 75 30 57 31 60 32 74 33 93 34
REMARK SMILES IDX 58 35 59 36 73 38 94 39 61 40 45 41 46 42 54 43 47 44 53 45
REMARK SMILES IDX 55 46 52 47 48 48 49 49 50 50 51 51 77 52 78 53 86 54 79 55
REMARK SMILES IDX 85 56 87 57 84 58 80 59 81 60 82 61 83 62 62 63 63 64 71 65
REMARK SMILES IDX 64 66 70 67 72 68 69 69 65 70 66 71 67 72 68 73 9 74 10 75
REMARK SMILES IDX 11 76 12 77 13 78 14 79 15 80 16 81 17 82 18 83 19 84 26 85
REMARK SMILES IDX 20 86 25 87 21 88 24 89 22 90 23 92 27 93 28 94 29 95 30 96
REMARK SMILES IDX 34 97 31 98 33 99 35 100 32 101
REMARK H PARENT 92 26 60 37 21 91
REMARK Flexibility Score: inf
ROOT
ATOM      1  C   UNL A   1      37.281  30.994  31.318  1.00  0.00     0.188 C 
ENDROOT
BRANCH   1   2
ATOM      2  C   UNL A   1      36.004  31.538  31.972  1.00  0.00     0.188 C 
BRANCH   2   3
ATOM      3  O   UNL A   1      36.230  32.309  33.139  1.00  0.00    -0.376 OA
BRANCH   3   4
ATOM      4  C   UNL A   1      37.514  32.298  33.742  1.00  0.00     0.202 C 
BRANCH   4   5
ATOM      5  C   UNL A   1      37.787  31.543  35.058  1.00  0.00     0.261 C 
BRANCH   5   6
ATOM      6  O   UNL A   1      38.655  30.413  34.951  1.00  0.00    -0.460 OA
BRANCH   6   7
ATOM      7  C   UNL A   1      39.911  30.293  35.424  1.00  0.00     0.338 C 
ATOM      8  O   UNL A   1      40.199  30.795  36.509  1.00  0.00    -0.246 OA
BRANCH   7   9
ATOM      9  C   UNL A   1      41.012  29.836  34.533  1.00  0.00     0.060 A 
ATOM     10  C   UNL A   1      42.364  29.793  34.874  1.00  0.00     0.016 A 
ATOM     11  C   UNL A   1      40.623  29.444  33.236  1.00  0.00     0.016 A 
ATOM     12  C   UNL A   1      43.313  29.493  33.910  1.00  0.00     0.010 A 
ATOM     13  C   UNL A   1      41.570  29.133  32.271  1.00  0.00     0.010 A 
ATOM     14  C   UNL A   1      42.915  29.228  32.598  1.00  0.00    -0.014 A 
BRANCH  14  15
ATOM     15  C   UNL A   1      43.966  29.030  31.611  1.00  0.00     0.031 A 
ATOM     16  C   UNL A   1      43.998  30.053  30.534  1.00  0.00     0.074 A 
ATOM     17  C   UNL A   1      44.830  27.995  31.657  1.00  0.00     0.049 A 
ATOM     18  N   UNL A   1      43.652  29.902  29.299  1.00  0.00    -0.248 NA
ATOM     19  C   UNL A   1      44.285  31.444  30.907  1.00  0.00     0.031 C 
ATOM     20  C   UNL A   1      45.053  27.037  32.742  1.00  0.00     0.029 A 
ATOM     21  N   UNL A   1      45.750  27.617  30.728  1.00  0.00    -0.354 N 
ATOM     22  C   UNL A   1      43.892  31.123  28.678  1.00  0.00     0.074 A 
ATOM     23  C   UNL A   1      44.111  32.069  29.740  1.00  0.00     0.031 C 
ATOM     24  C   UNL A   1      46.186  26.337  32.498  1.00  0.00     0.029 A 
ATOM     25  C   UNL A   1      46.680  26.683  31.176  1.00  0.00     0.049 A 
ATOM     26  H   UNL A   1      45.757  27.975  29.811  1.00  0.00     0.167 HD
ATOM     27  C   UNL A   1      44.099  31.201  27.334  1.00  0.00     0.034 A 
ATOM     28  C   UNL A   1      47.794  26.254  30.521  1.00  0.00     0.034 A 
ATOM     29  C   UNL A   1      43.585  30.028  26.663  1.00  0.00     0.049 A 
ATOM     30  C   UNL A   1      47.544  26.484  29.075  1.00  0.00     0.074 A 
ATOM     31  C   UNL A   1      42.332  29.454  26.557  1.00  0.00     0.029 A 
ATOM     32  N   UNL A   1      44.473  29.040  26.298  1.00  0.00    -0.354 N 
ATOM     33  N   UNL A   1      46.618  25.852  28.404  1.00  0.00    -0.248 NA
ATOM     34  C   UNL A   1      47.958  27.760  28.507  1.00  0.00     0.031 C 
ATOM     35  C   UNL A   1      42.565  28.051  26.661  1.00  0.00     0.029 A 
ATOM     36  C   UNL A   1      43.946  27.845  26.726  1.00  0.00     0.049 A 
ATOM     37  H   UNL A   1      45.324  29.166  25.820  1.00  0.00     0.167 HD
ATOM     38  C   UNL A   1      46.036  26.818  27.595  1.00  0.00     0.074 A 
ATOM     39  C   UNL A   1      46.954  27.956  27.646  1.00  0.00     0.031 C 
ATOM     40  C   UNL A   1      44.740  26.718  27.179  1.00  0.00     0.034 A 
BRANCH  27  41
ATOM     41  C   UNL A   1      45.074  32.149  26.671  1.00  0.00     0.023 A 
ATOM     42  C   UNL A   1      46.448  31.940  26.904  1.00  0.00     0.031 A 
ATOM     43  C   UNL A   1      44.734  33.392  26.089  1.00  0.00     0.131 A 
ATOM     44  C   UNL A   1      47.386  32.961  26.670  1.00  0.00     0.055 A 
ATOM     45  C   UNL A   1      45.678  34.381  25.800  1.00  0.00     0.041 A 
ATOM     46  F   UNL A   1      43.471  33.762  25.855  1.00  0.00    -0.206 F 
ATOM     47  C   UNL A   1      47.008  34.183  26.121  1.00  0.00     0.022 A 
BRANCH  44  48
ATOM     48  S   UNL A   1      49.080  32.730  27.270  1.00  0.00     0.124 S 
ATOM     49  O   UNL A   1      49.682  34.019  26.958  1.00  0.00    -0.237 OA
ATOM     50  O   UNL A   1      48.861  32.441  28.682  1.00  0.00    -0.237 OA
ATOM     51  O   UNL A   1      49.568  31.603  26.472  1.00  0.00    -0.744 OA
ENDBRANCH  44  48
ENDBRANCH  27  41
BRANCH  28  52
ATOM     52  C   UNL A   1      49.154  26.068  31.111  1.00  0.00     0.023 A 
ATOM     53  C   UNL A   1      49.482  26.413  32.443  1.00  0.00     0.031 A 
ATOM     54  C   UNL A   1      50.112  25.300  30.409  1.00  0.00     0.131 A 
ATOM     55  C   UNL A   1      50.715  25.996  33.008  1.00  0.00     0.055 A 
ATOM     56  C   UNL A   1      51.323  24.890  30.972  1.00  0.00     0.041 A 
ATOM     57  F   UNL A   1      49.866  24.847  29.170  1.00  0.00    -0.206 F 
ATOM     58  C   UNL A   1      51.627  25.230  32.279  1.00  0.00     0.022 A 
BRANCH  55  59
ATOM     59  S   UNL A   1      51.130  26.383  34.743  1.00  0.00     0.124 S 
ATOM     60  O   UNL A   1      51.107  27.842  34.751  1.00  0.00    -0.237 OA
ATOM     61  O   UNL A   1      50.064  25.714  35.479  1.00  0.00    -0.237 OA
ATOM     62  O   UNL A   1      52.457  25.792  34.919  1.00  0.00    -0.744 OA
ENDBRANCH  55  59
ENDBRANCH  28  52
BRANCH  40  63
ATOM     63  C   UNL A   1      44.004  25.405  27.366  1.00  0.00     0.023 A 
ATOM     64  C   UNL A   1      44.030  24.315  26.466  1.00  0.00     0.031 A 
ATOM     65  C   UNL A   1      43.372  25.211  28.609  1.00  0.00     0.131 A 
ATOM     66  C   UNL A   1      43.437  23.087  26.835  1.00  0.00     0.055 A 
ATOM     67  C   UNL A   1      42.808  23.992  28.976  1.00  0.00     0.041 A 
ATOM     68  F   UNL A   1      43.339  26.201  29.516  1.00  0.00    -0.206 F 
ATOM     69  C   UNL A   1      42.837  22.924  28.088  1.00  0.00     0.022 A 
BRANCH  66  70
ATOM     70  S   UNL A   1      43.439  21.664  25.693  1.00  0.00     0.124 S 
ATOM     71  O   UNL A   1      42.368  20.817  26.205  1.00  0.00    -0.237 OA
ATOM     72  O   UNL A   1      43.194  22.297  24.399  1.00  0.00    -0.237 OA
ATOM     73  O   UNL A   1      44.784  21.105  25.847  1.00  0.00    -0.744 OA
ENDBRANCH  66  70
ENDBRANCH  40  63
ENDBRANCH  14  15
ENDBRANCH   7   9
ENDBRANCH   6   7
ENDBRANCH   5   6
ENDBRANCH   4   5
ENDBRANCH   3   4
ENDBRANCH   2   3
ENDBRANCH   1   2
BRANCH   1  74
ATOM     74  O   UNL A   1      37.572  31.332  29.976  1.00  0.00    -0.377 OA
BRANCH  74  75
ATOM     75  C   UNL A   1      36.709  30.950  28.931  1.00  0.00     0.188 C 
BRANCH  75  76
ATOM     76  C   UNL A   1      36.111  31.995  27.963  1.00  0.00     0.188 C 
BRANCH  76  77
ATOM     77  O   UNL A   1      34.842  32.521  28.276  1.00  0.00    -0.376 OA
BRANCH  77  78
ATOM     78  C   UNL A   1      33.652  31.840  27.925  1.00  0.00     0.202 C 
BRANCH  78  79
ATOM     79  C   UNL A   1      33.606  30.415  27.361  1.00  0.00     0.261 C 
BRANCH  79  80
ATOM     80  O   UNL A   1      32.307  29.863  27.098  1.00  0.00    -0.462 OA
BRANCH  80  81
ATOM     81  C   UNL A   1      32.314  28.614  26.577  1.00  0.00     0.329 C 
ATOM     82  O   UNL A   1      32.973  27.688  27.058  1.00  0.00    -0.250 OA
BRANCH  81  83
ATOM     83  C   UNL A   1      31.290  28.330  25.463  1.00  0.00     0.201 C 
ATOM     84  C   UNL A   1      31.235  29.704  24.658  1.00  0.00     0.093 C 
ATOM     85  N   UNL A   1      31.007  27.116  24.577  1.00  0.00    -0.318 N 
ATOM     86  C   UNL A   1      30.261  29.635  23.558  1.00  0.00     0.042 A 
ATOM     87  C   UNL A   1      29.684  27.202  23.879  1.00  0.00     0.179 C 
ATOM     88  N   UNL A   1      29.920  30.602  22.659  1.00  0.00    -0.348 N 
ATOM     89  C   UNL A   1      29.555  28.518  23.199  1.00  0.00     0.081 A 
ATOM     90  C   UNL A   1      28.970  30.053  21.838  1.00  0.00     0.197 A 
ATOM     91  H   UNL A   1      30.284  31.515  22.610  1.00  0.00     0.167 HD
ATOM     92  N   UNL A   1      28.719  28.799  22.150  1.00  0.00    -0.240 NA
BRANCH  85  93
ATOM     93  C   UNL A   1      31.658  25.898  24.321  1.00  0.00     0.256 C 
ATOM     94  O   UNL A   1      32.154  25.675  23.208  1.00  0.00    -0.269 OA
BRANCH  93  95
ATOM     95  C   UNL A   1      31.832  24.748  25.220  1.00  0.00     0.061 A 
ATOM     96  C   UNL A   1      30.646  24.240  25.791  1.00  0.00     0.035 A 
ATOM     97  C   UNL A   1      33.041  24.371  25.787  1.00  0.00     0.072 A 
ATOM     98  C   UNL A   1      30.722  23.305  26.809  1.00  0.00     0.112 A 
ATOM     99  C   UNL A   1      33.015  23.384  26.771  1.00  0.00     0.132 A 
ATOM    100  Cl  UNL A   1      34.542  25.144  25.439  1.00  0.00    -0.082 Cl
ATOM    101  N   UNL A   1      31.891  22.832  27.288  1.00  0.00    -0.263 NA
ENDBRANCH  93  95
ENDBRANCH  85  93
ENDBRANCH  81  83
ENDBRANCH  80  81
ENDBRANCH  79  80
ENDBRANCH  78  79
ENDBRANCH  77  78
ENDBRANCH  76  77
ENDBRANCH  75  76
ENDBRANCH  74  75
ENDBRANCH   1  74
TORSDOF 25
ENDMDL
