MODEL 1
REMARK VINA RESULT:      -8.6      0.000      0.000
REMARK SMILES C[C@@H](C(=O)OCCOCCOCCOCCOC(=O)c1ccc(-c2c3nc(c(-c4cc(S(=O)(=O)[O-])ccc4F)c4ccc([nH]4)c(-c4cc(S(=O)(=O)[O-])ccc4F)c4nc(c(-c5cc(S(=O)(=O)[O-])ccc5F)c5ccc2[nH]5)C=C4)C=C3)cc1)c1ccc(-c2cccc(OC(=O)NC3CC3)c2)c(F)c1
REMARK SMILES IDX 10 1 9 2 8 3 7 4 6 5 5 6 3 7 4 8 2 9 1 10 83 11 84 12 102 13
REMARK SMILES IDX 85 14 100 15 86 16 101 17 87 18 88 19 99 20 89 21 91 22
REMARK SMILES IDX 90 23 92 24 93 25 94 26 95 27 96 29 97 30 98 31 11 32 12 33
REMARK SMILES IDX 13 34 14 35 15 36 16 37 17 38 18 39 19 40 20 41 21 42 82 43
REMARK SMILES IDX 22 44 81 45 23 46 24 47 25 48 75 49 26 50 80 51 74 52 76 53
REMARK SMILES IDX 27 54 79 55 73 56 72 57 28 59 60 60 40 61 59 62 41 63 44 64
REMARK SMILES IDX 58 65 77 66 42 67 43 68 57 70 78 71 45 72 29 73 30 74 38 75
REMARK SMILES IDX 31 76 37 77 39 78 36 79 32 80 33 81 34 82 35 83 61 84 62 85
REMARK SMILES IDX 70 86 63 87 69 88 71 89 68 90 64 91 65 92 66 93 67 94 46 95
REMARK SMILES IDX 47 96 55 97 48 98 54 99 56 100 53 101 49 102 50 103 51 104
REMARK SMILES IDX 52 105
REMARK H PARENT 95 28 76 58 44 69
REMARK Flexibility Score: inf
ROOT
ATOM      1  C   UNL A   1      36.763  22.056  25.696  1.00  0.00     0.188 C 
ENDROOT
BRANCH   1   2
ATOM      2  C   UNL A   1      35.540  21.811  24.789  1.00  0.00     0.188 C 
BRANCH   2   3
ATOM      3  O   UNL A   1      34.570  22.830  24.608  1.00  0.00    -0.376 OA
BRANCH   3   4
ATOM      4  C   UNL A   1      34.934  24.038  23.954  1.00  0.00     0.202 C 
BRANCH   4   5
ATOM      5  C   UNL A   1      33.879  25.086  23.535  1.00  0.00     0.261 C 
BRANCH   5   6
ATOM      6  O   UNL A   1      33.334  25.937  24.568  1.00  0.00    -0.463 OA
BRANCH   6   7
ATOM      7  C   UNL A   1      33.316  27.272  24.320  1.00  0.00     0.313 C 
ATOM      8  O   UNL A   1      34.066  27.823  23.518  1.00  0.00    -0.252 OA
BRANCH   7   9
ATOM      9  C   UNL A   1      32.263  28.059  25.133  1.00  0.00     0.126 C 
ATOM     10  C   UNL A   1      31.124  28.775  24.399  1.00  0.00     0.025 C 
BRANCH   9  11
ATOM     11  C   UNL A   1      32.937  28.959  26.172  1.00  0.00    -0.031 A 
ATOM     12  C   UNL A   1      32.449  30.229  26.526  1.00  0.00     0.005 A 
ATOM     13  C   UNL A   1      34.154  28.557  26.726  1.00  0.00     0.044 A 
ATOM     14  C   UNL A   1      33.207  31.117  27.301  1.00  0.00     0.012 A 
ATOM     15  C   UNL A   1      34.884  29.427  27.530  1.00  0.00     0.131 A 
ATOM     16  C   UNL A   1      34.458  30.739  27.792  1.00  0.00     0.018 A 
ATOM     17  F   UNL A   1      36.051  28.985  28.025  1.00  0.00    -0.206 F 
BRANCH  16  18
ATOM     18  C   UNL A   1      35.342  31.711  28.455  1.00  0.00    -0.012 A 
ATOM     19  C   UNL A   1      36.634  32.004  27.993  1.00  0.00     0.009 A 
ATOM     20  C   UNL A   1      34.890  32.354  29.620  1.00  0.00     0.056 A 
ATOM     21  C   UNL A   1      37.434  32.937  28.661  1.00  0.00     0.004 A 
ATOM     22  C   UNL A   1      35.681  33.283  30.283  1.00  0.00     0.133 A 
ATOM     23  C   UNL A   1      36.955  33.581  29.804  1.00  0.00     0.047 A 
BRANCH  22  24
ATOM     24  O   UNL A   1      35.272  33.988  31.441  1.00  0.00    -0.410 OA
BRANCH  24  25
ATOM     25  C   UNL A   1      34.217  33.638  32.281  1.00  0.00     0.412 C 
ATOM     26  O   UNL A   1      34.040  32.552  32.823  1.00  0.00    -0.224 OA
ATOM     27  N   UNL A   1      33.301  34.638  32.476  1.00  0.00    -0.318 N 
ATOM     28  H   UNL A   1      32.530  34.393  33.038  1.00  0.00     0.167 HD
BRANCH  27  29
ATOM     29  C   UNL A   1      33.292  35.975  31.994  1.00  0.00     0.085 C 
ATOM     30  C   UNL A   1      32.665  37.169  32.652  1.00  0.00     0.027 C 
ATOM     31  C   UNL A   1      34.151  36.994  32.700  1.00  0.00     0.027 C 
ENDBRANCH  27  29
ENDBRANCH  24  25
ENDBRANCH  22  24
ENDBRANCH  16  18
ENDBRANCH   9  11
ENDBRANCH   7   9
ENDBRANCH   6   7
ENDBRANCH   5   6
ENDBRANCH   4   5
ENDBRANCH   3   4
ENDBRANCH   2   3
ENDBRANCH   1   2
BRANCH   1  32
ATOM     32  O   UNL A   1      38.011  22.004  25.043  1.00  0.00    -0.377 OA
BRANCH  32  33
ATOM     33  C   UNL A   1      39.086  21.457  25.789  1.00  0.00     0.188 C 
BRANCH  33  34
ATOM     34  C   UNL A   1      39.672  22.307  26.934  1.00  0.00     0.188 C 
BRANCH  34  35
ATOM     35  O   UNL A   1      40.763  23.136  26.543  1.00  0.00    -0.376 OA
BRANCH  35  36
ATOM     36  C   UNL A   1      41.846  23.311  27.444  1.00  0.00     0.202 C 
BRANCH  36  37
ATOM     37  C   UNL A   1      43.169  23.849  26.871  1.00  0.00     0.261 C 
BRANCH  37  38
ATOM     38  O   UNL A   1      44.371  23.466  27.554  1.00  0.00    -0.460 OA
BRANCH  38  39
ATOM     39  C   UNL A   1      45.522  23.453  26.841  1.00  0.00     0.338 C 
ATOM     40  O   UNL A   1      45.966  22.528  26.198  1.00  0.00    -0.246 OA
BRANCH  39  41
ATOM     41  C   UNL A   1      46.033  24.845  26.800  1.00  0.00     0.060 A 
ATOM     42  C   UNL A   1      46.126  25.493  25.561  1.00  0.00     0.016 A 
ATOM     43  C   UNL A   1      46.388  25.513  27.974  1.00  0.00     0.016 A 
ATOM     44  C   UNL A   1      46.604  26.800  25.489  1.00  0.00     0.010 A 
ATOM     45  C   UNL A   1      46.896  26.813  27.898  1.00  0.00     0.010 A 
ATOM     46  C   UNL A   1      47.039  27.450  26.651  1.00  0.00    -0.014 A 
BRANCH  46  47
ATOM     47  C   UNL A   1      47.847  28.689  26.538  1.00  0.00     0.031 A 
ATOM     48  C   UNL A   1      47.122  30.007  26.578  1.00  0.00     0.074 A 
ATOM     49  C   UNL A   1      49.188  28.653  26.435  1.00  0.00     0.049 A 
ATOM     50  N   UNL A   1      47.589  31.221  26.443  1.00  0.00    -0.248 NA
ATOM     51  C   UNL A   1      45.669  29.942  26.799  1.00  0.00     0.031 C 
ATOM     52  C   UNL A   1      50.005  27.441  26.451  1.00  0.00     0.029 A 
ATOM     53  N   UNL A   1      50.098  29.671  26.293  1.00  0.00    -0.354 N 
ATOM     54  C   UNL A   1      46.487  32.062  26.550  1.00  0.00     0.074 A 
ATOM     55  C   UNL A   1      45.326  31.218  26.726  1.00  0.00     0.031 C 
ATOM     56  C   UNL A   1      51.298  27.787  26.316  1.00  0.00     0.029 A 
ATOM     57  C   UNL A   1      51.397  29.238  26.158  1.00  0.00     0.049 A 
ATOM     58  H   UNL A   1      49.846  30.623  26.289  1.00  0.00     0.167 HD
ATOM     59  C   UNL A   1      46.448  33.416  26.511  1.00  0.00     0.034 A 
ATOM     60  C   UNL A   1      52.527  29.931  25.907  1.00  0.00     0.034 A 
ATOM     61  C   UNL A   1      47.615  34.242  26.323  1.00  0.00     0.049 A 
ATOM     62  C   UNL A   1      52.445  31.435  25.759  1.00  0.00     0.074 A 
ATOM     63  C   UNL A   1      47.694  35.623  26.280  1.00  0.00     0.029 A 
ATOM     64  N   UNL A   1      48.905  33.765  26.127  1.00  0.00    -0.354 N 
ATOM     65  N   UNL A   1      51.398  32.223  25.867  1.00  0.00    -0.248 NA
ATOM     66  C   UNL A   1      53.698  32.143  25.462  1.00  0.00     0.031 C 
ATOM     67  C   UNL A   1      49.011  35.977  25.971  1.00  0.00     0.029 A 
ATOM     68  C   UNL A   1      49.778  34.823  25.920  1.00  0.00     0.049 A 
ATOM     69  H   UNL A   1      49.163  32.815  26.135  1.00  0.00     0.167 HD
ATOM     70  C   UNL A   1      51.878  33.520  25.690  1.00  0.00     0.074 A 
ATOM     71  C   UNL A   1      53.306  33.408  25.481  1.00  0.00     0.031 C 
ATOM     72  C   UNL A   1      51.201  34.698  25.706  1.00  0.00     0.034 A 
BRANCH  59  73
ATOM     73  C   UNL A   1      45.094  34.077  26.608  1.00  0.00     0.023 A 
ATOM     74  C   UNL A   1      44.491  34.364  27.845  1.00  0.00     0.031 A 
ATOM     75  C   UNL A   1      44.383  34.401  25.438  1.00  0.00     0.131 A 
ATOM     76  C   UNL A   1      43.190  34.888  27.884  1.00  0.00     0.055 A 
ATOM     77  C   UNL A   1      43.125  35.004  25.484  1.00  0.00     0.041 A 
ATOM     78  F   UNL A   1      44.895  34.125  24.229  1.00  0.00    -0.206 F 
ATOM     79  C   UNL A   1      42.515  35.237  26.712  1.00  0.00     0.022 A 
BRANCH  76  80
ATOM     80  S   UNL A   1      42.334  34.968  29.481  1.00  0.00     0.124 S 
ATOM     81  O   UNL A   1      42.466  33.591  29.954  1.00  0.00    -0.237 OA
ATOM     82  O   UNL A   1      43.109  35.969  30.205  1.00  0.00    -0.237 OA
ATOM     83  O   UNL A   1      40.975  35.368  29.122  1.00  0.00    -0.744 OA
ENDBRANCH  76  80
ENDBRANCH  59  73
BRANCH  60  84
ATOM     84  C   UNL A   1      53.832  29.228  25.731  1.00  0.00     0.023 A 
ATOM     85  C   UNL A   1      54.685  28.994  26.822  1.00  0.00     0.031 A 
ATOM     86  C   UNL A   1      54.282  28.845  24.454  1.00  0.00     0.131 A 
ATOM     87  C   UNL A   1      55.961  28.446  26.611  1.00  0.00     0.055 A 
ATOM     88  C   UNL A   1      55.525  28.241  24.258  1.00  0.00     0.041 A 
ATOM     89  F   UNL A   1      53.514  29.052  23.373  1.00  0.00    -0.206 F 
ATOM     90  C   UNL A   1      56.380  28.052  25.339  1.00  0.00     0.022 A 
BRANCH  87  91
ATOM     91  S   UNL A   1      57.110  28.354  28.012  1.00  0.00     0.124 S 
ATOM     92  O   UNL A   1      58.378  28.102  27.337  1.00  0.00    -0.237 OA
ATOM     93  O   UNL A   1      56.956  29.673  28.616  1.00  0.00    -0.237 OA
ATOM     94  O   UNL A   1      56.592  27.242  28.805  1.00  0.00    -0.744 OA
ENDBRANCH  87  91
ENDBRANCH  60  84
BRANCH  72  95
ATOM     95  C   UNL A   1      52.009  35.966  25.553  1.00  0.00     0.023 A 
ATOM     96  C   UNL A   1      52.430  36.721  26.662  1.00  0.00     0.031 A 
ATOM     97  C   UNL A   1      52.364  36.426  24.271  1.00  0.00     0.131 A 
ATOM     98  C   UNL A   1      53.127  37.924  26.467  1.00  0.00     0.055 A 
ATOM     99  C   UNL A   1      53.120  37.584  24.086  1.00  0.00     0.041 A 
ATOM    100  F   UNL A   1      51.987  35.750  23.174  1.00  0.00    -0.206 F 
ATOM    101  C   UNL A   1      53.494  38.348  25.186  1.00  0.00     0.022 A 
BRANCH  98 102
ATOM    102  S   UNL A   1      53.460  38.982  27.901  1.00  0.00     0.124 S 
ATOM    103  O   UNL A   1      53.295  38.048  29.010  1.00  0.00    -0.237 OA
ATOM    104  O   UNL A   1      54.824  39.434  27.646  1.00  0.00    -0.237 OA
ATOM    105  O   UNL A   1      52.436  40.020  27.806  1.00  0.00    -0.744 OA
ENDBRANCH  98 102
ENDBRANCH  72  95
ENDBRANCH  46  47
ENDBRANCH  39  41
ENDBRANCH  38  39
ENDBRANCH  37  38
ENDBRANCH  36  37
ENDBRANCH  35  36
ENDBRANCH  34  35
ENDBRANCH  33  34
ENDBRANCH  32  33
ENDBRANCH   1  32
TORSDOF 28
ENDMDL
MODEL 2
REMARK VINA RESULT:      -8.6      5.827     11.621
REMARK SMILES C[C@@H](C(=O)OCCOCCOCCOCCOC(=O)c1ccc(-c2c3nc(c(-c4cc(S(=O)(=O)[O-])ccc4F)c4ccc([nH]4)c(-c4cc(S(=O)(=O)[O-])ccc4F)c4nc(c(-c5cc(S(=O)(=O)[O-])ccc5F)c5ccc2[nH]5)C=C4)C=C3)cc1)c1ccc(-c2cccc(OC(=O)NC3CC3)c2)c(F)c1
REMARK SMILES IDX 10 1 9 2 8 3 7 4 6 5 5 6 3 7 4 8 2 9 1 10 83 11 84 12 102 13
REMARK SMILES IDX 85 14 100 15 86 16 101 17 87 18 88 19 99 20 89 21 91 22
REMARK SMILES IDX 90 23 92 24 93 25 94 26 95 27 96 29 97 30 98 31 11 32 12 33
REMARK SMILES IDX 13 34 14 35 15 36 16 37 17 38 18 39 19 40 20 41 21 42 82 43
REMARK SMILES IDX 22 44 81 45 23 46 24 47 25 48 75 49 26 50 80 51 74 52 76 53
REMARK SMILES IDX 27 54 79 55 73 56 72 57 28 59 60 60 40 61 59 62 41 63 44 64
REMARK SMILES IDX 58 65 77 66 42 67 43 68 57 70 78 71 45 72 29 73 30 74 38 75
REMARK SMILES IDX 31 76 37 77 39 78 36 79 32 80 33 81 34 82 35 83 61 84 62 85
REMARK SMILES IDX 70 86 63 87 69 88 71 89 68 90 64 91 65 92 66 93 67 94 46 95
REMARK SMILES IDX 47 96 55 97 48 98 54 99 56 100 53 101 49 102 50 103 51 104
REMARK SMILES IDX 52 105
REMARK H PARENT 95 28 76 58 44 69
REMARK Flexibility Score: inf
ROOT
ATOM      1  C   UNL A   1      36.637  33.144  34.528  1.00  0.00     0.188 C 
ENDROOT
BRANCH   1   2
ATOM      2  C   UNL A   1      36.920  32.537  33.139  1.00  0.00     0.188 C 
BRANCH   2   3
ATOM      3  O   UNL A   1      36.304  33.083  31.984  1.00  0.00    -0.376 OA
BRANCH   3   4
ATOM      4  C   UNL A   1      36.558  32.504  30.711  1.00  0.00     0.202 C 
BRANCH   4   5
ATOM      5  C   UNL A   1      37.783  31.598  30.459  1.00  0.00     0.261 C 
BRANCH   5   6
ATOM      6  O   UNL A   1      38.287  31.514  29.108  1.00  0.00    -0.463 OA
BRANCH   6   7
ATOM      7  C   UNL A   1      38.406  30.272  28.571  1.00  0.00     0.313 C 
ATOM      8  O   UNL A   1      37.630  29.818  27.735  1.00  0.00    -0.252 OA
BRANCH   7   9
ATOM      9  C   UNL A   1      39.613  29.461  29.097  1.00  0.00     0.126 C 
ATOM     10  C   UNL A   1      40.994  30.124  29.169  1.00  0.00     0.025 C 
BRANCH   9  11
ATOM     11  C   UNL A   1      39.669  28.079  28.441  1.00  0.00    -0.031 A 
ATOM     12  C   UNL A   1      39.161  26.916  29.046  1.00  0.00     0.005 A 
ATOM     13  C   UNL A   1      40.346  27.934  27.229  1.00  0.00     0.044 A 
ATOM     14  C   UNL A   1      39.431  25.642  28.531  1.00  0.00     0.012 A 
ATOM     15  C   UNL A   1      40.576  26.668  26.697  1.00  0.00     0.131 A 
ATOM     16  C   UNL A   1      40.174  25.495  27.357  1.00  0.00     0.018 A 
ATOM     17  F   UNL A   1      41.242  26.593  25.534  1.00  0.00    -0.206 F 
BRANCH  16  18
ATOM     18  C   UNL A   1      40.616  24.170  26.895  1.00  0.00    -0.012 A 
ATOM     19  C   UNL A   1      39.786  23.040  26.919  1.00  0.00     0.009 A 
ATOM     20  C   UNL A   1      41.936  24.017  26.438  1.00  0.00     0.056 A 
ATOM     21  C   UNL A   1      40.256  21.801  26.467  1.00  0.00     0.004 A 
ATOM     22  C   UNL A   1      42.403  22.791  25.985  1.00  0.00     0.133 A 
ATOM     23  C   UNL A   1      41.564  21.678  25.995  1.00  0.00     0.047 A 
BRANCH  22  24
ATOM     24  O   UNL A   1      43.710  22.578  25.483  1.00  0.00    -0.410 OA
BRANCH  24  25
ATOM     25  C   UNL A   1      44.886  22.591  26.231  1.00  0.00     0.412 C 
ATOM     26  O   UNL A   1      45.251  23.465  27.008  1.00  0.00    -0.224 OA
ATOM     27  N   UNL A   1      45.689  21.499  26.028  1.00  0.00    -0.318 N 
ATOM     28  H   UNL A   1      46.541  21.512  26.523  1.00  0.00     0.167 HD
BRANCH  27  29
ATOM     29  C   UNL A   1      45.483  20.351  25.217  1.00  0.00     0.085 C 
ATOM     30  C   UNL A   1      46.430  19.779  24.203  1.00  0.00     0.027 C 
ATOM     31  C   UNL A   1      46.273  19.105  25.531  1.00  0.00     0.027 C 
ENDBRANCH  27  29
ENDBRANCH  24  25
ENDBRANCH  22  24
ENDBRANCH  16  18
ENDBRANCH   9  11
ENDBRANCH   7   9
ENDBRANCH   6   7
ENDBRANCH   5   6
ENDBRANCH   4   5
ENDBRANCH   3   4
ENDBRANCH   2   3
ENDBRANCH   1   2
BRANCH   1  32
ATOM     32  O   UNL A   1      37.085  32.373  35.619  1.00  0.00    -0.377 OA
BRANCH  32  33
ATOM     33  C   UNL A   1      38.215  32.870  36.317  1.00  0.00     0.188 C 
BRANCH  33  34
ATOM     34  C   UNL A   1      38.007  33.367  37.760  1.00  0.00     0.188 C 
BRANCH  34  35
ATOM     35  O   UNL A   1      38.339  32.406  38.759  1.00  0.00    -0.376 OA
BRANCH  35  36
ATOM     36  C   UNL A   1      38.589  32.855  40.083  1.00  0.00     0.202 C 
BRANCH  36  37
ATOM     37  C   UNL A   1      39.867  33.677  40.328  1.00  0.00     0.261 C 
BRANCH  37  38
ATOM     38  O   UNL A   1      41.097  33.117  39.846  1.00  0.00    -0.460 OA
BRANCH  38  39
ATOM     39  C   UNL A   1      41.894  33.909  39.091  1.00  0.00     0.338 C 
ATOM     40  O   UNL A   1      42.243  35.040  39.346  1.00  0.00    -0.246 OA
BRANCH  39  41
ATOM     41  C   UNL A   1      42.448  33.070  38.001  1.00  0.00     0.060 A 
ATOM     42  C   UNL A   1      43.784  33.254  37.622  1.00  0.00     0.016 A 
ATOM     43  C   UNL A   1      41.667  32.091  37.382  1.00  0.00     0.016 A 
ATOM     44  C   UNL A   1      44.335  32.481  36.599  1.00  0.00     0.010 A 
ATOM     45  C   UNL A   1      42.210  31.339  36.337  1.00  0.00     0.010 A 
ATOM     46  C   UNL A   1      43.536  31.554  35.918  1.00  0.00    -0.014 A 
BRANCH  46  47
ATOM     47  C   UNL A   1      44.011  30.985  34.633  1.00  0.00     0.031 A 
ATOM     48  C   UNL A   1      43.767  31.780  33.378  1.00  0.00     0.074 A 
ATOM     49  C   UNL A   1      44.669  29.812  34.577  1.00  0.00     0.049 A 
ATOM     50  N   UNL A   1      44.031  31.478  32.134  1.00  0.00    -0.248 NA
ATOM     51  C   UNL A   1      43.134  33.096  33.558  1.00  0.00     0.031 C 
ATOM     52  C   UNL A   1      45.021  28.985  35.730  1.00  0.00     0.029 A 
ATOM     53  N   UNL A   1      45.156  29.114  33.500  1.00  0.00    -0.354 N 
ATOM     54  C   UNL A   1      43.587  32.560  31.382  1.00  0.00     0.074 A 
ATOM     55  C   UNL A   1      43.005  33.508  32.307  1.00  0.00     0.031 C 
ATOM     56  C   UNL A   1      45.662  27.885  35.296  1.00  0.00     0.029 A 
ATOM     57  C   UNL A   1      45.725  27.907  33.834  1.00  0.00     0.049 A 
ATOM     58  H   UNL A   1      45.102  29.445  32.575  1.00  0.00     0.167 HD
ATOM     59  C   UNL A   1      43.662  32.748  30.042  1.00  0.00     0.034 A 
ATOM     60  C   UNL A   1      46.213  26.924  33.049  1.00  0.00     0.034 A 
ATOM     61  C   UNL A   1      44.235  31.786  29.133  1.00  0.00     0.049 A 
ATOM     62  C   UNL A   1      46.189  27.109  31.547  1.00  0.00     0.074 A 
ATOM     63  C   UNL A   1      44.376  31.879  27.760  1.00  0.00     0.029 A 
ATOM     64  N   UNL A   1      44.746  30.548  29.502  1.00  0.00    -0.354 N 
ATOM     65  N   UNL A   1      45.771  28.138  30.845  1.00  0.00    -0.248 NA
ATOM     66  C   UNL A   1      46.708  26.001  30.733  1.00  0.00     0.031 C 
ATOM     67  C   UNL A   1      44.887  30.665  27.290  1.00  0.00     0.029 A 
ATOM     68  C   UNL A   1      45.162  29.850  28.378  1.00  0.00     0.049 A 
ATOM     69  H   UNL A   1      44.805  30.214  30.426  1.00  0.00     0.167 HD
ATOM     70  C   UNL A   1      46.016  27.814  29.510  1.00  0.00     0.074 A 
ATOM     71  C   UNL A   1      46.627  26.502  29.510  1.00  0.00     0.031 C 
ATOM     72  C   UNL A   1      45.765  28.538  28.389  1.00  0.00     0.034 A 
BRANCH  59  73
ATOM     73  C   UNL A   1      43.052  34.010  29.480  1.00  0.00     0.023 A 
ATOM     74  C   UNL A   1      43.840  35.090  29.045  1.00  0.00     0.031 A 
ATOM     75  C   UNL A   1      41.654  34.143  29.405  1.00  0.00     0.131 A 
ATOM     76  C   UNL A   1      43.226  36.278  28.623  1.00  0.00     0.055 A 
ATOM     77  C   UNL A   1      41.050  35.296  28.902  1.00  0.00     0.041 A 
ATOM     78  F   UNL A   1      40.849  33.158  29.834  1.00  0.00    -0.206 F 
ATOM     79  C   UNL A   1      41.837  36.378  28.520  1.00  0.00     0.022 A 
BRANCH  76  80
ATOM     80  S   UNL A   1      44.263  37.742  28.352  1.00  0.00     0.124 S 
ATOM     81  O   UNL A   1      44.174  37.900  26.901  1.00  0.00    -0.237 OA
ATOM     82  O   UNL A   1      43.587  38.759  29.147  1.00  0.00    -0.237 OA
ATOM     83  O   UNL A   1      45.574  37.329  28.846  1.00  0.00    -0.744 OA
ENDBRANCH  76  80
ENDBRANCH  59  73
BRANCH  60  84
ATOM     84  C   UNL A   1      46.727  25.655  33.643  1.00  0.00     0.023 A 
ATOM     85  C   UNL A   1      45.852  24.628  34.034  1.00  0.00     0.031 A 
ATOM     86  C   UNL A   1      48.099  25.479  33.901  1.00  0.00     0.131 A 
ATOM     87  C   UNL A   1      46.348  23.501  34.708  1.00  0.00     0.055 A 
ATOM     88  C   UNL A   1      48.595  24.326  34.513  1.00  0.00     0.041 A 
ATOM     89  F   UNL A   1      48.981  26.431  33.558  1.00  0.00    -0.206 F 
ATOM     90  C   UNL A   1      47.716  23.335  34.934  1.00  0.00     0.022 A 
BRANCH  87  91
ATOM     91  S   UNL A   1      45.167  22.300  35.381  1.00  0.00     0.124 S 
ATOM     92  O   UNL A   1      44.202  22.191  34.291  1.00  0.00    -0.237 OA
ATOM     93  O   UNL A   1      46.015  21.134  35.605  1.00  0.00    -0.237 OA
ATOM     94  O   UNL A   1      44.671  22.951  36.591  1.00  0.00    -0.744 OA
ENDBRANCH  87  91
ENDBRANCH  60  84
BRANCH  72  95
ATOM     95  C   UNL A   1      46.209  27.951  27.069  1.00  0.00     0.023 A 
ATOM     96  C   UNL A   1      47.554  27.971  26.658  1.00  0.00     0.031 A 
ATOM     97  C   UNL A   1      45.267  27.359  26.207  1.00  0.00     0.131 A 
ATOM     98  C   UNL A   1      47.908  27.467  25.397  1.00  0.00     0.055 A 
ATOM     99  C   UNL A   1      45.636  26.793  24.987  1.00  0.00     0.041 A 
ATOM    100  F   UNL A   1      43.968  27.313  26.543  1.00  0.00    -0.206 F 
ATOM    101  C   UNL A   1      46.961  26.858  24.568  1.00  0.00     0.022 A 
BRANCH  98 102
ATOM    102  S   UNL A   1      49.606  27.709  24.806  1.00  0.00     0.124 S 
ATOM    103  O   UNL A   1      50.017  28.897  25.548  1.00  0.00    -0.237 OA
ATOM    104  O   UNL A   1      50.253  26.460  25.193  1.00  0.00    -0.237 OA
ATOM    105  O   UNL A   1      49.443  27.903  23.366  1.00  0.00    -0.744 OA
ENDBRANCH  98 102
ENDBRANCH  72  95
ENDBRANCH  46  47
ENDBRANCH  39  41
ENDBRANCH  38  39
ENDBRANCH  37  38
ENDBRANCH  36  37
ENDBRANCH  35  36
ENDBRANCH  34  35
ENDBRANCH  33  34
ENDBRANCH  32  33
ENDBRANCH   1  32
TORSDOF 28
ENDMDL
MODEL 3
REMARK VINA RESULT:      -8.4      6.361     11.816
REMARK SMILES C[C@@H](C(=O)OCCOCCOCCOCCOC(=O)c1ccc(-c2c3nc(c(-c4cc(S(=O)(=O)[O-])ccc4F)c4ccc([nH]4)c(-c4cc(S(=O)(=O)[O-])ccc4F)c4nc(c(-c5cc(S(=O)(=O)[O-])ccc5F)c5ccc2[nH]5)C=C4)C=C3)cc1)c1ccc(-c2cccc(OC(=O)NC3CC3)c2)c(F)c1
REMARK SMILES IDX 10 1 9 2 8 3 7 4 6 5 5 6 3 7 4 8 2 9 1 10 83 11 84 12 102 13
REMARK SMILES IDX 85 14 100 15 86 16 101 17 87 18 88 19 99 20 89 21 91 22
REMARK SMILES IDX 90 23 92 24 93 25 94 26 95 27 96 29 97 30 98 31 11 32 12 33
REMARK SMILES IDX 13 34 14 35 15 36 16 37 17 38 18 39 19 40 20 41 21 42 82 43
REMARK SMILES IDX 22 44 81 45 23 46 24 47 25 48 75 49 26 50 80 51 74 52 76 53
REMARK SMILES IDX 27 54 79 55 73 56 72 57 28 59 60 60 40 61 59 62 41 63 44 64
REMARK SMILES IDX 58 65 77 66 42 67 43 68 57 70 78 71 45 72 29 73 30 74 38 75
REMARK SMILES IDX 31 76 37 77 39 78 36 79 32 80 33 81 34 82 35 83 61 84 62 85
REMARK SMILES IDX 70 86 63 87 69 88 71 89 68 90 64 91 65 92 66 93 67 94 46 95
REMARK SMILES IDX 47 96 55 97 48 98 54 99 56 100 53 101 49 102 50 103 51 104
REMARK SMILES IDX 52 105
REMARK H PARENT 95 28 76 58 44 69
REMARK Flexibility Score: inf
ROOT
ATOM      1  C   UNL A   1      45.442  24.873  29.445  1.00  0.00     0.188 C 
ENDROOT
BRANCH   1   2
ATOM      2  C   UNL A   1      45.148  25.674  28.161  1.00  0.00     0.188 C 
BRANCH   2   3
ATOM      3  O   UNL A   1      45.549  25.168  26.898  1.00  0.00    -0.376 OA
BRANCH   3   4
ATOM      4  C   UNL A   1      46.286  23.955  26.828  1.00  0.00     0.202 C 
BRANCH   4   5
ATOM      5  C   UNL A   1      45.766  22.731  26.044  1.00  0.00     0.261 C 
BRANCH   5   6
ATOM      6  O   UNL A   1      44.504  22.160  26.454  1.00  0.00    -0.463 OA
BRANCH   6   7
ATOM      7  C   UNL A   1      43.382  22.869  26.162  1.00  0.00     0.313 C 
ATOM      8  O   UNL A   1      43.129  23.306  25.043  1.00  0.00    -0.252 OA
BRANCH   7   9
ATOM      9  C   UNL A   1      42.431  23.083  27.362  1.00  0.00     0.126 C 
ATOM     10  C   UNL A   1      42.749  22.417  28.705  1.00  0.00     0.025 C 
BRANCH   9  11
ATOM     11  C   UNL A   1      40.973  22.877  26.945  1.00  0.00    -0.031 A 
ATOM     12  C   UNL A   1      40.494  21.684  26.377  1.00  0.00     0.005 A 
ATOM     13  C   UNL A   1      40.087  23.953  27.031  1.00  0.00     0.044 A 
ATOM     14  C   UNL A   1      39.220  21.606  25.798  1.00  0.00     0.012 A 
ATOM     15  C   UNL A   1      38.808  23.858  26.492  1.00  0.00     0.131 A 
ATOM     16  C   UNL A   1      38.363  22.708  25.818  1.00  0.00     0.018 A 
ATOM     17  F   UNL A   1      38.007  24.929  26.597  1.00  0.00    -0.206 F 
BRANCH  16  18
ATOM     18  C   UNL A   1      37.098  22.705  25.067  1.00  0.00    -0.012 A 
ATOM     19  C   UNL A   1      37.008  23.103  23.726  1.00  0.00     0.009 A 
ATOM     20  C   UNL A   1      35.920  22.314  25.727  1.00  0.00     0.056 A 
ATOM     21  C   UNL A   1      35.779  23.081  23.057  1.00  0.00     0.004 A 
ATOM     22  C   UNL A   1      34.700  22.287  25.064  1.00  0.00     0.133 A 
ATOM     23  C   UNL A   1      34.625  22.667  23.725  1.00  0.00     0.047 A 
BRANCH  22  24
ATOM     24  O   UNL A   1      33.484  21.874  25.661  1.00  0.00    -0.410 OA
BRANCH  24  25
ATOM     25  C   UNL A   1      33.361  21.087  26.804  1.00  0.00     0.412 C 
ATOM     26  O   UNL A   1      33.523  21.449  27.964  1.00  0.00    -0.224 OA
ATOM     27  N   UNL A   1      33.040  19.780  26.551  1.00  0.00    -0.318 N 
ATOM     28  H   UNL A   1      32.985  19.203  27.347  1.00  0.00     0.167 HD
BRANCH  27  29
ATOM     29  C   UNL A   1      32.772  19.127  25.317  1.00  0.00     0.085 C 
ATOM     30  C   UNL A   1      33.759  18.414  24.439  1.00  0.00     0.027 C 
ATOM     31  C   UNL A   1      32.812  17.619  25.284  1.00  0.00     0.027 C 
ENDBRANCH  27  29
ENDBRANCH  24  25
ENDBRANCH  22  24
ENDBRANCH  16  18
ENDBRANCH   9  11
ENDBRANCH   7   9
ENDBRANCH   6   7
ENDBRANCH   5   6
ENDBRANCH   4   5
ENDBRANCH   3   4
ENDBRANCH   2   3
ENDBRANCH   1   2
BRANCH   1  32
ATOM     32  O   UNL A   1      44.550  25.105  30.512  1.00  0.00    -0.377 OA
BRANCH  32  33
ATOM     33  C   UNL A   1      44.585  24.166  31.574  1.00  0.00     0.188 C 
BRANCH  33  34
ATOM     34  C   UNL A   1      45.142  24.636  32.931  1.00  0.00     0.188 C 
BRANCH  34  35
ATOM     35  O   UNL A   1      46.037  23.711  33.544  1.00  0.00    -0.376 OA
BRANCH  35  36
ATOM     36  C   UNL A   1      45.707  23.184  34.821  1.00  0.00     0.202 C 
BRANCH  36  37
ATOM     37  C   UNL A   1      44.214  23.018  35.158  1.00  0.00     0.261 C 
BRANCH  37  38
ATOM     38  O   UNL A   1      43.625  24.026  35.992  1.00  0.00    -0.460 OA
BRANCH  38  39
ATOM     39  C   UNL A   1      42.381  24.456  35.672  1.00  0.00     0.338 C 
ATOM     40  O   UNL A   1      41.345  23.845  35.811  1.00  0.00    -0.246 OA
BRANCH  39  41
ATOM     41  C   UNL A   1      42.485  25.896  35.330  1.00  0.00     0.060 A 
ATOM     42  C   UNL A   1      41.406  26.514  34.684  1.00  0.00     0.016 A 
ATOM     43  C   UNL A   1      43.621  26.633  35.670  1.00  0.00     0.016 A 
ATOM     44  C   UNL A   1      41.473  27.865  34.346  1.00  0.00     0.010 A 
ATOM     45  C   UNL A   1      43.700  27.980  35.304  1.00  0.00     0.010 A 
ATOM     46  C   UNL A   1      42.640  28.593  34.610  1.00  0.00    -0.014 A 
BRANCH  46  47
ATOM     47  C   UNL A   1      42.841  29.913  33.962  1.00  0.00     0.031 A 
ATOM     48  C   UNL A   1      43.428  29.932  32.576  1.00  0.00     0.074 A 
ATOM     49  C   UNL A   1      42.487  31.061  34.567  1.00  0.00     0.049 A 
ATOM     50  N   UNL A   1      43.753  30.950  31.822  1.00  0.00    -0.248 NA
ATOM     51  C   UNL A   1      43.684  28.620  31.961  1.00  0.00     0.031 C 
ATOM     52  C   UNL A   1      41.851  31.164  35.879  1.00  0.00     0.029 A 
ATOM     53  N   UNL A   1      42.616  32.363  34.152  1.00  0.00    -0.354 N 
ATOM     54  C   UNL A   1      44.262  30.402  30.649  1.00  0.00     0.074 A 
ATOM     55  C   UNL A   1      44.235  28.964  30.808  1.00  0.00     0.031 C 
ATOM     56  C   UNL A   1      41.653  32.463  36.165  1.00  0.00     0.029 A 
ATOM     57  C   UNL A   1      42.188  33.285  35.079  1.00  0.00     0.049 A 
ATOM     58  H   UNL A   1      42.981  32.615  33.273  1.00  0.00     0.167 HD
ATOM     59  C   UNL A   1      44.707  31.039  29.540  1.00  0.00     0.034 A 
ATOM     60  C   UNL A   1      42.249  34.633  35.063  1.00  0.00     0.034 A 
ATOM     61  C   UNL A   1      44.738  32.474  29.404  1.00  0.00     0.049 A 
ATOM     62  C   UNL A   1      42.849  35.324  33.857  1.00  0.00     0.074 A 
ATOM     63  C   UNL A   1      45.156  33.227  28.320  1.00  0.00     0.029 A 
ATOM     64  N   UNL A   1      44.354  33.376  30.388  1.00  0.00    -0.354 N 
ATOM     65  N   UNL A   1      43.324  34.796  32.751  1.00  0.00    -0.248 NA
ATOM     66  C   UNL A   1      42.916  36.791  33.897  1.00  0.00     0.031 C 
ATOM     67  C   UNL A   1      45.109  34.577  28.681  1.00  0.00     0.029 A 
ATOM     68  C   UNL A   1      44.566  34.676  29.953  1.00  0.00     0.049 A 
ATOM     69  H   UNL A   1      43.985  33.130  31.267  1.00  0.00     0.167 HD
ATOM     70  C   UNL A   1      43.707  35.872  31.950  1.00  0.00     0.074 A 
ATOM     71  C   UNL A   1      43.397  37.073  32.696  1.00  0.00     0.031 C 
ATOM     72  C   UNL A   1      44.258  35.867  30.709  1.00  0.00     0.034 A 
BRANCH  59  73
ATOM     73  C   UNL A   1      45.255  30.188  28.419  1.00  0.00     0.023 A 
ATOM     74  C   UNL A   1      46.597  29.769  28.388  1.00  0.00     0.031 A 
ATOM     75  C   UNL A   1      44.423  29.814  27.348  1.00  0.00     0.131 A 
ATOM     76  C   UNL A   1      47.083  29.064  27.278  1.00  0.00     0.055 A 
ATOM     77  C   UNL A   1      44.893  29.036  26.288  1.00  0.00     0.041 A 
ATOM     78  F   UNL A   1      43.141  30.208  27.307  1.00  0.00    -0.206 F 
ATOM     79  C   UNL A   1      46.234  28.669  26.241  1.00  0.00     0.022 A 
BRANCH  76  80
ATOM     80  S   UNL A   1      48.872  28.799  27.134  1.00  0.00     0.124 S 
ATOM     81  O   UNL A   1      49.398  29.907  27.929  1.00  0.00    -0.237 OA
ATOM     82  O   UNL A   1      49.041  27.468  27.703  1.00  0.00    -0.237 OA
ATOM     83  O   UNL A   1      49.119  28.902  25.698  1.00  0.00    -0.744 OA
ENDBRANCH  76  80
ENDBRANCH  59  73
BRANCH  60  84
ATOM     84  C   UNL A   1      41.775  35.433  36.231  1.00  0.00     0.023 A 
ATOM     85  C   UNL A   1      42.632  35.731  37.303  1.00  0.00     0.031 A 
ATOM     86  C   UNL A   1      40.434  35.847  36.329  1.00  0.00     0.131 A 
ATOM     87  C   UNL A   1      42.129  36.373  38.446  1.00  0.00     0.055 A 
ATOM     88  C   UNL A   1      39.954  36.543  37.441  1.00  0.00     0.041 A 
ATOM     89  F   UNL A   1      39.567  35.582  35.340  1.00  0.00    -0.206 F 
ATOM     90  C   UNL A   1      40.800  36.796  38.515  1.00  0.00     0.022 A 
BRANCH  87  91
ATOM     91  S   UNL A   1      43.212  36.553  39.890  1.00  0.00     0.124 S 
ATOM     92  O   UNL A   1      42.255  36.483  40.989  1.00  0.00    -0.237 OA
ATOM     93  O   UNL A   1      44.104  35.407  39.743  1.00  0.00    -0.237 OA
ATOM     94  O   UNL A   1      43.836  37.858  39.688  1.00  0.00    -0.744 OA
ENDBRANCH  87  91
ENDBRANCH  60  84
BRANCH  72  95
ATOM     95  C   UNL A   1      44.504  37.207  30.053  1.00  0.00     0.023 A 
ATOM     96  C   UNL A   1      43.512  37.865  29.305  1.00  0.00     0.031 A 
ATOM     97  C   UNL A   1      45.757  37.835  30.181  1.00  0.00     0.131 A 
ATOM     98  C   UNL A   1      43.808  39.079  28.665  1.00  0.00     0.055 A 
ATOM     99  C   UNL A   1      46.022  39.077  29.603  1.00  0.00     0.041 A 
ATOM    100  F   UNL A   1      46.745  37.253  30.879  1.00  0.00    -0.206 F 
ATOM    101  C   UNL A   1      45.050  39.700  28.828  1.00  0.00     0.022 A 
BRANCH  98 102
ATOM    102  S   UNL A   1      42.583  39.788  27.531  1.00  0.00     0.124 S 
ATOM    103  O   UNL A   1      43.385  40.753  26.785  1.00  0.00    -0.237 OA
ATOM    104  O   UNL A   1      42.136  38.618  26.782  1.00  0.00    -0.237 OA
ATOM    105  O   UNL A   1      41.584  40.371  28.424  1.00  0.00    -0.744 OA
ENDBRANCH  98 102
ENDBRANCH  72  95
ENDBRANCH  46  47
ENDBRANCH  39  41
ENDBRANCH  38  39
ENDBRANCH  37  38
ENDBRANCH  36  37
ENDBRANCH  35  36
ENDBRANCH  34  35
ENDBRANCH  33  34
ENDBRANCH  32  33
ENDBRANCH   1  32
TORSDOF 28
ENDMDL
