MODEL 1
REMARK VINA RESULT:      -9.4      0.000      0.000
REMARK SMILES O=C(Nc1ccc(-c2nc3ccccc3o2)cc1)C1=C(C(=O)OCCOCCOCCOCCOC(=O)c2ccc(-c3c4nc(c(-c5cc(S(=O)(=O)[O-])ccc5F)c5ccc([nH]5)c(-c5cc(S(=O)(=O)[O-])ccc5F)c5nc(c(-c6cc(S(=O)(=O)[O-])ccc6F)c6ccc3[nH]6)C=C5)C=C4)cc2)CCCC1
REMARK SMILES IDX 29 1 28 2 27 3 26 4 25 5 24 6 23 7 21 8 22 9 20 10 19 11
REMARK SMILES IDX 104 12 101 13 103 14 102 15 2 16 1 17 3 18 4 20 5 21 18 22
REMARK SMILES IDX 6 23 17 24 7 25 8 26 9 27 16 28 10 29 15 30 11 31 14 32
REMARK SMILES IDX 12 33 13 34 30 35 31 36 32 37 33 38 34 39 35 40 36 41 37 42
REMARK SMILES IDX 38 43 39 44 100 45 40 46 99 47 41 48 42 49 43 50 93 51 44 52
REMARK SMILES IDX 98 53 92 54 94 55 45 56 97 57 91 58 90 59 46 61 78 62 58 63
REMARK SMILES IDX 77 64 59 65 62 66 76 67 95 68 60 69 61 70 75 72 96 73 63 74
REMARK SMILES IDX 47 75 48 76 56 77 49 78 55 79 57 80 54 81 50 82 51 83 52 84
REMARK SMILES IDX 53 85 79 86 80 87 88 88 81 89 87 90 89 91 86 92 82 93 83 94
REMARK SMILES IDX 84 95 85 96 64 97 65 98 73 99 66 100 72 101 74 102 71 103
REMARK SMILES IDX 67 104 68 105 69 106 70 107
REMARK H PARENT 3 19 94 60 62 71
REMARK Flexibility Score: inf
ROOT
ATOM      1  O   UNL A   1      37.773  22.292  25.401  1.00  0.00    -0.377 OA
ENDROOT
BRANCH   1   2
ATOM      2  C   UNL A   1      36.792  21.278  25.358  1.00  0.00     0.188 C 
BRANCH   2   3
ATOM      3  C   UNL A   1      35.331  21.784  25.365  1.00  0.00     0.188 C 
BRANCH   3   4
ATOM      4  O   UNL A   1      34.259  20.992  24.878  1.00  0.00    -0.376 OA
BRANCH   4   5
ATOM      5  C   UNL A   1      32.957  21.504  24.655  1.00  0.00     0.202 C 
BRANCH   5   6
ATOM      6  C   UNL A   1      32.630  22.629  23.673  1.00  0.00     0.261 C 
BRANCH   6   7
ATOM      7  O   UNL A   1      33.350  23.847  23.834  1.00  0.00    -0.460 OA
BRANCH   7   8
ATOM      8  C   UNL A   1      32.737  24.787  24.576  1.00  0.00     0.334 C 
ATOM      9  O   UNL A   1      32.333  24.637  25.722  1.00  0.00    -0.247 OA
BRANCH   8  10
ATOM     10  C   UNL A   1      32.746  26.115  23.898  1.00  0.00     0.046 C 
ATOM     11  C   UNL A   1      32.078  27.230  24.283  1.00  0.00     0.028 C 
ATOM     12  C   UNL A   1      32.188  28.523  23.494  1.00  0.00     0.042 C 
ATOM     13  C   UNL A   1      33.637  26.087  22.672  1.00  0.00     0.044 C 
ATOM     14  C   UNL A   1      32.886  28.402  22.136  1.00  0.00     0.005 C 
ATOM     15  C   UNL A   1      34.078  27.464  22.204  1.00  0.00     0.005 C 
BRANCH  11  16
ATOM     16  C   UNL A   1      31.107  27.349  25.437  1.00  0.00     0.252 C 
ATOM     17  O   UNL A   1      30.014  26.786  25.347  1.00  0.00    -0.269 OA
ATOM     18  N   UNL A   1      31.390  28.060  26.572  1.00  0.00    -0.322 N 
ATOM     19  H   UNL A   1      30.752  27.944  27.313  1.00  0.00     0.170 HD
BRANCH  18  20
ATOM     20  C   UNL A   1      32.455  28.930  26.832  1.00  0.00     0.041 A 
ATOM     21  C   UNL A   1      32.189  30.301  26.941  1.00  0.00     0.027 A 
ATOM     22  C   UNL A   1      33.721  28.443  27.129  1.00  0.00     0.027 A 
ATOM     23  C   UNL A   1      33.125  31.146  27.559  1.00  0.00     0.016 A 
ATOM     24  C   UNL A   1      34.655  29.285  27.712  1.00  0.00     0.016 A 
ATOM     25  C   UNL A   1      34.353  30.629  27.979  1.00  0.00     0.037 A 
BRANCH  25  26
ATOM     26  C   UNL A   1      35.390  31.398  28.643  1.00  0.00     0.227 A 
ATOM     27  N   UNL A   1      35.470  31.601  29.945  1.00  0.00    -0.209 NA
ATOM     28  O   UNL A   1      36.268  32.135  27.883  1.00  0.00    -0.436 OA
ATOM     29  C   UNL A   1      36.442  32.541  30.066  1.00  0.00     0.110 A 
ATOM     30  C   UNL A   1      36.937  32.887  28.819  1.00  0.00     0.155 A 
ATOM     31  C   UNL A   1      36.942  33.157  31.215  1.00  0.00     0.032 A 
ATOM     32  C   UNL A   1      37.927  33.844  28.622  1.00  0.00     0.049 A 
ATOM     33  C   UNL A   1      37.946  34.117  31.060  1.00  0.00     0.003 A 
ATOM     34  C   UNL A   1      38.426  34.454  29.787  1.00  0.00     0.004 A 
ENDBRANCH  25  26
ENDBRANCH  18  20
ENDBRANCH  11  16
ENDBRANCH   8  10
ENDBRANCH   7   8
ENDBRANCH   6   7
ENDBRANCH   5   6
ENDBRANCH   4   5
ENDBRANCH   3   4
ENDBRANCH   2   3
ENDBRANCH   1   2
BRANCH   1  35
ATOM     35  C   UNL A   1      38.955  22.061  26.156  1.00  0.00     0.188 C 
BRANCH  35  36
ATOM     36  C   UNL A   1      39.730  20.736  25.986  1.00  0.00     0.188 C 
BRANCH  36  37
ATOM     37  O   UNL A   1      41.139  20.860  26.094  1.00  0.00    -0.376 OA
BRANCH  37  38
ATOM     38  C   UNL A   1      41.717  22.148  26.186  1.00  0.00     0.202 C 
BRANCH  38  39
ATOM     39  C   UNL A   1      43.099  22.369  25.551  1.00  0.00     0.261 C 
BRANCH  39  40
ATOM     40  O   UNL A   1      44.222  21.836  26.264  1.00  0.00    -0.460 OA
BRANCH  40  41
ATOM     41  C   UNL A   1      45.446  22.184  25.819  1.00  0.00     0.338 C 
ATOM     42  O   UNL A   1      46.167  21.523  25.082  1.00  0.00    -0.246 OA
BRANCH  41  43
ATOM     43  C   UNL A   1      45.698  23.585  26.204  1.00  0.00     0.060 A 
ATOM     44  C   UNL A   1      45.895  23.892  27.557  1.00  0.00     0.016 A 
ATOM     45  C   UNL A   1      45.709  24.594  25.237  1.00  0.00     0.016 A 
ATOM     46  C   UNL A   1      46.029  25.220  27.957  1.00  0.00     0.010 A 
ATOM     47  C   UNL A   1      45.821  25.927  25.643  1.00  0.00     0.010 A 
ATOM     48  C   UNL A   1      45.921  26.245  27.009  1.00  0.00    -0.014 A 
BRANCH  48  49
ATOM     49  C   UNL A   1      45.619  27.621  27.476  1.00  0.00     0.031 A 
ATOM     50  C   UNL A   1      46.742  28.627  27.445  1.00  0.00     0.074 A 
ATOM     51  C   UNL A   1      44.383  27.986  27.857  1.00  0.00     0.049 A 
ATOM     52  N   UNL A   1      46.753  29.877  27.828  1.00  0.00    -0.248 NA
ATOM     53  C   UNL A   1      48.029  28.151  26.911  1.00  0.00     0.031 C 
ATOM     54  C   UNL A   1      43.209  27.115  27.867  1.00  0.00     0.029 A 
ATOM     55  N   UNL A   1      43.912  29.192  28.311  1.00  0.00    -0.354 N 
ATOM     56  C   UNL A   1      48.046  30.333  27.591  1.00  0.00     0.074 A 
ATOM     57  C   UNL A   1      48.800  29.215  27.069  1.00  0.00     0.031 C 
ATOM     58  C   UNL A   1      42.152  27.815  28.315  1.00  0.00     0.029 A 
ATOM     59  C   UNL A   1      42.583  29.170  28.663  1.00  0.00     0.049 A 
ATOM     60  H   UNL A   1      44.474  29.998  28.380  1.00  0.00     0.167 HD
ATOM     61  C   UNL A   1      48.555  31.573  27.782  1.00  0.00     0.034 A 
ATOM     62  C   UNL A   1      41.815  30.127  29.223  1.00  0.00     0.034 A 
ATOM     63  C   UNL A   1      47.790  32.673  28.313  1.00  0.00     0.049 A 
ATOM     64  C   UNL A   1      42.429  31.480  29.510  1.00  0.00     0.074 A 
ATOM     65  C   UNL A   1      48.202  33.972  28.551  1.00  0.00     0.029 A 
ATOM     66  N   UNL A   1      46.456  32.602  28.696  1.00  0.00    -0.354 N 
ATOM     67  N   UNL A   1      43.655  31.899  29.288  1.00  0.00    -0.248 NA
ATOM     68  C   UNL A   1      41.550  32.493  30.107  1.00  0.00     0.031 C 
ATOM     69  C   UNL A   1      47.145  34.662  29.153  1.00  0.00     0.029 A 
ATOM     70  C   UNL A   1      46.040  33.826  29.196  1.00  0.00     0.049 A 
ATOM     71  H   UNL A   1      45.890  31.800  28.624  1.00  0.00     0.167 HD
ATOM     72  C   UNL A   1      43.676  33.239  29.673  1.00  0.00     0.074 A 
ATOM     73  C   UNL A   1      42.340  33.557  30.131  1.00  0.00     0.031 C 
ATOM     74  C   UNL A   1      44.702  34.130  29.644  1.00  0.00     0.034 A 
BRANCH  61  75
ATOM     75  C   UNL A   1      50.019  31.781  27.476  1.00  0.00     0.023 A 
ATOM     76  C   UNL A   1      50.458  32.290  26.240  1.00  0.00     0.031 A 
ATOM     77  C   UNL A   1      50.995  31.441  28.430  1.00  0.00     0.131 A 
ATOM     78  C   UNL A   1      51.831  32.385  25.970  1.00  0.00     0.055 A 
ATOM     79  C   UNL A   1      52.357  31.616  28.185  1.00  0.00     0.041 A 
ATOM     80  F   UNL A   1      50.638  30.921  29.615  1.00  0.00    -0.206 F 
ATOM     81  C   UNL A   1      52.784  32.079  26.945  1.00  0.00     0.022 A 
BRANCH  78  82
ATOM     82  S   UNL A   1      52.361  32.779  24.281  1.00  0.00     0.124 S 
ATOM     83  O   UNL A   1      51.916  31.596  23.548  1.00  0.00    -0.237 OA
ATOM     84  O   UNL A   1      51.637  34.014  24.002  1.00  0.00    -0.237 OA
ATOM     85  O   UNL A   1      53.811  32.920  24.400  1.00  0.00    -0.744 OA
ENDBRANCH  78  82
ENDBRANCH  61  75
BRANCH  62  86
ATOM     86  C   UNL A   1      40.396  29.847  29.594  1.00  0.00     0.023 A 
ATOM     87  C   UNL A   1      39.983  29.820  30.936  1.00  0.00     0.031 A 
ATOM     88  C   UNL A   1      39.445  29.519  28.610  1.00  0.00     0.131 A 
ATOM     89  C   UNL A   1      38.678  29.414  31.261  1.00  0.00     0.055 A 
ATOM     90  C   UNL A   1      38.130  29.180  28.935  1.00  0.00     0.041 A 
ATOM     91  F   UNL A   1      39.783  29.522  27.311  1.00  0.00    -0.206 F 
ATOM     92  C   UNL A   1      37.746  29.108  30.269  1.00  0.00     0.022 A 
BRANCH  89  93
ATOM     93  S   UNL A   1      38.253  29.175  33.009  1.00  0.00     0.124 S 
ATOM     94  O   UNL A   1      37.233  30.198  33.207  1.00  0.00    -0.237 OA
ATOM     95  O   UNL A   1      37.787  27.793  33.020  1.00  0.00    -0.237 OA
ATOM     96  O   UNL A   1      39.518  29.410  33.702  1.00  0.00    -0.744 OA
ENDBRANCH  89  93
ENDBRANCH  62  86
BRANCH  74  97
ATOM     97  C   UNL A   1      44.394  35.557  30.041  1.00  0.00     0.023 A 
ATOM     98  C   UNL A   1      44.565  36.024  31.355  1.00  0.00     0.031 A 
ATOM     99  C   UNL A   1      43.901  36.460  29.080  1.00  0.00     0.131 A 
ATOM    100  C   UNL A   1      44.179  37.332  31.687  1.00  0.00     0.055 A 
ATOM    101  C   UNL A   1      43.593  37.781  29.400  1.00  0.00     0.041 A 
ATOM    102  F   UNL A   1      43.714  36.070  27.808  1.00  0.00    -0.206 F 
ATOM    103  C   UNL A   1      43.714  38.220  30.714  1.00  0.00     0.022 A 
BRANCH 100 104
ATOM    104  S   UNL A   1      44.172  37.820  33.435  1.00  0.00     0.124 S 
ATOM    105  O   UNL A   1      44.696  36.623  34.086  1.00  0.00    -0.237 OA
ATOM    106  O   UNL A   1      45.051  38.984  33.437  1.00  0.00    -0.237 OA
ATOM    107  O   UNL A   1      42.764  38.106  33.705  1.00  0.00    -0.744 OA
ENDBRANCH 100 104
ENDBRANCH  74  97
ENDBRANCH  48  49
ENDBRANCH  41  43
ENDBRANCH  40  41
ENDBRANCH  39  40
ENDBRANCH  38  39
ENDBRANCH  37  38
ENDBRANCH  36  37
ENDBRANCH  35  36
ENDBRANCH   1  35
TORSDOF 26
ENDMDL
MODEL 2
REMARK VINA RESULT:      -8.8      4.635     10.680
REMARK SMILES O=C(Nc1ccc(-c2nc3ccccc3o2)cc1)C1=C(C(=O)OCCOCCOCCOCCOC(=O)c2ccc(-c3c4nc(c(-c5cc(S(=O)(=O)[O-])ccc5F)c5ccc([nH]5)c(-c5cc(S(=O)(=O)[O-])ccc5F)c5nc(c(-c6cc(S(=O)(=O)[O-])ccc6F)c6ccc3[nH]6)C=C5)C=C4)cc2)CCCC1
REMARK SMILES IDX 29 1 28 2 27 3 26 4 25 5 24 6 23 7 21 8 22 9 20 10 19 11
REMARK SMILES IDX 104 12 101 13 103 14 102 15 2 16 1 17 3 18 4 20 5 21 18 22
REMARK SMILES IDX 6 23 17 24 7 25 8 26 9 27 16 28 10 29 15 30 11 31 14 32
REMARK SMILES IDX 12 33 13 34 30 35 31 36 32 37 33 38 34 39 35 40 36 41 37 42
REMARK SMILES IDX 38 43 39 44 100 45 40 46 99 47 41 48 42 49 43 50 93 51 44 52
REMARK SMILES IDX 98 53 92 54 94 55 45 56 97 57 91 58 90 59 46 61 78 62 58 63
REMARK SMILES IDX 77 64 59 65 62 66 76 67 95 68 60 69 61 70 75 72 96 73 63 74
REMARK SMILES IDX 47 75 48 76 56 77 49 78 55 79 57 80 54 81 50 82 51 83 52 84
REMARK SMILES IDX 53 85 79 86 80 87 88 88 81 89 87 90 89 91 86 92 82 93 83 94
REMARK SMILES IDX 84 95 85 96 64 97 65 98 73 99 66 100 72 101 74 102 71 103
REMARK SMILES IDX 67 104 68 105 69 106 70 107
REMARK H PARENT 3 19 94 60 62 71
REMARK Flexibility Score: inf
ROOT
ATOM      1  O   UNL A   1      37.593  29.166  28.015  1.00  0.00    -0.377 OA
ENDROOT
BRANCH   1   2
ATOM      2  C   UNL A   1      38.591  28.654  28.871  1.00  0.00     0.188 C 
BRANCH   2   3
ATOM      3  C   UNL A   1      39.797  29.594  29.102  1.00  0.00     0.188 C 
BRANCH   3   4
ATOM      4  O   UNL A   1      41.128  29.106  29.177  1.00  0.00    -0.376 OA
BRANCH   4   5
ATOM      5  C   UNL A   1      41.601  28.022  28.395  1.00  0.00     0.202 C 
BRANCH   5   6
ATOM      6  C   UNL A   1      42.909  28.036  27.606  1.00  0.00     0.261 C 
BRANCH   6   7
ATOM      7  O   UNL A   1      43.654  26.822  27.582  1.00  0.00    -0.460 OA
BRANCH   7   8
ATOM      8  C   UNL A   1      44.729  26.788  28.389  1.00  0.00     0.334 C 
ATOM      9  O   UNL A   1      45.621  27.626  28.421  1.00  0.00    -0.247 OA
BRANCH   8  10
ATOM     10  C   UNL A   1      44.637  25.679  29.381  1.00  0.00     0.046 C 
ATOM     11  C   UNL A   1      44.919  24.370  29.167  1.00  0.00     0.028 C 
ATOM     12  C   UNL A   1      44.786  23.346  30.281  1.00  0.00     0.042 C 
ATOM     13  C   UNL A   1      44.179  26.198  30.728  1.00  0.00     0.044 C 
ATOM     14  C   UNL A   1      44.090  23.848  31.550  1.00  0.00     0.005 C 
ATOM     15  C   UNL A   1      44.504  25.269  31.886  1.00  0.00     0.005 C 
BRANCH  11  16
ATOM     16  C   UNL A   1      45.307  23.732  27.851  1.00  0.00     0.252 C 
ATOM     17  O   UNL A   1      46.488  23.783  27.498  1.00  0.00    -0.269 OA
ATOM     18  N   UNL A   1      44.402  23.108  27.036  1.00  0.00    -0.322 N 
ATOM     19  H   UNL A   1      44.789  22.602  26.285  1.00  0.00     0.170 HD
BRANCH  18  20
ATOM     20  C   UNL A   1      43.005  23.087  27.114  1.00  0.00     0.041 A 
ATOM     21  C   UNL A   1      42.301  24.269  26.849  1.00  0.00     0.027 A 
ATOM     22  C   UNL A   1      42.316  21.895  27.296  1.00  0.00     0.027 A 
ATOM     23  C   UNL A   1      40.931  24.213  26.547  1.00  0.00     0.016 A 
ATOM     24  C   UNL A   1      40.957  21.846  27.028  1.00  0.00     0.016 A 
ATOM     25  C   UNL A   1      40.260  22.988  26.604  1.00  0.00     0.037 A 
BRANCH  25  26
ATOM     26  C   UNL A   1      38.853  22.802  26.298  1.00  0.00     0.227 A 
ATOM     27  N   UNL A   1      38.321  21.699  25.806  1.00  0.00    -0.209 NA
ATOM     28  O   UNL A   1      38.009  23.888  26.339  1.00  0.00    -0.436 OA
ATOM     29  C   UNL A   1      37.055  22.067  25.481  1.00  0.00     0.110 A 
ATOM     30  C   UNL A   1      36.847  23.402  25.790  1.00  0.00     0.155 A 
ATOM     31  C   UNL A   1      36.034  21.313  24.900  1.00  0.00     0.032 A 
ATOM     32  C   UNL A   1      35.651  24.070  25.548  1.00  0.00     0.049 A 
ATOM     33  C   UNL A   1      34.813  21.946  24.651  1.00  0.00     0.003 A 
ATOM     34  C   UNL A   1      34.628  23.299  24.968  1.00  0.00     0.004 A 
ENDBRANCH  25  26
ENDBRANCH  18  20
ENDBRANCH  11  16
ENDBRANCH   8  10
ENDBRANCH   7   8
ENDBRANCH   6   7
ENDBRANCH   5   6
ENDBRANCH   4   5
ENDBRANCH   3   4
ENDBRANCH   2   3
ENDBRANCH   1   2
BRANCH   1  35
ATOM     35  C   UNL A   1      36.398  29.674  28.595  1.00  0.00     0.188 C 
BRANCH  35  36
ATOM     36  C   UNL A   1      35.348  30.373  27.704  1.00  0.00     0.188 C 
BRANCH  36  37
ATOM     37  O   UNL A   1      34.549  31.333  28.379  1.00  0.00    -0.376 OA
BRANCH  37  38
ATOM     38  C   UNL A   1      35.058  32.637  28.583  1.00  0.00     0.202 C 
BRANCH  38  39
ATOM     39  C   UNL A   1      34.687  33.363  29.887  1.00  0.00     0.261 C 
BRANCH  39  40
ATOM     40  O   UNL A   1      34.883  32.632  31.103  1.00  0.00    -0.460 OA
BRANCH  40  41
ATOM     41  C   UNL A   1      35.460  33.294  32.125  1.00  0.00     0.338 C 
ATOM     42  O   UNL A   1      34.954  34.190  32.789  1.00  0.00    -0.246 OA
BRANCH  41  43
ATOM     43  C   UNL A   1      36.734  32.627  32.448  1.00  0.00     0.060 A 
ATOM     44  C   UNL A   1      37.718  33.343  33.143  1.00  0.00     0.016 A 
ATOM     45  C   UNL A   1      36.969  31.311  32.041  1.00  0.00     0.016 A 
ATOM     46  C   UNL A   1      38.968  32.770  33.367  1.00  0.00     0.010 A 
ATOM     47  C   UNL A   1      38.231  30.746  32.246  1.00  0.00     0.010 A 
ATOM     48  C   UNL A   1      39.251  31.498  32.856  1.00  0.00    -0.014 A 
BRANCH  48  49
ATOM     49  C   UNL A   1      40.669  31.087  32.703  1.00  0.00     0.031 A 
ATOM     50  C   UNL A   1      41.451  31.702  31.570  1.00  0.00     0.074 A 
ATOM     51  C   UNL A   1      41.263  30.247  33.568  1.00  0.00     0.049 A 
ATOM     52  N   UNL A   1      42.686  31.490  31.196  1.00  0.00    -0.248 NA
ATOM     53  C   UNL A   1      40.736  32.690  30.745  1.00  0.00     0.031 C 
ATOM     54  C   UNL A   1      40.622  29.643  34.734  1.00  0.00     0.029 A 
ATOM     55  N   UNL A   1      42.544  29.758  33.594  1.00  0.00    -0.354 N 
ATOM     56  C   UNL A   1      42.891  32.308  30.090  1.00  0.00     0.074 A 
ATOM     57  C   UNL A   1      41.643  32.990  29.829  1.00  0.00     0.031 C 
ATOM     58  C   UNL A   1      41.514  28.854  35.359  1.00  0.00     0.029 A 
ATOM     59  C   UNL A   1      42.774  28.865  34.615  1.00  0.00     0.049 A 
ATOM     60  H   UNL A   1      43.235  30.021  32.944  1.00  0.00     0.167 HD
ATOM     61  C   UNL A   1      44.021  32.482  29.363  1.00  0.00     0.034 A 
ATOM     62  C   UNL A   1      43.868  28.126  34.895  1.00  0.00     0.034 A 
ATOM     63  C   UNL A   1      45.254  31.786  29.632  1.00  0.00     0.049 A 
ATOM     64  C   UNL A   1      45.090  28.272  34.017  1.00  0.00     0.074 A 
ATOM     65  C   UNL A   1      46.460  31.882  28.961  1.00  0.00     0.029 A 
ATOM     66  N   UNL A   1      45.437  30.858  30.650  1.00  0.00    -0.354 N 
ATOM     67  N   UNL A   1      45.273  29.044  32.968  1.00  0.00    -0.248 NA
ATOM     68  C   UNL A   1      46.261  27.457  34.369  1.00  0.00     0.031 C 
ATOM     69  C   UNL A   1      47.345  30.954  29.520  1.00  0.00     0.029 A 
ATOM     70  C   UNL A   1      46.727  30.353  30.606  1.00  0.00     0.049 A 
ATOM     71  H   UNL A   1      44.751  30.597  31.306  1.00  0.00     0.167 HD
ATOM     72  C   UNL A   1      46.594  28.842  32.571  1.00  0.00     0.074 A 
ATOM     73  C   UNL A   1      47.161  27.885  33.497  1.00  0.00     0.031 C 
ATOM     74  C   UNL A   1      47.281  29.402  31.541  1.00  0.00     0.034 A 
BRANCH  61  75
ATOM     75  C   UNL A   1      43.950  33.412  28.175  1.00  0.00     0.023 A 
ATOM     76  C   UNL A   1      43.927  34.810  28.322  1.00  0.00     0.031 A 
ATOM     77  C   UNL A   1      43.880  32.887  26.872  1.00  0.00     0.131 A 
ATOM     78  C   UNL A   1      43.774  35.630  27.194  1.00  0.00     0.055 A 
ATOM     79  C   UNL A   1      43.812  33.711  25.748  1.00  0.00     0.041 A 
ATOM     80  F   UNL A   1      43.865  31.559  26.671  1.00  0.00    -0.206 F 
ATOM     81  C   UNL A   1      43.746  35.092  25.906  1.00  0.00     0.022 A 
BRANCH  78  82
ATOM     82  S   UNL A   1      43.471  37.401  27.440  1.00  0.00     0.124 S 
ATOM     83  O   UNL A   1      42.308  37.623  26.585  1.00  0.00    -0.237 OA
ATOM     84  O   UNL A   1      43.233  37.484  28.877  1.00  0.00    -0.237 OA
ATOM     85  O   UNL A   1      44.707  38.029  26.976  1.00  0.00    -0.744 OA
ENDBRANCH  78  82
ENDBRANCH  61  75
BRANCH  62  86
ATOM     86  C   UNL A   1      43.861  27.151  36.026  1.00  0.00     0.023 A 
ATOM     87  C   UNL A   1      44.349  27.501  37.295  1.00  0.00     0.031 A 
ATOM     88  C   UNL A   1      43.439  25.822  35.829  1.00  0.00     0.131 A 
ATOM     89  C   UNL A   1      44.462  26.523  38.297  1.00  0.00     0.055 A 
ATOM     90  C   UNL A   1      43.494  24.870  36.848  1.00  0.00     0.041 A 
ATOM     91  F   UNL A   1      42.969  25.429  34.635  1.00  0.00    -0.206 F 
ATOM     92  C   UNL A   1      44.025  25.214  38.087  1.00  0.00     0.022 A 
BRANCH  89  93
ATOM     93  S   UNL A   1      45.304  26.959  39.845  1.00  0.00     0.124 S 
ATOM     94  O   UNL A   1      45.102  28.402  39.894  1.00  0.00    -0.237 OA
ATOM     95  O   UNL A   1      44.561  26.172  40.824  1.00  0.00    -0.237 OA
ATOM     96  O   UNL A   1      46.681  26.527  39.616  1.00  0.00    -0.744 OA
ENDBRANCH  89  93
ENDBRANCH  62  86
BRANCH  74  97
ATOM     97  C   UNL A   1      48.748  29.056  31.415  1.00  0.00     0.023 A 
ATOM     98  C   UNL A   1      49.193  27.905  30.744  1.00  0.00     0.031 A 
ATOM     99  C   UNL A   1      49.717  29.896  31.997  1.00  0.00     0.131 A 
ATOM    100  C   UNL A   1      50.560  27.586  30.735  1.00  0.00     0.055 A 
ATOM    101  C   UNL A   1      51.080  29.613  31.917  1.00  0.00     0.041 A 
ATOM    102  F   UNL A   1      49.352  31.009  32.654  1.00  0.00    -0.206 F 
ATOM    103  C   UNL A   1      51.508  28.444  31.299  1.00  0.00     0.022 A 
BRANCH 100 104
ATOM    104  S   UNL A   1      51.073  25.971  30.088  1.00  0.00     0.124 S 
ATOM    105  O   UNL A   1      51.633  26.329  28.788  1.00  0.00    -0.237 OA
ATOM    106  O   UNL A   1      52.030  25.521  31.093  1.00  0.00    -0.237 OA
ATOM    107  O   UNL A   1      49.825  25.211  30.036  1.00  0.00    -0.744 OA
ENDBRANCH 100 104
ENDBRANCH  74  97
ENDBRANCH  48  49
ENDBRANCH  41  43
ENDBRANCH  40  41
ENDBRANCH  39  40
ENDBRANCH  38  39
ENDBRANCH  37  38
ENDBRANCH  36  37
ENDBRANCH  35  36
ENDBRANCH   1  35
TORSDOF 26
ENDMDL
MODEL 3
REMARK VINA RESULT:      -8.6      4.302     10.269
REMARK SMILES O=C(Nc1ccc(-c2nc3ccccc3o2)cc1)C1=C(C(=O)OCCOCCOCCOCCOC(=O)c2ccc(-c3c4nc(c(-c5cc(S(=O)(=O)[O-])ccc5F)c5ccc([nH]5)c(-c5cc(S(=O)(=O)[O-])ccc5F)c5nc(c(-c6cc(S(=O)(=O)[O-])ccc6F)c6ccc3[nH]6)C=C5)C=C4)cc2)CCCC1
REMARK SMILES IDX 29 1 28 2 27 3 26 4 25 5 24 6 23 7 21 8 22 9 20 10 19 11
REMARK SMILES IDX 104 12 101 13 103 14 102 15 2 16 1 17 3 18 4 20 5 21 18 22
REMARK SMILES IDX 6 23 17 24 7 25 8 26 9 27 16 28 10 29 15 30 11 31 14 32
REMARK SMILES IDX 12 33 13 34 30 35 31 36 32 37 33 38 34 39 35 40 36 41 37 42
REMARK SMILES IDX 38 43 39 44 100 45 40 46 99 47 41 48 42 49 43 50 93 51 44 52
REMARK SMILES IDX 98 53 92 54 94 55 45 56 97 57 91 58 90 59 46 61 78 62 58 63
REMARK SMILES IDX 77 64 59 65 62 66 76 67 95 68 60 69 61 70 75 72 96 73 63 74
REMARK SMILES IDX 47 75 48 76 56 77 49 78 55 79 57 80 54 81 50 82 51 83 52 84
REMARK SMILES IDX 53 85 79 86 80 87 88 88 81 89 87 90 89 91 86 92 82 93 83 94
REMARK SMILES IDX 84 95 85 96 64 97 65 98 73 99 66 100 72 101 74 102 71 103
REMARK SMILES IDX 67 104 68 105 69 106 70 107
REMARK H PARENT 3 19 94 60 62 71
REMARK Flexibility Score: inf
ROOT
ATOM      1  O   UNL A   1      37.076  28.981  28.190  1.00  0.00    -0.377 OA
ENDROOT
BRANCH   1   2
ATOM      2  C   UNL A   1      38.100  28.547  29.058  1.00  0.00     0.188 C 
BRANCH   2   3
ATOM      3  C   UNL A   1      39.476  28.333  28.386  1.00  0.00     0.188 C 
BRANCH   3   4
ATOM      4  O   UNL A   1      40.118  27.067  28.373  1.00  0.00    -0.376 OA
BRANCH   4   5
ATOM      5  C   UNL A   1      40.224  26.265  27.210  1.00  0.00     0.202 C 
BRANCH   5   6
ATOM      6  C   UNL A   1      41.020  26.654  25.965  1.00  0.00     0.261 C 
BRANCH   6   7
ATOM      7  O   UNL A   1      42.205  25.908  25.704  1.00  0.00    -0.460 OA
BRANCH   7   8
ATOM      8  C   UNL A   1      43.330  26.635  25.580  1.00  0.00     0.334 C 
ATOM      9  O   UNL A   1      43.391  27.784  25.164  1.00  0.00    -0.247 OA
BRANCH   8  10
ATOM     10  C   UNL A   1      44.505  25.934  26.172  1.00  0.00     0.046 C 
ATOM     11  C   UNL A   1      44.579  25.362  27.399  1.00  0.00     0.028 C 
ATOM     12  C   UNL A   1      45.847  24.671  27.868  1.00  0.00     0.042 C 
ATOM     13  C   UNL A   1      45.668  25.919  25.200  1.00  0.00     0.044 C 
ATOM     14  C   UNL A   1      47.075  24.885  26.977  1.00  0.00     0.005 C 
ATOM     15  C   UNL A   1      46.707  24.853  25.505  1.00  0.00     0.005 C 
BRANCH  11  16
ATOM     16  C   UNL A   1      43.513  25.385  28.473  1.00  0.00     0.252 C 
ATOM     17  O   UNL A   1      42.818  24.379  28.633  1.00  0.00    -0.269 OA
ATOM     18  N   UNL A   1      43.286  26.476  29.267  1.00  0.00    -0.322 N 
ATOM     19  H   UNL A   1      42.676  26.326  30.026  1.00  0.00     0.170 HD
BRANCH  18  20
ATOM     20  C   UNL A   1      43.794  27.775  29.156  1.00  0.00     0.041 A 
ATOM     21  C   UNL A   1      45.138  27.999  29.484  1.00  0.00     0.027 A 
ATOM     22  C   UNL A   1      43.039  28.793  28.590  1.00  0.00     0.027 A 
ATOM     23  C   UNL A   1      45.779  29.167  29.040  1.00  0.00     0.016 A 
ATOM     24  C   UNL A   1      43.666  29.959  28.179  1.00  0.00     0.016 A 
ATOM     25  C   UNL A   1      45.047  30.139  28.353  1.00  0.00     0.037 A 
BRANCH  25  26
ATOM     26  C   UNL A   1      45.602  31.376  27.832  1.00  0.00     0.227 A 
ATOM     27  N   UNL A   1      44.898  32.372  27.330  1.00  0.00    -0.209 NA
ATOM     28  O   UNL A   1      46.963  31.481  27.665  1.00  0.00    -0.436 OA
ATOM     29  C   UNL A   1      45.835  33.184  26.778  1.00  0.00     0.110 A 
ATOM     30  C   UNL A   1      47.102  32.655  26.964  1.00  0.00     0.155 A 
ATOM     31  C   UNL A   1      45.672  34.386  26.085  1.00  0.00     0.032 A 
ATOM     32  C   UNL A   1      48.264  33.253  26.487  1.00  0.00     0.049 A 
ATOM     33  C   UNL A   1      46.816  35.023  25.599  1.00  0.00     0.003 A 
ATOM     34  C   UNL A   1      48.087  34.464  25.795  1.00  0.00     0.004 A 
ENDBRANCH  25  26
ENDBRANCH  18  20
ENDBRANCH  11  16
ENDBRANCH   8  10
ENDBRANCH   7   8
ENDBRANCH   6   7
ENDBRANCH   5   6
ENDBRANCH   4   5
ENDBRANCH   3   4
ENDBRANCH   2   3
ENDBRANCH   1   2
BRANCH   1  35
ATOM     35  C   UNL A   1      36.154  29.956  28.661  1.00  0.00     0.188 C 
BRANCH  35  36
ATOM     36  C   UNL A   1      35.661  31.071  27.714  1.00  0.00     0.188 C 
BRANCH  36  37
ATOM     37  O   UNL A   1      34.678  31.927  28.273  1.00  0.00    -0.376 OA
BRANCH  37  38
ATOM     38  C   UNL A   1      35.074  33.161  28.839  1.00  0.00     0.202 C 
BRANCH  38  39
ATOM     39  C   UNL A   1      34.436  33.586  30.171  1.00  0.00     0.261 C 
BRANCH  39  40
ATOM     40  O   UNL A   1      34.451  32.616  31.225  1.00  0.00    -0.460 OA
BRANCH  40  41
ATOM     41  C   UNL A   1      34.932  33.019  32.418  1.00  0.00     0.338 C 
ATOM     42  O   UNL A   1      34.307  33.606  33.293  1.00  0.00    -0.246 OA
BRANCH  41  43
ATOM     43  C   UNL A   1      36.287  32.463  32.582  1.00  0.00     0.060 A 
ATOM     44  C   UNL A   1      37.104  32.958  33.608  1.00  0.00     0.016 A 
ATOM     45  C   UNL A   1      36.760  31.479  31.710  1.00  0.00     0.016 A 
ATOM     46  C   UNL A   1      38.423  32.524  33.717  1.00  0.00     0.010 A 
ATOM     47  C   UNL A   1      38.091  31.061  31.807  1.00  0.00     0.010 A 
ATOM     48  C   UNL A   1      38.940  31.628  32.774  1.00  0.00    -0.014 A 
BRANCH  48  49
ATOM     49  C   UNL A   1      40.413  31.520  32.623  1.00  0.00     0.031 A 
ATOM     50  C   UNL A   1      41.123  32.642  31.909  1.00  0.00     0.074 A 
ATOM     51  C   UNL A   1      41.107  30.496  33.150  1.00  0.00     0.049 A 
ATOM     52  N   UNL A   1      42.390  32.774  31.615  1.00  0.00    -0.248 NA
ATOM     53  C   UNL A   1      40.282  33.766  31.464  1.00  0.00     0.031 C 
ATOM     54  C   UNL A   1      40.533  29.390  33.914  1.00  0.00     0.029 A 
ATOM     55  N   UNL A   1      42.451  30.224  33.119  1.00  0.00    -0.354 N 
ATOM     56  C   UNL A   1      42.496  33.988  30.943  1.00  0.00     0.074 A 
ATOM     57  C   UNL A   1      41.161  34.533  30.839  1.00  0.00     0.031 C 
ATOM     58  C   UNL A   1      41.522  28.551  34.273  1.00  0.00     0.029 A 
ATOM     59  C   UNL A   1      42.790  29.039  33.729  1.00  0.00     0.049 A 
ATOM     60  H   UNL A   1      43.112  30.821  32.699  1.00  0.00     0.167 HD
ATOM     61  C   UNL A   1      43.607  34.597  30.466  1.00  0.00     0.034 A 
ATOM     62  C   UNL A   1      43.982  28.412  33.813  1.00  0.00     0.034 A 
ATOM     63  C   UNL A   1      44.930  34.034  30.571  1.00  0.00     0.049 A 
ATOM     64  C   UNL A   1      45.196  29.070  33.195  1.00  0.00     0.074 A 
ATOM     65  C   UNL A   1      46.128  34.561  30.122  1.00  0.00     0.029 A 
ATOM     66  N   UNL A   1      45.228  32.812  31.160  1.00  0.00    -0.354 N 
ATOM     67  N   UNL A   1      45.285  30.215  32.556  1.00  0.00    -0.248 NA
ATOM     68  C   UNL A   1      46.474  28.357  33.324  1.00  0.00     0.031 C 
ATOM     69  C   UNL A   1      47.136  33.622  30.365  1.00  0.00     0.029 A 
ATOM     70  C   UNL A   1      46.587  32.555  31.058  1.00  0.00     0.049 A 
ATOM     71  H   UNL A   1      44.572  32.214  31.585  1.00  0.00     0.167 HD
ATOM     72  C   UNL A   1      46.637  30.380  32.254  1.00  0.00     0.074 A 
ATOM     73  C   UNL A   1      47.322  29.222  32.788  1.00  0.00     0.031 C 
ATOM     74  C   UNL A   1      47.258  31.397  31.602  1.00  0.00     0.034 A 
BRANCH  61  75
ATOM     75  C   UNL A   1      43.426  35.906  29.733  1.00  0.00     0.023 A 
ATOM     76  C   UNL A   1      43.761  37.140  30.318  1.00  0.00     0.031 A 
ATOM     77  C   UNL A   1      42.885  35.918  28.435  1.00  0.00     0.131 A 
ATOM     78  C   UNL A   1      43.495  38.335  29.631  1.00  0.00     0.055 A 
ATOM     79  C   UNL A   1      42.699  37.105  27.726  1.00  0.00     0.041 A 
ATOM     80  F   UNL A   1      42.516  34.774  27.838  1.00  0.00    -0.206 F 
ATOM     81  C   UNL A   1      42.993  38.325  28.328  1.00  0.00     0.022 A 
BRANCH  78  82
ATOM     82  S   UNL A   1      43.679  39.907  30.517  1.00  0.00     0.124 S 
ATOM     83  O   UNL A   1      43.173  39.560  31.842  1.00  0.00    -0.237 OA
ATOM     84  O   UNL A   1      45.114  40.154  30.425  1.00  0.00    -0.237 OA
ATOM     85  O   UNL A   1      42.837  40.829  29.757  1.00  0.00    -0.744 OA
ENDBRANCH  78  82
ENDBRANCH  61  75
BRANCH  62  86
ATOM     86  C   UNL A   1      44.097  27.075  34.467  1.00  0.00     0.023 A 
ATOM     87  C   UNL A   1      44.233  26.951  35.859  1.00  0.00     0.031 A 
ATOM     88  C   UNL A   1      44.156  25.899  33.696  1.00  0.00     0.131 A 
ATOM     89  C   UNL A   1      44.483  25.693  36.431  1.00  0.00     0.055 A 
ATOM     90  C   UNL A   1      44.340  24.642  34.276  1.00  0.00     0.041 A 
ATOM     91  F   UNL A   1      44.039  25.956  32.360  1.00  0.00    -0.206 F 
ATOM     92  C   UNL A   1      44.523  24.536  35.650  1.00  0.00     0.022 A 
BRANCH  89  93
ATOM     93  S   UNL A   1      44.875  25.605  38.201  1.00  0.00     0.124 S 
ATOM     94  O   UNL A   1      43.827  26.439  38.777  1.00  0.00    -0.237 OA
ATOM     95  O   UNL A   1      44.773  24.174  38.462  1.00  0.00    -0.237 OA
ATOM     96  O   UNL A   1      46.226  26.156  38.276  1.00  0.00    -0.744 OA
ENDBRANCH  89  93
ENDBRANCH  62  86
BRANCH  74  97
ATOM     97  C   UNL A   1      48.766  31.343  31.507  1.00  0.00     0.023 A 
ATOM     98  C   UNL A   1      49.429  30.755  30.417  1.00  0.00     0.031 A 
ATOM     99  C   UNL A   1      49.553  31.879  32.545  1.00  0.00     0.131 A 
ATOM    100  C   UNL A   1      50.829  30.652  30.423  1.00  0.00     0.055 A 
ATOM    101  C   UNL A   1      50.946  31.843  32.508  1.00  0.00     0.041 A 
ATOM    102  F   UNL A   1      48.976  32.451  33.614  1.00  0.00    -0.206 F 
ATOM    103  C   UNL A   1      51.592  31.211  31.451  1.00  0.00     0.022 A 
BRANCH 100 104
ATOM    104  S   UNL A   1      51.635  29.666  29.131  1.00  0.00     0.124 S 
ATOM    105  O   UNL A   1      52.181  28.550  29.898  1.00  0.00    -0.237 OA
ATOM    106  O   UNL A   1      50.523  29.347  28.243  1.00  0.00    -0.237 OA
ATOM    107  O   UNL A   1      52.631  30.579  28.574  1.00  0.00    -0.744 OA
ENDBRANCH 100 104
ENDBRANCH  74  97
ENDBRANCH  48  49
ENDBRANCH  41  43
ENDBRANCH  40  41
ENDBRANCH  39  40
ENDBRANCH  38  39
ENDBRANCH  37  38
ENDBRANCH  36  37
ENDBRANCH  35  36
ENDBRANCH   1  35
TORSDOF 26
ENDMDL
