MODEL 1
REMARK VINA RESULT:     -11.3      0.000      0.000
REMARK SMILES O=C(OCCOCCOCCOCCOC(=O)c1ccc(-c2c3nc(c(-c4cc(S(=O)(=O)[O-])ccc4F)c4ccc([nH]4)c(-c4cc(S(=O)(=O)[O-])ccc4F)c4nc(c(-c5cc(S(=O)(=O)[O-])ccc5F)c5ccc2[nH]5)C=C4)C=C3)cc1)C1=Cc2c(Cl)ccc(Cl)c2O[C@@H]1C(F)(F)F
REMARK SMILES IDX 10 1 9 2 8 3 7 4 6 5 5 6 4 7 3 8 2 9 1 10 81 11 82 12 92 13
REMARK SMILES IDX 83 14 91 15 84 16 90 17 85 18 86 19 88 20 87 21 89 22 93 23
REMARK SMILES IDX 94 24 95 25 96 26 11 27 12 28 13 29 14 30 15 31 16 32 17 33
REMARK SMILES IDX 18 34 19 35 80 36 20 37 79 38 21 39 22 40 23 41 73 42 24 43
REMARK SMILES IDX 78 44 72 45 74 46 25 47 77 48 71 49 70 50 26 52 58 53 38 54
REMARK SMILES IDX 57 55 39 56 42 57 56 58 75 59 40 60 41 61 55 63 76 64 43 65
REMARK SMILES IDX 27 66 28 67 36 68 29 69 35 70 37 71 34 72 30 73 31 74 32 75
REMARK SMILES IDX 33 76 59 77 60 78 68 79 61 80 67 81 69 82 66 83 62 84 63 85
REMARK SMILES IDX 64 86 65 87 44 88 45 89 53 90 46 91 52 92 54 93 51 94 47 95
REMARK SMILES IDX 48 96 49 97 50 98
REMARK H PARENT 74 51 42 62
REMARK Flexibility Score: inf
ROOT
ATOM      1  C   UNL A   1      28.667  29.752  23.039  1.00  0.00     0.188 C 
ENDROOT
BRANCH   1   2
ATOM      2  O   UNL A   1      29.264  29.013  21.997  1.00  0.00    -0.377 OA
BRANCH   2   3
ATOM      3  C   UNL A   1      30.666  29.001  22.108  1.00  0.00     0.188 C 
BRANCH   3   4
ATOM      4  C   UNL A   1      31.235  27.764  22.813  1.00  0.00     0.188 C 
BRANCH   4   5
ATOM      5  O   UNL A   1      30.453  26.569  23.139  1.00  0.00    -0.376 OA
BRANCH   5   6
ATOM      6  C   UNL A   1      29.845  25.952  24.542  1.00  0.00     0.202 C 
BRANCH   6   7
ATOM      7  C   UNL A   1      30.949  25.122  26.230  1.00  0.00     0.261 C 
BRANCH   7   8
ATOM      8  O   UNL A   1      32.465  25.041  26.367  1.00  0.00    -0.460 OA
BRANCH   8   9
ATOM      9  C   UNL A   1      32.909  23.780  26.442  1.00  0.00     0.338 C 
ATOM     10  O   UNL A   1      32.930  23.041  27.393  1.00  0.00    -0.246 OA
BRANCH   9  11
ATOM     11  C   UNL A   1      33.718  23.823  25.240  1.00  0.00     0.087 C 
ATOM     12  C   UNL A   1      35.155  23.973  25.509  1.00  0.00     0.029 C 
ATOM     13  C   UNL A   1      32.899  22.272  24.455  1.00  0.00     0.316 C 
ATOM     14  C   UNL A   1      36.366  22.629  25.363  1.00  0.00     0.037 A 
ATOM     15  O   UNL A   1      34.136  20.772  24.404  1.00  0.00    -0.474 OA
ATOM     16  C   UNL A   1      37.680  22.819  25.726  1.00  0.00     0.052 A 
ATOM     17  C   UNL A   1      35.884  21.018  24.920  1.00  0.00     0.148 A 
ATOM     18  Cl  UNL A   1      38.303  24.325  26.259  1.00  0.00    -0.084 Cl
ATOM     19  C   UNL A   1      38.512  21.686  25.674  1.00  0.00     0.023 A 
ATOM     20  C   UNL A   1      36.760  19.958  24.966  1.00  0.00     0.083 A 
ATOM     21  C   UNL A   1      38.078  20.341  25.321  1.00  0.00     0.026 A 
ATOM     22  Cl  UNL A   1      36.364  18.316  24.762  1.00  0.00    -0.080 Cl
BRANCH  13  23
ATOM     23  C   UNL A   1      32.144  23.136  23.262  1.00  0.00     0.430 C 
ATOM     24  F   UNL A   1      32.631  24.350  22.950  1.00  0.00    -0.167 F 
ATOM     25  F   UNL A   1      32.300  22.414  22.108  1.00  0.00    -0.167 F 
ATOM     26  F   UNL A   1      30.801  23.252  23.400  1.00  0.00    -0.167 F 
ENDBRANCH  13  23
ENDBRANCH   9  11
ENDBRANCH   8   9
ENDBRANCH   7   8
ENDBRANCH   6   7
ENDBRANCH   5   6
ENDBRANCH   4   5
ENDBRANCH   3   4
ENDBRANCH   2   3
ENDBRANCH   1   2
BRANCH   1  27
ATOM     27  C   UNL A   1      29.205  31.168  23.259  1.00  0.00     0.188 C 
BRANCH  27  28
ATOM     28  O   UNL A   1      29.523  31.675  24.545  1.00  0.00    -0.376 OA
BRANCH  28  29
ATOM     29  C   UNL A   1      30.677  31.243  25.243  1.00  0.00     0.202 C 
BRANCH  29  30
ATOM     30  C   UNL A   1      31.195  31.965  26.499  1.00  0.00     0.261 C 
BRANCH  30  31
ATOM     31  O   UNL A   1      32.515  31.627  26.940  1.00  0.00    -0.460 OA
BRANCH  31  32
ATOM     32  C   UNL A   1      33.198  32.631  27.537  1.00  0.00     0.338 C 
ATOM     33  O   UNL A   1      32.753  33.720  27.856  1.00  0.00    -0.246 OA
BRANCH  32  34
ATOM     34  C   UNL A   1      34.536  32.146  27.948  1.00  0.00     0.060 A 
ATOM     35  C   UNL A   1      34.662  30.791  28.295  1.00  0.00     0.016 A 
ATOM     36  C   UNL A   1      35.646  32.991  28.006  1.00  0.00     0.016 A 
ATOM     37  C   UNL A   1      35.879  30.286  28.739  1.00  0.00     0.010 A 
ATOM     38  C   UNL A   1      36.857  32.495  28.499  1.00  0.00     0.010 A 
ATOM     39  C   UNL A   1      36.963  31.153  28.909  1.00  0.00    -0.014 A 
BRANCH  39  40
ATOM     40  C   UNL A   1      38.091  30.716  29.766  1.00  0.00     0.031 A 
ATOM     41  C   UNL A   1      39.074  29.739  29.180  1.00  0.00     0.074 A 
ATOM     42  C   UNL A   1      38.279  31.217  30.999  1.00  0.00     0.049 A 
ATOM     43  N   UNL A   1      40.110  29.165  29.734  1.00  0.00    -0.248 NA
ATOM     44  C   UNL A   1      38.853  29.357  27.776  1.00  0.00     0.031 C 
ATOM     45  C   UNL A   1      37.434  32.224  31.637  1.00  0.00     0.029 A 
ATOM     46  N   UNL A   1      39.242  30.940  31.936  1.00  0.00    -0.354 N 
ATOM     47  C   UNL A   1      40.653  28.344  28.752  1.00  0.00     0.074 A 
ATOM     48  C   UNL A   1      39.813  28.468  27.582  1.00  0.00     0.031 C 
ATOM     49  C   UNL A   1      37.912  32.474  32.869  1.00  0.00     0.029 A 
ATOM     50  C   UNL A   1      39.063  31.608  33.125  1.00  0.00     0.049 A 
ATOM     51  H   UNL A   1      39.991  30.321  31.774  1.00  0.00     0.167 HD
ATOM     52  C   UNL A   1      41.758  27.562  28.822  1.00  0.00     0.034 A 
ATOM     53  C   UNL A   1      39.730  31.501  34.293  1.00  0.00     0.034 A 
ATOM     54  C   UNL A   1      42.573  27.441  30.004  1.00  0.00     0.049 A 
ATOM     55  C   UNL A   1      40.889  30.534  34.385  1.00  0.00     0.074 A 
ATOM     56  C   UNL A   1      43.714  26.682  30.188  1.00  0.00     0.029 A 
ATOM     57  N   UNL A   1      42.323  28.081  31.211  1.00  0.00    -0.354 N 
ATOM     58  N   UNL A   1      41.394  29.757  33.453  1.00  0.00    -0.248 NA
ATOM     59  C   UNL A   1      41.568  30.434  35.682  1.00  0.00     0.031 C 
ATOM     60  C   UNL A   1      44.098  26.789  31.528  1.00  0.00     0.029 A 
ATOM     61  C   UNL A   1      43.262  27.699  32.156  1.00  0.00     0.049 A 
ATOM     62  H   UNL A   1      41.585  28.715  31.372  1.00  0.00     0.167 HD
ATOM     63  C   UNL A   1      42.473  29.103  34.047  1.00  0.00     0.074 A 
ATOM     64  C   UNL A   1      42.552  29.590  35.408  1.00  0.00     0.031 C 
ATOM     65  C   UNL A   1      43.324  28.187  33.515  1.00  0.00     0.034 A 
BRANCH  52  66
ATOM     66  C   UNL A   1      42.098  26.730  27.609  1.00  0.00     0.023 A 
ATOM     67  C   UNL A   1      41.929  25.335  27.591  1.00  0.00     0.031 A 
ATOM     68  C   UNL A   1      42.633  27.342  26.460  1.00  0.00     0.131 A 
ATOM     69  C   UNL A   1      42.359  24.592  26.480  1.00  0.00     0.055 A 
ATOM     70  C   UNL A   1      42.973  26.607  25.324  1.00  0.00     0.041 A 
ATOM     71  F   UNL A   1      42.847  28.666  26.429  1.00  0.00    -0.206 F 
ATOM     72  C   UNL A   1      42.852  25.221  25.335  1.00  0.00     0.022 A 
BRANCH  69  73
ATOM     73  S   UNL A   1      42.416  22.784  26.618  1.00  0.00     0.124 S 
ATOM     74  O   UNL A   1      41.337  22.527  27.569  1.00  0.00    -0.237 OA
ATOM     75  O   UNL A   1      42.174  22.356  25.246  1.00  0.00    -0.237 OA
ATOM     76  O   UNL A   1      43.761  22.522  27.127  1.00  0.00    -0.744 OA
ENDBRANCH  69  73
ENDBRANCH  52  66
BRANCH  53  77
ATOM     77  C   UNL A   1      39.297  32.283  35.489  1.00  0.00     0.023 A 
ATOM     78  C   UNL A   1      38.613  31.671  36.551  1.00  0.00     0.031 A 
ATOM     79  C   UNL A   1      39.506  33.673  35.558  1.00  0.00     0.131 A 
ATOM     80  C   UNL A   1      38.118  32.451  37.609  1.00  0.00     0.055 A 
ATOM     81  C   UNL A   1      39.071  34.435  36.644  1.00  0.00     0.041 A 
ATOM     82  F   UNL A   1      40.143  34.315  34.566  1.00  0.00    -0.206 F 
ATOM     83  C   UNL A   1      38.359  33.825  37.671  1.00  0.00     0.022 A 
BRANCH  80  84
ATOM     84  S   UNL A   1      37.062  31.659  38.852  1.00  0.00     0.124 S 
ATOM     85  O   UNL A   1      37.901  31.730  40.042  1.00  0.00    -0.237 OA
ATOM     86  O   UNL A   1      35.886  32.523  38.843  1.00  0.00    -0.237 OA
ATOM     87  O   UNL A   1      36.852  30.317  38.313  1.00  0.00    -0.744 OA
ENDBRANCH  80  84
ENDBRANCH  53  77
BRANCH  65  88
ATOM     88  C   UNL A   1      44.451  27.693  34.393  1.00  0.00     0.023 A 
ATOM     89  C   UNL A   1      44.352  26.499  35.128  1.00  0.00     0.031 A 
ATOM     90  C   UNL A   1      45.643  28.434  34.496  1.00  0.00     0.131 A 
ATOM     91  C   UNL A   1      45.399  26.116  35.982  1.00  0.00     0.055 A 
ATOM     92  C   UNL A   1      46.711  28.006  35.284  1.00  0.00     0.041 A 
ATOM     93  F   UNL A   1      45.792  29.586  33.823  1.00  0.00    -0.206 F 
ATOM     94  C   UNL A   1      46.586  26.848  36.046  1.00  0.00     0.022 A 
BRANCH  91  95
ATOM     95  S   UNL A   1      45.138  24.711  37.100  1.00  0.00     0.124 S 
ATOM     96  O   UNL A   1      46.490  24.461  37.589  1.00  0.00    -0.237 OA
ATOM     97  O   UNL A   1      44.199  25.258  38.074  1.00  0.00    -0.237 OA
ATOM     98  O   UNL A   1      44.593  23.675  36.227  1.00  0.00    -0.744 OA
ENDBRANCH  91  95
ENDBRANCH  65  88
ENDBRANCH  39  40
ENDBRANCH  32  34
ENDBRANCH  31  32
ENDBRANCH  30  31
ENDBRANCH  29  30
ENDBRANCH  28  29
ENDBRANCH  27  28
ENDBRANCH   1  27
TORSDOF 24
ENDMDL
MODEL 2
REMARK VINA RESULT:     -11.2      1.785      7.437
REMARK SMILES O=C(OCCOCCOCCOCCOC(=O)c1ccc(-c2c3nc(c(-c4cc(S(=O)(=O)[O-])ccc4F)c4ccc([nH]4)c(-c4cc(S(=O)(=O)[O-])ccc4F)c4nc(c(-c5cc(S(=O)(=O)[O-])ccc5F)c5ccc2[nH]5)C=C4)C=C3)cc1)C1=Cc2c(Cl)ccc(Cl)c2O[C@@H]1C(F)(F)F
REMARK SMILES IDX 10 1 9 2 8 3 7 4 6 5 5 6 4 7 3 8 2 9 1 10 81 11 82 12 92 13
REMARK SMILES IDX 83 14 91 15 84 16 90 17 85 18 86 19 88 20 87 21 89 22 93 23
REMARK SMILES IDX 94 24 95 25 96 26 11 27 12 28 13 29 14 30 15 31 16 32 17 33
REMARK SMILES IDX 18 34 19 35 80 36 20 37 79 38 21 39 22 40 23 41 73 42 24 43
REMARK SMILES IDX 78 44 72 45 74 46 25 47 77 48 71 49 70 50 26 52 58 53 38 54
REMARK SMILES IDX 57 55 39 56 42 57 56 58 75 59 40 60 41 61 55 63 76 64 43 65
REMARK SMILES IDX 27 66 28 67 36 68 29 69 35 70 37 71 34 72 30 73 31 74 32 75
REMARK SMILES IDX 33 76 59 77 60 78 68 79 61 80 67 81 69 82 66 83 62 84 63 85
REMARK SMILES IDX 64 86 65 87 44 88 45 89 53 90 46 91 52 92 54 93 51 94 47 95
REMARK SMILES IDX 48 96 49 97 50 98
REMARK H PARENT 74 51 42 62
REMARK Flexibility Score: inf
ROOT
ATOM      1  C   UNL A   1      29.248  29.134  23.369  1.00  0.00     0.188 C 
ENDROOT
BRANCH   1   2
ATOM      2  O   UNL A   1      30.350  28.296  23.100  1.00  0.00    -0.377 OA
BRANCH   2   3
ATOM      3  C   UNL A   1      31.348  28.969  22.374  1.00  0.00     0.188 C 
BRANCH   3   4
ATOM      4  C   UNL A   1      32.775  28.717  22.876  1.00  0.00     0.188 C 
BRANCH   4   5
ATOM      5  O   UNL A   1      33.245  29.051  24.223  1.00  0.00    -0.376 OA
BRANCH   5   6
ATOM      6  C   UNL A   1      33.724  28.151  25.520  1.00  0.00     0.202 C 
BRANCH   6   7
ATOM      7  C   UNL A   1      32.478  26.961  26.858  1.00  0.00     0.261 C 
BRANCH   7   8
ATOM      8  O   UNL A   1      31.380  25.988  26.444  1.00  0.00    -0.460 OA
BRANCH   8   9
ATOM      9  C   UNL A   1      31.746  24.708  26.580  1.00  0.00     0.338 C 
ATOM     10  O   UNL A   1      31.797  24.038  27.581  1.00  0.00    -0.246 OA
BRANCH   9  11
ATOM     11  C   UNL A   1      32.454  24.609  25.319  1.00  0.00     0.087 C 
ATOM     12  C   UNL A   1      33.906  24.439  25.478  1.00  0.00     0.029 C 
ATOM     13  C   UNL A   1      31.264  23.291  24.584  1.00  0.00     0.316 C 
ATOM     14  C   UNL A   1      34.784  22.871  25.225  1.00  0.00     0.037 A 
ATOM     15  O   UNL A   1      32.141  21.562  24.421  1.00  0.00    -0.474 OA
ATOM     16  C   UNL A   1      36.131  22.765  25.487  1.00  0.00     0.052 A 
ATOM     17  C   UNL A   1      33.934  21.413  24.804  1.00  0.00     0.148 A 
ATOM     18  Cl  UNL A   1      37.102  24.087  25.986  1.00  0.00    -0.084 Cl
ATOM     19  C   UNL A   1      36.691  21.481  25.358  1.00  0.00     0.023 A 
ATOM     20  C   UNL A   1      34.561  20.189  24.770  1.00  0.00     0.083 A 
ATOM     21  C   UNL A   1      35.952  20.271  25.026  1.00  0.00     0.026 A 
ATOM     22  Cl  UNL A   1      33.805  18.677  24.580  1.00  0.00    -0.080 Cl
BRANCH  13  23
ATOM     23  C   UNL A   1      30.629  24.329  23.463  1.00  0.00     0.430 C 
ATOM     24  F   UNL A   1      31.464  24.896  22.574  1.00  0.00    -0.167 F 
ATOM     25  F   UNL A   1      29.782  23.583  22.685  1.00  0.00    -0.167 F 
ATOM     26  F   UNL A   1      29.837  25.306  23.968  1.00  0.00    -0.167 F 
ENDBRANCH  13  23
ENDBRANCH   9  11
ENDBRANCH   8   9
ENDBRANCH   7   8
ENDBRANCH   6   7
ENDBRANCH   5   6
ENDBRANCH   4   5
ENDBRANCH   3   4
ENDBRANCH   2   3
ENDBRANCH   1   2
BRANCH   1  27
ATOM     27  C   UNL A   1      29.535  30.637  23.411  1.00  0.00     0.188 C 
BRANCH  27  28
ATOM     28  O   UNL A   1      29.833  31.326  24.614  1.00  0.00    -0.376 OA
BRANCH  28  29
ATOM     29  C   UNL A   1      30.922  30.943  25.434  1.00  0.00     0.202 C 
BRANCH  29  30
ATOM     30  C   UNL A   1      31.452  31.839  26.566  1.00  0.00     0.261 C 
BRANCH  30  31
ATOM     31  O   UNL A   1      32.644  31.401  27.232  1.00  0.00    -0.460 OA
BRANCH  31  32
ATOM     32  C   UNL A   1      33.474  32.390  27.635  1.00  0.00     0.338 C 
ATOM     33  O   UNL A   1      33.159  33.537  27.903  1.00  0.00    -0.246 OA
BRANCH  32  34
ATOM     34  C   UNL A   1      34.816  31.829  27.915  1.00  0.00     0.060 A 
ATOM     35  C   UNL A   1      34.927  30.435  28.049  1.00  0.00     0.016 A 
ATOM     36  C   UNL A   1      35.945  32.639  28.053  1.00  0.00     0.016 A 
ATOM     37  C   UNL A   1      36.149  29.852  28.363  1.00  0.00     0.010 A 
ATOM     38  C   UNL A   1      37.164  32.057  28.417  1.00  0.00     0.010 A 
ATOM     39  C   UNL A   1      37.257  30.667  28.616  1.00  0.00    -0.014 A 
BRANCH  39  40
ATOM     40  C   UNL A   1      38.407  30.089  29.352  1.00  0.00     0.031 A 
ATOM     41  C   UNL A   1      38.656  30.578  30.754  1.00  0.00     0.074 A 
ATOM     42  C   UNL A   1      39.169  29.116  28.823  1.00  0.00     0.049 A 
ATOM     43  N   UNL A   1      39.617  30.273  31.584  1.00  0.00    -0.248 NA
ATOM     44  C   UNL A   1      37.683  31.546  31.287  1.00  0.00     0.031 C 
ATOM     45  C   UNL A   1      38.972  28.513  27.507  1.00  0.00     0.029 A 
ATOM     46  N   UNL A   1      40.265  28.466  29.332  1.00  0.00    -0.354 N 
ATOM     47  C   UNL A   1      39.375  31.022  32.730  1.00  0.00     0.074 A 
ATOM     48  C   UNL A   1      38.197  31.821  32.474  1.00  0.00     0.031 C 
ATOM     49  C   UNL A   1      39.926  27.587  27.306  1.00  0.00     0.029 A 
ATOM     50  C   UNL A   1      40.828  27.567  28.457  1.00  0.00     0.049 A 
ATOM     51  H   UNL A   1      40.615  28.628  30.238  1.00  0.00     0.167 HD
ATOM     52  C   UNL A   1      40.072  31.037  33.893  1.00  0.00     0.034 A 
ATOM     53  C   UNL A   1      41.962  26.844  28.563  1.00  0.00     0.034 A 
ATOM     54  C   UNL A   1      41.253  30.244  34.121  1.00  0.00     0.049 A 
ATOM     55  C   UNL A   1      42.789  26.964  29.823  1.00  0.00     0.074 A 
ATOM     56  C   UNL A   1      42.036  30.176  35.259  1.00  0.00     0.029 A 
ATOM     57  N   UNL A   1      41.834  29.394  33.188  1.00  0.00    -0.354 N 
ATOM     58  N   UNL A   1      42.556  27.678  30.901  1.00  0.00    -0.248 NA
ATOM     59  C   UNL A   1      44.027  26.176  29.882  1.00  0.00     0.031 C 
ATOM     60  C   UNL A   1      43.139  29.363  34.981  1.00  0.00     0.029 A 
ATOM     61  C   UNL A   1      42.989  28.834  33.708  1.00  0.00     0.049 A 
ATOM     62  H   UNL A   1      41.476  29.216  32.287  1.00  0.00     0.167 HD
ATOM     63  C   UNL A   1      43.603  27.397  31.778  1.00  0.00     0.074 A 
ATOM     64  C   UNL A   1      44.455  26.437  31.108  1.00  0.00     0.031 C 
ATOM     65  C   UNL A   1      43.836  27.883  33.025  1.00  0.00     0.034 A 
BRANCH  52  66
ATOM     66  C   UNL A   1      39.609  31.990  34.968  1.00  0.00     0.023 A 
ATOM     67  C   UNL A   1      40.126  33.292  35.083  1.00  0.00     0.031 A 
ATOM     68  C   UNL A   1      38.655  31.576  35.915  1.00  0.00     0.131 A 
ATOM     69  C   UNL A   1      39.745  34.104  36.163  1.00  0.00     0.055 A 
ATOM     70  C   UNL A   1      38.212  32.422  36.933  1.00  0.00     0.041 A 
ATOM     71  F   UNL A   1      38.148  30.334  35.877  1.00  0.00    -0.206 F 
ATOM     72  C   UNL A   1      38.769  33.689  37.071  1.00  0.00     0.022 A 
BRANCH  69  73
ATOM     73  S   UNL A   1      40.661  35.641  36.455  1.00  0.00     0.124 S 
ATOM     74  O   UNL A   1      39.670  36.649  36.084  1.00  0.00    -0.237 OA
ATOM     75  O   UNL A   1      40.981  35.553  37.875  1.00  0.00    -0.237 OA
ATOM     76  O   UNL A   1      41.803  35.537  35.549  1.00  0.00    -0.744 OA
ENDBRANCH  69  73
ENDBRANCH  52  66
BRANCH  53  77
ATOM     77  C   UNL A   1      42.421  25.982  27.433  1.00  0.00     0.023 A 
ATOM     78  C   UNL A   1      42.015  24.643  27.326  1.00  0.00     0.031 A 
ATOM     79  C   UNL A   1      43.329  26.471  26.475  1.00  0.00     0.131 A 
ATOM     80  C   UNL A   1      42.553  23.825  26.318  1.00  0.00     0.055 A 
ATOM     81  C   UNL A   1      43.810  25.672  25.435  1.00  0.00     0.041 A 
ATOM     82  F   UNL A   1      43.763  27.740  26.533  1.00  0.00    -0.206 F 
ATOM     83  C   UNL A   1      43.432  24.336  25.361  1.00  0.00     0.022 A 
BRANCH  80  84
ATOM     84  S   UNL A   1      42.167  22.054  26.340  1.00  0.00     0.124 S 
ATOM     85  O   UNL A   1      43.052  21.545  25.298  1.00  0.00    -0.237 OA
ATOM     86  O   UNL A   1      42.510  21.687  27.710  1.00  0.00    -0.237 OA
ATOM     87  O   UNL A   1      40.741  22.013  26.024  1.00  0.00    -0.744 OA
ENDBRANCH  80  84
ENDBRANCH  53  77
BRANCH  65  88
ATOM     88  C   UNL A   1      45.035  27.342  33.769  1.00  0.00     0.023 A 
ATOM     89  C   UNL A   1      44.950  26.205  34.591  1.00  0.00     0.031 A 
ATOM     90  C   UNL A   1      46.285  27.980  33.654  1.00  0.00     0.131 A 
ATOM     91  C   UNL A   1      46.076  25.780  35.314  1.00  0.00     0.055 A 
ATOM     92  C   UNL A   1      47.418  27.504  34.312  1.00  0.00     0.041 A 
ATOM     93  F   UNL A   1      46.425  29.074  32.889  1.00  0.00    -0.206 F 
ATOM     94  C   UNL A   1      47.315  26.407  35.161  1.00  0.00     0.022 A 
BRANCH  91  95
ATOM     95  S   UNL A   1      45.870  24.469  36.551  1.00  0.00     0.124 S 
ATOM     96  O   UNL A   1      44.862  23.621  35.926  1.00  0.00    -0.237 OA
ATOM     97  O   UNL A   1      47.214  23.906  36.635  1.00  0.00    -0.237 OA
ATOM     98  O   UNL A   1      45.424  25.189  37.741  1.00  0.00    -0.744 OA
ENDBRANCH  91  95
ENDBRANCH  65  88
ENDBRANCH  39  40
ENDBRANCH  32  34
ENDBRANCH  31  32
ENDBRANCH  30  31
ENDBRANCH  29  30
ENDBRANCH  28  29
ENDBRANCH  27  28
ENDBRANCH   1  27
TORSDOF 24
ENDMDL
MODEL 3
REMARK VINA RESULT:     -11.1      1.823      2.564
REMARK SMILES O=C(OCCOCCOCCOCCOC(=O)c1ccc(-c2c3nc(c(-c4cc(S(=O)(=O)[O-])ccc4F)c4ccc([nH]4)c(-c4cc(S(=O)(=O)[O-])ccc4F)c4nc(c(-c5cc(S(=O)(=O)[O-])ccc5F)c5ccc2[nH]5)C=C4)C=C3)cc1)C1=Cc2c(Cl)ccc(Cl)c2O[C@@H]1C(F)(F)F
REMARK SMILES IDX 10 1 9 2 8 3 7 4 6 5 5 6 4 7 3 8 2 9 1 10 81 11 82 12 92 13
REMARK SMILES IDX 83 14 91 15 84 16 90 17 85 18 86 19 88 20 87 21 89 22 93 23
REMARK SMILES IDX 94 24 95 25 96 26 11 27 12 28 13 29 14 30 15 31 16 32 17 33
REMARK SMILES IDX 18 34 19 35 80 36 20 37 79 38 21 39 22 40 23 41 73 42 24 43
REMARK SMILES IDX 78 44 72 45 74 46 25 47 77 48 71 49 70 50 26 52 58 53 38 54
REMARK SMILES IDX 57 55 39 56 42 57 56 58 75 59 40 60 41 61 55 63 76 64 43 65
REMARK SMILES IDX 27 66 28 67 36 68 29 69 35 70 37 71 34 72 30 73 31 74 32 75
REMARK SMILES IDX 33 76 59 77 60 78 68 79 61 80 67 81 69 82 66 83 62 84 63 85
REMARK SMILES IDX 64 86 65 87 44 88 45 89 53 90 46 91 52 92 54 93 51 94 47 95
REMARK SMILES IDX 48 96 49 97 50 98
REMARK H PARENT 74 51 42 62
REMARK Flexibility Score: inf
ROOT
ATOM      1  C   UNL A   1      30.772  28.987  23.254  1.00  0.00     0.188 C 
ENDROOT
BRANCH   1   2
ATOM      2  O   UNL A   1      31.876  29.248  22.417  1.00  0.00    -0.377 OA
BRANCH   2   3
ATOM      3  C   UNL A   1      33.087  28.868  23.024  1.00  0.00     0.188 C 
BRANCH   3   4
ATOM      4  C   UNL A   1      33.969  27.958  22.161  1.00  0.00     0.188 C 
BRANCH   4   5
ATOM      5  O   UNL A   1      33.497  26.738  21.501  1.00  0.00    -0.376 OA
BRANCH   5   6
ATOM      6  C   UNL A   1      32.046  25.956  21.452  1.00  0.00     0.202 C 
BRANCH   6   7
ATOM      7  C   UNL A   1      30.958  25.045  23.110  1.00  0.00     0.261 C 
BRANCH   7   8
ATOM      8  O   UNL A   1      30.930  23.563  23.466  1.00  0.00    -0.460 OA
BRANCH   8   9
ATOM      9  C   UNL A   1      32.092  22.949  23.212  1.00  0.00     0.338 C 
ATOM     10  O   UNL A   1      32.613  22.725  22.149  1.00  0.00    -0.246 OA
BRANCH   9  11
ATOM     11  C   UNL A   1      32.210  22.292  24.499  1.00  0.00     0.087 C 
ATOM     12  C   UNL A   1      32.336  20.831  24.397  1.00  0.00     0.029 C 
ATOM     13  C   UNL A   1      33.581  23.474  25.144  1.00  0.00     0.316 C 
ATOM     14  C   UNL A   1      33.888  19.921  24.642  1.00  0.00     0.037 A 
ATOM     15  O   UNL A   1      35.290  22.558  25.294  1.00  0.00    -0.474 OA
ATOM     16  C   UNL A   1      33.950  18.561  24.435  1.00  0.00     0.052 A 
ATOM     17  C   UNL A   1      35.380  20.747  24.984  1.00  0.00     0.148 A 
ATOM     18  Cl  UNL A   1      32.588  17.608  24.016  1.00  0.00    -0.084 Cl
ATOM     19  C   UNL A   1      35.222  17.971  24.549  1.00  0.00     0.023 A 
ATOM     20  C   UNL A   1      36.587  20.088  25.008  1.00  0.00     0.083 A 
ATOM     21  C   UNL A   1      36.461  18.689  24.814  1.00  0.00     0.026 A 
ATOM     22  Cl  UNL A   1      38.124  20.808  25.122  1.00  0.00    -0.080 Cl
BRANCH  13  23
ATOM     23  C   UNL A   1      32.595  24.185  26.267  1.00  0.00     0.430 C 
ATOM     24  F   UNL A   1      31.282  23.894  26.236  1.00  0.00    -0.167 F 
ATOM     25  F   UNL A   1      33.005  23.717  27.488  1.00  0.00    -0.167 F 
ATOM     26  F   UNL A   1      32.718  25.530  26.370  1.00  0.00    -0.167 F 
ENDBRANCH  13  23
ENDBRANCH   9  11
ENDBRANCH   8   9
ENDBRANCH   7   8
ENDBRANCH   6   7
ENDBRANCH   5   6
ENDBRANCH   4   5
ENDBRANCH   3   4
ENDBRANCH   2   3
ENDBRANCH   1   2
BRANCH   1  27
ATOM     27  C   UNL A   1      29.800  30.149  23.477  1.00  0.00     0.188 C 
BRANCH  27  28
ATOM     28  O   UNL A   1      29.970  31.102  24.513  1.00  0.00    -0.376 OA
BRANCH  28  29
ATOM     29  C   UNL A   1      30.833  30.854  25.608  1.00  0.00     0.202 C 
BRANCH  29  30
ATOM     30  C   UNL A   1      31.491  31.991  26.408  1.00  0.00     0.261 C 
BRANCH  30  31
ATOM     31  O   UNL A   1      32.626  31.643  27.212  1.00  0.00    -0.460 OA
BRANCH  31  32
ATOM     32  C   UNL A   1      33.418  32.679  27.568  1.00  0.00     0.338 C 
ATOM     33  O   UNL A   1      33.075  33.840  27.707  1.00  0.00    -0.246 OA
BRANCH  32  34
ATOM     34  C   UNL A   1      34.748  32.170  27.977  1.00  0.00     0.060 A 
ATOM     35  C   UNL A   1      34.856  30.806  28.296  1.00  0.00     0.016 A 
ATOM     36  C   UNL A   1      35.867  33.001  28.059  1.00  0.00     0.016 A 
ATOM     37  C   UNL A   1      36.065  30.278  28.737  1.00  0.00     0.010 A 
ATOM     38  C   UNL A   1      37.070  32.480  28.549  1.00  0.00     0.010 A 
ATOM     39  C   UNL A   1      37.157  31.128  28.931  1.00  0.00    -0.014 A 
BRANCH  39  40
ATOM     40  C   UNL A   1      38.275  30.660  29.785  1.00  0.00     0.031 A 
ATOM     41  C   UNL A   1      39.254  29.689  29.183  1.00  0.00     0.074 A 
ATOM     42  C   UNL A   1      38.457  31.128  31.033  1.00  0.00     0.049 A 
ATOM     43  N   UNL A   1      40.280  29.093  29.730  1.00  0.00    -0.248 NA
ATOM     44  C   UNL A   1      39.041  29.345  27.767  1.00  0.00     0.031 C 
ATOM     45  C   UNL A   1      37.616  32.126  31.689  1.00  0.00     0.029 A 
ATOM     46  N   UNL A   1      39.410  30.819  31.970  1.00  0.00    -0.354 N 
ATOM     47  C   UNL A   1      40.824  28.292  28.732  1.00  0.00     0.074 A 
ATOM     48  C   UNL A   1      39.995  28.453  27.558  1.00  0.00     0.031 C 
ATOM     49  C   UNL A   1      38.085  32.340  32.931  1.00  0.00     0.029 A 
ATOM     50  C   UNL A   1      39.227  31.458  33.174  1.00  0.00     0.049 A 
ATOM     51  H   UNL A   1      40.155  30.198  31.797  1.00  0.00     0.167 HD
ATOM     52  C   UNL A   1      41.922  27.498  28.790  1.00  0.00     0.034 A 
ATOM     53  C   UNL A   1      39.884  31.316  34.344  1.00  0.00     0.034 A 
ATOM     54  C   UNL A   1      42.726  27.340  29.976  1.00  0.00     0.049 A 
ATOM     55  C   UNL A   1      41.034  30.337  34.420  1.00  0.00     0.074 A 
ATOM     56  C   UNL A   1      43.859  26.568  30.149  1.00  0.00     0.029 A 
ATOM     57  N   UNL A   1      42.472  27.952  31.197  1.00  0.00    -0.354 N 
ATOM     58  N   UNL A   1      41.540  29.579  33.473  1.00  0.00    -0.248 NA
ATOM     59  C   UNL A   1      41.702  30.198  35.720  1.00  0.00     0.031 C 
ATOM     60  C   UNL A   1      44.233  26.637  31.494  1.00  0.00     0.029 A 
ATOM     61  C   UNL A   1      43.400  27.539  32.139  1.00  0.00     0.049 A 
ATOM     62  H   UNL A   1      41.739  28.588  31.368  1.00  0.00     0.167 HD
ATOM     63  C   UNL A   1      42.608  28.901  34.058  1.00  0.00     0.074 A 
ATOM     64  C   UNL A   1      42.680  29.353  35.432  1.00  0.00     0.031 C 
ATOM     65  C   UNL A   1      43.456  27.991  33.510  1.00  0.00     0.034 A 
BRANCH  52  66
ATOM     66  C   UNL A   1      42.265  26.694  27.559  1.00  0.00     0.023 A 
ATOM     67  C   UNL A   1      41.887  25.348  27.420  1.00  0.00     0.031 A 
ATOM     68  C   UNL A   1      43.011  27.279  26.520  1.00  0.00     0.131 A 
ATOM     69  C   UNL A   1      42.321  24.611  26.307  1.00  0.00     0.055 A 
ATOM     70  C   UNL A   1      43.360  26.565  25.372  1.00  0.00     0.041 A 
ATOM     71  F   UNL A   1      43.427  28.552  26.609  1.00  0.00    -0.206 F 
ATOM     72  C   UNL A   1      43.029  25.218  25.268  1.00  0.00     0.022 A 
BRANCH  69  73
ATOM     73  S   UNL A   1      42.086  22.813  26.315  1.00  0.00     0.124 S 
ATOM     74  O   UNL A   1      42.617  22.441  25.005  1.00  0.00    -0.237 OA
ATOM     75  O   UNL A   1      42.877  22.396  27.466  1.00  0.00    -0.237 OA
ATOM     76  O   UNL A   1      40.640  22.656  26.460  1.00  0.00    -0.744 OA
ENDBRANCH  69  73
ENDBRANCH  52  66
BRANCH  53  77
ATOM     77  C   UNL A   1      39.448  32.071  35.555  1.00  0.00     0.023 A 
ATOM     78  C   UNL A   1      40.010  33.316  35.880  1.00  0.00     0.031 A 
ATOM     79  C   UNL A   1      38.505  31.526  36.446  1.00  0.00     0.131 A 
ATOM     80  C   UNL A   1      39.664  33.949  37.085  1.00  0.00     0.055 A 
ATOM     81  C   UNL A   1      38.115  32.191  37.611  1.00  0.00     0.041 A 
ATOM     82  F   UNL A   1      37.943  30.333  36.196  1.00  0.00    -0.206 F 
ATOM     83  C   UNL A   1      38.707  33.404  37.942  1.00  0.00     0.022 A 
BRANCH  80  84
ATOM     84  S   UNL A   1      40.565  35.447  37.568  1.00  0.00     0.124 S 
ATOM     85  O   UNL A   1      40.539  35.352  39.022  1.00  0.00    -0.237 OA
ATOM     86  O   UNL A   1      41.863  35.237  36.933  1.00  0.00    -0.237 OA
ATOM     87  O   UNL A   1      39.761  36.525  36.997  1.00  0.00    -0.744 OA
ENDBRANCH  80  84
ENDBRANCH  53  77
BRANCH  65  88
ATOM     88  C   UNL A   1      44.571  27.465  34.384  1.00  0.00     0.023 A 
ATOM     89  C   UNL A   1      44.441  26.275  35.120  1.00  0.00     0.031 A 
ATOM     90  C   UNL A   1      45.784  28.171  34.482  1.00  0.00     0.131 A 
ATOM     91  C   UNL A   1      45.479  25.862  35.970  1.00  0.00     0.055 A 
ATOM     92  C   UNL A   1      46.843  27.713  35.266  1.00  0.00     0.041 A 
ATOM     93  F   UNL A   1      45.964  29.318  33.807  1.00  0.00    -0.206 F 
ATOM     94  C   UNL A   1      46.688  26.560  36.029  1.00  0.00     0.022 A 
BRANCH  91  95
ATOM     95  S   UNL A   1      45.183  24.466  37.090  1.00  0.00     0.124 S 
ATOM     96  O   UNL A   1      44.609  23.473  36.189  1.00  0.00    -0.237 OA
ATOM     97  O   UNL A   1      46.523  24.177  37.589  1.00  0.00    -0.237 OA
ATOM     98  O   UNL A   1      44.257  25.013  38.080  1.00  0.00    -0.744 OA
ENDBRANCH  91  95
ENDBRANCH  65  88
ENDBRANCH  39  40
ENDBRANCH  32  34
ENDBRANCH  31  32
ENDBRANCH  30  31
ENDBRANCH  29  30
ENDBRANCH  28  29
ENDBRANCH  27  28
ENDBRANCH   1  27
TORSDOF 24
ENDMDL
