MODEL 1
REMARK VINA RESULT:     -11.1      0.000      0.000
REMARK SMILES Cc1ccc(S(=O)(=O)N2c3ccc(C(=O)OCCOCCOCCOCCOC(=O)c4ccc(-c5c6nc(c(-c7cc(S(=O)(=O)[O-])ccc7F)c7ccc([nH]7)c(-c7cc(S(=O)(=O)[O-])ccc7F)c7nc(c(-c8cc(S(=O)(=O)[O-])ccc8F)c8ccc5[nH]8)C=C7)C=C6)cc4)cc3C[C@H]2C)cc1
REMARK SMILES IDX 23 1 22 2 21 3 20 4 19 5 18 6 17 7 16 8 14 9 15 10 13 11
REMARK SMILES IDX 9 12 10 13 97 14 11 15 95 16 96 17 98 18 12 19 94 20 6 21
REMARK SMILES IDX 7 22 8 23 5 24 1 25 2 26 3 27 100 28 4 29 99 30 24 31 25 32
REMARK SMILES IDX 26 33 27 34 28 35 29 36 30 37 31 38 32 39 93 40 33 41 92 42
REMARK SMILES IDX 34 43 35 44 36 45 86 46 37 47 91 48 85 49 87 50 38 51 90 52
REMARK SMILES IDX 84 53 83 54 39 56 71 57 51 58 70 59 52 60 55 61 69 62 88 63
REMARK SMILES IDX 53 64 54 65 68 67 89 68 56 69 40 70 41 71 49 72 42 73 48 74
REMARK SMILES IDX 50 75 47 76 43 77 44 78 45 79 46 80 72 81 73 82 81 83 74 84
REMARK SMILES IDX 80 85 82 86 79 87 75 88 76 89 77 90 78 91 57 92 58 93 66 94
REMARK SMILES IDX 59 95 65 96 67 97 64 98 60 99 61 100 62 101 63 102
REMARK H PARENT 87 55 55 66
REMARK Flexibility Score: inf
ROOT
ATOM      1  C   UNL A   1      40.234  29.116  31.344  1.00  0.00     0.188 C 
ENDROOT
BRANCH   1   2
ATOM      2  O   UNL A   1      40.719  28.219  30.321  1.00  0.00    -0.377 OA
BRANCH   2   3
ATOM      3  C   UNL A   1      40.423  28.613  28.961  1.00  0.00     0.188 C 
BRANCH   3   4
ATOM      4  C   UNL A   1      39.082  27.929  28.240  1.00  0.00     0.188 C 
BRANCH   4   5
ATOM      5  O   UNL A   1      38.795  26.361  27.684  1.00  0.00    -0.376 OA
BRANCH   5   6
ATOM      6  C   UNL A   1      39.393  24.780  28.043  1.00  0.00     0.202 C 
BRANCH   6   7
ATOM      7  C   UNL A   1      40.189  23.472  26.928  1.00  0.00     0.261 C 
BRANCH   7   8
ATOM      8  O   UNL A   1      39.284  22.292  25.849  1.00  0.00    -0.460 OA
BRANCH   8   9
ATOM      9  C   UNL A   1      37.951  21.698  25.424  1.00  0.00     0.338 C 
ATOM     10  O   UNL A   1      37.846  20.562  24.942  1.00  0.00    -0.246 OA
BRANCH   9  11
ATOM     11  C   UNL A   1      36.455  22.338  25.462  1.00  0.00     0.060 A 
ATOM     12  N   UNL A   1      32.550  23.985  24.787  1.00  0.00    -0.263 N 
ATOM     13  C   UNL A   1      33.869  23.515  25.106  1.00  0.00     0.055 A 
ATOM     14  C   UNL A   1      31.845  22.714  24.405  1.00  0.00     0.101 C 
ATOM     15  C   UNL A   1      34.720  24.087  25.982  1.00  0.00     0.028 A 
ATOM     16  C   UNL A   1      34.177  22.284  24.545  1.00  0.00    -0.021 A 
ATOM     17  C   UNL A   1      32.941  21.711  23.935  1.00  0.00     0.063 C 
ATOM     18  C   UNL A   1      31.137  22.258  25.701  1.00  0.00     0.032 C 
ATOM     19  C   UNL A   1      35.897  23.379  26.243  1.00  0.00     0.018 A 
ATOM     20  C   UNL A   1      35.475  21.745  24.629  1.00  0.00     0.021 A 
BRANCH  12  21
ATOM     21  S   UNL A   1      32.644  25.255  23.629  1.00  0.00     0.264 S 
ATOM     22  O   UNL A   1      31.566  25.072  22.677  1.00  0.00    -0.201 OA
ATOM     23  O   UNL A   1      34.023  25.370  23.190  1.00  0.00    -0.201 OA
BRANCH  21  24
ATOM     24  C   UNL A   1      32.287  26.809  24.426  1.00  0.00     0.088 A 
ATOM     25  C   UNL A   1      32.057  30.321  26.892  1.00  0.00     0.044 C 
ATOM     26  C   UNL A   1      32.074  29.112  26.007  1.00  0.00    -0.051 A 
ATOM     27  C   UNL A   1      31.670  27.873  26.516  1.00  0.00     0.005 A 
ATOM     28  C   UNL A   1      32.486  29.198  24.672  1.00  0.00     0.005 A 
ATOM     29  C   UNL A   1      31.786  26.724  25.733  1.00  0.00     0.022 A 
ATOM     30  C   UNL A   1      32.571  28.053  23.873  1.00  0.00     0.022 A 
ENDBRANCH  21  24
ENDBRANCH  12  21
ENDBRANCH   9  11
ENDBRANCH   8   9
ENDBRANCH   7   8
ENDBRANCH   6   7
ENDBRANCH   5   6
ENDBRANCH   4   5
ENDBRANCH   3   4
ENDBRANCH   2   3
ENDBRANCH   1   2
BRANCH   1  31
ATOM     31  C   UNL A   1      38.958  28.551  31.950  1.00  0.00     0.188 C 
BRANCH  31  32
ATOM     32  O   UNL A   1      37.893  29.320  31.402  1.00  0.00    -0.376 OA
BRANCH  32  33
ATOM     33  C   UNL A   1      37.907  30.696  31.720  1.00  0.00     0.202 C 
BRANCH  33  34
ATOM     34  C   UNL A   1      36.535  31.295  31.427  1.00  0.00     0.261 C 
BRANCH  34  35
ATOM     35  O   UNL A   1      36.695  32.510  30.656  1.00  0.00    -0.460 OA
BRANCH  35  36
ATOM     36  C   UNL A   1      36.926  33.622  31.412  1.00  0.00     0.338 C 
ATOM     37  O   UNL A   1      36.066  34.218  32.044  1.00  0.00    -0.246 OA
BRANCH  36  38
ATOM     38  C   UNL A   1      38.334  34.070  31.241  1.00  0.00     0.060 A 
ATOM     39  C   UNL A   1      39.000  33.979  30.039  1.00  0.00     0.016 A 
ATOM     40  C   UNL A   1      39.100  34.446  32.303  1.00  0.00     0.016 A 
ATOM     41  C   UNL A   1      40.427  33.860  29.998  1.00  0.00     0.010 A 
ATOM     42  C   UNL A   1      40.507  34.351  32.185  1.00  0.00     0.010 A 
ATOM     43  C   UNL A   1      41.255  33.698  31.124  1.00  0.00    -0.014 A 
BRANCH  43  44
ATOM     44  C   UNL A   1      42.892  32.853  31.081  1.00  0.00     0.031 A 
ATOM     45  C   UNL A   1      43.552  31.706  29.613  1.00  0.00     0.074 A 
ATOM     46  C   UNL A   1      43.419  32.893  32.435  1.00  0.00     0.049 A 
ATOM     47  N   UNL A   1      43.438  30.356  29.664  1.00  0.00    -0.248 NA
ATOM     48  C   UNL A   1      43.901  31.760  28.074  1.00  0.00     0.031 C 
ATOM     49  C   UNL A   1      44.482  32.137  33.223  1.00  0.00     0.029 A 
ATOM     50  N   UNL A   1      42.950  33.605  33.556  1.00  0.00    -0.354 N 
ATOM     51  C   UNL A   1      43.809  29.557  28.662  1.00  0.00     0.074 A 
ATOM     52  C   UNL A   1      43.859  30.487  27.587  1.00  0.00     0.031 C 
ATOM     53  C   UNL A   1      44.595  32.426  34.510  1.00  0.00     0.029 A 
ATOM     54  C   UNL A   1      43.389  33.069  34.780  1.00  0.00     0.049 A 
ATOM     55  H   UNL A   1      42.371  34.399  33.489  1.00  0.00     0.167 HD
ATOM     56  C   UNL A   1      44.093  28.234  28.890  1.00  0.00     0.034 A 
ATOM     57  C   UNL A   1      42.569  32.450  35.661  1.00  0.00     0.034 A 
ATOM     58  C   UNL A   1      44.476  27.891  30.295  1.00  0.00     0.049 A 
ATOM     59  C   UNL A   1      42.673  30.898  35.562  1.00  0.00     0.074 A 
ATOM     60  C   UNL A   1      45.725  27.946  30.906  1.00  0.00     0.029 A 
ATOM     61  N   UNL A   1      43.588  27.684  31.369  1.00  0.00    -0.354 N 
ATOM     62  N   UNL A   1      42.895  30.183  34.462  1.00  0.00    -0.248 NA
ATOM     63  C   UNL A   1      42.824  30.087  36.766  1.00  0.00     0.031 C 
ATOM     64  C   UNL A   1      45.542  28.115  32.313  1.00  0.00     0.029 A 
ATOM     65  C   UNL A   1      44.189  27.989  32.617  1.00  0.00     0.049 A 
ATOM     66  H   UNL A   1      42.662  27.367  31.266  1.00  0.00     0.167 HD
ATOM     67  C   UNL A   1      43.220  28.867  34.784  1.00  0.00     0.074 A 
ATOM     68  C   UNL A   1      43.184  28.897  36.254  1.00  0.00     0.031 C 
ATOM     69  C   UNL A   1      43.546  27.802  33.945  1.00  0.00     0.034 A 
BRANCH  56  70
ATOM     70  C   UNL A   1      44.446  27.447  27.666  1.00  0.00     0.023 A 
ATOM     71  C   UNL A   1      45.590  27.717  26.896  1.00  0.00     0.031 A 
ATOM     72  C   UNL A   1      43.532  26.498  27.162  1.00  0.00     0.131 A 
ATOM     73  C   UNL A   1      45.741  27.124  25.627  1.00  0.00     0.055 A 
ATOM     74  C   UNL A   1      43.676  25.924  25.896  1.00  0.00     0.041 A 
ATOM     75  F   UNL A   1      42.444  26.155  27.873  1.00  0.00    -0.206 F 
ATOM     76  C   UNL A   1      44.773  26.256  25.111  1.00  0.00     0.022 A 
BRANCH  73  77
ATOM     77  S   UNL A   1      47.189  27.541  24.612  1.00  0.00     0.124 S 
ATOM     78  O   UNL A   1      46.705  28.660  23.812  1.00  0.00    -0.237 OA
ATOM     79  O   UNL A   1      48.197  27.857  25.621  1.00  0.00    -0.237 OA
ATOM     80  O   UNL A   1      47.443  26.314  23.857  1.00  0.00    -0.744 OA
ENDBRANCH  73  77
ENDBRANCH  56  70
BRANCH  57  81
ATOM     81  C   UNL A   1      41.626  33.478  36.178  1.00  0.00     0.023 A 
ATOM     82  C   UNL A   1      40.264  33.291  35.766  1.00  0.00     0.031 A 
ATOM     83  C   UNL A   1      41.847  34.198  37.345  1.00  0.00     0.131 A 
ATOM     84  C   UNL A   1      39.217  33.492  36.671  1.00  0.00     0.055 A 
ATOM     85  C   UNL A   1      40.768  34.566  38.169  1.00  0.00     0.041 A 
ATOM     86  F   UNL A   1      43.093  34.398  37.796  1.00  0.00    -0.206 F 
ATOM     87  C   UNL A   1      39.460  34.154  37.867  1.00  0.00     0.022 A 
BRANCH  84  88
ATOM     88  S   UNL A   1      37.702  32.470  36.491  1.00  0.00     0.124 S 
ATOM     89  O   UNL A   1      38.147  31.165  36.962  1.00  0.00    -0.237 OA
ATOM     90  O   UNL A   1      36.735  33.167  37.338  1.00  0.00    -0.237 OA
ATOM     91  O   UNL A   1      37.404  32.569  35.064  1.00  0.00    -0.744 OA
ENDBRANCH  84  88
ENDBRANCH  57  81
BRANCH  69  92
ATOM     92  C   UNL A   1      43.465  26.347  34.433  1.00  0.00     0.023 A 
ATOM     93  C   UNL A   1      44.606  25.544  34.583  1.00  0.00     0.031 A 
ATOM     94  C   UNL A   1      42.255  25.756  34.881  1.00  0.00     0.131 A 
ATOM     95  C   UNL A   1      44.518  24.216  35.031  1.00  0.00     0.055 A 
ATOM     96  C   UNL A   1      42.186  24.471  35.432  1.00  0.00     0.041 A 
ATOM     97  F   UNL A   1      41.079  26.393  34.828  1.00  0.00    -0.206 F 
ATOM     98  C   UNL A   1      43.321  23.682  35.494  1.00  0.00     0.022 A 
BRANCH  95  99
ATOM     99  S   UNL A   1      45.998  23.184  34.912  1.00  0.00     0.124 S 
ATOM    100  O   UNL A   1      45.560  22.150  33.978  1.00  0.00    -0.237 OA
ATOM    101  O   UNL A   1      46.995  24.118  34.399  1.00  0.00    -0.237 OA
ATOM    102  O   UNL A   1      46.214  22.733  36.284  1.00  0.00    -0.744 OA
ENDBRANCH  95  99
ENDBRANCH  69  92
ENDBRANCH  43  44
ENDBRANCH  36  38
ENDBRANCH  35  36
ENDBRANCH  34  35
ENDBRANCH  33  34
ENDBRANCH  32  33
ENDBRANCH  31  32
ENDBRANCH   1  31
TORSDOF 25
ENDMDL
MODEL 2
REMARK VINA RESULT:      -9.8      4.100      7.209
REMARK SMILES Cc1ccc(S(=O)(=O)N2c3ccc(C(=O)OCCOCCOCCOCCOC(=O)c4ccc(-c5c6nc(c(-c7cc(S(=O)(=O)[O-])ccc7F)c7ccc([nH]7)c(-c7cc(S(=O)(=O)[O-])ccc7F)c7nc(c(-c8cc(S(=O)(=O)[O-])ccc8F)c8ccc5[nH]8)C=C7)C=C6)cc4)cc3C[C@H]2C)cc1
REMARK SMILES IDX 23 1 22 2 21 3 20 4 19 5 18 6 17 7 16 8 14 9 15 10 13 11
REMARK SMILES IDX 9 12 10 13 97 14 11 15 95 16 96 17 98 18 12 19 94 20 6 21
REMARK SMILES IDX 7 22 8 23 5 24 1 25 2 26 3 27 100 28 4 29 99 30 24 31 25 32
REMARK SMILES IDX 26 33 27 34 28 35 29 36 30 37 31 38 32 39 93 40 33 41 92 42
REMARK SMILES IDX 34 43 35 44 36 45 86 46 37 47 91 48 85 49 87 50 38 51 90 52
REMARK SMILES IDX 84 53 83 54 39 56 71 57 51 58 70 59 52 60 55 61 69 62 88 63
REMARK SMILES IDX 53 64 54 65 68 67 89 68 56 69 40 70 41 71 49 72 42 73 48 74
REMARK SMILES IDX 50 75 47 76 43 77 44 78 45 79 46 80 72 81 73 82 81 83 74 84
REMARK SMILES IDX 80 85 82 86 79 87 75 88 76 89 77 90 78 91 57 92 58 93 66 94
REMARK SMILES IDX 59 95 65 96 67 97 64 98 60 99 61 100 62 101 63 102
REMARK H PARENT 87 55 55 66
REMARK Flexibility Score: inf
ROOT
ATOM      1  C   UNL A   1      44.590  30.217  26.975  1.00  0.00     0.188 C 
ENDROOT
BRANCH   1   2
ATOM      2  O   UNL A   1      43.588  29.438  27.664  1.00  0.00    -0.377 OA
BRANCH   2   3
ATOM      3  C   UNL A   1      42.625  28.774  26.813  1.00  0.00     0.188 C 
BRANCH   3   4
ATOM      4  C   UNL A   1      41.014  28.914  27.225  1.00  0.00     0.188 C 
BRANCH   4   5
ATOM      5  O   UNL A   1      40.118  28.207  28.470  1.00  0.00    -0.376 OA
BRANCH   5   6
ATOM      6  C   UNL A   1      39.115  28.767  29.760  1.00  0.00     0.202 C 
BRANCH   6   7
ATOM      7  C   UNL A   1      37.358  29.473  29.749  1.00  0.00     0.261 C 
BRANCH   7   8
ATOM      8  O   UNL A   1      36.276  29.624  28.273  1.00  0.00    -0.460 OA
BRANCH   8   9
ATOM      9  C   UNL A   1      34.895  29.928  27.713  1.00  0.00     0.338 C 
ATOM     10  O   UNL A   1      34.388  31.058  27.752  1.00  0.00    -0.246 OA
BRANCH   9  11
ATOM     11  C   UNL A   1      33.810  28.945  27.001  1.00  0.00     0.060 A 
ATOM     12  N   UNL A   1      31.506  26.241  24.594  1.00  0.00    -0.263 N 
ATOM     13  C   UNL A   1      32.173  27.210  25.417  1.00  0.00     0.055 A 
ATOM     14  C   UNL A   1      32.197  24.964  24.985  1.00  0.00     0.101 C 
ATOM     15  C   UNL A   1      31.637  28.362  25.871  1.00  0.00     0.028 A 
ATOM     16  C   UNL A   1      33.417  26.799  25.871  1.00  0.00    -0.021 A 
ATOM     17  C   UNL A   1      33.603  25.359  25.530  1.00  0.00     0.063 C 
ATOM     18  C   UNL A   1      31.288  24.349  26.073  1.00  0.00     0.032 C 
ATOM     19  C   UNL A   1      32.419  29.086  26.775  1.00  0.00     0.018 A 
ATOM     20  C   UNL A   1      34.272  27.679  26.564  1.00  0.00     0.021 A 
BRANCH  12  21
ATOM     21  S   UNL A   1      31.561  26.735  22.946  1.00  0.00     0.264 S 
ATOM     22  O   UNL A   1      31.092  25.630  22.132  1.00  0.00    -0.201 OA
ATOM     23  O   UNL A   1      32.849  27.356  22.698  1.00  0.00    -0.201 OA
BRANCH  21  24
ATOM     24  C   UNL A   1      30.369  28.032  22.678  1.00  0.00     0.088 A 
ATOM     25  C   UNL A   1      27.501  31.226  22.898  1.00  0.00     0.044 C 
ATOM     26  C   UNL A   1      28.479  30.099  22.756  1.00  0.00    -0.051 A 
ATOM     27  C   UNL A   1      28.140  28.823  23.217  1.00  0.00     0.005 A 
ATOM     28  C   UNL A   1      29.733  30.300  22.165  1.00  0.00     0.005 A 
ATOM     29  C   UNL A   1      29.084  27.796  23.188  1.00  0.00     0.022 A 
ATOM     30  C   UNL A   1      30.670  29.263  22.105  1.00  0.00     0.022 A 
ENDBRANCH  21  24
ENDBRANCH  12  21
ENDBRANCH   9  11
ENDBRANCH   8   9
ENDBRANCH   7   8
ENDBRANCH   6   7
ENDBRANCH   5   6
ENDBRANCH   4   5
ENDBRANCH   3   4
ENDBRANCH   2   3
ENDBRANCH   1   2
BRANCH   1  31
ATOM     31  C   UNL A   1      44.087  31.642  26.793  1.00  0.00     0.188 C 
BRANCH  31  32
ATOM     32  O   UNL A   1      45.231  32.478  26.930  1.00  0.00    -0.376 OA
BRANCH  32  33
ATOM     33  C   UNL A   1      45.033  33.841  26.617  1.00  0.00     0.202 C 
BRANCH  33  34
ATOM     34  C   UNL A   1      45.520  34.701  27.780  1.00  0.00     0.261 C 
BRANCH  34  35
ATOM     35  O   UNL A   1      44.731  34.407  28.958  1.00  0.00    -0.460 OA
BRANCH  35  36
ATOM     36  C   UNL A   1      45.410  34.552  30.133  1.00  0.00     0.338 C 
ATOM     37  O   UNL A   1      45.775  35.625  30.592  1.00  0.00    -0.246 OA
BRANCH  36  38
ATOM     38  C   UNL A   1      45.752  33.216  30.690  1.00  0.00     0.060 A 
ATOM     39  C   UNL A   1      46.943  32.965  31.337  1.00  0.00     0.016 A 
ATOM     40  C   UNL A   1      44.978  32.121  30.451  1.00  0.00     0.016 A 
ATOM     41  C   UNL A   1      47.503  31.647  31.355  1.00  0.00     0.010 A 
ATOM     42  C   UNL A   1      45.578  30.842  30.532  1.00  0.00     0.010 A 
ATOM     43  C   UNL A   1      46.996  30.545  30.642  1.00  0.00    -0.014 A 
BRANCH  43  44
ATOM     44  C   UNL A   1      48.027  29.126  30.077  1.00  0.00     0.031 A 
ATOM     45  C   UNL A   1      48.953  29.004  28.335  1.00  0.00     0.074 A 
ATOM     46  C   UNL A   1      47.733  28.015  30.967  1.00  0.00     0.049 A 
ATOM     47  N   UNL A   1      48.401  28.350  27.284  1.00  0.00    -0.248 NA
ATOM     48  C   UNL A   1      50.063  29.733  27.480  1.00  0.00     0.031 C 
ATOM     49  C   UNL A   1      47.903  26.501  30.927  1.00  0.00     0.029 A 
ATOM     50  N   UNL A   1      47.001  28.003  32.169  1.00  0.00    -0.354 N 
ATOM     51  C   UNL A   1      48.966  28.306  26.077  1.00  0.00     0.074 A 
ATOM     52  C   UNL A   1      49.877  29.395  26.172  1.00  0.00     0.031 C 
ATOM     53  C   UNL A   1      47.401  25.813  31.940  1.00  0.00     0.029 A 
ATOM     54  C   UNL A   1      46.521  26.727  32.516  1.00  0.00     0.049 A 
ATOM     55  H   UNL A   1      46.840  28.808  32.713  1.00  0.00     0.167 HD
ATOM     56  C   UNL A   1      48.640  27.315  25.185  1.00  0.00     0.034 A 
ATOM     57  C   UNL A   1      45.211  26.389  32.488  1.00  0.00     0.034 A 
ATOM     58  C   UNL A   1      48.082  26.065  25.791  1.00  0.00     0.049 A 
ATOM     59  C   UNL A   1      44.842  25.585  31.204  1.00  0.00     0.074 A 
ATOM     60  C   UNL A   1      48.753  24.959  26.303  1.00  0.00     0.029 A 
ATOM     61  N   UNL A   1      46.749  25.867  26.201  1.00  0.00    -0.354 N 
ATOM     62  N   UNL A   1      45.370  25.737  29.992  1.00  0.00    -0.248 NA
ATOM     63  C   UNL A   1      44.059  24.358  31.297  1.00  0.00     0.031 C 
ATOM     64  C   UNL A   1      47.917  24.321  27.269  1.00  0.00     0.029 A 
ATOM     65  C   UNL A   1      46.654  24.909  27.243  1.00  0.00     0.049 A 
ATOM     66  H   UNL A   1      45.976  26.336  25.811  1.00  0.00     0.167 HD
ATOM     67  C   UNL A   1      45.028  24.667  29.167  1.00  0.00     0.074 A 
ATOM     68  C   UNL A   1      44.228  23.829  30.072  1.00  0.00     0.031 C 
ATOM     69  C   UNL A   1      45.385  24.418  27.842  1.00  0.00     0.034 A 
BRANCH  56  70
ATOM     70  C   UNL A   1      49.312  27.421  23.852  1.00  0.00     0.023 A 
ATOM     71  C   UNL A   1      50.700  27.275  23.690  1.00  0.00     0.031 A 
ATOM     72  C   UNL A   1      48.567  27.837  22.729  1.00  0.00     0.131 A 
ATOM     73  C   UNL A   1      51.309  27.634  22.472  1.00  0.00     0.055 A 
ATOM     74  C   UNL A   1      49.175  28.207  21.526  1.00  0.00     0.041 A 
ATOM     75  F   UNL A   1      47.229  27.946  22.801  1.00  0.00    -0.206 F 
ATOM     76  C   UNL A   1      50.556  28.130  21.402  1.00  0.00     0.022 A 
BRANCH  73  77
ATOM     77  S   UNL A   1      53.114  27.509  22.303  1.00  0.00     0.124 S 
ATOM     78  O   UNL A   1      53.326  26.069  22.209  1.00  0.00    -0.237 OA
ATOM     79  O   UNL A   1      53.368  28.280  21.090  1.00  0.00    -0.237 OA
ATOM     80  O   UNL A   1      53.616  28.121  23.534  1.00  0.00    -0.744 OA
ENDBRANCH  73  77
ENDBRANCH  56  70
BRANCH  57  81
ATOM     81  C   UNL A   1      44.529  27.191  33.540  1.00  0.00     0.023 A 
ATOM     82  C   UNL A   1      44.990  26.932  34.874  1.00  0.00     0.031 A 
ATOM     83  C   UNL A   1      43.942  28.426  33.296  1.00  0.00     0.131 A 
ATOM     84  C   UNL A   1      45.180  27.983  35.774  1.00  0.00     0.055 A 
ATOM     85  C   UNL A   1      43.969  29.432  34.279  1.00  0.00     0.041 A 
ATOM     86  F   UNL A   1      43.503  28.742  32.070  1.00  0.00    -0.206 F 
ATOM     87  C   UNL A   1      44.648  29.235  35.493  1.00  0.00     0.022 A 
BRANCH  84  88
ATOM     88  S   UNL A   1      46.512  27.827  37.030  1.00  0.00     0.124 S 
ATOM     89  O   UNL A   1      47.112  29.155  37.016  1.00  0.00    -0.237 OA
ATOM     90  O   UNL A   1      45.778  27.462  38.241  1.00  0.00    -0.237 OA
ATOM     91  O   UNL A   1      47.338  26.744  36.501  1.00  0.00    -0.744 OA
ENDBRANCH  84  88
ENDBRANCH  57  81
BRANCH  69  92
ATOM     92  C   UNL A   1      44.592  23.429  26.973  1.00  0.00     0.023 A 
ATOM     93  C   UNL A   1      45.179  22.279  26.425  1.00  0.00     0.031 A 
ATOM     94  C   UNL A   1      43.192  23.541  26.769  1.00  0.00     0.131 A 
ATOM     95  C   UNL A   1      44.443  21.383  25.633  1.00  0.00     0.055 A 
ATOM     96  C   UNL A   1      42.439  22.588  26.074  1.00  0.00     0.041 A 
ATOM     97  F   UNL A   1      42.474  24.567  27.244  1.00  0.00    -0.206 F 
ATOM     98  C   UNL A   1      43.066  21.506  25.484  1.00  0.00     0.022 A 
BRANCH  95  99
ATOM     99  S   UNL A   1      45.352  20.100  24.739  1.00  0.00     0.124 S 
ATOM    100  O   UNL A   1      44.653  20.085  23.457  1.00  0.00    -0.237 OA
ATOM    101  O   UNL A   1      46.709  20.635  24.713  1.00  0.00    -0.237 OA
ATOM    102  O   UNL A   1      45.167  18.909  25.564  1.00  0.00    -0.744 OA
ENDBRANCH  95  99
ENDBRANCH  69  92
ENDBRANCH  43  44
ENDBRANCH  36  38
ENDBRANCH  35  36
ENDBRANCH  34  35
ENDBRANCH  33  34
ENDBRANCH  32  33
ENDBRANCH  31  32
ENDBRANCH   1  31
TORSDOF 25
ENDMDL
MODEL 3
REMARK VINA RESULT:      -9.6      4.306      9.215
REMARK SMILES Cc1ccc(S(=O)(=O)N2c3ccc(C(=O)OCCOCCOCCOCCOC(=O)c4ccc(-c5c6nc(c(-c7cc(S(=O)(=O)[O-])ccc7F)c7ccc([nH]7)c(-c7cc(S(=O)(=O)[O-])ccc7F)c7nc(c(-c8cc(S(=O)(=O)[O-])ccc8F)c8ccc5[nH]8)C=C7)C=C6)cc4)cc3C[C@H]2C)cc1
REMARK SMILES IDX 23 1 22 2 21 3 20 4 19 5 18 6 17 7 16 8 14 9 15 10 13 11
REMARK SMILES IDX 9 12 10 13 97 14 11 15 95 16 96 17 98 18 12 19 94 20 6 21
REMARK SMILES IDX 7 22 8 23 5 24 1 25 2 26 3 27 100 28 4 29 99 30 24 31 25 32
REMARK SMILES IDX 26 33 27 34 28 35 29 36 30 37 31 38 32 39 93 40 33 41 92 42
REMARK SMILES IDX 34 43 35 44 36 45 86 46 37 47 91 48 85 49 87 50 38 51 90 52
REMARK SMILES IDX 84 53 83 54 39 56 71 57 51 58 70 59 52 60 55 61 69 62 88 63
REMARK SMILES IDX 53 64 54 65 68 67 89 68 56 69 40 70 41 71 49 72 42 73 48 74
REMARK SMILES IDX 50 75 47 76 43 77 44 78 45 79 46 80 72 81 73 82 81 83 74 84
REMARK SMILES IDX 80 85 82 86 79 87 75 88 76 89 77 90 78 91 57 92 58 93 66 94
REMARK SMILES IDX 59 95 65 96 67 97 64 98 60 99 61 100 62 101 63 102
REMARK H PARENT 87 55 55 66
REMARK Flexibility Score: inf
ROOT
ATOM      1  C   UNL A   1      40.938  19.498  26.424  1.00  0.00     0.188 C 
ENDROOT
BRANCH   1   2
ATOM      2  O   UNL A   1      41.942  19.558  25.388  1.00  0.00    -0.377 OA
BRANCH   2   3
ATOM      3  C   UNL A   1      43.200  18.917  25.706  1.00  0.00     0.188 C 
BRANCH   3   4
ATOM      4  C   UNL A   1      44.390  18.943  24.537  1.00  0.00     0.188 C 
BRANCH   4   5
ATOM      5  O   UNL A   1      45.681  20.003  24.287  1.00  0.00    -0.376 OA
BRANCH   5   6
ATOM      6  C   UNL A   1      46.223  21.495  24.970  1.00  0.00     0.202 C 
BRANCH   6   7
ATOM      7  C   UNL A   1      45.486  23.238  24.884  1.00  0.00     0.261 C 
BRANCH   7   8
ATOM      8  O   UNL A   1      44.569  24.078  26.235  1.00  0.00    -0.460 OA
BRANCH   8   9
ATOM      9  C   UNL A   1      44.481  25.254  27.196  1.00  0.00     0.338 C 
ATOM     10  O   UNL A   1      44.558  26.432  26.823  1.00  0.00    -0.246 OA
BRANCH   9  11
ATOM     11  C   UNL A   1      44.300  25.278  28.813  1.00  0.00     0.060 A 
ATOM     12  N   UNL A   1      44.469  25.779  33.072  1.00  0.00    -0.263 N 
ATOM     13  C   UNL A   1      44.375  25.495  31.667  1.00  0.00     0.055 A 
ATOM     14  C   UNL A   1      43.997  27.205  33.139  1.00  0.00     0.101 C 
ATOM     15  C   UNL A   1      44.155  24.282  31.121  1.00  0.00     0.028 A 
ATOM     16  C   UNL A   1      44.372  26.627  30.865  1.00  0.00    -0.021 A 
ATOM     17  C   UNL A   1      44.254  27.833  31.736  1.00  0.00     0.063 C 
ATOM     18  C   UNL A   1      42.492  27.100  33.477  1.00  0.00     0.032 C 
ATOM     19  C   UNL A   1      43.959  24.260  29.738  1.00  0.00     0.018 A 
ATOM     20  C   UNL A   1      44.437  26.530  29.462  1.00  0.00     0.021 A 
BRANCH  12  21
ATOM     21  S   UNL A   1      46.050  25.408  33.642  1.00  0.00     0.264 S 
ATOM     22  O   UNL A   1      46.346  26.295  34.749  1.00  0.00    -0.201 OA
ATOM     23  O   UNL A   1      46.937  25.313  32.497  1.00  0.00    -0.201 OA
BRANCH  21  24
ATOM     24  C   UNL A   1      46.052  23.775  34.357  1.00  0.00     0.088 A 
ATOM     25  C   UNL A   1      45.779  19.590  35.299  1.00  0.00     0.044 C 
ATOM     26  C   UNL A   1      45.875  21.063  35.039  1.00  0.00    -0.051 A 
ATOM     27  C   UNL A   1      44.711  21.806  34.815  1.00  0.00     0.005 A 
ATOM     28  C   UNL A   1      47.114  21.715  35.018  1.00  0.00     0.005 A 
ATOM     29  C   UNL A   1      44.799  23.154  34.465  1.00  0.00     0.022 A 
ATOM     30  C   UNL A   1      47.203  23.074  34.700  1.00  0.00     0.022 A 
ENDBRANCH  21  24
ENDBRANCH  12  21
ENDBRANCH   9  11
ENDBRANCH   8   9
ENDBRANCH   7   8
ENDBRANCH   6   7
ENDBRANCH   5   6
ENDBRANCH   4   5
ENDBRANCH   3   4
ENDBRANCH   2   3
ENDBRANCH   1   2
BRANCH   1  31
ATOM     31  C   UNL A   1      40.186  20.821  26.476  1.00  0.00     0.188 C 
BRANCH  31  32
ATOM     32  O   UNL A   1      40.506  21.400  27.736  1.00  0.00    -0.376 OA
BRANCH  32  33
ATOM     33  C   UNL A   1      41.609  22.283  27.740  1.00  0.00     0.202 C 
BRANCH  33  34
ATOM     34  C   UNL A   1      41.235  23.560  26.993  1.00  0.00     0.261 C 
BRANCH  34  35
ATOM     35  O   UNL A   1      40.976  24.617  27.948  1.00  0.00    -0.460 OA
BRANCH  35  36
ATOM     36  C   UNL A   1      39.680  25.044  27.966  1.00  0.00     0.338 C 
ATOM     37  O   UNL A   1      38.724  24.364  27.627  1.00  0.00    -0.246 OA
BRANCH  36  38
ATOM     38  C   UNL A   1      39.626  26.487  28.326  1.00  0.00     0.060 A 
ATOM     39  C   UNL A   1      39.663  27.489  27.382  1.00  0.00     0.016 A 
ATOM     40  C   UNL A   1      39.700  26.905  29.620  1.00  0.00     0.016 A 
ATOM     41  C   UNL A   1      40.171  28.787  27.710  1.00  0.00     0.010 A 
ATOM     42  C   UNL A   1      40.164  28.217  29.879  1.00  0.00     0.010 A 
ATOM     43  C   UNL A   1      40.779  29.130  28.931  1.00  0.00    -0.014 A 
BRANCH  43  44
ATOM     44  C   UNL A   1      42.029  30.472  29.114  1.00  0.00     0.031 A 
ATOM     45  C   UNL A   1      43.885  30.410  28.439  1.00  0.00     0.074 A 
ATOM     46  C   UNL A   1      41.519  31.384  30.126  1.00  0.00     0.049 A 
ATOM     47  N   UNL A   1      44.918  30.050  29.240  1.00  0.00    -0.248 NA
ATOM     48  C   UNL A   1      44.699  30.278  27.092  1.00  0.00     0.031 C 
ATOM     49  C   UNL A   1      42.105  32.462  31.028  1.00  0.00     0.029 A 
ATOM     50  N   UNL A   1      40.246  31.430  30.725  1.00  0.00    -0.354 N 
ATOM     51  C   UNL A   1      46.172  29.931  28.800  1.00  0.00     0.074 A 
ATOM     52  C   UNL A   1      45.951  29.836  27.397  1.00  0.00     0.031 C 
ATOM     53  C   UNL A   1      41.288  33.017  31.910  1.00  0.00     0.029 A 
ATOM     54  C   UNL A   1      40.237  32.105  31.960  1.00  0.00     0.049 A 
ATOM     55  H   UNL A   1      39.442  31.030  30.322  1.00  0.00     0.167 HD
ATOM     56  C   UNL A   1      47.230  29.999  29.671  1.00  0.00     0.034 A 
ATOM     57  C   UNL A   1      40.043  31.486  33.148  1.00  0.00     0.034 A 
ATOM     58  C   UNL A   1      46.958  30.716  30.957  1.00  0.00     0.049 A 
ATOM     59  C   UNL A   1      41.384  31.242  33.904  1.00  0.00     0.074 A 
ATOM     60  C   UNL A   1      47.033  32.076  31.240  1.00  0.00     0.029 A 
ATOM     61  N   UNL A   1      46.314  30.174  32.087  1.00  0.00    -0.354 N 
ATOM     62  N   UNL A   1      42.567  30.970  33.359  1.00  0.00    -0.248 NA
ATOM     63  C   UNL A   1      41.512  31.587  35.316  1.00  0.00     0.031 C 
ATOM     64  C   UNL A   1      46.158  32.367  32.331  1.00  0.00     0.029 A 
ATOM     65  C   UNL A   1      45.665  31.175  32.855  1.00  0.00     0.049 A 
ATOM     66  H   UNL A   1      46.314  29.217  32.315  1.00  0.00     0.167 HD
ATOM     67  C   UNL A   1      43.587  31.108  34.298  1.00  0.00     0.074 A 
ATOM     68  C   UNL A   1      42.843  31.528  35.495  1.00  0.00     0.031 C 
ATOM     69  C   UNL A   1      44.964  30.943  34.145  1.00  0.00     0.034 A 
BRANCH  56  70
ATOM     70  C   UNL A   1      48.575  29.799  29.045  1.00  0.00     0.023 A 
ATOM     71  C   UNL A   1      49.182  30.767  28.228  1.00  0.00     0.031 A 
ATOM     72  C   UNL A   1      49.203  28.539  29.137  1.00  0.00     0.131 A 
ATOM     73  C   UNL A   1      50.317  30.432  27.464  1.00  0.00     0.055 A 
ATOM     74  C   UNL A   1      50.319  28.205  28.365  1.00  0.00     0.041 A 
ATOM     75  F   UNL A   1      48.703  27.585  29.941  1.00  0.00    -0.206 F 
ATOM     76  C   UNL A   1      50.867  29.147  27.504  1.00  0.00     0.022 A 
BRANCH  73  77
ATOM     77  S   UNL A   1      51.047  31.675  26.356  1.00  0.00     0.124 S 
ATOM     78  O   UNL A   1      52.155  32.194  27.148  1.00  0.00    -0.237 OA
ATOM     79  O   UNL A   1      51.406  30.878  25.187  1.00  0.00    -0.237 OA
ATOM     80  O   UNL A   1      49.954  32.623  26.138  1.00  0.00    -0.744 OA
ENDBRANCH  73  77
ENDBRANCH  56  70
BRANCH  57  81
ATOM     81  C   UNL A   1      38.647  30.971  33.150  1.00  0.00     0.023 A 
ATOM     82  C   UNL A   1      37.647  31.971  32.907  1.00  0.00     0.031 A 
ATOM     83  C   UNL A   1      38.319  29.654  32.851  1.00  0.00     0.131 A 
ATOM     84  C   UNL A   1      36.557  31.695  32.077  1.00  0.00     0.055 A 
ATOM     85  C   UNL A   1      37.123  29.355  32.175  1.00  0.00     0.041 A 
ATOM     86  F   UNL A   1      39.211  28.671  33.039  1.00  0.00    -0.206 F 
ATOM     87  C   UNL A   1      36.275  30.381  31.726  1.00  0.00     0.022 A 
BRANCH  84  88
ATOM     88  S   UNL A   1      35.842  33.069  31.090  1.00  0.00     0.124 S 
ATOM     89  O   UNL A   1      35.925  32.554  29.730  1.00  0.00    -0.237 OA
ATOM     90  O   UNL A   1      34.498  33.207  31.649  1.00  0.00    -0.237 OA
ATOM     91  O   UNL A   1      36.721  34.193  31.405  1.00  0.00    -0.744 OA
ENDBRANCH  84  88
ENDBRANCH  57  81
BRANCH  69  92
ATOM     92  C   UNL A   1      45.882  30.725  35.358  1.00  0.00     0.023 A 
ATOM     93  C   UNL A   1      46.843  31.670  35.747  1.00  0.00     0.031 A 
ATOM     94  C   UNL A   1      45.740  29.620  36.237  1.00  0.00     0.131 A 
ATOM     95  C   UNL A   1      47.676  31.459  36.858  1.00  0.00     0.055 A 
ATOM     96  C   UNL A   1      46.494  29.467  37.406  1.00  0.00     0.041 A 
ATOM     97  F   UNL A   1      44.854  28.638  36.024  1.00  0.00    -0.206 F 
ATOM     98  C   UNL A   1      47.484  30.381  37.716  1.00  0.00     0.022 A 
BRANCH  95  99
ATOM     99  S   UNL A   1      49.066  32.589  37.100  1.00  0.00     0.124 S 
ATOM    100  O   UNL A   1      49.862  31.867  38.090  1.00  0.00    -0.237 OA
ATOM    101  O   UNL A   1      49.644  32.670  35.762  1.00  0.00    -0.237 OA
ATOM    102  O   UNL A   1      48.434  33.814  37.581  1.00  0.00    -0.744 OA
ENDBRANCH  95  99
ENDBRANCH  69  92
ENDBRANCH  43  44
ENDBRANCH  36  38
ENDBRANCH  35  36
ENDBRANCH  34  35
ENDBRANCH  33  34
ENDBRANCH  32  33
ENDBRANCH  31  32
ENDBRANCH   1  31
TORSDOF 25
ENDMDL
