MODEL 1
REMARK VINA RESULT:     -10.4      0.000      0.000
REMARK SMILES CC(=O)Nc1ccc2sc(C(=O)OCCOCCOCCOCCOC(=O)c3ccc(-c4c5nc(c(-c6cc(S(=O)(=O)[O-])ccc6F)c6ccc([nH]6)c(-c6cc(S(=O)(=O)[O-])ccc6F)c6nc(c(-c7cc(S(=O)(=O)[O-])ccc7F)c7ccc4[nH]7)C=C6)C=C5)cc3)cc2c1
REMARK SMILES IDX 20 1 19 2 18 3 17 4 16 5 15 6 14 7 13 8 11 9 12 10 10 11
REMARK SMILES IDX 5 12 6 13 93 14 7 15 92 16 8 17 91 18 9 19 4 20 1 21 2 22
REMARK SMILES IDX 3 23 21 25 22 26 23 27 24 28 25 29 26 30 27 31 28 32 29 33
REMARK SMILES IDX 90 34 30 35 89 36 31 37 32 38 33 39 83 40 34 41 88 42 82 43
REMARK SMILES IDX 84 44 35 45 87 46 81 47 80 48 36 50 68 51 48 52 67 53 49 54
REMARK SMILES IDX 52 55 66 56 85 57 50 58 51 59 65 61 86 62 53 63 37 64 38 65
REMARK SMILES IDX 46 66 39 67 45 68 47 69 44 70 40 71 41 72 42 73 43 74 69 75
REMARK SMILES IDX 70 76 78 77 71 78 77 79 79 80 76 81 72 82 73 83 74 84 75 85
REMARK SMILES IDX 54 86 55 87 63 88 56 89 62 90 64 91 61 92 57 93 58 94 59 95
REMARK SMILES IDX 60 96
REMARK H PARENT 4 24 84 49 52 60
REMARK Flexibility Score: inf
ROOT
ATOM      1  C   UNL A   1      33.215  20.246  25.763  1.00  0.00     0.188 C 
ENDROOT
BRANCH   1   2
ATOM      2  O   UNL A   1      31.858  20.533  25.432  1.00  0.00    -0.377 OA
BRANCH   2   3
ATOM      3  C   UNL A   1      31.415  21.868  25.605  1.00  0.00     0.188 C 
BRANCH   3   4
ATOM      4  C   UNL A   1      31.371  22.644  24.278  1.00  0.00     0.188 C 
BRANCH   4   5
ATOM      5  O   UNL A   1      32.007  21.961  23.199  1.00  0.00    -0.376 OA
BRANCH   5   6
ATOM      6  C   UNL A   1      33.304  22.412  22.818  1.00  0.00     0.202 C 
BRANCH   6   7
ATOM      7  C   UNL A   1      33.377  23.661  21.925  1.00  0.00     0.261 C 
BRANCH   7   8
ATOM      8  O   UNL A   1      34.000  24.807  22.526  1.00  0.00    -0.459 OA
BRANCH   8   9
ATOM      9  C   UNL A   1      33.573  26.036  22.146  1.00  0.00     0.348 C 
ATOM     10  O   UNL A   1      33.423  26.398  20.986  1.00  0.00    -0.245 OA
BRANCH   9  11
ATOM     11  C   UNL A   1      33.126  26.778  23.304  1.00  0.00     0.113 A 
ATOM     12  C   UNL A   1      32.303  30.014  26.671  1.00  0.00     0.041 A 
ATOM     13  C   UNL A   1      31.777  28.935  27.373  1.00  0.00     0.027 A 
ATOM     14  C   UNL A   1      32.686  29.862  25.336  1.00  0.00     0.035 A 
ATOM     15  C   UNL A   1      31.696  27.670  26.786  1.00  0.00     0.022 A 
ATOM     16  C   UNL A   1      32.716  28.572  24.756  1.00  0.00    -0.005 A 
ATOM     17  C   UNL A   1      32.214  27.496  25.491  1.00  0.00     0.035 A 
ATOM     18  C   UNL A   1      33.243  28.138  23.499  1.00  0.00     0.036 A 
ATOM     19  S   UNL A   1      32.338  26.022  24.612  1.00  0.00    -0.128 S 
BRANCH  12  20
ATOM     20  N   UNL A   1      32.496  31.271  27.258  1.00  0.00    -0.326 N 
ATOM     21  C   UNL A   1      30.742  32.452  25.955  1.00  0.00     0.114 C 
ATOM     22  C   UNL A   1      31.892  32.456  26.932  1.00  0.00     0.221 C 
ATOM     23  O   UNL A   1      32.238  33.491  27.503  1.00  0.00    -0.275 OA
ATOM     24  H   UNL A   1      33.146  31.306  27.997  1.00  0.00     0.169 HD
ENDBRANCH  12  20
ENDBRANCH   9  11
ENDBRANCH   8   9
ENDBRANCH   7   8
ENDBRANCH   6   7
ENDBRANCH   5   6
ENDBRANCH   4   5
ENDBRANCH   3   4
ENDBRANCH   2   3
ENDBRANCH   1   2
BRANCH   1  25
ATOM     25  C   UNL A   1      34.121  21.345  26.356  1.00  0.00     0.188 C 
BRANCH  25  26
ATOM     26  O   UNL A   1      35.499  21.205  25.998  1.00  0.00    -0.376 OA
BRANCH  26  27
ATOM     27  C   UNL A   1      35.787  20.231  24.998  1.00  0.00     0.202 C 
BRANCH  27  28
ATOM     28  C   UNL A   1      37.290  20.019  24.771  1.00  0.00     0.261 C 
BRANCH  28  29
ATOM     29  O   UNL A   1      38.124  21.106  25.199  1.00  0.00    -0.460 OA
BRANCH  29  30
ATOM     30  C   UNL A   1      39.180  20.794  25.984  1.00  0.00     0.338 C 
ATOM     31  O   UNL A   1      39.725  19.710  26.078  1.00  0.00    -0.246 OA
BRANCH  30  32
ATOM     32  C   UNL A   1      39.689  22.045  26.579  1.00  0.00     0.060 A 
ATOM     33  C   UNL A   1      39.134  23.262  26.164  1.00  0.00     0.016 A 
ATOM     34  C   UNL A   1      40.714  22.015  27.528  1.00  0.00     0.016 A 
ATOM     35  C   UNL A   1      39.640  24.462  26.668  1.00  0.00     0.010 A 
ATOM     36  C   UNL A   1      41.229  23.216  28.017  1.00  0.00     0.010 A 
ATOM     37  C   UNL A   1      40.720  24.444  27.560  1.00  0.00    -0.014 A 
BRANCH  37  38
ATOM     38  C   UNL A   1      41.470  25.691  27.846  1.00  0.00     0.031 A 
ATOM     39  C   UNL A   1      40.749  26.792  28.575  1.00  0.00     0.074 A 
ATOM     40  C   UNL A   1      42.749  25.847  27.463  1.00  0.00     0.049 A 
ATOM     41  N   UNL A   1      41.153  27.999  28.873  1.00  0.00    -0.248 NA
ATOM     42  C   UNL A   1      39.379  26.487  29.019  1.00  0.00     0.031 C 
ATOM     43  C   UNL A   1      43.559  24.836  26.787  1.00  0.00     0.029 A 
ATOM     44  N   UNL A   1      43.584  26.928  27.579  1.00  0.00    -0.354 N 
ATOM     45  C   UNL A   1      40.093  28.595  29.545  1.00  0.00     0.074 A 
ATOM     46  C   UNL A   1      39.013  27.632  29.571  1.00  0.00     0.031 C 
ATOM     47  C   UNL A   1      44.774  25.353  26.534  1.00  0.00     0.029 A 
ATOM     48  C   UNL A   1      44.816  26.739  26.996  1.00  0.00     0.049 A 
ATOM     49  H   UNL A   1      43.327  27.762  28.036  1.00  0.00     0.167 HD
ATOM     50  C   UNL A   1      40.026  29.832  30.097  1.00  0.00     0.034 A 
ATOM     51  C   UNL A   1      45.842  27.599  26.835  1.00  0.00     0.034 A 
ATOM     52  C   UNL A   1      41.097  30.794  30.034  1.00  0.00     0.049 A 
ATOM     53  C   UNL A   1      45.711  29.007  27.368  1.00  0.00     0.074 A 
ATOM     54  C   UNL A   1      41.137  32.079  30.546  1.00  0.00     0.029 A 
ATOM     55  N   UNL A   1      42.317  30.580  29.403  1.00  0.00    -0.354 N 
ATOM     56  N   UNL A   1      44.703  29.562  28.005  1.00  0.00    -0.248 NA
ATOM     57  C   UNL A   1      46.856  29.904  27.164  1.00  0.00     0.031 C 
ATOM     58  C   UNL A   1      42.353  32.661  30.172  1.00  0.00     0.029 A 
ATOM     59  C   UNL A   1      43.103  31.717  29.490  1.00  0.00     0.049 A 
ATOM     60  H   UNL A   1      42.583  29.741  28.961  1.00  0.00     0.167 HD
ATOM     61  C   UNL A   1      45.112  30.859  28.309  1.00  0.00     0.074 A 
ATOM     62  C   UNL A   1      46.457  31.002  27.790  1.00  0.00     0.031 C 
ATOM     63  C   UNL A   1      44.442  31.841  28.964  1.00  0.00     0.034 A 
BRANCH  50  64
ATOM     64  C   UNL A   1      38.729  30.215  30.763  1.00  0.00     0.023 A 
ATOM     65  C   UNL A   1      37.693  30.842  30.047  1.00  0.00     0.031 A 
ATOM     66  C   UNL A   1      38.544  30.002  32.140  1.00  0.00     0.131 A 
ATOM     67  C   UNL A   1      36.553  31.301  30.724  1.00  0.00     0.055 A 
ATOM     68  C   UNL A   1      37.373  30.391  32.793  1.00  0.00     0.041 A 
ATOM     69  F   UNL A   1      39.510  29.431  32.877  1.00  0.00    -0.206 F 
ATOM     70  C   UNL A   1      36.376  31.058  32.088  1.00  0.00     0.022 A 
BRANCH  67  71
ATOM     71  S   UNL A   1      35.375  32.349  29.827  1.00  0.00     0.124 S 
ATOM     72  O   UNL A   1      34.369  32.606  30.855  1.00  0.00    -0.237 OA
ATOM     73  O   UNL A   1      36.197  33.488  29.438  1.00  0.00    -0.237 OA
ATOM     74  O   UNL A   1      34.927  31.496  28.728  1.00  0.00    -0.744 OA
ENDBRANCH  67  71
ENDBRANCH  50  64
BRANCH  51  75
ATOM     75  C   UNL A   1      47.073  27.184  26.103  1.00  0.00     0.023 A 
ATOM     76  C   UNL A   1      48.125  26.530  26.764  1.00  0.00     0.031 A 
ATOM     77  C   UNL A   1      47.244  27.499  24.743  1.00  0.00     0.131 A 
ATOM     78  C   UNL A   1      49.320  26.255  26.079  1.00  0.00     0.055 A 
ATOM     79  C   UNL A   1      48.414  27.178  24.052  1.00  0.00     0.041 A 
ATOM     80  F   UNL A   1      46.271  28.126  24.063  1.00  0.00    -0.206 F 
ATOM     81  C   UNL A   1      49.467  26.566  24.725  1.00  0.00     0.022 A 
BRANCH  78  82
ATOM     82  S   UNL A   1      50.716  25.567  27.009  1.00  0.00     0.124 S 
ATOM     83  O   UNL A   1      50.129  24.361  27.581  1.00  0.00    -0.237 OA
ATOM     84  O   UNL A   1      51.708  25.364  25.959  1.00  0.00    -0.237 OA
ATOM     85  O   UNL A   1      51.036  26.622  27.970  1.00  0.00    -0.744 OA
ENDBRANCH  78  82
ENDBRANCH  51  75
BRANCH  63  86
ATOM     86  C   UNL A   1      45.181  33.135  29.207  1.00  0.00     0.023 A 
ATOM     87  C   UNL A   1      45.103  34.215  28.312  1.00  0.00     0.031 A 
ATOM     88  C   UNL A   1      45.972  33.285  30.361  1.00  0.00     0.131 A 
ATOM     89  C   UNL A   1      45.843  35.382  28.561  1.00  0.00     0.055 A 
ATOM     90  C   UNL A   1      46.663  34.467  30.630  1.00  0.00     0.041 A 
ATOM     91  F   UNL A   1      46.080  32.283  31.250  1.00  0.00    -0.206 F 
ATOM     92  C   UNL A   1      46.609  35.519  29.722  1.00  0.00     0.022 A 
BRANCH  89  93
ATOM     93  S   UNL A   1      45.852  36.695  27.309  1.00  0.00     0.124 S 
ATOM     94  O   UNL A   1      46.916  37.568  27.791  1.00  0.00    -0.237 OA
ATOM     95  O   UNL A   1      46.139  35.956  26.083  1.00  0.00    -0.237 OA
ATOM     96  O   UNL A   1      44.504  37.256  27.391  1.00  0.00    -0.744 OA
ENDBRANCH  89  93
ENDBRANCH  63  86
ENDBRANCH  37  38
ENDBRANCH  30  32
ENDBRANCH  29  30
ENDBRANCH  28  29
ENDBRANCH  27  28
ENDBRANCH  26  27
ENDBRANCH  25  26
ENDBRANCH   1  25
TORSDOF 24
ENDMDL
MODEL 2
REMARK VINA RESULT:      -9.7      2.655      8.701
REMARK SMILES CC(=O)Nc1ccc2sc(C(=O)OCCOCCOCCOCCOC(=O)c3ccc(-c4c5nc(c(-c6cc(S(=O)(=O)[O-])ccc6F)c6ccc([nH]6)c(-c6cc(S(=O)(=O)[O-])ccc6F)c6nc(c(-c7cc(S(=O)(=O)[O-])ccc7F)c7ccc4[nH]7)C=C6)C=C5)cc3)cc2c1
REMARK SMILES IDX 20 1 19 2 18 3 17 4 16 5 15 6 14 7 13 8 11 9 12 10 10 11
REMARK SMILES IDX 5 12 6 13 93 14 7 15 92 16 8 17 91 18 9 19 4 20 1 21 2 22
REMARK SMILES IDX 3 23 21 25 22 26 23 27 24 28 25 29 26 30 27 31 28 32 29 33
REMARK SMILES IDX 90 34 30 35 89 36 31 37 32 38 33 39 83 40 34 41 88 42 82 43
REMARK SMILES IDX 84 44 35 45 87 46 81 47 80 48 36 50 68 51 48 52 67 53 49 54
REMARK SMILES IDX 52 55 66 56 85 57 50 58 51 59 65 61 86 62 53 63 37 64 38 65
REMARK SMILES IDX 46 66 39 67 45 68 47 69 44 70 40 71 41 72 42 73 43 74 69 75
REMARK SMILES IDX 70 76 78 77 71 78 77 79 79 80 76 81 72 82 73 83 74 84 75 85
REMARK SMILES IDX 54 86 55 87 63 88 56 89 62 90 64 91 61 92 57 93 58 94 59 95
REMARK SMILES IDX 60 96
REMARK H PARENT 4 24 84 49 52 60
REMARK Flexibility Score: inf
ROOT
ATOM      1  C   UNL A   1      36.150  22.815  25.765  1.00  0.00     0.188 C 
ENDROOT
BRANCH   1   2
ATOM      2  O   UNL A   1      35.402  24.028  25.711  1.00  0.00    -0.377 OA
BRANCH   2   3
ATOM      3  C   UNL A   1      34.907  24.431  24.446  1.00  0.00     0.188 C 
BRANCH   3   4
ATOM      4  C   UNL A   1      34.044  25.700  24.536  1.00  0.00     0.188 C 
BRANCH   4   5
ATOM      5  O   UNL A   1      33.226  25.914  23.388  1.00  0.00    -0.376 OA
BRANCH   5   6
ATOM      6  C   UNL A   1      32.339  27.029  23.419  1.00  0.00     0.202 C 
BRANCH   6   7
ATOM      7  C   UNL A   1      31.251  27.030  24.506  1.00  0.00     0.261 C 
BRANCH   7   8
ATOM      8  O   UNL A   1      30.381  25.887  24.501  1.00  0.00    -0.459 OA
BRANCH   8   9
ATOM      9  C   UNL A   1      30.248  25.186  25.652  1.00  0.00     0.348 C 
ATOM     10  O   UNL A   1      29.452  25.447  26.546  1.00  0.00    -0.245 OA
BRANCH   9  11
ATOM     11  C   UNL A   1      31.033  23.973  25.579  1.00  0.00     0.113 A 
ATOM     12  C   UNL A   1      33.040  19.845  24.390  1.00  0.00     0.041 A 
ATOM     13  C   UNL A   1      33.504  19.861  25.701  1.00  0.00     0.027 A 
ATOM     14  C   UNL A   1      32.382  20.960  23.865  1.00  0.00     0.035 A 
ATOM     15  C   UNL A   1      33.252  20.952  26.535  1.00  0.00     0.022 A 
ATOM     16  C   UNL A   1      32.019  22.028  24.718  1.00  0.00    -0.005 A 
ATOM     17  C   UNL A   1      32.466  22.008  26.042  1.00  0.00     0.035 A 
ATOM     18  C   UNL A   1      31.190  23.166  24.471  1.00  0.00     0.036 A 
ATOM     19  S   UNL A   1      31.924  23.391  26.909  1.00  0.00    -0.128 S 
BRANCH  12  20
ATOM     20  N   UNL A   1      33.183  18.729  23.555  1.00  0.00    -0.326 N 
ATOM     21  C   UNL A   1      32.560  17.033  25.262  1.00  0.00     0.114 C 
ATOM     22  C   UNL A   1      33.071  17.405  23.891  1.00  0.00     0.221 C 
ATOM     23  O   UNL A   1      33.306  16.542  23.045  1.00  0.00    -0.275 OA
ATOM     24  H   UNL A   1      33.388  18.919  22.612  1.00  0.00     0.169 HD
ENDBRANCH  12  20
ENDBRANCH   9  11
ENDBRANCH   8   9
ENDBRANCH   7   8
ENDBRANCH   6   7
ENDBRANCH   5   6
ENDBRANCH   4   5
ENDBRANCH   3   4
ENDBRANCH   2   3
ENDBRANCH   1   2
BRANCH   1  25
ATOM     25  C   UNL A   1      36.307  21.941  24.504  1.00  0.00     0.188 C 
BRANCH  25  26
ATOM     26  O   UNL A   1      37.539  21.214  24.462  1.00  0.00    -0.376 OA
BRANCH  26  27
ATOM     27  C   UNL A   1      37.992  20.683  25.704  1.00  0.00     0.202 C 
BRANCH  27  28
ATOM     28  C   UNL A   1      39.216  19.769  25.565  1.00  0.00     0.261 C 
BRANCH  28  29
ATOM     29  O   UNL A   1      40.482  20.426  25.725  1.00  0.00    -0.460 OA
BRANCH  29  30
ATOM     30  C   UNL A   1      40.990  20.480  26.977  1.00  0.00     0.338 C 
ATOM     31  O   UNL A   1      41.428  19.550  27.628  1.00  0.00    -0.246 OA
BRANCH  30  32
ATOM     32  C   UNL A   1      41.098  21.901  27.363  1.00  0.00     0.060 A 
ATOM     33  C   UNL A   1      40.434  22.861  26.589  1.00  0.00     0.016 A 
ATOM     34  C   UNL A   1      41.860  22.279  28.471  1.00  0.00     0.016 A 
ATOM     35  C   UNL A   1      40.572  24.215  26.899  1.00  0.00     0.010 A 
ATOM     36  C   UNL A   1      42.009  23.634  28.769  1.00  0.00     0.010 A 
ATOM     37  C   UNL A   1      41.397  24.608  27.961  1.00  0.00    -0.014 A 
BRANCH  37  38
ATOM     38  C   UNL A   1      41.808  26.026  28.098  1.00  0.00     0.031 A 
ATOM     39  C   UNL A   1      43.155  26.422  27.559  1.00  0.00     0.074 A 
ATOM     40  C   UNL A   1      41.015  26.935  28.692  1.00  0.00     0.049 A 
ATOM     41  N   UNL A   1      43.775  27.571  27.625  1.00  0.00    -0.248 NA
ATOM     42  C   UNL A   1      43.908  25.369  26.858  1.00  0.00     0.031 C 
ATOM     43  C   UNL A   1      39.675  26.675  29.215  1.00  0.00     0.029 A 
ATOM     44  N   UNL A   1      41.234  28.261  28.964  1.00  0.00    -0.354 N 
ATOM     45  C   UNL A   1      44.986  27.384  26.969  1.00  0.00     0.074 A 
ATOM     46  C   UNL A   1      45.032  25.998  26.553  1.00  0.00     0.031 C 
ATOM     47  C   UNL A   1      39.196  27.807  29.761  1.00  0.00     0.029 A 
ATOM     48  C   UNL A   1      40.207  28.858  29.659  1.00  0.00     0.049 A 
ATOM     49  H   UNL A   1      42.048  28.740  28.689  1.00  0.00     0.167 HD
ATOM     50  C   UNL A   1      45.969  28.285  26.728  1.00  0.00     0.034 A 
ATOM     51  C   UNL A   1      40.113  30.102  30.172  1.00  0.00     0.034 A 
ATOM     52  C   UNL A   1      45.926  29.653  27.179  1.00  0.00     0.049 A 
ATOM     53  C   UNL A   1      41.264  31.063  29.981  1.00  0.00     0.074 A 
ATOM     54  C   UNL A   1      46.869  30.651  27.004  1.00  0.00     0.029 A 
ATOM     55  N   UNL A   1      44.887  30.213  27.911  1.00  0.00    -0.354 N 
ATOM     56  N   UNL A   1      42.405  30.876  29.356  1.00  0.00    -0.248 NA
ATOM     57  C   UNL A   1      41.112  32.404  30.562  1.00  0.00     0.031 C 
ATOM     58  C   UNL A   1      46.428  31.794  27.682  1.00  0.00     0.029 A 
ATOM     59  C   UNL A   1      45.178  31.532  28.218  1.00  0.00     0.049 A 
ATOM     60  H   UNL A   1      44.063  29.741  28.171  1.00  0.00     0.167 HD
ATOM     61  C   UNL A   1      43.087  32.089  29.438  1.00  0.00     0.074 A 
ATOM     62  C   UNL A   1      42.229  32.999  30.169  1.00  0.00     0.031 C 
ATOM     63  C   UNL A   1      44.309  32.424  28.949  1.00  0.00     0.034 A 
BRANCH  50  64
ATOM     64  C   UNL A   1      47.188  27.789  25.992  1.00  0.00     0.023 A 
ATOM     65  C   UNL A   1      47.358  28.017  24.614  1.00  0.00     0.031 A 
ATOM     66  C   UNL A   1      48.165  27.031  26.660  1.00  0.00     0.131 A 
ATOM     67  C   UNL A   1      48.437  27.431  23.936  1.00  0.00     0.055 A 
ATOM     68  C   UNL A   1      49.279  26.517  25.994  1.00  0.00     0.041 A 
ATOM     69  F   UNL A   1      48.041  26.760  27.969  1.00  0.00    -0.206 F 
ATOM     70  C   UNL A   1      49.411  26.702  24.621  1.00  0.00     0.022 A 
BRANCH  67  71
ATOM     71  S   UNL A   1      48.469  27.512  22.124  1.00  0.00     0.124 S 
ATOM     72  O   UNL A   1      49.657  28.329  21.887  1.00  0.00    -0.237 OA
ATOM     73  O   UNL A   1      48.573  26.107  21.747  1.00  0.00    -0.237 OA
ATOM     74  O   UNL A   1      47.201  28.156  21.787  1.00  0.00    -0.744 OA
ENDBRANCH  67  71
ENDBRANCH  50  64
BRANCH  51  75
ATOM     75  C   UNL A   1      38.912  30.512  30.954  1.00  0.00     0.023 A 
ATOM     76  C   UNL A   1      37.954  31.383  30.410  1.00  0.00     0.031 A 
ATOM     77  C   UNL A   1      38.741  30.092  32.285  1.00  0.00     0.131 A 
ATOM     78  C   UNL A   1      36.895  31.846  31.209  1.00  0.00     0.055 A 
ATOM     79  C   UNL A   1      37.658  30.515  33.060  1.00  0.00     0.041 A 
ATOM     80  F   UNL A   1      39.629  29.261  32.855  1.00  0.00    -0.206 F 
ATOM     81  C   UNL A   1      36.736  31.409  32.526  1.00  0.00     0.022 A 
BRANCH  78  82
ATOM     82  S   UNL A   1      35.778  33.102  30.527  1.00  0.00     0.124 S 
ATOM     83  O   UNL A   1      36.549  33.604  29.396  1.00  0.00    -0.237 OA
ATOM     84  O   UNL A   1      34.597  32.309  30.199  1.00  0.00    -0.237 OA
ATOM     85  O   UNL A   1      35.608  34.041  31.634  1.00  0.00    -0.744 OA
ENDBRANCH  78  82
ENDBRANCH  51  75
BRANCH  63  86
ATOM     86  C   UNL A   1      44.758  33.853  29.137  1.00  0.00     0.023 A 
ATOM     87  C   UNL A   1      45.527  34.252  30.243  1.00  0.00     0.031 A 
ATOM     88  C   UNL A   1      44.410  34.829  28.185  1.00  0.00     0.131 A 
ATOM     89  C   UNL A   1      45.883  35.601  30.395  1.00  0.00     0.055 A 
ATOM     90  C   UNL A   1      44.812  36.158  28.314  1.00  0.00     0.041 A 
ATOM     91  F   UNL A   1      43.676  34.501  27.108  1.00  0.00    -0.206 F 
ATOM     92  C   UNL A   1      45.544  36.552  29.430  1.00  0.00     0.022 A 
BRANCH  89  93
ATOM     93  S   UNL A   1      46.735  36.114  31.913  1.00  0.00     0.124 S 
ATOM     94  O   UNL A   1      47.274  37.415  31.534  1.00  0.00    -0.237 OA
ATOM     95  O   UNL A   1      45.651  36.132  32.889  1.00  0.00    -0.237 OA
ATOM     96  O   UNL A   1      47.734  35.065  32.116  1.00  0.00    -0.744 OA
ENDBRANCH  89  93
ENDBRANCH  63  86
ENDBRANCH  37  38
ENDBRANCH  30  32
ENDBRANCH  29  30
ENDBRANCH  28  29
ENDBRANCH  27  28
ENDBRANCH  26  27
ENDBRANCH  25  26
ENDBRANCH   1  25
TORSDOF 24
ENDMDL
MODEL 3
REMARK VINA RESULT:      -9.3      4.517      9.060
REMARK SMILES CC(=O)Nc1ccc2sc(C(=O)OCCOCCOCCOCCOC(=O)c3ccc(-c4c5nc(c(-c6cc(S(=O)(=O)[O-])ccc6F)c6ccc([nH]6)c(-c6cc(S(=O)(=O)[O-])ccc6F)c6nc(c(-c7cc(S(=O)(=O)[O-])ccc7F)c7ccc4[nH]7)C=C6)C=C5)cc3)cc2c1
REMARK SMILES IDX 20 1 19 2 18 3 17 4 16 5 15 6 14 7 13 8 11 9 12 10 10 11
REMARK SMILES IDX 5 12 6 13 93 14 7 15 92 16 8 17 91 18 9 19 4 20 1 21 2 22
REMARK SMILES IDX 3 23 21 25 22 26 23 27 24 28 25 29 26 30 27 31 28 32 29 33
REMARK SMILES IDX 90 34 30 35 89 36 31 37 32 38 33 39 83 40 34 41 88 42 82 43
REMARK SMILES IDX 84 44 35 45 87 46 81 47 80 48 36 50 68 51 48 52 67 53 49 54
REMARK SMILES IDX 52 55 66 56 85 57 50 58 51 59 65 61 86 62 53 63 37 64 38 65
REMARK SMILES IDX 46 66 39 67 45 68 47 69 44 70 40 71 41 72 42 73 43 74 69 75
REMARK SMILES IDX 70 76 78 77 71 78 77 79 79 80 76 81 72 82 73 83 74 84 75 85
REMARK SMILES IDX 54 86 55 87 63 88 56 89 62 90 64 91 61 92 57 93 58 94 59 95
REMARK SMILES IDX 60 96
REMARK H PARENT 4 24 84 49 52 60
REMARK Flexibility Score: inf
ROOT
ATOM      1  C   UNL A   1      34.990  31.109  27.830  1.00  0.00     0.188 C 
ENDROOT
BRANCH   1   2
ATOM      2  O   UNL A   1      34.499  29.780  27.994  1.00  0.00    -0.377 OA
BRANCH   2   3
ATOM      3  C   UNL A   1      34.214  29.042  26.818  1.00  0.00     0.188 C 
BRANCH   3   4
ATOM      4  C   UNL A   1      32.913  28.231  26.941  1.00  0.00     0.188 C 
BRANCH   4   5
ATOM      5  O   UNL A   1      31.908  28.625  26.008  1.00  0.00    -0.376 OA
BRANCH   5   6
ATOM      6  C   UNL A   1      32.305  28.778  24.649  1.00  0.00     0.202 C 
BRANCH   6   7
ATOM      7  C   UNL A   1      32.208  27.538  23.745  1.00  0.00     0.261 C 
BRANCH   7   8
ATOM      8  O   UNL A   1      33.408  26.754  23.651  1.00  0.00    -0.459 OA
BRANCH   8   9
ATOM      9  C   UNL A   1      33.467  25.796  22.695  1.00  0.00     0.348 C 
ATOM     10  O   UNL A   1      33.748  25.994  21.519  1.00  0.00    -0.245 OA
BRANCH   9  11
ATOM     11  C   UNL A   1      33.354  24.490  23.305  1.00  0.00     0.113 A 
ATOM     12  C   UNL A   1      34.003  20.064  24.878  1.00  0.00     0.041 A 
ATOM     13  C   UNL A   1      32.636  20.109  25.129  1.00  0.00     0.027 A 
ATOM     14  C   UNL A   1      34.680  21.216  24.471  1.00  0.00     0.035 A 
ATOM     15  C   UNL A   1      31.906  21.279  24.904  1.00  0.00     0.022 A 
ATOM     16  C   UNL A   1      33.949  22.378  24.133  1.00  0.00    -0.005 A 
ATOM     17  C   UNL A   1      32.571  22.391  24.360  1.00  0.00     0.035 A 
ATOM     18  C   UNL A   1      34.382  23.595  23.519  1.00  0.00     0.036 A 
ATOM     19  S   UNL A   1      31.870  23.889  23.887  1.00  0.00    -0.128 S 
BRANCH  12  20
ATOM     20  N   UNL A   1      34.749  18.883  24.992  1.00  0.00    -0.326 N 
ATOM     21  C   UNL A   1      33.425  17.566  23.353  1.00  0.00     0.114 C 
ATOM     22  C   UNL A   1      34.504  17.671  24.403  1.00  0.00     0.221 C 
ATOM     23  O   UNL A   1      35.223  16.708  24.674  1.00  0.00    -0.275 OA
ATOM     24  H   UNL A   1      35.547  18.932  25.566  1.00  0.00     0.169 HD
ENDBRANCH  12  20
ENDBRANCH   9  11
ENDBRANCH   8   9
ENDBRANCH   7   8
ENDBRANCH   6   7
ENDBRANCH   5   6
ENDBRANCH   4   5
ENDBRANCH   3   4
ENDBRANCH   2   3
ENDBRANCH   1   2
BRANCH   1  25
ATOM     25  C   UNL A   1      34.015  32.305  27.833  1.00  0.00     0.188 C 
BRANCH  25  26
ATOM     26  O   UNL A   1      34.660  33.567  28.028  1.00  0.00    -0.376 OA
BRANCH  26  27
ATOM     27  C   UNL A   1      33.883  34.570  28.676  1.00  0.00     0.202 C 
BRANCH  27  28
ATOM     28  C   UNL A   1      34.050  34.577  30.202  1.00  0.00     0.261 C 
BRANCH  28  29
ATOM     29  O   UNL A   1      35.244  33.941  30.681  1.00  0.00    -0.460 OA
BRANCH  29  30
ATOM     30  C   UNL A   1      35.087  32.798  31.386  1.00  0.00     0.338 C 
ATOM     31  O   UNL A   1      34.080  32.423  31.955  1.00  0.00    -0.246 OA
BRANCH  30  32
ATOM     32  C   UNL A   1      36.300  31.977  31.195  1.00  0.00     0.060 A 
ATOM     33  C   UNL A   1      36.401  30.757  31.875  1.00  0.00     0.016 A 
ATOM     34  C   UNL A   1      37.330  32.418  30.360  1.00  0.00     0.016 A 
ATOM     35  C   UNL A   1      37.564  29.993  31.757  1.00  0.00     0.010 A 
ATOM     36  C   UNL A   1      38.498  31.660  30.257  1.00  0.00     0.010 A 
ATOM     37  C   UNL A   1      38.633  30.465  30.985  1.00  0.00    -0.014 A 
BRANCH  37  38
ATOM     38  C   UNL A   1      39.972  29.840  31.108  1.00  0.00     0.031 A 
ATOM     39  C   UNL A   1      40.912  30.392  32.144  1.00  0.00     0.074 A 
ATOM     40  C   UNL A   1      40.348  28.819  30.318  1.00  0.00     0.049 A 
ATOM     41  N   UNL A   1      42.156  30.076  32.396  1.00  0.00    -0.248 NA
ATOM     42  C   UNL A   1      40.373  31.455  33.009  1.00  0.00     0.031 C 
ATOM     43  C   UNL A   1      39.509  28.177  29.308  1.00  0.00     0.029 A 
ATOM     44  N   UNL A   1      41.544  28.153  30.238  1.00  0.00    -0.354 N 
ATOM     45  C   UNL A   1      42.546  30.893  33.450  1.00  0.00     0.074 A 
ATOM     46  C   UNL A   1      41.421  31.750  33.760  1.00  0.00     0.031 C 
ATOM     47  C   UNL A   1      40.225  27.217  28.697  1.00  0.00     0.029 A 
ATOM     48  C   UNL A   1      41.580  27.201  29.245  1.00  0.00     0.049 A 
ATOM     49  H   UNL A   1      42.306  28.339  30.833  1.00  0.00     0.167 HD
ATOM     50  C   UNL A   1      43.732  30.924  34.106  1.00  0.00     0.034 A 
ATOM     51  C   UNL A   1      42.600  26.428  28.818  1.00  0.00     0.034 A 
ATOM     52  C   UNL A   1      44.856  30.089  33.764  1.00  0.00     0.049 A 
ATOM     53  C   UNL A   1      43.945  26.549  29.496  1.00  0.00     0.074 A 
ATOM     54  C   UNL A   1      46.109  30.043  34.350  1.00  0.00     0.029 A 
ATOM     55  N   UNL A   1      44.867  29.162  32.730  1.00  0.00    -0.354 N 
ATOM     56  N   UNL A   1      44.304  27.324  30.495  1.00  0.00    -0.248 NA
ATOM     57  C   UNL A   1      45.022  25.687  28.991  1.00  0.00     0.031 C 
ATOM     58  C   UNL A   1      46.894  29.134  33.632  1.00  0.00     0.029 A 
ATOM     59  C   UNL A   1      46.111  28.559  32.644  1.00  0.00     0.049 A 
ATOM     60  H   UNL A   1      44.101  28.961  32.144  1.00  0.00     0.167 HD
ATOM     61  C   UNL A   1      45.637  27.014  30.759  1.00  0.00     0.074 A 
ATOM     62  C   UNL A   1      46.016  25.980  29.818  1.00  0.00     0.031 C 
ATOM     63  C   UNL A   1      46.471  27.530  31.698  1.00  0.00     0.034 A 
BRANCH  50  64
ATOM     64  C   UNL A   1      43.874  31.934  35.217  1.00  0.00     0.023 A 
ATOM     65  C   UNL A   1      43.444  31.652  36.526  1.00  0.00     0.031 A 
ATOM     66  C   UNL A   1      44.394  33.213  34.955  1.00  0.00     0.131 A 
ATOM     67  C   UNL A   1      43.471  32.657  37.503  1.00  0.00     0.055 A 
ATOM     68  C   UNL A   1      44.492  34.185  35.952  1.00  0.00     0.041 A 
ATOM     69  F   UNL A   1      44.795  33.546  33.718  1.00  0.00    -0.206 F 
ATOM     70  C   UNL A   1      44.015  33.915  37.231  1.00  0.00     0.022 A 
BRANCH  67  71
ATOM     71  S   UNL A   1      42.653  32.345  39.092  1.00  0.00     0.124 S 
ATOM     72  O   UNL A   1      41.297  32.010  38.664  1.00  0.00    -0.237 OA
ATOM     73  O   UNL A   1      43.439  31.248  39.642  1.00  0.00    -0.237 OA
ATOM     74  O   UNL A   1      42.778  33.619  39.798  1.00  0.00    -0.744 OA
ENDBRANCH  67  71
ENDBRANCH  50  64
BRANCH  51  75
ATOM     75  C   UNL A   1      42.418  25.499  27.666  1.00  0.00     0.023 A 
ATOM     76  C   UNL A   1      41.999  24.173  27.862  1.00  0.00     0.031 A 
ATOM     77  C   UNL A   1      42.729  25.907  26.357  1.00  0.00     0.131 A 
ATOM     78  C   UNL A   1      41.950  23.287  26.773  1.00  0.00     0.055 A 
ATOM     79  C   UNL A   1      42.629  25.036  25.269  1.00  0.00     0.041 A 
ATOM     80  F   UNL A   1      43.136  27.163  26.114  1.00  0.00    -0.206 F 
ATOM     81  C   UNL A   1      42.252  23.713  25.477  1.00  0.00     0.022 A 
BRANCH  78  82
ATOM     82  S   UNL A   1      41.572  21.542  27.091  1.00  0.00     0.124 S 
ATOM     83  O   UNL A   1      42.482  21.235  28.188  1.00  0.00    -0.237 OA
ATOM     84  O   UNL A   1      40.153  21.597  27.428  1.00  0.00    -0.237 OA
ATOM     85  O   UNL A   1      41.883  20.891  25.820  1.00  0.00    -0.744 OA
ENDBRANCH  78  82
ENDBRANCH  51  75
BRANCH  63  86
ATOM     86  C   UNL A   1      47.856  26.937  31.789  1.00  0.00     0.023 A 
ATOM     87  C   UNL A   1      48.126  25.791  32.557  1.00  0.00     0.031 A 
ATOM     88  C   UNL A   1      48.921  27.532  31.089  1.00  0.00     0.131 A 
ATOM     89  C   UNL A   1      49.439  25.303  32.644  1.00  0.00     0.055 A 
ATOM     90  C   UNL A   1      50.214  27.012  31.138  1.00  0.00     0.041 A 
ATOM     91  F   UNL A   1      48.718  28.629  30.341  1.00  0.00    -0.206 F 
ATOM     92  C   UNL A   1      50.481  25.897  31.927  1.00  0.00     0.022 A 
BRANCH  89  93
ATOM     93  S   UNL A   1      49.784  23.922  33.769  1.00  0.00     0.124 S 
ATOM     94  O   UNL A   1      50.476  22.983  32.894  1.00  0.00    -0.237 OA
ATOM     95  O   UNL A   1      50.603  24.555  34.799  1.00  0.00    -0.237 OA
ATOM     96  O   UNL A   1      48.456  23.497  34.209  1.00  0.00    -0.744 OA
ENDBRANCH  89  93
ENDBRANCH  63  86
ENDBRANCH  37  38
ENDBRANCH  30  32
ENDBRANCH  29  30
ENDBRANCH  28  29
ENDBRANCH  27  28
ENDBRANCH  26  27
ENDBRANCH  25  26
ENDBRANCH   1  25
TORSDOF 24
ENDMDL
