MODEL 1
REMARK VINA RESULT:      -6.9      0.000      0.000
REMARK SMILES C[C@@H](CNC(=O)N(C)CC(C)(C)O)C(=O)OCCOCCOCCOCCOC(=O)c1ccc(-c2c3nc(c(-c4cc(S(=O)(=O)[O-])ccc4F)c4ccc([nH]4)c(-c4cc(S(=O)(=O)[O-])ccc4F)c4nc(c(-c5cc(S(=O)(=O)[O-])ccc5F)c5ccc2[nH]5)C=C4)C=C3)cc1
REMARK SMILES IDX 20 1 19 2 18 3 17 4 16 5 14 6 15 7 2 8 1 9 3 10 4 11 5 12
REMARK SMILES IDX 6 14 7 15 8 16 9 17 10 18 11 19 12 20 13 21 21 23 22 24
REMARK SMILES IDX 23 25 24 26 25 27 26 28 27 29 28 30 29 31 30 32 31 33 32 34
REMARK SMILES IDX 93 35 33 36 92 37 34 38 35 39 36 40 86 41 37 42 91 43 85 44
REMARK SMILES IDX 87 45 38 46 90 47 84 48 83 49 39 51 71 52 51 53 70 54 52 55
REMARK SMILES IDX 55 56 69 57 88 58 53 59 54 60 68 62 89 63 56 64 40 65 41 66
REMARK SMILES IDX 49 67 42 68 48 69 50 70 47 71 43 72 44 73 45 74 46 75 72 76
REMARK SMILES IDX 73 77 81 78 74 79 80 80 82 81 79 82 75 83 76 84 77 85 78 86
REMARK SMILES IDX 57 87 58 88 66 89 59 90 65 91 67 92 64 93 60 94 61 95 62 96
REMARK SMILES IDX 63 97
REMARK H PARENT 4 13 13 22 87 50 55 61
REMARK Flexibility Score: inf
ROOT
ATOM      1  C   UNL A   1      44.665  20.835  24.905  1.00  0.00     0.188 C 
ENDROOT
BRANCH   1   2
ATOM      2  O   UNL A   1      44.489  19.434  25.009  1.00  0.00    -0.376 OA
BRANCH   2   3
ATOM      3  C   UNL A   1      43.286  18.861  25.498  1.00  0.00     0.202 C 
BRANCH   3   4
ATOM      4  C   UNL A   1      42.353  19.585  26.480  1.00  0.00     0.261 C 
BRANCH   4   5
ATOM      5  O   UNL A   1      41.057  19.967  25.994  1.00  0.00    -0.463 OA
BRANCH   5   6
ATOM      6  C   UNL A   1      40.565  21.161  26.398  1.00  0.00     0.310 C 
ATOM      7  O   UNL A   1      39.371  21.443  26.441  1.00  0.00    -0.252 OA
BRANCH   6   8
ATOM      8  C   UNL A   1      41.645  22.186  26.730  1.00  0.00     0.115 C 
ATOM      9  C   UNL A   1      42.125  23.093  25.587  1.00  0.00     0.022 C 
BRANCH   8  10
ATOM     10  C   UNL A   1      41.161  23.041  27.902  1.00  0.00     0.132 C 
BRANCH  10  11
ATOM     11  N   UNL A   1      40.329  24.123  27.430  1.00  0.00    -0.337 N 
ATOM     12  C   UNL A   1      40.380  25.461  27.505  1.00  0.00     0.317 C 
ATOM     13  H   UNL A   1      39.538  23.804  26.938  1.00  0.00     0.165 HD
ATOM     14  O   UNL A   1      39.281  26.014  27.401  1.00  0.00    -0.249 OA
BRANCH  12  15
ATOM     15  N   UNL A   1      41.534  26.175  27.615  1.00  0.00    -0.325 N 
ATOM     16  C   UNL A   1      42.257  26.631  28.793  1.00  0.00     0.148 C 
BRANCH  15  17
ATOM     17  C   UNL A   1      42.250  26.413  26.352  1.00  0.00     0.155 C 
BRANCH  17  18
ATOM     18  C   UNL A   1      42.367  27.920  25.967  1.00  0.00     0.077 C 
ATOM     19  C   UNL A   1      41.144  28.752  26.373  1.00  0.00     0.043 C 
ATOM     20  C   UNL A   1      43.612  28.505  26.637  1.00  0.00     0.043 C 
BRANCH  18  21
ATOM     21  O   UNL A   1      42.571  28.043  24.548  1.00  0.00    -0.389 OA
ATOM     22  H   UNL A   1      41.713  28.022  24.095  1.00  0.00     0.211 HD
ENDBRANCH  18  21
ENDBRANCH  17  18
ENDBRANCH  15  17
ENDBRANCH  12  15
ENDBRANCH  10  11
ENDBRANCH   8  10
ENDBRANCH   6   8
ENDBRANCH   5   6
ENDBRANCH   4   5
ENDBRANCH   3   4
ENDBRANCH   2   3
ENDBRANCH   1   2
BRANCH   1  23
ATOM     23  C   UNL A   1      46.060  21.469  24.788  1.00  0.00     0.188 C 
BRANCH  23  24
ATOM     24  O   UNL A   1      46.382  22.461  25.739  1.00  0.00    -0.377 OA
BRANCH  24  25
ATOM     25  C   UNL A   1      46.643  23.784  25.287  1.00  0.00     0.188 C 
BRANCH  25  26
ATOM     26  C   UNL A   1      45.468  24.663  24.822  1.00  0.00     0.188 C 
BRANCH  26  27
ATOM     27  O   UNL A   1      45.809  26.021  24.574  1.00  0.00    -0.376 OA
BRANCH  27  28
ATOM     28  C   UNL A   1      47.180  26.383  24.499  1.00  0.00     0.202 C 
BRANCH  28  29
ATOM     29  C   UNL A   1      47.765  27.267  25.613  1.00  0.00     0.261 C 
BRANCH  29  30
ATOM     30  O   UNL A   1      47.479  26.881  26.966  1.00  0.00    -0.460 OA
BRANCH  30  31
ATOM     31  C   UNL A   1      48.127  27.526  27.964  1.00  0.00     0.338 C 
ATOM     32  O   UNL A   1      49.305  27.801  28.008  1.00  0.00    -0.246 OA
BRANCH  31  33
ATOM     33  C   UNL A   1      47.100  28.023  28.910  1.00  0.00     0.060 A 
ATOM     34  C   UNL A   1      46.772  29.385  28.898  1.00  0.00     0.016 A 
ATOM     35  C   UNL A   1      46.464  27.153  29.798  1.00  0.00     0.016 A 
ATOM     36  C   UNL A   1      45.825  29.885  29.794  1.00  0.00     0.010 A 
ATOM     37  C   UNL A   1      45.535  27.660  30.711  1.00  0.00     0.010 A 
ATOM     38  C   UNL A   1      45.231  29.032  30.734  1.00  0.00    -0.014 A 
BRANCH  38  39
ATOM     39  C   UNL A   1      44.433  29.605  31.847  1.00  0.00     0.031 A 
ATOM     40  C   UNL A   1      43.118  30.261  31.521  1.00  0.00     0.074 A 
ATOM     41  C   UNL A   1      44.851  29.521  33.124  1.00  0.00     0.049 A 
ATOM     42  N   UNL A   1      42.284  30.889  32.307  1.00  0.00    -0.248 NA
ATOM     43  C   UNL A   1      42.690  30.201  30.114  1.00  0.00     0.031 C 
ATOM     44  C   UNL A   1      46.075  28.857  33.570  1.00  0.00     0.029 A 
ATOM     45  N   UNL A   1      44.293  30.007  34.282  1.00  0.00    -0.354 N 
ATOM     46  C   UNL A   1      41.236  31.307  31.492  1.00  0.00     0.074 A 
ATOM     47  C   UNL A   1      41.557  30.885  30.145  1.00  0.00     0.031 C 
ATOM     48  C   UNL A   1      46.181  28.989  34.903  1.00  0.00     0.029 A 
ATOM     49  C   UNL A   1      45.063  29.788  35.402  1.00  0.00     0.049 A 
ATOM     50  H   UNL A   1      43.424  30.470  34.307  1.00  0.00     0.167 HD
ATOM     51  C   UNL A   1      40.111  31.978  31.838  1.00  0.00     0.034 A 
ATOM     52  C   UNL A   1      44.900  30.215  36.672  1.00  0.00     0.034 A 
ATOM     53  C   UNL A   1      39.812  32.399  33.185  1.00  0.00     0.049 A 
ATOM     54  C   UNL A   1      43.686  31.054  37.011  1.00  0.00     0.074 A 
ATOM     55  C   UNL A   1      38.692  33.069  33.646  1.00  0.00     0.029 A 
ATOM     56  N   UNL A   1      40.639  32.207  34.283  1.00  0.00    -0.354 N 
ATOM     57  N   UNL A   1      42.697  31.435  36.233  1.00  0.00    -0.248 NA
ATOM     58  C   UNL A   1      43.564  31.516  38.400  1.00  0.00     0.031 C 
ATOM     59  C   UNL A   1      38.882  33.359  34.999  1.00  0.00     0.029 A 
ATOM     60  C   UNL A   1      40.075  32.785  35.410  1.00  0.00     0.049 A 
ATOM     61  H   UNL A   1      41.501  31.730  34.264  1.00  0.00     0.167 HD
ATOM     62  C   UNL A   1      41.822  32.148  37.051  1.00  0.00     0.074 A 
ATOM     63  C   UNL A   1      42.389  32.126  38.383  1.00  0.00     0.031 C 
ATOM     64  C   UNL A   1      40.653  32.762  36.733  1.00  0.00     0.034 A 
BRANCH  51  65
ATOM     65  C   UNL A   1      39.150  32.351  30.736  1.00  0.00     0.023 A 
ATOM     66  C   UNL A   1      38.076  31.522  30.369  1.00  0.00     0.031 A 
ATOM     67  C   UNL A   1      39.310  33.566  30.046  1.00  0.00     0.131 A 
ATOM     68  C   UNL A   1      37.236  31.895  29.309  1.00  0.00     0.055 A 
ATOM     69  C   UNL A   1      38.425  33.967  29.044  1.00  0.00     0.041 A 
ATOM     70  F   UNL A   1      40.334  34.386  30.334  1.00  0.00    -0.206 F 
ATOM     71  C   UNL A   1      37.386  33.125  28.663  1.00  0.00     0.022 A 
BRANCH  68  72
ATOM     72  S   UNL A   1      36.016  30.698  28.703  1.00  0.00     0.124 S 
ATOM     73  O   UNL A   1      36.576  30.338  27.403  1.00  0.00    -0.237 OA
ATOM     74  O   UNL A   1      36.058  29.658  29.727  1.00  0.00    -0.237 OA
ATOM     75  O   UNL A   1      34.775  31.469  28.648  1.00  0.00    -0.744 OA
ENDBRANCH  68  72
ENDBRANCH  51  65
BRANCH  52  76
ATOM     76  C   UNL A   1      45.928  29.924  37.716  1.00  0.00     0.023 A 
ATOM     77  C   UNL A   1      45.840  28.781  38.528  1.00  0.00     0.031 A 
ATOM     78  C   UNL A   1      46.964  30.837  37.983  1.00  0.00     0.131 A 
ATOM     79  C   UNL A   1      46.728  28.614  39.604  1.00  0.00     0.055 A 
ATOM     80  C   UNL A   1      47.889  30.631  39.009  1.00  0.00     0.041 A 
ATOM     81  F   UNL A   1      47.090  31.957  37.251  1.00  0.00    -0.206 F 
ATOM     82  C   UNL A   1      47.762  29.522  39.839  1.00  0.00     0.022 A 
BRANCH  79  83
ATOM     83  S   UNL A   1      46.429  27.260  40.774  1.00  0.00     0.124 S 
ATOM     84  O   UNL A   1      45.396  27.831  41.629  1.00  0.00    -0.237 OA
ATOM     85  O   UNL A   1      46.005  26.181  39.888  1.00  0.00    -0.237 OA
ATOM     86  O   UNL A   1      47.731  27.066  41.409  1.00  0.00    -0.744 OA
ENDBRANCH  79  83
ENDBRANCH  52  76
BRANCH  64  87
ATOM     87  C   UNL A   1      39.884  33.416  37.858  1.00  0.00     0.023 A 
ATOM     88  C   UNL A   1      38.895  32.727  38.582  1.00  0.00     0.031 A 
ATOM     89  C   UNL A   1      40.144  34.754  38.206  1.00  0.00     0.131 A 
ATOM     90  C   UNL A   1      38.160  33.397  39.573  1.00  0.00     0.055 A 
ATOM     91  C   UNL A   1      39.460  35.393  39.242  1.00  0.00     0.041 A 
ATOM     92  F   UNL A   1      41.074  35.465  37.549  1.00  0.00    -0.206 F 
ATOM     93  C   UNL A   1      38.450  34.718  39.922  1.00  0.00     0.022 A 
BRANCH  90  94
ATOM     94  S   UNL A   1      36.745  32.549  40.330  1.00  0.00     0.124 S 
ATOM     95  O   UNL A   1      37.366  31.342  40.865  1.00  0.00    -0.237 OA
ATOM     96  O   UNL A   1      36.289  33.523  41.317  1.00  0.00    -0.237 OA
ATOM     97  O   UNL A   1      35.835  32.332  39.207  1.00  0.00    -0.744 OA
ENDBRANCH  90  94
ENDBRANCH  64  87
ENDBRANCH  38  39
ENDBRANCH  31  33
ENDBRANCH  30  31
ENDBRANCH  29  30
ENDBRANCH  28  29
ENDBRANCH  27  28
ENDBRANCH  26  27
ENDBRANCH  25  26
ENDBRANCH  24  25
ENDBRANCH  23  24
ENDBRANCH   1  23
TORSDOF 29
ENDMDL
MODEL 2
REMARK VINA RESULT:      -6.7      6.284     12.587
REMARK SMILES C[C@@H](CNC(=O)N(C)CC(C)(C)O)C(=O)OCCOCCOCCOCCOC(=O)c1ccc(-c2c3nc(c(-c4cc(S(=O)(=O)[O-])ccc4F)c4ccc([nH]4)c(-c4cc(S(=O)(=O)[O-])ccc4F)c4nc(c(-c5cc(S(=O)(=O)[O-])ccc5F)c5ccc2[nH]5)C=C4)C=C3)cc1
REMARK SMILES IDX 20 1 19 2 18 3 17 4 16 5 14 6 15 7 2 8 1 9 3 10 4 11 5 12
REMARK SMILES IDX 6 14 7 15 8 16 9 17 10 18 11 19 12 20 13 21 21 23 22 24
REMARK SMILES IDX 23 25 24 26 25 27 26 28 27 29 28 30 29 31 30 32 31 33 32 34
REMARK SMILES IDX 93 35 33 36 92 37 34 38 35 39 36 40 86 41 37 42 91 43 85 44
REMARK SMILES IDX 87 45 38 46 90 47 84 48 83 49 39 51 71 52 51 53 70 54 52 55
REMARK SMILES IDX 55 56 69 57 88 58 53 59 54 60 68 62 89 63 56 64 40 65 41 66
REMARK SMILES IDX 49 67 42 68 48 69 50 70 47 71 43 72 44 73 45 74 46 75 72 76
REMARK SMILES IDX 73 77 81 78 74 79 80 80 82 81 79 82 75 83 76 84 77 85 78 86
REMARK SMILES IDX 57 87 58 88 66 89 59 90 65 91 67 92 64 93 60 94 61 95 62 96
REMARK SMILES IDX 63 97
REMARK H PARENT 4 13 13 22 87 50 55 61
REMARK Flexibility Score: inf
ROOT
ATOM      1  C   UNL A   1      40.329  29.986  33.467  1.00  0.00     0.188 C 
ENDROOT
BRANCH   1   2
ATOM      2  O   UNL A   1      39.293  30.824  32.987  1.00  0.00    -0.376 OA
BRANCH   2   3
ATOM      3  C   UNL A   1      39.529  31.830  32.015  1.00  0.00     0.202 C 
BRANCH   3   4
ATOM      4  C   UNL A   1      38.401  32.523  31.236  1.00  0.00     0.261 C 
BRANCH   4   5
ATOM      5  O   UNL A   1      38.009  31.937  29.986  1.00  0.00    -0.463 OA
BRANCH   5   6
ATOM      6  C   UNL A   1      37.475  32.756  29.051  1.00  0.00     0.310 C 
ATOM      7  O   UNL A   1      37.925  33.859  28.753  1.00  0.00    -0.252 OA
BRANCH   6   8
ATOM      8  C   UNL A   1      36.186  32.221  28.434  1.00  0.00     0.115 C 
ATOM      9  C   UNL A   1      35.816  30.762  28.742  1.00  0.00     0.022 C 
BRANCH   8  10
ATOM     10  C   UNL A   1      35.034  33.145  28.834  1.00  0.00     0.132 C 
BRANCH  10  11
ATOM     11  N   UNL A   1      34.470  32.731  30.097  1.00  0.00    -0.337 N 
ATOM     12  C   UNL A   1      34.622  33.112  31.374  1.00  0.00     0.317 C 
ATOM     13  H   UNL A   1      33.821  31.997  29.998  1.00  0.00     0.165 HD
ATOM     14  O   UNL A   1      34.340  32.236  32.198  1.00  0.00    -0.249 OA
BRANCH  12  15
ATOM     15  N   UNL A   1      34.984  34.367  31.758  1.00  0.00    -0.325 N 
ATOM     16  C   UNL A   1      36.217  34.854  32.361  1.00  0.00     0.148 C 
BRANCH  15  17
ATOM     17  C   UNL A   1      34.046  35.436  31.383  1.00  0.00     0.155 C 
BRANCH  17  18
ATOM     18  C   UNL A   1      33.464  36.220  32.600  1.00  0.00     0.077 C 
ATOM     19  C   UNL A   1      33.950  37.672  32.680  1.00  0.00     0.043 C 
ATOM     20  C   UNL A   1      31.936  36.210  32.509  1.00  0.00     0.043 C 
BRANCH  18  21
ATOM     21  O   UNL A   1      33.805  35.540  33.821  1.00  0.00    -0.389 OA
ATOM     22  H   UNL A   1      33.134  34.865  34.014  1.00  0.00     0.211 HD
ENDBRANCH  18  21
ENDBRANCH  17  18
ENDBRANCH  15  17
ENDBRANCH  12  15
ENDBRANCH  10  11
ENDBRANCH   8  10
ENDBRANCH   6   8
ENDBRANCH   5   6
ENDBRANCH   4   5
ENDBRANCH   3   4
ENDBRANCH   2   3
ENDBRANCH   1   2
BRANCH   1  23
ATOM     23  C   UNL A   1      40.576  28.588  32.879  1.00  0.00     0.188 C 
BRANCH  23  24
ATOM     24  O   UNL A   1      39.803  28.234  31.752  1.00  0.00    -0.377 OA
BRANCH  24  25
ATOM     25  C   UNL A   1      40.470  27.912  30.537  1.00  0.00     0.188 C 
BRANCH  25  26
ATOM     26  C   UNL A   1      40.103  28.679  29.254  1.00  0.00     0.188 C 
BRANCH  26  27
ATOM     27  O   UNL A   1      39.682  27.855  28.175  1.00  0.00    -0.376 OA
BRANCH  27  28
ATOM     28  C   UNL A   1      40.020  26.477  28.189  1.00  0.00     0.202 C 
BRANCH  28  29
ATOM     29  C   UNL A   1      39.756  25.645  26.922  1.00  0.00     0.261 C 
BRANCH  29  30
ATOM     30  O   UNL A   1      40.780  24.716  26.531  1.00  0.00    -0.460 OA
BRANCH  30  31
ATOM     31  C   UNL A   1      41.642  24.281  27.479  1.00  0.00     0.338 C 
ATOM     32  O   UNL A   1      41.510  23.313  28.194  1.00  0.00    -0.246 OA
BRANCH  31  33
ATOM     33  C   UNL A   1      42.882  25.083  27.352  1.00  0.00     0.060 A 
ATOM     34  C   UNL A   1      43.553  25.478  28.516  1.00  0.00     0.016 A 
ATOM     35  C   UNL A   1      43.379  25.437  26.096  1.00  0.00     0.016 A 
ATOM     36  C   UNL A   1      44.711  26.253  28.428  1.00  0.00     0.010 A 
ATOM     37  C   UNL A   1      44.524  26.235  26.010  1.00  0.00     0.010 A 
ATOM     38  C   UNL A   1      45.180  26.670  27.175  1.00  0.00    -0.014 A 
BRANCH  38  39
ATOM     39  C   UNL A   1      46.245  27.702  27.093  1.00  0.00     0.031 A 
ATOM     40  C   UNL A   1      45.835  29.148  27.017  1.00  0.00     0.074 A 
ATOM     41  C   UNL A   1      47.548  27.366  27.111  1.00  0.00     0.049 A 
ATOM     42  N   UNL A   1      46.574  30.216  26.870  1.00  0.00    -0.248 NA
ATOM     43  C   UNL A   1      44.393  29.424  27.120  1.00  0.00     0.031 C 
ATOM     44  C   UNL A   1      48.068  26.006  27.243  1.00  0.00     0.029 A 
ATOM     45  N   UNL A   1      48.675  28.147  27.011  1.00  0.00    -0.354 N 
ATOM     46  C   UNL A   1      45.689  31.291  26.854  1.00  0.00     0.074 A 
ATOM     47  C   UNL A   1      44.356  30.740  26.978  1.00  0.00     0.031 C 
ATOM     48  C   UNL A   1      49.411  26.047  27.201  1.00  0.00     0.029 A 
ATOM     49  C   UNL A   1      49.848  27.427  26.991  1.00  0.00     0.049 A 
ATOM     50  H   UNL A   1      48.645  29.130  26.957  1.00  0.00     0.167 HD
ATOM     51  C   UNL A   1      45.966  32.613  26.748  1.00  0.00     0.034 A 
ATOM     52  C   UNL A   1      51.119  27.832  26.789  1.00  0.00     0.034 A 
ATOM     53  C   UNL A   1      47.301  33.144  26.616  1.00  0.00     0.049 A 
ATOM     54  C   UNL A   1      51.391  29.305  26.569  1.00  0.00     0.074 A 
ATOM     55  C   UNL A   1      47.693  34.467  26.519  1.00  0.00     0.029 A 
ATOM     56  N   UNL A   1      48.459  32.382  26.546  1.00  0.00    -0.354 N 
ATOM     57  N   UNL A   1      50.546  30.313  26.566  1.00  0.00    -0.248 NA
ATOM     58  C   UNL A   1      52.786  29.696  26.330  1.00  0.00     0.031 C 
ATOM     59  C   UNL A   1      49.073  34.501  26.303  1.00  0.00     0.029 A 
ATOM     60  C   UNL A   1      49.559  33.205  26.362  1.00  0.00     0.049 A 
ATOM     61  H   UNL A   1      48.494  31.400  26.616  1.00  0.00     0.167 HD
ATOM     62  C   UNL A   1      51.318  31.456  26.361  1.00  0.00     0.074 A 
ATOM     63  C   UNL A   1      52.694  31.016  26.266  1.00  0.00     0.031 C 
ATOM     64  C   UNL A   1      50.928  32.753  26.263  1.00  0.00     0.034 A 
BRANCH  51  65
ATOM     65  C   UNL A   1      44.802  33.573  26.710  1.00  0.00     0.023 A 
ATOM     66  C   UNL A   1      44.305  34.189  27.871  1.00  0.00     0.031 A 
ATOM     67  C   UNL A   1      44.185  33.881  25.484  1.00  0.00     0.131 A 
ATOM     68  C   UNL A   1      43.193  35.041  27.788  1.00  0.00     0.055 A 
ATOM     69  C   UNL A   1      43.129  34.788  25.398  1.00  0.00     0.041 A 
ATOM     70  F   UNL A   1      44.600  33.301  24.346  1.00  0.00    -0.206 F 
ATOM     71  C   UNL A   1      42.620  35.367  26.556  1.00  0.00     0.022 A 
BRANCH  68  72
ATOM     72  S   UNL A   1      42.427  35.625  29.325  1.00  0.00     0.124 S 
ATOM     73  O   UNL A   1      41.006  35.463  29.026  1.00  0.00    -0.237 OA
ATOM     74  O   UNL A   1      42.979  34.712  30.320  1.00  0.00    -0.237 OA
ATOM     75  O   UNL A   1      42.880  37.011  29.429  1.00  0.00    -0.744 OA
ENDBRANCH  68  72
ENDBRANCH  51  65
BRANCH  52  76
ATOM     76  C   UNL A   1      52.237  26.843  26.720  1.00  0.00     0.023 A 
ATOM     77  C   UNL A   1      53.092  26.632  27.814  1.00  0.00     0.031 A 
ATOM     78  C   UNL A   1      52.526  26.164  25.523  1.00  0.00     0.131 A 
ATOM     79  C   UNL A   1      54.228  25.817  27.670  1.00  0.00     0.055 A 
ATOM     80  C   UNL A   1      53.615  25.298  25.406  1.00  0.00     0.041 A 
ATOM     81  F   UNL A   1      51.753  26.338  24.438  1.00  0.00    -0.206 F 
ATOM     82  C   UNL A   1      54.485  25.135  26.479  1.00  0.00     0.022 A 
BRANCH  79  83
ATOM     83  S   UNL A   1      55.437  25.765  29.021  1.00  0.00     0.124 S 
ATOM     84  O   UNL A   1      54.578  25.900  30.192  1.00  0.00    -0.237 OA
ATOM     85  O   UNL A   1      56.054  24.457  28.826  1.00  0.00    -0.237 OA
ATOM     86  O   UNL A   1      56.305  26.908  28.746  1.00  0.00    -0.744 OA
ENDBRANCH  79  83
ENDBRANCH  52  76
BRANCH  64  87
ATOM     87  C   UNL A   1      52.012  33.794  26.096  1.00  0.00     0.023 A 
ATOM     88  C   UNL A   1      52.442  34.224  24.829  1.00  0.00     0.031 A 
ATOM     89  C   UNL A   1      52.628  34.359  27.228  1.00  0.00     0.131 A 
ATOM     90  C   UNL A   1      53.499  35.141  24.723  1.00  0.00     0.055 A 
ATOM     91  C   UNL A   1      53.629  35.325  27.117  1.00  0.00     0.041 A 
ATOM     92  F   UNL A   1      52.262  33.985  28.465  1.00  0.00    -0.206 F 
ATOM     93  C   UNL A   1      54.080  35.711  25.858  1.00  0.00     0.022 A 
BRANCH  90  94
ATOM     94  S   UNL A   1      54.176  35.503  23.079  1.00  0.00     0.124 S 
ATOM     95  O   UNL A   1      53.933  36.937  22.961  1.00  0.00    -0.237 OA
ATOM     96  O   UNL A   1      55.573  35.103  23.221  1.00  0.00    -0.237 OA
ATOM     97  O   UNL A   1      53.379  34.664  22.187  1.00  0.00    -0.744 OA
ENDBRANCH  90  94
ENDBRANCH  64  87
ENDBRANCH  38  39
ENDBRANCH  31  33
ENDBRANCH  30  31
ENDBRANCH  29  30
ENDBRANCH  28  29
ENDBRANCH  27  28
ENDBRANCH  26  27
ENDBRANCH  25  26
ENDBRANCH  24  25
ENDBRANCH  23  24
ENDBRANCH   1  23
TORSDOF 29
ENDMDL
MODEL 3
REMARK VINA RESULT:      -6.3      6.481     11.684
REMARK SMILES C[C@@H](CNC(=O)N(C)CC(C)(C)O)C(=O)OCCOCCOCCOCCOC(=O)c1ccc(-c2c3nc(c(-c4cc(S(=O)(=O)[O-])ccc4F)c4ccc([nH]4)c(-c4cc(S(=O)(=O)[O-])ccc4F)c4nc(c(-c5cc(S(=O)(=O)[O-])ccc5F)c5ccc2[nH]5)C=C4)C=C3)cc1
REMARK SMILES IDX 20 1 19 2 18 3 17 4 16 5 14 6 15 7 2 8 1 9 3 10 4 11 5 12
REMARK SMILES IDX 6 14 7 15 8 16 9 17 10 18 11 19 12 20 13 21 21 23 22 24
REMARK SMILES IDX 23 25 24 26 25 27 26 28 27 29 28 30 29 31 30 32 31 33 32 34
REMARK SMILES IDX 93 35 33 36 92 37 34 38 35 39 36 40 86 41 37 42 91 43 85 44
REMARK SMILES IDX 87 45 38 46 90 47 84 48 83 49 39 51 71 52 51 53 70 54 52 55
REMARK SMILES IDX 55 56 69 57 88 58 53 59 54 60 68 62 89 63 56 64 40 65 41 66
REMARK SMILES IDX 49 67 42 68 48 69 50 70 47 71 43 72 44 73 45 74 46 75 72 76
REMARK SMILES IDX 73 77 81 78 74 79 80 80 82 81 79 82 75 83 76 84 77 85 78 86
REMARK SMILES IDX 57 87 58 88 66 89 59 90 65 91 67 92 64 93 60 94 61 95 62 96
REMARK SMILES IDX 63 97
REMARK H PARENT 4 13 13 22 87 50 55 61
REMARK Flexibility Score: inf
ROOT
ATOM      1  C   UNL A   1      41.064  29.090  33.308  1.00  0.00     0.188 C 
ENDROOT
BRANCH   1   2
ATOM      2  O   UNL A   1      41.843  28.536  32.264  1.00  0.00    -0.376 OA
BRANCH   2   3
ATOM      3  C   UNL A   1      41.257  28.044  31.068  1.00  0.00     0.202 C 
BRANCH   3   4
ATOM      4  C   UNL A   1      41.699  28.499  29.670  1.00  0.00     0.261 C 
BRANCH   4   5
ATOM      5  O   UNL A   1      41.771  27.497  28.645  1.00  0.00    -0.463 OA
BRANCH   5   6
ATOM      6  C   UNL A   1      40.626  27.186  27.993  1.00  0.00     0.310 C 
ATOM      7  O   UNL A   1      39.649  26.658  28.517  1.00  0.00    -0.252 OA
BRANCH   6   8
ATOM      8  C   UNL A   1      40.676  27.477  26.497  1.00  0.00     0.115 C 
ATOM      9  C   UNL A   1      41.517  28.680  26.045  1.00  0.00     0.022 C 
BRANCH   8  10
ATOM     10  C   UNL A   1      41.144  26.215  25.770  1.00  0.00     0.132 C 
BRANCH  10  11
ATOM     11  N   UNL A   1      42.559  26.285  25.494  1.00  0.00    -0.337 N 
ATOM     12  C   UNL A   1      43.626  25.538  25.813  1.00  0.00     0.317 C 
ATOM     13  H   UNL A   1      42.798  27.065  24.942  1.00  0.00     0.165 HD
ATOM     14  O   UNL A   1      44.696  26.155  25.799  1.00  0.00    -0.249 OA
BRANCH  12  15
ATOM     15  N   UNL A   1      43.574  24.201  26.066  1.00  0.00    -0.325 N 
ATOM     16  C   UNL A   1      43.099  23.099  25.241  1.00  0.00     0.148 C 
BRANCH  15  17
ATOM     17  C   UNL A   1      44.225  23.770  27.312  1.00  0.00     0.155 C 
BRANCH  17  18
ATOM     18  C   UNL A   1      43.353  23.987  28.587  1.00  0.00     0.077 C 
ATOM     19  C   UNL A   1      41.871  23.652  28.379  1.00  0.00     0.043 C 
ATOM     20  C   UNL A   1      43.906  23.116  29.717  1.00  0.00     0.043 C 
BRANCH  18  21
ATOM     21  O   UNL A   1      43.472  25.351  29.028  1.00  0.00    -0.389 OA
ATOM     22  H   UNL A   1      42.899  25.917  28.486  1.00  0.00     0.211 HD
ENDBRANCH  18  21
ENDBRANCH  17  18
ENDBRANCH  15  17
ENDBRANCH  12  15
ENDBRANCH  10  11
ENDBRANCH   8  10
ENDBRANCH   6   8
ENDBRANCH   5   6
ENDBRANCH   4   5
ENDBRANCH   3   4
ENDBRANCH   2   3
ENDBRANCH   1   2
BRANCH   1  23
ATOM     23  C   UNL A   1      39.795  29.909  33.023  1.00  0.00     0.188 C 
BRANCH  23  24
ATOM     24  O   UNL A   1      38.583  29.384  33.520  1.00  0.00    -0.377 OA
BRANCH  24  25
ATOM     25  C   UNL A   1      37.811  28.532  32.683  1.00  0.00     0.188 C 
BRANCH  25  26
ATOM     26  C   UNL A   1      37.588  28.926  31.212  1.00  0.00     0.188 C 
BRANCH  26  27
ATOM     27  O   UNL A   1      36.318  29.504  30.942  1.00  0.00    -0.376 OA
BRANCH  27  28
ATOM     28  C   UNL A   1      35.986  30.748  31.541  1.00  0.00     0.202 C 
BRANCH  28  29
ATOM     29  C   UNL A   1      36.639  32.025  30.987  1.00  0.00     0.261 C 
BRANCH  29  30
ATOM     30  O   UNL A   1      37.791  32.521  31.687  1.00  0.00    -0.460 OA
BRANCH  30  31
ATOM     31  C   UNL A   1      37.999  33.859  31.704  1.00  0.00     0.338 C 
ATOM     32  O   UNL A   1      37.257  34.705  32.151  1.00  0.00    -0.246 OA
BRANCH  31  33
ATOM     33  C   UNL A   1      39.393  34.095  31.261  1.00  0.00     0.060 A 
ATOM     34  C   UNL A   1      39.636  34.363  29.908  1.00  0.00     0.016 A 
ATOM     35  C   UNL A   1      40.449  34.058  32.174  1.00  0.00     0.016 A 
ATOM     36  C   UNL A   1      40.942  34.568  29.458  1.00  0.00     0.010 A 
ATOM     37  C   UNL A   1      41.759  34.238  31.717  1.00  0.00     0.010 A 
ATOM     38  C   UNL A   1      42.015  34.465  30.354  1.00  0.00    -0.014 A 
BRANCH  38  39
ATOM     39  C   UNL A   1      43.406  34.420  29.835  1.00  0.00     0.031 A 
ATOM     40  C   UNL A   1      44.031  35.700  29.351  1.00  0.00     0.074 A 
ATOM     41  C   UNL A   1      44.109  33.272  29.817  1.00  0.00     0.049 A 
ATOM     42  N   UNL A   1      45.197  35.899  28.795  1.00  0.00    -0.248 NA
ATOM     43  C   UNL A   1      43.228  36.922  29.517  1.00  0.00     0.031 C 
ATOM     44  C   UNL A   1      43.633  31.982  30.315  1.00  0.00     0.029 A 
ATOM     45  N   UNL A   1      45.375  33.006  29.354  1.00  0.00    -0.354 N 
ATOM     46  C   UNL A   1      45.266  37.264  28.536  1.00  0.00     0.074 A 
ATOM     47  C   UNL A   1      44.011  37.840  28.971  1.00  0.00     0.031 C 
ATOM     48  C   UNL A   1      44.590  31.059  30.117  1.00  0.00     0.029 A 
ATOM     49  C   UNL A   1      45.726  31.677  29.436  1.00  0.00     0.049 A 
ATOM     50  H   UNL A   1      45.974  33.701  28.997  1.00  0.00     0.167 HD
ATOM     51  C   UNL A   1      46.285  37.971  27.989  1.00  0.00     0.034 A 
ATOM     52  C   UNL A   1      46.822  31.033  28.980  1.00  0.00     0.034 A 
ATOM     53  C   UNL A   1      47.526  37.380  27.552  1.00  0.00     0.049 A 
ATOM     54  C   UNL A   1      47.899  31.831  28.278  1.00  0.00     0.074 A 
ATOM     55  C   UNL A   1      48.629  38.008  27.000  1.00  0.00     0.029 A 
ATOM     56  N   UNL A   1      47.825  36.025  27.601  1.00  0.00    -0.354 N 
ATOM     57  N   UNL A   1      47.958  33.124  28.047  1.00  0.00    -0.248 NA
ATOM     58  C   UNL A   1      49.061  31.083  27.778  1.00  0.00     0.031 C 
ATOM     59  C   UNL A   1      49.555  37.027  26.636  1.00  0.00     0.029 A 
ATOM     60  C   UNL A   1      49.075  35.794  27.049  1.00  0.00     0.049 A 
ATOM     61  H   UNL A   1      47.235  35.330  27.974  1.00  0.00     0.167 HD
ATOM     62  C   UNL A   1      49.178  33.343  27.410  1.00  0.00     0.074 A 
ATOM     63  C   UNL A   1      49.831  32.054  27.311  1.00  0.00     0.031 C 
ATOM     64  C   UNL A   1      49.714  34.503  26.951  1.00  0.00     0.034 A 
BRANCH  51  65
ATOM     65  C   UNL A   1      46.077  39.451  27.776  1.00  0.00     0.023 A 
ATOM     66  C   UNL A   1      45.511  39.962  26.596  1.00  0.00     0.031 A 
ATOM     67  C   UNL A   1      46.448  40.364  28.778  1.00  0.00     0.131 A 
ATOM     68  C   UNL A   1      45.378  41.349  26.428  1.00  0.00     0.055 A 
ATOM     69  C   UNL A   1      46.243  41.737  28.638  1.00  0.00     0.041 A 
ATOM     70  F   UNL A   1      47.020  39.935  29.916  1.00  0.00    -0.206 F 
ATOM     71  C   UNL A   1      45.714  42.238  27.453  1.00  0.00     0.022 A 
BRANCH  68  72
ATOM     72  S   UNL A   1      44.873  41.986  24.807  1.00  0.00     0.124 S 
ATOM     73  O   UNL A   1      43.512  41.466  24.697  1.00  0.00    -0.237 OA
ATOM     74  O   UNL A   1      44.992  43.429  24.984  1.00  0.00    -0.237 OA
ATOM     75  O   UNL A   1      45.838  41.387  23.887  1.00  0.00    -0.744 OA
ENDBRANCH  68  72
ENDBRANCH  51  65
BRANCH  52  76
ATOM     76  C   UNL A   1      46.946  29.549  29.106  1.00  0.00     0.023 A 
ATOM     77  C   UNL A   1      47.521  28.960  30.244  1.00  0.00     0.031 A 
ATOM     78  C   UNL A   1      46.578  28.702  28.046  1.00  0.00     0.131 A 
ATOM     79  C   UNL A   1      47.770  27.577  30.268  1.00  0.00     0.055 A 
ATOM     80  C   UNL A   1      46.761  27.319  28.104  1.00  0.00     0.041 A 
ATOM     81  F   UNL A   1      46.037  29.209  26.925  1.00  0.00    -0.206 F 
ATOM     82  C   UNL A   1      47.378  26.751  29.214  1.00  0.00     0.022 A 
BRANCH  79  83
ATOM     83  S   UNL A   1      48.735  26.892  31.644  1.00  0.00     0.124 S 
ATOM     84  O   UNL A   1      48.018  25.652  31.919  1.00  0.00    -0.237 OA
ATOM     85  O   UNL A   1      50.057  26.749  31.045  1.00  0.00    -0.237 OA
ATOM     86  O   UNL A   1      48.629  27.919  32.678  1.00  0.00    -0.744 OA
ENDBRANCH  79  83
ENDBRANCH  52  76
BRANCH  64  87
ATOM     87  C   UNL A   1      51.099  34.436  26.347  1.00  0.00     0.023 A 
ATOM     88  C   UNL A   1      51.327  33.909  25.064  1.00  0.00     0.031 A 
ATOM     89  C   UNL A   1      52.209  34.904  27.075  1.00  0.00     0.131 A 
ATOM     90  C   UNL A   1      52.638  33.806  24.574  1.00  0.00     0.055 A 
ATOM     91  C   UNL A   1      53.502  34.865  26.552  1.00  0.00     0.041 A 
ATOM     92  F   UNL A   1      52.054  35.414  28.307  1.00  0.00    -0.206 F 
ATOM     93  C   UNL A   1      53.724  34.300  25.300  1.00  0.00     0.022 A 
BRANCH  90  94
ATOM     94  S   UNL A   1      52.917  32.919  23.015  1.00  0.00     0.124 S 
ATOM     95  O   UNL A   1      52.866  34.002  22.038  1.00  0.00    -0.237 OA
ATOM     96  O   UNL A   1      54.229  32.315  23.229  1.00  0.00    -0.237 OA
ATOM     97  O   UNL A   1      51.803  31.975  22.953  1.00  0.00    -0.744 OA
ENDBRANCH  90  94
ENDBRANCH  64  87
ENDBRANCH  38  39
ENDBRANCH  31  33
ENDBRANCH  30  31
ENDBRANCH  29  30
ENDBRANCH  28  29
ENDBRANCH  27  28
ENDBRANCH  26  27
ENDBRANCH  25  26
ENDBRANCH  24  25
ENDBRANCH  23  24
ENDBRANCH   1  23
TORSDOF 29
ENDMDL
