MODEL 1
REMARK VINA RESULT:      -9.1      0.000      0.000
REMARK SMILES O=C(Cn1c(=O)n(Cc2cccnc2)c(=O)c2sccc21)OCCOCCOCCOCCOC(=O)c1ccc(-c2c3nc(c(-c4cc(S(=O)(=O)[O-])ccc4F)c4ccc([nH]4)c(-c4cc(S(=O)(=O)[O-])ccc4F)c4nc(c(-c5cc(S(=O)(=O)[O-])ccc5F)c5ccc2[nH]5)C=C4)C=C3)cc1
REMARK SMILES IDX 28 1 27 2 26 3 25 4 24 5 23 6 22 7 2 8 1 9 3 10 4 11 5 12
REMARK SMILES IDX 21 13 6 14 7 15 17 16 20 17 15 18 18 19 19 20 16 21 8 22
REMARK SMILES IDX 9 23 10 24 14 25 11 26 13 27 12 28 29 29 30 30 31 31 32 32
REMARK SMILES IDX 33 33 34 34 35 35 36 36 37 37 38 38 99 39 39 40 98 41 40 42
REMARK SMILES IDX 41 43 42 44 92 45 43 46 97 47 91 48 93 49 44 50 96 51 90 52
REMARK SMILES IDX 89 53 45 55 77 56 57 57 76 58 58 59 61 60 75 61 94 62 59 63
REMARK SMILES IDX 60 64 74 66 95 67 62 68 46 69 47 70 55 71 48 72 54 73 56 74
REMARK SMILES IDX 53 75 49 76 50 77 51 78 52 79 78 80 79 81 87 82 80 83 86 84
REMARK SMILES IDX 88 85 85 86 81 87 82 88 83 89 84 90 63 91 64 92 72 93 65 94
REMARK SMILES IDX 71 95 73 96 70 97 66 98 67 99 68 100 69 101
REMARK H PARENT 93 54 61 65
REMARK Flexibility Score: inf
ROOT
ATOM      1  O   UNL A   1      39.279  20.446  26.258  1.00  0.00    -0.377 OA
ENDROOT
BRANCH   1   2
ATOM      2  C   UNL A   1      38.925  21.771  25.908  1.00  0.00     0.188 C 
BRANCH   2   3
ATOM      3  C   UNL A   1      37.617  21.829  25.124  1.00  0.00     0.188 C 
BRANCH   3   4
ATOM      4  O   UNL A   1      36.782  20.689  25.202  1.00  0.00    -0.376 OA
BRANCH   4   5
ATOM      5  C   UNL A   1      35.375  20.850  25.365  1.00  0.00     0.202 C 
BRANCH   5   6
ATOM      6  C   UNL A   1      34.847  21.659  26.562  1.00  0.00     0.261 C 
BRANCH   6   7
ATOM      7  O   UNL A   1      33.447  21.577  26.814  1.00  0.00    -0.462 OA
BRANCH   7   8
ATOM      8  C   UNL A   1      32.700  22.697  26.852  1.00  0.00     0.326 C 
ATOM      9  O   UNL A   1      31.486  22.618  27.028  1.00  0.00    -0.250 OA
BRANCH   8  10
ATOM     10  C   UNL A   1      33.381  24.012  26.521  1.00  0.00     0.250 C 
BRANCH  10  11
ATOM     11  N   UNL A   1      33.283  24.582  25.179  1.00  0.00    -0.281 N 
ATOM     12  C   UNL A   1      33.346  25.983  25.186  1.00  0.00     0.332 A 
ATOM     13  C   UNL A   1      33.120  23.901  23.942  1.00  0.00     0.070 A 
ATOM     14  O   UNL A   1      33.297  26.638  26.232  1.00  0.00    -0.247 OA
ATOM     15  N   UNL A   1      33.464  26.629  23.969  1.00  0.00    -0.254 N 
ATOM     16  C   UNL A   1      33.166  24.626  22.775  1.00  0.00     0.116 A 
ATOM     17  C   UNL A   1      32.819  22.549  23.582  1.00  0.00     0.039 A 
ATOM     18  C   UNL A   1      33.274  26.048  22.726  1.00  0.00     0.274 A 
ATOM     19  S   UNL A   1      33.142  23.708  21.346  1.00  0.00    -0.136 S 
ATOM     20  C   UNL A   1      32.867  22.287  22.226  1.00  0.00     0.068 A 
ATOM     21  O   UNL A   1      33.211  26.708  21.690  1.00  0.00    -0.268 OA
BRANCH  15  22
ATOM     22  C   UNL A   1      33.912  28.003  24.007  1.00  0.00     0.168 C 
BRANCH  22  23
ATOM     23  C   UNL A   1      32.750  28.872  24.427  1.00  0.00    -0.010 A 
ATOM     24  C   UNL A   1      32.852  29.776  25.487  1.00  0.00     0.009 A 
ATOM     25  C   UNL A   1      31.574  28.890  23.680  1.00  0.00     0.116 A 
ATOM     26  C   UNL A   1      31.789  30.628  25.765  1.00  0.00     0.020 A 
ATOM     27  N   UNL A   1      30.531  29.712  23.923  1.00  0.00    -0.264 NA
ATOM     28  C   UNL A   1      30.664  30.562  24.960  1.00  0.00     0.111 A 
ENDBRANCH  22  23
ENDBRANCH  15  22
ENDBRANCH  10  11
ENDBRANCH   8  10
ENDBRANCH   7   8
ENDBRANCH   6   7
ENDBRANCH   5   6
ENDBRANCH   4   5
ENDBRANCH   3   4
ENDBRANCH   2   3
ENDBRANCH   1   2
BRANCH   1  29
ATOM     29  C   UNL A   1      40.520  19.956  25.767  1.00  0.00     0.188 C 
BRANCH  29  30
ATOM     30  C   UNL A   1      41.680  19.577  26.736  1.00  0.00     0.188 C 
BRANCH  30  31
ATOM     31  O   UNL A   1      42.042  20.510  27.729  1.00  0.00    -0.376 OA
BRANCH  31  32
ATOM     32  C   UNL A   1      42.600  21.800  27.571  1.00  0.00     0.202 C 
BRANCH  32  33
ATOM     33  C   UNL A   1      42.837  22.513  26.246  1.00  0.00     0.261 C 
BRANCH  33  34
ATOM     34  O   UNL A   1      43.474  23.752  26.372  1.00  0.00    -0.460 OA
BRANCH  34  35
ATOM     35  C   UNL A   1      42.734  24.785  25.937  1.00  0.00     0.338 C 
ATOM     36  O   UNL A   1      42.576  25.148  24.780  1.00  0.00    -0.246 OA
BRANCH  35  37
ATOM     37  C   UNL A   1      42.119  25.387  27.113  1.00  0.00     0.060 A 
ATOM     38  C   UNL A   1      40.873  25.979  26.940  1.00  0.00     0.016 A 
ATOM     39  C   UNL A   1      42.909  25.573  28.262  1.00  0.00     0.016 A 
ATOM     40  C   UNL A   1      40.593  27.053  27.737  1.00  0.00     0.010 A 
ATOM     41  C   UNL A   1      42.634  26.641  29.051  1.00  0.00     0.010 A 
ATOM     42  C   UNL A   1      41.565  27.436  28.665  1.00  0.00    -0.014 A 
BRANCH  42  43
ATOM     43  C   UNL A   1      41.492  28.753  29.222  1.00  0.00     0.031 A 
ATOM     44  C   UNL A   1      42.523  29.629  28.665  1.00  0.00     0.074 A 
ATOM     45  C   UNL A   1      40.511  29.092  30.076  1.00  0.00     0.049 A 
ATOM     46  N   UNL A   1      43.658  29.910  29.207  1.00  0.00    -0.248 NA
ATOM     47  C   UNL A   1      42.417  29.997  27.245  1.00  0.00     0.031 C 
ATOM     48  C   UNL A   1      39.313  28.343  30.464  1.00  0.00     0.029 A 
ATOM     49  N   UNL A   1      40.354  30.266  30.725  1.00  0.00    -0.354 N 
ATOM     50  C   UNL A   1      44.279  30.739  28.292  1.00  0.00     0.074 A 
ATOM     51  C   UNL A   1      43.630  30.506  27.031  1.00  0.00     0.031 C 
ATOM     52  C   UNL A   1      38.453  29.179  31.096  1.00  0.00     0.029 A 
ATOM     53  C   UNL A   1      39.094  30.473  31.267  1.00  0.00     0.049 A 
ATOM     54  H   UNL A   1      41.080  30.925  30.808  1.00  0.00     0.167 HD
ATOM     55  C   UNL A   1      45.034  31.785  28.712  1.00  0.00     0.034 A 
ATOM     56  C   UNL A   1      38.628  31.664  31.734  1.00  0.00     0.034 A 
ATOM     57  C   UNL A   1      45.363  31.667  30.113  1.00  0.00     0.049 A 
ATOM     58  C   UNL A   1      39.837  32.478  32.059  1.00  0.00     0.074 A 
ATOM     59  C   UNL A   1      46.033  30.723  30.868  1.00  0.00     0.029 A 
ATOM     60  N   UNL A   1      44.610  32.395  31.009  1.00  0.00    -0.354 N 
ATOM     61  N   UNL A   1      40.690  32.145  32.992  1.00  0.00    -0.248 NA
ATOM     62  C   UNL A   1      40.372  33.348  31.020  1.00  0.00     0.031 C 
ATOM     63  C   UNL A   1      45.297  30.626  32.086  1.00  0.00     0.029 A 
ATOM     64  C   UNL A   1      44.263  31.564  32.049  1.00  0.00     0.049 A 
ATOM     65  H   UNL A   1      44.362  33.344  30.921  1.00  0.00     0.167 HD
ATOM     66  C   UNL A   1      41.943  32.402  32.450  1.00  0.00     0.074 A 
ATOM     67  C   UNL A   1      41.680  33.221  31.266  1.00  0.00     0.031 C 
ATOM     68  C   UNL A   1      43.042  31.684  32.830  1.00  0.00     0.034 A 
BRANCH  55  69
ATOM     69  C   UNL A   1      45.145  33.074  27.949  1.00  0.00     0.023 A 
ATOM     70  C   UNL A   1      46.391  33.385  27.388  1.00  0.00     0.031 A 
ATOM     71  C   UNL A   1      44.181  34.112  27.946  1.00  0.00     0.131 A 
ATOM     72  C   UNL A   1      46.649  34.675  26.899  1.00  0.00     0.055 A 
ATOM     73  C   UNL A   1      44.418  35.369  27.393  1.00  0.00     0.041 A 
ATOM     74  F   UNL A   1      42.997  34.006  28.562  1.00  0.00    -0.206 F 
ATOM     75  C   UNL A   1      45.669  35.666  26.886  1.00  0.00     0.022 A 
BRANCH  72  76
ATOM     76  S   UNL A   1      48.340  35.076  26.402  1.00  0.00     0.124 S 
ATOM     77  O   UNL A   1      48.523  34.204  25.247  1.00  0.00    -0.237 OA
ATOM     78  O   UNL A   1      48.239  36.504  26.123  1.00  0.00    -0.237 OA
ATOM     79  O   UNL A   1      49.129  34.726  27.580  1.00  0.00    -0.744 OA
ENDBRANCH  72  76
ENDBRANCH  55  69
BRANCH  56  80
ATOM     80  C   UNL A   1      37.271  32.252  31.524  1.00  0.00     0.023 A 
ATOM     81  C   UNL A   1      36.705  32.379  30.236  1.00  0.00     0.031 A 
ATOM     82  C   UNL A   1      36.397  32.462  32.615  1.00  0.00     0.131 A 
ATOM     83  C   UNL A   1      35.331  32.684  30.081  1.00  0.00     0.055 A 
ATOM     84  C   UNL A   1      35.042  32.768  32.456  1.00  0.00     0.041 A 
ATOM     85  F   UNL A   1      36.801  32.289  33.882  1.00  0.00    -0.206 F 
ATOM     86  C   UNL A   1      34.500  32.867  31.187  1.00  0.00     0.022 A 
BRANCH  83  87
ATOM     87  S   UNL A   1      34.571  32.726  28.425  1.00  0.00     0.124 S 
ATOM     88  O   UNL A   1      34.188  31.333  28.231  1.00  0.00    -0.237 OA
ATOM     89  O   UNL A   1      33.481  33.680  28.600  1.00  0.00    -0.237 OA
ATOM     90  O   UNL A   1      35.660  33.192  27.565  1.00  0.00    -0.744 OA
ENDBRANCH  83  87
ENDBRANCH  56  80
BRANCH  68  91
ATOM     91  C   UNL A   1      42.932  30.793  34.054  1.00  0.00     0.023 A 
ATOM     92  C   UNL A   1      42.453  29.461  34.054  1.00  0.00     0.031 A 
ATOM     93  C   UNL A   1      43.493  31.284  35.246  1.00  0.00     0.131 A 
ATOM     94  C   UNL A   1      42.550  28.678  35.225  1.00  0.00     0.055 A 
ATOM     95  C   UNL A   1      43.604  30.500  36.394  1.00  0.00     0.041 A 
ATOM     96  F   UNL A   1      43.993  32.529  35.297  1.00  0.00    -0.206 F 
ATOM     97  C   UNL A   1      43.131  29.193  36.388  1.00  0.00     0.022 A 
BRANCH  94  98
ATOM     98  S   UNL A   1      41.948  26.955  35.249  1.00  0.00     0.124 S 
ATOM     99  O   UNL A   1      41.618  26.737  36.653  1.00  0.00    -0.237 OA
ATOM    100  O   UNL A   1      40.819  26.999  34.323  1.00  0.00    -0.237 OA
ATOM    101  O   UNL A   1      43.095  26.183  34.768  1.00  0.00    -0.744 OA
ENDBRANCH  94  98
ENDBRANCH  68  91
ENDBRANCH  42  43
ENDBRANCH  35  37
ENDBRANCH  34  35
ENDBRANCH  33  34
ENDBRANCH  32  33
ENDBRANCH  31  32
ENDBRANCH  30  31
ENDBRANCH  29  30
ENDBRANCH   1  29
TORSDOF 26
ENDMDL
MODEL 2
REMARK VINA RESULT:      -8.7      3.286      7.229
REMARK SMILES O=C(Cn1c(=O)n(Cc2cccnc2)c(=O)c2sccc21)OCCOCCOCCOCCOC(=O)c1ccc(-c2c3nc(c(-c4cc(S(=O)(=O)[O-])ccc4F)c4ccc([nH]4)c(-c4cc(S(=O)(=O)[O-])ccc4F)c4nc(c(-c5cc(S(=O)(=O)[O-])ccc5F)c5ccc2[nH]5)C=C4)C=C3)cc1
REMARK SMILES IDX 28 1 27 2 26 3 25 4 24 5 23 6 22 7 2 8 1 9 3 10 4 11 5 12
REMARK SMILES IDX 21 13 6 14 7 15 17 16 20 17 15 18 18 19 19 20 16 21 8 22
REMARK SMILES IDX 9 23 10 24 14 25 11 26 13 27 12 28 29 29 30 30 31 31 32 32
REMARK SMILES IDX 33 33 34 34 35 35 36 36 37 37 38 38 99 39 39 40 98 41 40 42
REMARK SMILES IDX 41 43 42 44 92 45 43 46 97 47 91 48 93 49 44 50 96 51 90 52
REMARK SMILES IDX 89 53 45 55 77 56 57 57 76 58 58 59 61 60 75 61 94 62 59 63
REMARK SMILES IDX 60 64 74 66 95 67 62 68 46 69 47 70 55 71 48 72 54 73 56 74
REMARK SMILES IDX 53 75 49 76 50 77 51 78 52 79 78 80 79 81 87 82 80 83 86 84
REMARK SMILES IDX 88 85 85 86 81 87 82 88 83 89 84 90 63 91 64 92 72 93 65 94
REMARK SMILES IDX 71 95 73 96 70 97 66 98 67 99 68 100 69 101
REMARK H PARENT 93 54 61 65
REMARK Flexibility Score: inf
ROOT
ATOM      1  O   UNL A   1      40.405  21.427  27.541  1.00  0.00    -0.377 OA
ENDROOT
BRANCH   1   2
ATOM      2  C   UNL A   1      40.001  22.574  26.815  1.00  0.00     0.188 C 
BRANCH   2   3
ATOM      3  C   UNL A   1      38.615  22.405  26.200  1.00  0.00     0.188 C 
BRANCH   3   4
ATOM      4  O   UNL A   1      38.474  21.389  25.224  1.00  0.00    -0.376 OA
BRANCH   4   5
ATOM      5  C   UNL A   1      37.249  20.669  25.122  1.00  0.00     0.202 C 
BRANCH   5   6
ATOM      6  C   UNL A   1      35.975  21.413  24.689  1.00  0.00     0.261 C 
BRANCH   6   7
ATOM      7  O   UNL A   1      34.845  21.288  25.548  1.00  0.00    -0.462 OA
BRANCH   7   8
ATOM      8  C   UNL A   1      34.406  22.353  26.248  1.00  0.00     0.326 C 
ATOM      9  O   UNL A   1      35.186  22.979  26.962  1.00  0.00    -0.250 OA
BRANCH   8  10
ATOM     10  C   UNL A   1      32.917  22.639  26.237  1.00  0.00     0.250 C 
BRANCH  10  11
ATOM     11  N   UNL A   1      32.357  23.629  25.318  1.00  0.00    -0.281 N 
ATOM     12  C   UNL A   1      31.519  24.548  25.967  1.00  0.00     0.332 A 
ATOM     13  C   UNL A   1      32.550  23.735  23.914  1.00  0.00     0.070 A 
ATOM     14  O   UNL A   1      31.162  24.399  27.139  1.00  0.00    -0.247 OA
ATOM     15  N   UNL A   1      31.089  25.646  25.246  1.00  0.00    -0.254 N 
ATOM     16  C   UNL A   1      32.018  24.817  23.253  1.00  0.00     0.116 A 
ATOM     17  C   UNL A   1      33.141  22.889  22.923  1.00  0.00     0.039 A 
ATOM     18  C   UNL A   1      31.195  25.804  23.873  1.00  0.00     0.274 A 
ATOM     19  S   UNL A   1      32.449  24.952  21.615  1.00  0.00    -0.136 S 
ATOM     20  C   UNL A   1      33.219  23.444  21.661  1.00  0.00     0.068 A 
ATOM     21  O   UNL A   1      30.633  26.714  23.266  1.00  0.00    -0.268 OA
BRANCH  15  22
ATOM     22  C   UNL A   1      30.565  26.757  26.010  1.00  0.00     0.168 C 
BRANCH  22  23
ATOM     23  C   UNL A   1      31.654  27.792  26.156  1.00  0.00    -0.010 A 
ATOM     24  C   UNL A   1      31.722  28.912  25.324  1.00  0.00     0.009 A 
ATOM     25  C   UNL A   1      32.554  27.726  27.218  1.00  0.00     0.116 A 
ATOM     26  C   UNL A   1      32.681  29.890  25.569  1.00  0.00     0.020 A 
ATOM     27  N   UNL A   1      33.488  28.664  27.483  1.00  0.00    -0.264 NA
ATOM     28  C   UNL A   1      33.529  29.724  26.652  1.00  0.00     0.111 A 
ENDBRANCH  22  23
ENDBRANCH  15  22
ENDBRANCH  10  11
ENDBRANCH   8  10
ENDBRANCH   7   8
ENDBRANCH   6   7
ENDBRANCH   5   6
ENDBRANCH   4   5
ENDBRANCH   3   4
ENDBRANCH   2   3
ENDBRANCH   1   2
BRANCH   1  29
ATOM     29  C   UNL A   1      41.799  21.157  27.601  1.00  0.00     0.188 C 
BRANCH  29  30
ATOM     30  C   UNL A   1      42.825  22.016  26.802  1.00  0.00     0.188 C 
BRANCH  30  31
ATOM     31  O   UNL A   1      43.011  21.721  25.435  1.00  0.00    -0.376 OA
BRANCH  31  32
ATOM     32  C   UNL A   1      43.595  22.524  24.428  1.00  0.00     0.202 C 
BRANCH  32  33
ATOM     33  C   UNL A   1      44.506  23.723  24.660  1.00  0.00     0.261 C 
BRANCH  33  34
ATOM     34  O   UNL A   1      45.700  23.411  25.318  1.00  0.00    -0.460 OA
BRANCH  34  35
ATOM     35  C   UNL A   1      46.557  24.442  25.395  1.00  0.00     0.338 C 
ATOM     36  O   UNL A   1      47.082  25.041  24.465  1.00  0.00    -0.246 OA
BRANCH  35  37
ATOM     37  C   UNL A   1      46.729  24.744  26.809  1.00  0.00     0.060 A 
ATOM     38  C   UNL A   1      46.006  23.972  27.712  1.00  0.00     0.016 A 
ATOM     39  C   UNL A   1      47.384  25.938  27.166  1.00  0.00     0.016 A 
ATOM     40  C   UNL A   1      45.619  24.589  28.868  1.00  0.00     0.010 A 
ATOM     41  C   UNL A   1      46.998  26.552  28.311  1.00  0.00     0.010 A 
ATOM     42  C   UNL A   1      46.008  25.919  29.049  1.00  0.00    -0.014 A 
BRANCH  42  43
ATOM     43  C   UNL A   1      45.310  26.705  30.021  1.00  0.00     0.031 A 
ATOM     44  C   UNL A   1      44.066  27.250  29.477  1.00  0.00     0.074 A 
ATOM     45  C   UNL A   1      45.760  26.807  31.284  1.00  0.00     0.049 A 
ATOM     46  N   UNL A   1      43.896  28.435  29.003  1.00  0.00    -0.248 NA
ATOM     47  C   UNL A   1      42.985  26.304  29.159  1.00  0.00     0.031 C 
ATOM     48  C   UNL A   1      46.846  26.081  31.947  1.00  0.00     0.029 A 
ATOM     49  N   UNL A   1      45.246  27.557  32.281  1.00  0.00    -0.354 N 
ATOM     50  C   UNL A   1      42.577  28.455  28.592  1.00  0.00     0.074 A 
ATOM     51  C   UNL A   1      42.184  27.082  28.431  1.00  0.00     0.031 C 
ATOM     52  C   UNL A   1      46.749  26.268  33.287  1.00  0.00     0.029 A 
ATOM     53  C   UNL A   1      45.684  27.220  33.555  1.00  0.00     0.049 A 
ATOM     54  H   UNL A   1      44.609  28.290  32.119  1.00  0.00     0.167 HD
ATOM     55  C   UNL A   1      41.823  29.572  28.749  1.00  0.00     0.034 A 
ATOM     56  C   UNL A   1      45.124  27.655  34.716  1.00  0.00     0.034 A 
ATOM     57  C   UNL A   1      42.645  30.727  29.024  1.00  0.00     0.049 A 
ATOM     58  C   UNL A   1      44.394  28.912  34.375  1.00  0.00     0.074 A 
ATOM     59  C   UNL A   1      43.667  31.364  28.345  1.00  0.00     0.029 A 
ATOM     60  N   UNL A   1      42.761  31.130  30.337  1.00  0.00    -0.354 N 
ATOM     61  N   UNL A   1      44.996  29.992  33.953  1.00  0.00    -0.248 NA
ATOM     62  C   UNL A   1      42.991  28.804  33.998  1.00  0.00     0.031 C 
ATOM     63  C   UNL A   1      44.612  31.729  29.349  1.00  0.00     0.029 A 
ATOM     64  C   UNL A   1      44.091  31.370  30.594  1.00  0.00     0.049 A 
ATOM     65  H   UNL A   1      42.022  31.229  30.979  1.00  0.00     0.167 HD
ATOM     66  C   UNL A   1      44.195  30.480  32.927  1.00  0.00     0.074 A 
ATOM     67  C   UNL A   1      42.932  29.753  33.058  1.00  0.00     0.031 C 
ATOM     68  C   UNL A   1      44.726  31.196  31.891  1.00  0.00     0.034 A 
BRANCH  55  69
ATOM     69  C   UNL A   1      40.347  29.533  29.021  1.00  0.00     0.023 A 
ATOM     70  C   UNL A   1      39.939  29.463  30.360  1.00  0.00     0.031 A 
ATOM     71  C   UNL A   1      39.338  29.319  28.049  1.00  0.00     0.131 A 
ATOM     72  C   UNL A   1      38.610  29.154  30.685  1.00  0.00     0.055 A 
ATOM     73  C   UNL A   1      38.004  29.085  28.377  1.00  0.00     0.041 A 
ATOM     74  F   UNL A   1      39.599  29.225  26.740  1.00  0.00    -0.206 F 
ATOM     75  C   UNL A   1      37.636  28.977  29.704  1.00  0.00     0.022 A 
BRANCH  72  76
ATOM     76  S   UNL A   1      38.203  28.854  32.420  1.00  0.00     0.124 S 
ATOM     77  O   UNL A   1      36.766  29.102  32.434  1.00  0.00    -0.237 OA
ATOM     78  O   UNL A   1      38.620  27.466  32.590  1.00  0.00    -0.237 OA
ATOM     79  O   UNL A   1      39.014  29.839  33.131  1.00  0.00    -0.744 OA
ENDBRANCH  72  76
ENDBRANCH  55  69
BRANCH  56  80
ATOM     80  C   UNL A   1      44.852  26.854  35.948  1.00  0.00     0.023 A 
ATOM     81  C   UNL A   1      45.378  27.223  37.207  1.00  0.00     0.031 A 
ATOM     82  C   UNL A   1      43.853  25.854  35.957  1.00  0.00     0.131 A 
ATOM     83  C   UNL A   1      44.898  26.618  38.393  1.00  0.00     0.055 A 
ATOM     84  C   UNL A   1      43.386  25.256  37.131  1.00  0.00     0.041 A 
ATOM     85  F   UNL A   1      43.224  25.482  34.832  1.00  0.00    -0.206 F 
ATOM     86  C   UNL A   1      43.897  25.645  38.356  1.00  0.00     0.022 A 
BRANCH  83  87
ATOM     87  S   UNL A   1      45.483  27.179  40.025  1.00  0.00     0.124 S 
ATOM     88  O   UNL A   1      44.350  26.856  40.883  1.00  0.00    -0.237 OA
ATOM     89  O   UNL A   1      46.692  26.384  40.219  1.00  0.00    -0.237 OA
ATOM     90  O   UNL A   1      45.719  28.610  39.826  1.00  0.00    -0.744 OA
ENDBRANCH  83  87
ENDBRANCH  56  80
BRANCH  68  91
ATOM     91  C   UNL A   1      46.154  31.694  32.016  1.00  0.00     0.023 A 
ATOM     92  C   UNL A   1      46.558  32.842  32.738  1.00  0.00     0.031 A 
ATOM     93  C   UNL A   1      47.162  30.861  31.499  1.00  0.00     0.131 A 
ATOM     94  C   UNL A   1      47.933  33.115  32.917  1.00  0.00     0.055 A 
ATOM     95  C   UNL A   1      48.517  31.124  31.695  1.00  0.00     0.041 A 
ATOM     96  F   UNL A   1      46.839  29.741  30.833  1.00  0.00    -0.206 F 
ATOM     97  C   UNL A   1      48.908  32.253  32.404  1.00  0.00     0.022 A 
BRANCH  94  98
ATOM     98  S   UNL A   1      48.480  34.584  33.851  1.00  0.00     0.124 S 
ATOM     99  O   UNL A   1      49.676  35.009  33.132  1.00  0.00    -0.237 OA
ATOM    100  O   UNL A   1      47.324  35.471  33.756  1.00  0.00    -0.237 OA
ATOM    101  O   UNL A   1      48.733  34.061  35.195  1.00  0.00    -0.744 OA
ENDBRANCH  94  98
ENDBRANCH  68  91
ENDBRANCH  42  43
ENDBRANCH  35  37
ENDBRANCH  34  35
ENDBRANCH  33  34
ENDBRANCH  32  33
ENDBRANCH  31  32
ENDBRANCH  30  31
ENDBRANCH  29  30
ENDBRANCH   1  29
TORSDOF 26
ENDMDL
MODEL 3
REMARK VINA RESULT:      -8.7      2.761      7.015
REMARK SMILES O=C(Cn1c(=O)n(Cc2cccnc2)c(=O)c2sccc21)OCCOCCOCCOCCOC(=O)c1ccc(-c2c3nc(c(-c4cc(S(=O)(=O)[O-])ccc4F)c4ccc([nH]4)c(-c4cc(S(=O)(=O)[O-])ccc4F)c4nc(c(-c5cc(S(=O)(=O)[O-])ccc5F)c5ccc2[nH]5)C=C4)C=C3)cc1
REMARK SMILES IDX 28 1 27 2 26 3 25 4 24 5 23 6 22 7 2 8 1 9 3 10 4 11 5 12
REMARK SMILES IDX 21 13 6 14 7 15 17 16 20 17 15 18 18 19 19 20 16 21 8 22
REMARK SMILES IDX 9 23 10 24 14 25 11 26 13 27 12 28 29 29 30 30 31 31 32 32
REMARK SMILES IDX 33 33 34 34 35 35 36 36 37 37 38 38 99 39 39 40 98 41 40 42
REMARK SMILES IDX 41 43 42 44 92 45 43 46 97 47 91 48 93 49 44 50 96 51 90 52
REMARK SMILES IDX 89 53 45 55 77 56 57 57 76 58 58 59 61 60 75 61 94 62 59 63
REMARK SMILES IDX 60 64 74 66 95 67 62 68 46 69 47 70 55 71 48 72 54 73 56 74
REMARK SMILES IDX 53 75 49 76 50 77 51 78 52 79 78 80 79 81 87 82 80 83 86 84
REMARK SMILES IDX 88 85 85 86 81 87 82 88 83 89 84 90 63 91 64 92 72 93 65 94
REMARK SMILES IDX 71 95 73 96 70 97 66 98 67 99 68 100 69 101
REMARK H PARENT 93 54 61 65
REMARK Flexibility Score: inf
ROOT
ATOM      1  O   UNL A   1      40.194  22.300  25.958  1.00  0.00    -0.377 OA
ENDROOT
BRANCH   1   2
ATOM      2  C   UNL A   1      39.243  21.252  25.924  1.00  0.00     0.188 C 
BRANCH   2   3
ATOM      3  C   UNL A   1      37.971  21.655  25.184  1.00  0.00     0.188 C 
BRANCH   3   4
ATOM      4  O   UNL A   1      36.907  22.150  25.977  1.00  0.00    -0.376 OA
BRANCH   4   5
ATOM      5  C   UNL A   1      35.559  21.923  25.576  1.00  0.00     0.202 C 
BRANCH   5   6
ATOM      6  C   UNL A   1      34.423  22.640  26.324  1.00  0.00     0.261 C 
BRANCH   6   7
ATOM      7  O   UNL A   1      33.147  22.005  26.298  1.00  0.00    -0.462 OA
BRANCH   7   8
ATOM      8  C   UNL A   1      32.069  22.633  26.807  1.00  0.00     0.326 C 
ATOM      9  O   UNL A   1      31.978  22.808  28.020  1.00  0.00    -0.250 OA
BRANCH   8  10
ATOM     10  C   UNL A   1      30.932  22.963  25.858  1.00  0.00     0.250 C 
BRANCH  10  11
ATOM     11  N   UNL A   1      31.112  23.952  24.797  1.00  0.00    -0.281 N 
ATOM     12  C   UNL A   1      30.475  25.168  25.084  1.00  0.00     0.332 A 
ATOM     13  C   UNL A   1      31.811  23.808  23.568  1.00  0.00     0.070 A 
ATOM     14  O   UNL A   1      29.700  25.296  26.037  1.00  0.00    -0.247 OA
ATOM     15  N   UNL A   1      30.737  26.243  24.255  1.00  0.00    -0.254 N 
ATOM     16  C   UNL A   1      31.957  24.907  22.756  1.00  0.00     0.116 A 
ATOM     17  C   UNL A   1      32.380  22.694  22.871  1.00  0.00     0.039 A 
ATOM     18  C   UNL A   1      31.367  26.178  23.023  1.00  0.00     0.274 A 
ATOM     19  S   UNL A   1      32.956  24.682  21.399  1.00  0.00    -0.136 S 
ATOM     20  C   UNL A   1      33.084  23.025  21.730  1.00  0.00     0.068 A 
ATOM     21  O   UNL A   1      31.408  27.134  22.249  1.00  0.00    -0.268 OA
BRANCH  15  22
ATOM     22  C   UNL A   1      30.398  27.553  24.767  1.00  0.00     0.168 C 
BRANCH  22  23
ATOM     23  C   UNL A   1      31.567  28.067  25.573  1.00  0.00    -0.010 A 
ATOM     24  C   UNL A   1      31.516  28.163  26.966  1.00  0.00     0.009 A 
ATOM     25  C   UNL A   1      32.786  28.340  24.956  1.00  0.00     0.116 A 
ATOM     26  C   UNL A   1      32.655  28.541  27.669  1.00  0.00     0.020 A 
ATOM     27  N   UNL A   1      33.908  28.700  25.614  1.00  0.00    -0.264 NA
ATOM     28  C   UNL A   1      33.816  28.792  26.956  1.00  0.00     0.111 A 
ENDBRANCH  22  23
ENDBRANCH  15  22
ENDBRANCH  10  11
ENDBRANCH   8  10
ENDBRANCH   7   8
ENDBRANCH   6   7
ENDBRANCH   5   6
ENDBRANCH   4   5
ENDBRANCH   3   4
ENDBRANCH   2   3
ENDBRANCH   1   2
BRANCH   1  29
ATOM     29  C   UNL A   1      41.548  21.938  26.199  1.00  0.00     0.188 C 
BRANCH  29  30
ATOM     30  C   UNL A   1      42.584  22.981  26.715  1.00  0.00     0.188 C 
BRANCH  30  31
ATOM     31  O   UNL A   1      42.403  24.330  26.346  1.00  0.00    -0.376 OA
BRANCH  31  32
ATOM     32  C   UNL A   1      42.890  25.008  25.205  1.00  0.00     0.202 C 
BRANCH  32  33
ATOM     33  C   UNL A   1      44.340  25.401  24.952  1.00  0.00     0.261 C 
BRANCH  33  34
ATOM     34  O   UNL A   1      44.645  26.717  25.320  1.00  0.00    -0.460 OA
BRANCH  34  35
ATOM     35  C   UNL A   1      44.924  26.859  26.626  1.00  0.00     0.338 C 
ATOM     36  O   UNL A   1      45.517  26.068  27.347  1.00  0.00    -0.246 OA
BRANCH  35  37
ATOM     37  C   UNL A   1      44.409  28.161  27.028  1.00  0.00     0.060 A 
ATOM     38  C   UNL A   1      45.317  29.054  27.586  1.00  0.00     0.016 A 
ATOM     39  C   UNL A   1      43.015  28.344  27.080  1.00  0.00     0.016 A 
ATOM     40  C   UNL A   1      44.824  29.918  28.523  1.00  0.00     0.010 A 
ATOM     41  C   UNL A   1      42.525  29.199  28.012  1.00  0.00     0.010 A 
ATOM     42  C   UNL A   1      43.458  29.846  28.809  1.00  0.00    -0.014 A 
BRANCH  42  43
ATOM     43  C   UNL A   1      42.987  30.430  30.028  1.00  0.00     0.031 A 
ATOM     44  C   UNL A   1      42.863  29.430  31.089  1.00  0.00     0.074 A 
ATOM     45  C   UNL A   1      42.794  31.756  30.134  1.00  0.00     0.049 A 
ATOM     46  N   UNL A   1      41.782  28.826  31.443  1.00  0.00    -0.248 NA
ATOM     47  C   UNL A   1      44.099  28.826  31.610  1.00  0.00     0.031 C 
ATOM     48  C   UNL A   1      43.146  32.826  29.197  1.00  0.00     0.029 A 
ATOM     49  N   UNL A   1      42.296  32.433  31.190  1.00  0.00    -0.354 N 
ATOM     50  C   UNL A   1      42.183  27.967  32.450  1.00  0.00     0.074 A 
ATOM     51  C   UNL A   1      43.601  27.794  32.291  1.00  0.00     0.031 C 
ATOM     52  C   UNL A   1      43.056  34.019  29.834  1.00  0.00     0.029 A 
ATOM     53  C   UNL A   1      42.521  33.802  31.169  1.00  0.00     0.049 A 
ATOM     54  H   UNL A   1      41.809  31.989  31.922  1.00  0.00     0.167 HD
ATOM     55  C   UNL A   1      41.385  27.745  33.524  1.00  0.00     0.034 A 
ATOM     56  C   UNL A   1      42.343  34.642  32.225  1.00  0.00     0.034 A 
ATOM     57  C   UNL A   1      40.035  28.196  33.279  1.00  0.00     0.049 A 
ATOM     58  C   UNL A   1      41.385  33.954  33.140  1.00  0.00     0.074 A 
ATOM     59  C   UNL A   1      39.069  27.879  32.343  1.00  0.00     0.029 A 
ATOM     60  N   UNL A   1      39.670  29.423  33.791  1.00  0.00    -0.354 N 
ATOM     61  N   UNL A   1      40.150  33.685  32.807  1.00  0.00    -0.248 NA
ATOM     62  C   UNL A   1      41.936  33.108  34.191  1.00  0.00     0.031 C 
ATOM     63  C   UNL A   1      38.453  29.120  32.006  1.00  0.00     0.029 A 
ATOM     64  C   UNL A   1      39.015  30.120  32.803  1.00  0.00     0.049 A 
ATOM     65  H   UNL A   1      39.847  29.745  34.705  1.00  0.00     0.167 HD
ATOM     66  C   UNL A   1      39.914  32.402  33.285  1.00  0.00     0.074 A 
ATOM     67  C   UNL A   1      41.022  32.131  34.201  1.00  0.00     0.031 C 
ATOM     68  C   UNL A   1      39.021  31.569  32.671  1.00  0.00     0.034 A 
BRANCH  55  69
ATOM     69  C   UNL A   1      41.921  27.469  34.900  1.00  0.00     0.023 A 
ATOM     70  C   UNL A   1      42.797  28.414  35.451  1.00  0.00     0.031 A 
ATOM     71  C   UNL A   1      41.814  26.237  35.591  1.00  0.00     0.131 A 
ATOM     72  C   UNL A   1      43.543  28.107  36.599  1.00  0.00     0.055 A 
ATOM     73  C   UNL A   1      42.502  25.965  36.771  1.00  0.00     0.041 A 
ATOM     74  F   UNL A   1      41.121  25.195  35.115  1.00  0.00    -0.206 F 
ATOM     75  C   UNL A   1      43.393  26.895  37.271  1.00  0.00     0.022 A 
BRANCH  72  76
ATOM     76  S   UNL A   1      44.819  29.274  37.125  1.00  0.00     0.124 S 
ATOM     77  O   UNL A   1      44.351  29.645  38.456  1.00  0.00    -0.237 OA
ATOM     78  O   UNL A   1      46.021  28.450  37.069  1.00  0.00    -0.237 OA
ATOM     79  O   UNL A   1      44.743  30.331  36.119  1.00  0.00    -0.744 OA
ENDBRANCH  72  76
ENDBRANCH  55  69
BRANCH  56  80
ATOM     80  C   UNL A   1      43.238  35.757  32.658  1.00  0.00     0.023 A 
ATOM     81  C   UNL A   1      44.395  36.110  31.928  1.00  0.00     0.031 A 
ATOM     82  C   UNL A   1      42.827  36.669  33.657  1.00  0.00     0.131 A 
ATOM     83  C   UNL A   1      45.073  37.324  32.196  1.00  0.00     0.055 A 
ATOM     84  C   UNL A   1      43.503  37.864  33.921  1.00  0.00     0.041 A 
ATOM     85  F   UNL A   1      41.698  36.481  34.357  1.00  0.00    -0.206 F 
ATOM     86  C   UNL A   1      44.622  38.204  33.182  1.00  0.00     0.022 A 
BRANCH  83  87
ATOM     87  S   UNL A   1      46.491  37.841  31.175  1.00  0.00     0.124 S 
ATOM     88  O   UNL A   1      46.755  36.640  30.391  1.00  0.00    -0.237 OA
ATOM     89  O   UNL A   1      45.958  38.987  30.447  1.00  0.00    -0.237 OA
ATOM     90  O   UNL A   1      47.518  38.170  32.165  1.00  0.00    -0.744 OA
ENDBRANCH  83  87
ENDBRANCH  56  80
BRANCH  68  91
ATOM     91  C   UNL A   1      38.084  32.157  31.631  1.00  0.00     0.023 A 
ATOM     92  C   UNL A   1      36.796  32.680  31.895  1.00  0.00     0.031 A 
ATOM     93  C   UNL A   1      38.605  32.328  30.336  1.00  0.00     0.131 A 
ATOM     94  C   UNL A   1      36.084  33.346  30.874  1.00  0.00     0.055 A 
ATOM     95  C   UNL A   1      37.906  33.004  29.337  1.00  0.00     0.041 A 
ATOM     96  F   UNL A   1      39.835  31.880  30.036  1.00  0.00    -0.206 F 
ATOM     97  C   UNL A   1      36.641  33.515  29.602  1.00  0.00     0.022 A 
BRANCH  94  98
ATOM     98  S   UNL A   1      34.425  34.038  31.191  1.00  0.00     0.124 S 
ATOM     99  O   UNL A   1      33.769  33.940  29.891  1.00  0.00    -0.237 OA
ATOM    100  O   UNL A   1      33.908  33.161  32.238  1.00  0.00    -0.237 OA
ATOM    101  O   UNL A   1      34.702  35.407  31.630  1.00  0.00    -0.744 OA
ENDBRANCH  94  98
ENDBRANCH  68  91
ENDBRANCH  42  43
ENDBRANCH  35  37
ENDBRANCH  34  35
ENDBRANCH  33  34
ENDBRANCH  32  33
ENDBRANCH  31  32
ENDBRANCH  30  31
ENDBRANCH  29  30
ENDBRANCH   1  29
TORSDOF 26
ENDMDL
