MODEL 1
REMARK VINA RESULT:      -9.7      0.000      0.000
REMARK SMILES C[C@@H](C(=O)OCCOCCOCCOCCOC(=O)c1ccc(-c2c3nc(c(-c4cc(S(=O)(=O)[O-])ccc4F)c4ccc([nH]4)c(-c4cc(S(=O)(=O)[O-])ccc4F)c4nc(c(-c5cc(S(=O)(=O)[O-])ccc5F)c5ccc2[nH]5)C=C4)C=C3)cc1)c1ccc(O[C@H]2CCCC2=O)cc1F
REMARK SMILES IDX 11 1 10 2 9 3 8 4 7 5 6 6 5 7 3 8 4 9 2 10 1 11 83 12 84 13
REMARK SMILES IDX 95 14 85 15 94 16 96 17 86 18 87 19 88 20 89 21 92 22 90 23
REMARK SMILES IDX 91 24 93 25 12 26 13 27 14 28 15 29 16 30 17 31 18 32 19 33
REMARK SMILES IDX 20 34 21 35 82 36 22 37 81 38 23 39 24 40 25 41 75 42 26 43
REMARK SMILES IDX 80 44 74 45 76 46 27 47 79 48 73 49 72 50 28 52 60 53 40 54
REMARK SMILES IDX 59 55 41 56 44 57 58 58 77 59 42 60 43 61 57 63 78 64 45 65
REMARK SMILES IDX 29 66 30 67 38 68 31 69 37 70 39 71 36 72 32 73 33 74 34 75
REMARK SMILES IDX 35 76 61 77 62 78 70 79 63 80 69 81 71 82 68 83 64 84 65 85
REMARK SMILES IDX 66 86 67 87 46 88 47 89 55 90 48 91 54 92 56 93 53 94 49 95
REMARK SMILES IDX 50 96 51 97 52 98
REMARK H PARENT 76 51 44 62
REMARK Flexibility Score: inf
ROOT
ATOM      1  O   UNL A   1      33.343  21.081  23.735  1.00  0.00    -0.377 OA
ENDROOT
BRANCH   1   2
ATOM      2  C   UNL A   1      33.053  20.847  25.095  1.00  0.00     0.188 C 
BRANCH   2   3
ATOM      3  C   UNL A   1      34.262  20.936  26.046  1.00  0.00     0.188 C 
BRANCH   3   4
ATOM      4  O   UNL A   1      34.101  21.419  27.370  1.00  0.00    -0.376 OA
BRANCH   4   5
ATOM      5  C   UNL A   1      32.997  22.249  27.700  1.00  0.00     0.202 C 
BRANCH   5   6
ATOM      6  C   UNL A   1      32.794  23.644  27.072  1.00  0.00     0.261 C 
BRANCH   6   7
ATOM      7  O   UNL A   1      31.493  24.249  27.204  1.00  0.00    -0.463 OA
BRANCH   7   8
ATOM      8  C   UNL A   1      30.807  24.454  26.054  1.00  0.00     0.313 C 
ATOM      9  O   UNL A   1      30.600  23.572  25.225  1.00  0.00    -0.252 OA
BRANCH   8  10
ATOM     10  C   UNL A   1      30.262  25.890  25.881  1.00  0.00     0.129 C 
ATOM     11  C   UNL A   1      29.430  26.239  24.641  1.00  0.00     0.025 C 
BRANCH  10  12
ATOM     12  C   UNL A   1      31.380  26.884  26.186  1.00  0.00     0.002 A 
ATOM     13  C   UNL A   1      31.369  27.785  27.262  1.00  0.00     0.011 A 
ATOM     14  C   UNL A   1      32.387  27.036  25.234  1.00  0.00     0.130 A 
ATOM     15  C   UNL A   1      32.305  28.825  27.331  1.00  0.00     0.047 A 
ATOM     16  C   UNL A   1      33.320  28.064  25.301  1.00  0.00     0.086 A 
ATOM     17  F   UNL A   1      32.452  26.196  24.190  1.00  0.00    -0.207 F 
ATOM     18  C   UNL A   1      33.289  28.968  26.352  1.00  0.00     0.123 A 
BRANCH  18  19
ATOM     19  O   UNL A   1      34.118  30.036  26.523  1.00  0.00    -0.483 OA
BRANCH  19  20
ATOM     20  C   UNL A   1      34.873  30.175  27.706  1.00  0.00     0.239 C 
ATOM     21  C   UNL A   1      36.155  29.331  27.725  1.00  0.00     0.054 C 
ATOM     22  C   UNL A   1      35.318  31.530  28.244  1.00  0.00     0.173 C 
ATOM     23  C   UNL A   1      37.320  30.294  27.936  1.00  0.00     0.012 C 
ATOM     24  C   UNL A   1      36.769  31.523  28.644  1.00  0.00     0.080 C 
ATOM     25  O   UNL A   1      34.592  32.508  28.375  1.00  0.00    -0.296 OA
ENDBRANCH  19  20
ENDBRANCH  18  19
ENDBRANCH  10  12
ENDBRANCH   8  10
ENDBRANCH   7   8
ENDBRANCH   6   7
ENDBRANCH   5   6
ENDBRANCH   4   5
ENDBRANCH   3   4
ENDBRANCH   2   3
ENDBRANCH   1   2
BRANCH   1  26
ATOM     26  C   UNL A   1      32.993  22.356  23.221  1.00  0.00     0.188 C 
BRANCH  26  27
ATOM     27  C   UNL A   1      34.131  23.358  22.946  1.00  0.00     0.188 C 
BRANCH  27  28
ATOM     28  O   UNL A   1      35.425  22.765  22.880  1.00  0.00    -0.376 OA
BRANCH  28  29
ATOM     29  C   UNL A   1      36.378  23.101  23.878  1.00  0.00     0.202 C 
BRANCH  29  30
ATOM     30  C   UNL A   1      37.258  21.966  24.431  1.00  0.00     0.261 C 
BRANCH  30  31
ATOM     31  O   UNL A   1      37.685  22.088  25.795  1.00  0.00    -0.460 OA
BRANCH  31  32
ATOM     32  C   UNL A   1      38.977  21.811  26.078  1.00  0.00     0.338 C 
ATOM     33  O   UNL A   1      39.624  20.863  25.664  1.00  0.00    -0.246 OA
BRANCH  32  34
ATOM     34  C   UNL A   1      39.540  22.970  26.803  1.00  0.00     0.060 A 
ATOM     35  C   UNL A   1      38.904  24.212  26.688  1.00  0.00     0.016 A 
ATOM     36  C   UNL A   1      40.672  22.829  27.609  1.00  0.00     0.016 A 
ATOM     37  C   UNL A   1      39.419  25.327  27.350  1.00  0.00     0.010 A 
ATOM     38  C   UNL A   1      41.204  23.952  28.250  1.00  0.00     0.010 A 
ATOM     39  C   UNL A   1      40.599  25.213  28.096  1.00  0.00    -0.014 A 
BRANCH  39  40
ATOM     40  C   UNL A   1      41.320  26.440  28.518  1.00  0.00     0.031 A 
ATOM     41  C   UNL A   1      42.729  26.636  28.026  1.00  0.00     0.074 A 
ATOM     42  C   UNL A   1      40.734  27.374  29.291  1.00  0.00     0.049 A 
ATOM     43  N   UNL A   1      43.583  27.586  28.299  1.00  0.00    -0.248 NA
ATOM     44  C   UNL A   1      43.241  25.610  27.103  1.00  0.00     0.031 C 
ATOM     45  C   UNL A   1      39.357  27.326  29.777  1.00  0.00     0.029 A 
ATOM     46  N   UNL A   1      41.233  28.545  29.806  1.00  0.00    -0.354 N 
ATOM     47  C   UNL A   1      44.737  27.270  27.589  1.00  0.00     0.074 A 
ATOM     48  C   UNL A   1      44.483  26.021  26.904  1.00  0.00     0.031 C 
ATOM     49  C   UNL A   1      39.124  28.418  30.527  1.00  0.00     0.029 A 
ATOM     50  C   UNL A   1      40.345  29.217  30.614  1.00  0.00     0.049 A 
ATOM     51  H   UNL A   1      42.142  28.873  29.615  1.00  0.00     0.167 HD
ATOM     52  C   UNL A   1      45.899  27.963  27.509  1.00  0.00     0.034 A 
ATOM     53  C   UNL A   1      40.511  30.330  31.357  1.00  0.00     0.034 A 
ATOM     54  C   UNL A   1      46.141  29.201  28.208  1.00  0.00     0.049 A 
ATOM     55  C   UNL A   1      41.853  31.030  31.337  1.00  0.00     0.074 A 
ATOM     56  C   UNL A   1      47.275  29.992  28.191  1.00  0.00     0.029 A 
ATOM     57  N   UNL A   1      45.238  29.820  29.064  1.00  0.00    -0.354 N 
ATOM     58  N   UNL A   1      42.938  30.725  30.660  1.00  0.00    -0.248 NA
ATOM     59  C   UNL A   1      41.991  32.226  32.180  1.00  0.00     0.031 C 
ATOM     60  C   UNL A   1      47.093  31.038  29.102  1.00  0.00     0.029 A 
ATOM     61  C   UNL A   1      45.808  30.959  29.613  1.00  0.00     0.049 A 
ATOM     62  H   UNL A   1      44.327  29.498  29.253  1.00  0.00     0.167 HD
ATOM     63  C   UNL A   1      43.869  31.716  30.966  1.00  0.00     0.074 A 
ATOM     64  C   UNL A   1      43.215  32.631  31.878  1.00  0.00     0.031 C 
ATOM     65  C   UNL A   1      45.147  31.862  30.528  1.00  0.00     0.034 A 
BRANCH  52  66
ATOM     66  C   UNL A   1      47.014  27.361  26.687  1.00  0.00     0.023 A 
ATOM     67  C   UNL A   1      48.003  26.542  27.261  1.00  0.00     0.031 A 
ATOM     68  C   UNL A   1      47.106  27.637  25.312  1.00  0.00     0.131 A 
ATOM     69  C   UNL A   1      49.076  26.089  26.478  1.00  0.00     0.055 A 
ATOM     70  C   UNL A   1      48.128  27.110  24.520  1.00  0.00     0.041 A 
ATOM     71  F   UNL A   1      46.208  28.435  24.713  1.00  0.00    -0.206 F 
ATOM     72  C   UNL A   1      49.130  26.343  25.106  1.00  0.00     0.022 A 
BRANCH  69  73
ATOM     73  S   UNL A   1      50.479  25.293  27.309  1.00  0.00     0.124 S 
ATOM     74  O   UNL A   1      51.313  24.906  26.172  1.00  0.00    -0.237 OA
ATOM     75  O   UNL A   1      50.999  26.364  28.148  1.00  0.00    -0.237 OA
ATOM     76  O   UNL A   1      49.864  24.178  28.026  1.00  0.00    -0.744 OA
ENDBRANCH  69  73
ENDBRANCH  52  66
BRANCH  53  77
ATOM     77  C   UNL A   1      39.407  30.841  32.224  1.00  0.00     0.023 A 
ATOM     78  C   UNL A   1      38.576  31.892  31.801  1.00  0.00     0.031 A 
ATOM     79  C   UNL A   1      39.213  30.333  33.521  1.00  0.00     0.131 A 
ATOM     80  C   UNL A   1      37.628  32.434  32.683  1.00  0.00     0.055 A 
ATOM     81  C   UNL A   1      38.226  30.835  34.372  1.00  0.00     0.041 A 
ATOM     82  F   UNL A   1      39.984  29.335  33.983  1.00  0.00    -0.206 F 
ATOM     83  C   UNL A   1      37.436  31.902  33.959  1.00  0.00     0.022 A 
BRANCH  80  84
ATOM     84  S   UNL A   1      36.720  33.921  32.175  1.00  0.00     0.124 S 
ATOM     85  O   UNL A   1      35.344  33.438  32.165  1.00  0.00    -0.237 OA
ATOM     86  O   UNL A   1      37.063  34.861  33.236  1.00  0.00    -0.237 OA
ATOM     87  O   UNL A   1      37.284  34.231  30.863  1.00  0.00    -0.744 OA
ENDBRANCH  80  84
ENDBRANCH  53  77
BRANCH  65  88
ATOM     88  C   UNL A   1      45.903  33.089  30.983  1.00  0.00     0.023 A 
ATOM     89  C   UNL A   1      45.925  34.275  30.229  1.00  0.00     0.031 A 
ATOM     90  C   UNL A   1      46.617  33.066  32.196  1.00  0.00     0.131 A 
ATOM     91  C   UNL A   1      46.692  35.367  30.665  1.00  0.00     0.055 A 
ATOM     92  C   UNL A   1      47.318  34.179  32.660  1.00  0.00     0.041 A 
ATOM     93  F   UNL A   1      46.637  31.960  32.958  1.00  0.00    -0.206 F 
ATOM     94  C   UNL A   1      47.371  35.334  31.887  1.00  0.00     0.022 A 
BRANCH  91  95
ATOM     95  S   UNL A   1      46.876  36.798  29.566  1.00  0.00     0.124 S 
ATOM     96  O   UNL A   1      45.575  37.448  29.696  1.00  0.00    -0.237 OA
ATOM     97  O   UNL A   1      48.005  37.506  30.161  1.00  0.00    -0.237 OA
ATOM     98  O   UNL A   1      47.140  36.196  28.260  1.00  0.00    -0.744 OA
ENDBRANCH  91  95
ENDBRANCH  65  88
ENDBRANCH  39  40
ENDBRANCH  32  34
ENDBRANCH  31  32
ENDBRANCH  30  31
ENDBRANCH  29  30
ENDBRANCH  28  29
ENDBRANCH  27  28
ENDBRANCH  26  27
ENDBRANCH   1  26
TORSDOF 26
ENDMDL
MODEL 2
REMARK VINA RESULT:      -8.9      1.982      2.341
REMARK SMILES C[C@@H](C(=O)OCCOCCOCCOCCOC(=O)c1ccc(-c2c3nc(c(-c4cc(S(=O)(=O)[O-])ccc4F)c4ccc([nH]4)c(-c4cc(S(=O)(=O)[O-])ccc4F)c4nc(c(-c5cc(S(=O)(=O)[O-])ccc5F)c5ccc2[nH]5)C=C4)C=C3)cc1)c1ccc(O[C@H]2CCCC2=O)cc1F
REMARK SMILES IDX 11 1 10 2 9 3 8 4 7 5 6 6 5 7 3 8 4 9 2 10 1 11 83 12 84 13
REMARK SMILES IDX 95 14 85 15 94 16 96 17 86 18 87 19 88 20 89 21 92 22 90 23
REMARK SMILES IDX 91 24 93 25 12 26 13 27 14 28 15 29 16 30 17 31 18 32 19 33
REMARK SMILES IDX 20 34 21 35 82 36 22 37 81 38 23 39 24 40 25 41 75 42 26 43
REMARK SMILES IDX 80 44 74 45 76 46 27 47 79 48 73 49 72 50 28 52 60 53 40 54
REMARK SMILES IDX 59 55 41 56 44 57 58 58 77 59 42 60 43 61 57 63 78 64 45 65
REMARK SMILES IDX 29 66 30 67 38 68 31 69 37 70 39 71 36 72 32 73 33 74 34 75
REMARK SMILES IDX 35 76 61 77 62 78 70 79 63 80 69 81 71 82 68 83 64 84 65 85
REMARK SMILES IDX 66 86 67 87 46 88 47 89 55 90 48 91 54 92 56 93 53 94 49 95
REMARK SMILES IDX 50 96 51 97 52 98
REMARK H PARENT 76 51 44 62
REMARK Flexibility Score: inf
ROOT
ATOM      1  O   UNL A   1      32.592  21.275  24.199  1.00  0.00    -0.377 OA
ENDROOT
BRANCH   1   2
ATOM      2  C   UNL A   1      31.663  21.532  25.228  1.00  0.00     0.188 C 
BRANCH   2   3
ATOM      3  C   UNL A   1      32.242  22.239  26.468  1.00  0.00     0.188 C 
BRANCH   3   4
ATOM      4  O   UNL A   1      31.399  22.993  27.324  1.00  0.00    -0.376 OA
BRANCH   4   5
ATOM      5  C   UNL A   1      30.400  23.842  26.779  1.00  0.00     0.202 C 
BRANCH   5   6
ATOM      6  C   UNL A   1      30.704  25.281  26.309  1.00  0.00     0.261 C 
BRANCH   6   7
ATOM      7  O   UNL A   1      29.728  25.925  25.467  1.00  0.00    -0.463 OA
BRANCH   7   8
ATOM      8  C   UNL A   1      30.083  26.115  24.173  1.00  0.00     0.313 C 
ATOM      9  O   UNL A   1      30.155  25.203  23.353  1.00  0.00    -0.252 OA
BRANCH   8  10
ATOM     10  C   UNL A   1      30.351  27.589  23.792  1.00  0.00     0.129 C 
ATOM     11  C   UNL A   1      30.451  27.981  22.313  1.00  0.00     0.025 C 
BRANCH  10  12
ATOM     12  C   UNL A   1      31.485  28.125  24.662  1.00  0.00     0.002 A 
ATOM     13  C   UNL A   1      31.390  29.265  25.476  1.00  0.00     0.011 A 
ATOM     14  C   UNL A   1      32.749  27.560  24.498  1.00  0.00     0.130 A 
ATOM     15  C   UNL A   1      32.536  29.833  26.045  1.00  0.00     0.047 A 
ATOM     16  C   UNL A   1      33.889  28.118  25.064  1.00  0.00     0.086 A 
ATOM     17  F   UNL A   1      32.896  26.464  23.740  1.00  0.00    -0.207 F 
ATOM     18  C   UNL A   1      33.793  29.259  25.847  1.00  0.00     0.123 A 
BRANCH  18  19
ATOM     19  O   UNL A   1      34.828  29.925  26.432  1.00  0.00    -0.483 OA
BRANCH  19  20
ATOM     20  C   UNL A   1      34.816  30.191  27.817  1.00  0.00     0.239 C 
ATOM     21  C   UNL A   1      36.004  29.581  28.574  1.00  0.00     0.054 C 
ATOM     22  C   UNL A   1      34.706  31.602  28.385  1.00  0.00     0.173 C 
ATOM     23  C   UNL A   1      36.727  30.730  29.271  1.00  0.00     0.012 C 
ATOM     24  C   UNL A   1      35.711  31.844  29.478  1.00  0.00     0.080 C 
ATOM     25  O   UNL A   1      33.885  32.439  28.031  1.00  0.00    -0.296 OA
ENDBRANCH  19  20
ENDBRANCH  18  19
ENDBRANCH  10  12
ENDBRANCH   8  10
ENDBRANCH   7   8
ENDBRANCH   6   7
ENDBRANCH   5   6
ENDBRANCH   4   5
ENDBRANCH   3   4
ENDBRANCH   2   3
ENDBRANCH   1   2
BRANCH   1  26
ATOM     26  C   UNL A   1      32.579  22.166  23.095  1.00  0.00     0.188 C 
BRANCH  26  27
ATOM     27  C   UNL A   1      33.806  23.078  22.892  1.00  0.00     0.188 C 
BRANCH  27  28
ATOM     28  O   UNL A   1      35.053  22.441  23.155  1.00  0.00    -0.376 OA
BRANCH  28  29
ATOM     29  C   UNL A   1      35.597  22.528  24.463  1.00  0.00     0.202 C 
BRANCH  29  30
ATOM     30  C   UNL A   1      37.071  22.127  24.646  1.00  0.00     0.261 C 
BRANCH  30  31
ATOM     31  O   UNL A   1      37.630  22.307  25.956  1.00  0.00    -0.460 OA
BRANCH  31  32
ATOM     32  C   UNL A   1      38.949  22.063  26.116  1.00  0.00     0.338 C 
ATOM     33  O   UNL A   1      39.593  21.172  25.587  1.00  0.00    -0.246 OA
BRANCH  32  34
ATOM     34  C   UNL A   1      39.530  23.191  26.876  1.00  0.00     0.060 A 
ATOM     35  C   UNL A   1      38.957  24.462  26.740  1.00  0.00     0.016 A 
ATOM     36  C   UNL A   1      40.615  22.994  27.734  1.00  0.00     0.016 A 
ATOM     37  C   UNL A   1      39.491  25.548  27.434  1.00  0.00     0.010 A 
ATOM     38  C   UNL A   1      41.166  24.088  28.408  1.00  0.00     0.010 A 
ATOM     39  C   UNL A   1      40.628  25.376  28.234  1.00  0.00    -0.014 A 
BRANCH  39  40
ATOM     40  C   UNL A   1      41.382  26.567  28.699  1.00  0.00     0.031 A 
ATOM     41  C   UNL A   1      42.799  26.737  28.217  1.00  0.00     0.074 A 
ATOM     42  C   UNL A   1      40.823  27.490  29.502  1.00  0.00     0.049 A 
ATOM     43  N   UNL A   1      43.679  27.652  28.524  1.00  0.00    -0.248 NA
ATOM     44  C   UNL A   1      43.283  25.729  27.261  1.00  0.00     0.031 C 
ATOM     45  C   UNL A   1      39.443  27.467  29.983  1.00  0.00     0.029 A 
ATOM     46  N   UNL A   1      41.354  28.629  30.057  1.00  0.00    -0.354 N 
ATOM     47  C   UNL A   1      44.826  27.327  27.805  1.00  0.00     0.074 A 
ATOM     48  C   UNL A   1      44.537  26.110  27.078  1.00  0.00     0.031 C 
ATOM     49  C   UNL A   1      39.239  28.539  30.769  1.00  0.00     0.029 A 
ATOM     50  C   UNL A   1      40.483  29.299  30.885  1.00  0.00     0.049 A 
ATOM     51  H   UNL A   1      42.272  28.936  29.879  1.00  0.00     0.167 HD
ATOM     52  C   UNL A   1      46.008  27.988  27.751  1.00  0.00     0.034 A 
ATOM     53  C   UNL A   1      40.680  30.381  31.666  1.00  0.00     0.034 A 
ATOM     54  C   UNL A   1      46.283  29.194  28.492  1.00  0.00     0.049 A 
ATOM     55  C   UNL A   1      42.042  31.041  31.673  1.00  0.00     0.074 A 
ATOM     56  C   UNL A   1      47.440  29.951  28.504  1.00  0.00     0.029 A 
ATOM     57  N   UNL A   1      45.397  29.810  29.367  1.00  0.00    -0.354 N 
ATOM     58  N   UNL A   1      43.119  30.728  30.988  1.00  0.00    -0.248 NA
ATOM     59  C   UNL A   1      42.212  32.204  32.556  1.00  0.00     0.031 C 
ATOM     60  C   UNL A   1      47.286  30.970  29.449  1.00  0.00     0.029 A 
ATOM     61  C   UNL A   1      45.998  30.913  29.955  1.00  0.00     0.049 A 
ATOM     62  H   UNL A   1      44.476  29.509  29.543  1.00  0.00     0.167 HD
ATOM     63  C   UNL A   1      44.078  31.680  31.329  1.00  0.00     0.074 A 
ATOM     64  C   UNL A   1      43.449  32.583  32.270  1.00  0.00     0.031 C 
ATOM     65  C   UNL A   1      45.361  31.803  30.898  1.00  0.00     0.034 A 
BRANCH  52  66
ATOM     66  C   UNL A   1      47.107  27.381  26.912  1.00  0.00     0.023 A 
ATOM     67  C   UNL A   1      47.322  27.764  25.576  1.00  0.00     0.031 A 
ATOM     68  C   UNL A   1      47.933  26.378  27.449  1.00  0.00     0.131 A 
ATOM     69  C   UNL A   1      48.288  27.099  24.805  1.00  0.00     0.055 A 
ATOM     70  C   UNL A   1      48.951  25.782  26.703  1.00  0.00     0.041 A 
ATOM     71  F   UNL A   1      47.757  25.949  28.709  1.00  0.00    -0.206 F 
ATOM     72  C   UNL A   1      49.123  26.132  25.367  1.00  0.00     0.022 A 
BRANCH  69  73
ATOM     73  S   UNL A   1      48.334  27.409  23.018  1.00  0.00     0.124 S 
ATOM     74  O   UNL A   1      47.099  28.166  22.819  1.00  0.00    -0.237 OA
ATOM     75  O   UNL A   1      49.575  28.157  22.859  1.00  0.00    -0.237 OA
ATOM     76  O   UNL A   1      48.332  26.068  22.438  1.00  0.00    -0.744 OA
ENDBRANCH  69  73
ENDBRANCH  52  66
BRANCH  53  77
ATOM     77  C   UNL A   1      39.589  30.894  32.548  1.00  0.00     0.023 A 
ATOM     78  C   UNL A   1      38.764  31.957  32.142  1.00  0.00     0.031 A 
ATOM     79  C   UNL A   1      39.402  30.377  33.842  1.00  0.00     0.131 A 
ATOM     80  C   UNL A   1      37.829  32.500  33.037  1.00  0.00     0.055 A 
ATOM     81  C   UNL A   1      38.427  30.880  34.707  1.00  0.00     0.041 A 
ATOM     82  F   UNL A   1      40.168  29.368  34.288  1.00  0.00    -0.206 F 
ATOM     83  C   UNL A   1      37.644  31.959  34.310  1.00  0.00     0.022 A 
BRANCH  80  84
ATOM     84  S   UNL A   1      36.931  34.000  32.550  1.00  0.00     0.124 S 
ATOM     85  O   UNL A   1      37.601  34.354  31.305  1.00  0.00    -0.237 OA
ATOM     86  O   UNL A   1      35.564  33.506  32.427  1.00  0.00    -0.237 OA
ATOM     87  O   UNL A   1      37.164  34.913  33.667  1.00  0.00    -0.744 OA
ENDBRANCH  80  84
ENDBRANCH  53  77
BRANCH  65  88
ATOM     88  C   UNL A   1      46.152  32.991  31.397  1.00  0.00     0.023 A 
ATOM     89  C   UNL A   1      46.935  32.930  32.562  1.00  0.00     0.031 A 
ATOM     90  C   UNL A   1      46.116  34.207  30.690  1.00  0.00     0.131 A 
ATOM     91  C   UNL A   1      47.603  34.078  33.017  1.00  0.00     0.055 A 
ATOM     92  C   UNL A   1      46.840  35.324  31.108  1.00  0.00     0.041 A 
ATOM     93  F   UNL A   1      45.381  34.328  29.572  1.00  0.00    -0.206 F 
ATOM     94  C   UNL A   1      47.578  35.268  32.286  1.00  0.00     0.022 A 
BRANCH  91  95
ATOM     95  S   UNL A   1      48.423  34.027  34.635  1.00  0.00     0.124 S 
ATOM     96  O   UNL A   1      48.656  35.443  34.900  1.00  0.00    -0.237 OA
ATOM     97  O   UNL A   1      47.421  33.377  35.473  1.00  0.00    -0.237 OA
ATOM     98  O   UNL A   1      49.627  33.237  34.384  1.00  0.00    -0.744 OA
ENDBRANCH  91  95
ENDBRANCH  65  88
ENDBRANCH  39  40
ENDBRANCH  32  34
ENDBRANCH  31  32
ENDBRANCH  30  31
ENDBRANCH  29  30
ENDBRANCH  28  29
ENDBRANCH  27  28
ENDBRANCH  26  27
ENDBRANCH   1  26
TORSDOF 26
ENDMDL
MODEL 3
REMARK VINA RESULT:      -8.3      4.836      9.556
REMARK SMILES C[C@@H](C(=O)OCCOCCOCCOCCOC(=O)c1ccc(-c2c3nc(c(-c4cc(S(=O)(=O)[O-])ccc4F)c4ccc([nH]4)c(-c4cc(S(=O)(=O)[O-])ccc4F)c4nc(c(-c5cc(S(=O)(=O)[O-])ccc5F)c5ccc2[nH]5)C=C4)C=C3)cc1)c1ccc(O[C@H]2CCCC2=O)cc1F
REMARK SMILES IDX 11 1 10 2 9 3 8 4 7 5 6 6 5 7 3 8 4 9 2 10 1 11 83 12 84 13
REMARK SMILES IDX 95 14 85 15 94 16 96 17 86 18 87 19 88 20 89 21 92 22 90 23
REMARK SMILES IDX 91 24 93 25 12 26 13 27 14 28 15 29 16 30 17 31 18 32 19 33
REMARK SMILES IDX 20 34 21 35 82 36 22 37 81 38 23 39 24 40 25 41 75 42 26 43
REMARK SMILES IDX 80 44 74 45 76 46 27 47 79 48 73 49 72 50 28 52 60 53 40 54
REMARK SMILES IDX 59 55 41 56 44 57 58 58 77 59 42 60 43 61 57 63 78 64 45 65
REMARK SMILES IDX 29 66 30 67 38 68 31 69 37 70 39 71 36 72 32 73 33 74 34 75
REMARK SMILES IDX 35 76 61 77 62 78 70 79 63 80 69 81 71 82 68 83 64 84 65 85
REMARK SMILES IDX 66 86 67 87 46 88 47 89 55 90 48 91 54 92 56 93 53 94 49 95
REMARK SMILES IDX 50 96 51 97 52 98
REMARK H PARENT 76 51 44 62
REMARK Flexibility Score: inf
ROOT
ATOM      1  O   UNL A   1      34.109  35.243  29.281  1.00  0.00    -0.377 OA
ENDROOT
BRANCH   1   2
ATOM      2  C   UNL A   1      34.155  33.949  28.722  1.00  0.00     0.188 C 
BRANCH   2   3
ATOM      3  C   UNL A   1      32.954  33.580  27.831  1.00  0.00     0.188 C 
BRANCH   3   4
ATOM      4  O   UNL A   1      32.797  32.255  27.348  1.00  0.00    -0.376 OA
BRANCH   4   5
ATOM      5  C   UNL A   1      31.596  31.866  26.699  1.00  0.00     0.202 C 
BRANCH   5   6
ATOM      6  C   UNL A   1      31.525  30.653  25.747  1.00  0.00     0.261 C 
BRANCH   6   7
ATOM      7  O   UNL A   1      32.704  29.833  25.627  1.00  0.00    -0.463 OA
BRANCH   7   8
ATOM      8  C   UNL A   1      32.500  28.531  25.314  1.00  0.00     0.313 C 
ATOM      9  O   UNL A   1      33.097  27.952  24.410  1.00  0.00    -0.252 OA
BRANCH   8  10
ATOM     10  C   UNL A   1      31.477  27.807  26.219  1.00  0.00     0.129 C 
ATOM     11  C   UNL A   1      31.514  28.035  27.734  1.00  0.00     0.025 C 
BRANCH  10  12
ATOM     12  C   UNL A   1      31.403  26.339  25.806  1.00  0.00     0.002 A 
ATOM     13  C   UNL A   1      32.182  25.317  26.369  1.00  0.00     0.011 A 
ATOM     14  C   UNL A   1      30.654  26.023  24.673  1.00  0.00     0.130 A 
ATOM     15  C   UNL A   1      32.238  24.051  25.773  1.00  0.00     0.047 A 
ATOM     16  C   UNL A   1      30.704  24.767  24.080  1.00  0.00     0.086 A 
ATOM     17  F   UNL A   1      29.884  26.959  24.100  1.00  0.00    -0.207 F 
ATOM     18  C   UNL A   1      31.494  23.767  24.626  1.00  0.00     0.123 A 
BRANCH  18  19
ATOM     19  O   UNL A   1      31.659  22.509  24.131  1.00  0.00    -0.483 OA
BRANCH  19  20
ATOM     20  C   UNL A   1      32.893  22.115  23.572  1.00  0.00     0.239 C 
ATOM     21  C   UNL A   1      33.585  23.220  22.761  1.00  0.00     0.054 C 
ATOM     22  C   UNL A   1      34.019  21.510  24.402  1.00  0.00     0.173 C 
ATOM     23  C   UNL A   1      34.960  23.436  23.386  1.00  0.00     0.012 C 
ATOM     24  C   UNL A   1      35.348  22.142  24.087  1.00  0.00     0.080 C 
ATOM     25  O   UNL A   1      33.885  20.598  25.209  1.00  0.00    -0.296 OA
ENDBRANCH  19  20
ENDBRANCH  18  19
ENDBRANCH  10  12
ENDBRANCH   8  10
ENDBRANCH   7   8
ENDBRANCH   6   7
ENDBRANCH   5   6
ENDBRANCH   4   5
ENDBRANCH   3   4
ENDBRANCH   2   3
ENDBRANCH   1   2
BRANCH   1  26
ATOM     26  C   UNL A   1      33.073  35.494  30.216  1.00  0.00     0.188 C 
BRANCH  26  27
ATOM     27  C   UNL A   1      33.444  35.521  31.712  1.00  0.00     0.188 C 
BRANCH  27  28
ATOM     28  O   UNL A   1      33.795  34.247  32.246  1.00  0.00    -0.376 OA
BRANCH  28  29
ATOM     29  C   UNL A   1      34.946  34.150  33.072  1.00  0.00     0.202 C 
BRANCH  29  30
ATOM     30  C   UNL A   1      36.263  34.727  32.523  1.00  0.00     0.261 C 
BRANCH  30  31
ATOM     31  O   UNL A   1      36.656  34.298  31.211  1.00  0.00    -0.460 OA
BRANCH  31  32
ATOM     32  C   UNL A   1      37.559  33.297  31.120  1.00  0.00     0.338 C 
ATOM     33  O   UNL A   1      37.338  32.104  31.252  1.00  0.00    -0.246 OA
BRANCH  32  34
ATOM     34  C   UNL A   1      38.825  33.873  30.619  1.00  0.00     0.060 A 
ATOM     35  C   UNL A   1      38.913  34.238  29.269  1.00  0.00     0.016 A 
ATOM     36  C   UNL A   1      39.909  34.076  31.477  1.00  0.00     0.016 A 
ATOM     37  C   UNL A   1      40.099  34.773  28.764  1.00  0.00     0.010 A 
ATOM     38  C   UNL A   1      41.105  34.587  30.964  1.00  0.00     0.010 A 
ATOM     39  C   UNL A   1      41.217  34.905  29.598  1.00  0.00    -0.014 A 
BRANCH  39  40
ATOM     40  C   UNL A   1      42.551  35.155  28.999  1.00  0.00     0.031 A 
ATOM     41  C   UNL A   1      43.500  33.992  28.878  1.00  0.00     0.074 A 
ATOM     42  C   UNL A   1      42.906  36.371  28.544  1.00  0.00     0.049 A 
ATOM     43  N   UNL A   1      44.734  33.964  28.450  1.00  0.00    -0.248 NA
ATOM     44  C   UNL A   1      42.980  32.685  29.309  1.00  0.00     0.031 C 
ATOM     45  C   UNL A   1      42.052  37.557  28.548  1.00  0.00     0.029 A 
ATOM     46  N   UNL A   1      44.086  36.807  27.992  1.00  0.00    -0.354 N 
ATOM     47  C   UNL A   1      45.142  32.639  28.565  1.00  0.00     0.074 A 
ATOM     48  C   UNL A   1      44.035  31.905  29.140  1.00  0.00     0.031 C 
ATOM     49  C   UNL A   1      42.741  38.590  28.030  1.00  0.00     0.029 A 
ATOM     50  C   UNL A   1      44.097  38.152  27.700  1.00  0.00     0.049 A 
ATOM     51  H   UNL A   1      44.852  36.213  27.821  1.00  0.00     0.167 HD
ATOM     52  C   UNL A   1      46.328  32.084  28.216  1.00  0.00     0.034 A 
ATOM     53  C   UNL A   1      45.095  38.938  27.248  1.00  0.00     0.034 A 
ATOM     54  C   UNL A   1      47.426  32.833  27.656  1.00  0.00     0.049 A 
ATOM     55  C   UNL A   1      46.446  38.318  26.967  1.00  0.00     0.074 A 
ATOM     56  C   UNL A   1      48.667  32.372  27.257  1.00  0.00     0.029 A 
ATOM     57  N   UNL A   1      47.421  34.203  27.431  1.00  0.00    -0.354 N 
ATOM     58  N   UNL A   1      46.822  37.063  27.077  1.00  0.00    -0.248 NA
ATOM     59  C   UNL A   1      47.507  39.219  26.496  1.00  0.00     0.031 C 
ATOM     60  C   UNL A   1      49.441  33.472  26.875  1.00  0.00     0.029 A 
ATOM     61  C   UNL A   1      48.653  34.610  26.939  1.00  0.00     0.049 A 
ATOM     62  H   UNL A   1      46.655  34.800  27.595  1.00  0.00     0.167 HD
ATOM     63  C   UNL A   1      48.148  37.023  26.650  1.00  0.00     0.074 A 
ATOM     64  C   UNL A   1      48.502  38.375  26.271  1.00  0.00     0.031 C 
ATOM     65  C   UNL A   1      48.996  35.964  26.570  1.00  0.00     0.034 A 
BRANCH  52  66
ATOM     66  C   UNL A   1      46.517  30.611  28.494  1.00  0.00     0.023 A 
ATOM     67  C   UNL A   1      46.097  29.623  27.586  1.00  0.00     0.031 A 
ATOM     68  C   UNL A   1      47.098  30.190  29.702  1.00  0.00     0.131 A 
ATOM     69  C   UNL A   1      46.199  28.266  27.932  1.00  0.00     0.055 A 
ATOM     70  C   UNL A   1      47.277  28.838  30.003  1.00  0.00     0.041 A 
ATOM     71  F   UNL A   1      47.491  31.085  30.622  1.00  0.00    -0.206 F 
ATOM     72  C   UNL A   1      46.813  27.867  29.121  1.00  0.00     0.022 A 
BRANCH  69  73
ATOM     73  S   UNL A   1      45.382  27.038  26.876  1.00  0.00     0.124 S 
ATOM     74  O   UNL A   1      45.053  25.992  27.843  1.00  0.00    -0.237 OA
ATOM     75  O   UNL A   1      44.254  27.787  26.336  1.00  0.00    -0.237 OA
ATOM     76  O   UNL A   1      46.416  26.677  25.908  1.00  0.00    -0.744 OA
ENDBRANCH  69  73
ENDBRANCH  52  66
BRANCH  53  77
ATOM     77  C   UNL A   1      44.889  40.407  27.072  1.00  0.00     0.023 A 
ATOM     78  C   UNL A   1      44.355  40.930  25.883  1.00  0.00     0.031 A 
ATOM     79  C   UNL A   1      45.291  41.317  28.066  1.00  0.00     0.131 A 
ATOM     80  C   UNL A   1      44.287  42.320  25.696  1.00  0.00     0.055 A 
ATOM     81  C   UNL A   1      45.163  42.698  27.901  1.00  0.00     0.041 A 
ATOM     82  F   UNL A   1      45.817  40.876  29.220  1.00  0.00    -0.206 F 
ATOM     83  C   UNL A   1      44.672  43.207  26.703  1.00  0.00     0.022 A 
BRANCH  80  84
ATOM     84  S   UNL A   1      43.789  42.955  24.071  1.00  0.00     0.124 S 
ATOM     85  O   UNL A   1      42.418  42.467  23.971  1.00  0.00    -0.237 OA
ATOM     86  O   UNL A   1      43.948  44.394  24.247  1.00  0.00    -0.237 OA
ATOM     87  O   UNL A   1      44.742  42.331  23.156  1.00  0.00    -0.744 OA
ENDBRANCH  80  84
ENDBRANCH  53  77
BRANCH  65  88
ATOM     88  C   UNL A   1      50.372  36.216  25.997  1.00  0.00     0.023 A 
ATOM     89  C   UNL A   1      51.511  36.326  26.813  1.00  0.00     0.031 A 
ATOM     90  C   UNL A   1      50.542  36.349  24.606  1.00  0.00     0.131 A 
ATOM     91  C   UNL A   1      52.757  36.621  26.238  1.00  0.00     0.055 A 
ATOM     92  C   UNL A   1      51.795  36.569  24.035  1.00  0.00     0.041 A 
ATOM     93  F   UNL A   1      49.490  36.257  23.776  1.00  0.00    -0.206 F 
ATOM     94  C   UNL A   1      52.910  36.721  24.853  1.00  0.00     0.022 A 
BRANCH  91  95
ATOM     95  S   UNL A   1      54.161  36.974  27.332  1.00  0.00     0.124 S 
ATOM     96  O   UNL A   1      54.849  35.687  27.365  1.00  0.00    -0.237 OA
ATOM     97  O   UNL A   1      54.848  38.047  26.621  1.00  0.00    -0.237 OA
ATOM     98  O   UNL A   1      53.527  37.370  28.588  1.00  0.00    -0.744 OA
ENDBRANCH  91  95
ENDBRANCH  65  88
ENDBRANCH  39  40
ENDBRANCH  32  34
ENDBRANCH  31  32
ENDBRANCH  30  31
ENDBRANCH  29  30
ENDBRANCH  28  29
ENDBRANCH  27  28
ENDBRANCH  26  27
ENDBRANCH   1  26
TORSDOF 26
ENDMDL
