MODEL 1
REMARK VINA RESULT:      -9.4      0.000      0.000
REMARK SMILES O=C(OCCOCCOCCOCCOC(=O)c1cccc(OCC(F)F)c1)c1ccc(-c2c3nc(c(-c4cc(S(=O)(=O)[O-])ccc4F)c4ccc([nH]4)c(-c4cc(S(=O)(=O)[O-])ccc4F)c4nc(c(-c5cc(S(=O)(=O)[O-])ccc5F)c5ccc2[nH]5)C=C4)C=C3)cc1
REMARK SMILES IDX 9 1 8 2 7 3 6 4 5 5 4 6 3 7 2 8 1 9 29 10 30 11 91 12 31 13
REMARK SMILES IDX 90 14 32 15 33 16 34 17 84 18 35 19 89 20 83 21 85 22 36 23
REMARK SMILES IDX 88 24 82 25 81 26 37 28 69 29 49 30 68 31 50 32 53 33 67 34
REMARK SMILES IDX 86 35 51 36 52 37 66 39 87 40 54 41 38 42 39 43 47 44 40 45
REMARK SMILES IDX 46 46 48 47 45 48 41 49 42 50 43 51 44 52 70 53 71 54 79 55
REMARK SMILES IDX 72 56 78 57 80 58 77 59 73 60 74 61 75 62 76 63 55 64 56 65
REMARK SMILES IDX 64 66 57 67 63 68 65 69 62 70 58 71 59 72 60 73 61 74 10 75
REMARK SMILES IDX 11 76 12 77 13 78 14 79 15 80 16 81 17 82 18 83 19 84 28 85
REMARK SMILES IDX 20 86 22 87 21 88 23 89 24 90 25 91 26 92 27 93
REMARK H PARENT 85 27 53 38
REMARK Flexibility Score: inf
ROOT
ATOM      1  O   UNL A   1      31.306  25.014  24.390  1.00  0.00    -0.377 OA
ENDROOT
BRANCH   1   2
ATOM      2  C   UNL A   1      31.779  26.239  23.834  1.00  0.00     0.188 C 
BRANCH   2   3
ATOM      3  C   UNL A   1      31.882  27.401  24.822  1.00  0.00     0.188 C 
BRANCH   3   4
ATOM      4  O   UNL A   1      32.635  28.473  24.256  1.00  0.00    -0.376 OA
BRANCH   4   5
ATOM      5  C   UNL A   1      33.481  29.185  25.156  1.00  0.00     0.202 C 
BRANCH   5   6
ATOM      6  C   UNL A   1      32.822  29.545  26.490  1.00  0.00     0.261 C 
BRANCH   6   7
ATOM      7  O   UNL A   1      32.850  30.956  26.753  1.00  0.00    -0.460 OA
BRANCH   7   8
ATOM      8  C   UNL A   1      33.709  31.626  27.565  1.00  0.00     0.338 C 
ATOM      9  O   UNL A   1      33.369  32.731  27.987  1.00  0.00    -0.246 OA
BRANCH   8  10
ATOM     10  C   UNL A   1      35.043  31.095  27.992  1.00  0.00     0.060 A 
ATOM     11  C   UNL A   1      35.336  29.752  28.228  1.00  0.00     0.016 A 
ATOM     12  C   UNL A   1      36.097  32.019  28.099  1.00  0.00     0.016 A 
ATOM     13  C   UNL A   1      36.590  29.337  28.640  1.00  0.00     0.010 A 
ATOM     14  C   UNL A   1      37.381  31.607  28.475  1.00  0.00     0.010 A 
ATOM     15  C   UNL A   1      37.618  30.261  28.777  1.00  0.00    -0.014 A 
BRANCH  15  16
ATOM     16  C   UNL A   1      38.863  29.790  29.410  1.00  0.00     0.031 A 
ATOM     17  C   UNL A   1      39.182  30.306  30.782  1.00  0.00     0.074 A 
ATOM     18  C   UNL A   1      39.566  28.790  28.846  1.00  0.00     0.049 A 
ATOM     19  N   UNL A   1      40.221  30.077  31.535  1.00  0.00    -0.248 NA
ATOM     20  C   UNL A   1      38.176  31.192  31.396  1.00  0.00     0.031 C 
ATOM     21  C   UNL A   1      39.213  28.120  27.589  1.00  0.00     0.029 A 
ATOM     22  N   UNL A   1      40.689  28.132  29.268  1.00  0.00    -0.354 N 
ATOM     23  C   UNL A   1      40.007  30.807  32.699  1.00  0.00     0.074 A 
ATOM     24  C   UNL A   1      38.747  31.498  32.549  1.00  0.00     0.031 C 
ATOM     25  C   UNL A   1      40.092  27.132  27.358  1.00  0.00     0.029 A 
ATOM     26  C   UNL A   1      41.115  27.154  28.397  1.00  0.00     0.049 A 
ATOM     27  H   UNL A   1      41.148  28.338  30.113  1.00  0.00     0.167 HD
ATOM     28  C   UNL A   1      40.803  30.888  33.791  1.00  0.00     0.034 A 
ATOM     29  C   UNL A   1      42.234  26.405  28.425  1.00  0.00     0.034 A 
ATOM     30  C   UNL A   1      42.057  30.187  33.886  1.00  0.00     0.049 A 
ATOM     31  C   UNL A   1      43.175  26.620  29.586  1.00  0.00     0.074 A 
ATOM     32  C   UNL A   1      43.019  30.254  34.875  1.00  0.00     0.029 A 
ATOM     33  N   UNL A   1      42.521  29.278  32.937  1.00  0.00    -0.354 N 
ATOM     34  N   UNL A   1      43.025  27.398  30.638  1.00  0.00    -0.248 NA
ATOM     35  C   UNL A   1      44.435  25.872  29.565  1.00  0.00     0.031 C 
ATOM     36  C   UNL A   1      44.089  29.435  34.493  1.00  0.00     0.029 A 
ATOM     37  C   UNL A   1      43.763  28.796  33.305  1.00  0.00     0.049 A 
ATOM     38  H   UNL A   1      42.034  29.018  32.122  1.00  0.00     0.167 HD
ATOM     39  C   UNL A   1      44.167  27.217  31.411  1.00  0.00     0.074 A 
ATOM     40  C   UNL A   1      44.976  26.231  30.719  1.00  0.00     0.031 C 
ATOM     41  C   UNL A   1      44.532  27.813  32.576  1.00  0.00     0.034 A 
BRANCH  28  42
ATOM     42  C   UNL A   1      40.376  31.838  34.880  1.00  0.00     0.023 A 
ATOM     43  C   UNL A   1      39.508  31.445  35.916  1.00  0.00     0.031 A 
ATOM     44  C   UNL A   1      40.769  33.187  34.827  1.00  0.00     0.131 A 
ATOM     45  C   UNL A   1      39.005  32.406  36.808  1.00  0.00     0.055 A 
ATOM     46  C   UNL A   1      40.326  34.122  35.764  1.00  0.00     0.041 A 
ATOM     47  F   UNL A   1      41.566  33.627  33.841  1.00  0.00    -0.206 F 
ATOM     48  C   UNL A   1      39.427  33.737  36.754  1.00  0.00     0.022 A 
BRANCH  45  49
ATOM     49  S   UNL A   1      37.678  31.925  37.950  1.00  0.00     0.124 S 
ATOM     50  O   UNL A   1      37.407  30.553  37.526  1.00  0.00    -0.237 OA
ATOM     51  O   UNL A   1      38.311  32.077  39.255  1.00  0.00    -0.237 OA
ATOM     52  O   UNL A   1      36.611  32.881  37.659  1.00  0.00    -0.744 OA
ENDBRANCH  45  49
ENDBRANCH  28  42
BRANCH  29  53
ATOM     53  C   UNL A   1      42.580  25.477  27.303  1.00  0.00     0.023 A 
ATOM     54  C   UNL A   1      42.095  24.160  27.260  1.00  0.00     0.031 A 
ATOM     55  C   UNL A   1      43.479  25.871  26.292  1.00  0.00     0.131 A 
ATOM     56  C   UNL A   1      42.557  23.272  26.272  1.00  0.00     0.055 A 
ATOM     57  C   UNL A   1      43.881  25.006  25.273  1.00  0.00     0.041 A 
ATOM     58  F   UNL A   1      43.994  27.112  26.282  1.00  0.00    -0.206 F 
ATOM     59  C   UNL A   1      43.434  23.690  25.270  1.00  0.00     0.022 A 
BRANCH  56  60
ATOM     60  S   UNL A   1      42.099  21.519  26.393  1.00  0.00     0.124 S 
ATOM     61  O   UNL A   1      40.670  21.565  26.106  1.00  0.00    -0.237 OA
ATOM     62  O   UNL A   1      42.941  20.915  25.367  1.00  0.00    -0.237 OA
ATOM     63  O   UNL A   1      42.448  21.170  27.769  1.00  0.00    -0.744 OA
ENDBRANCH  56  60
ENDBRANCH  29  53
BRANCH  41  64
ATOM     64  C   UNL A   1      45.841  27.369  33.173  1.00  0.00     0.023 A 
ATOM     65  C   UNL A   1      45.935  26.196  33.940  1.00  0.00     0.031 A 
ATOM     66  C   UNL A   1      47.000  28.139  32.985  1.00  0.00     0.131 A 
ATOM     67  C   UNL A   1      47.150  25.863  34.552  1.00  0.00     0.055 A 
ATOM     68  C   UNL A   1      48.224  27.764  33.536  1.00  0.00     0.041 A 
ATOM     69  F   UNL A   1      46.962  29.269  32.259  1.00  0.00    -0.206 F 
ATOM     70  C   UNL A   1      48.300  26.628  34.339  1.00  0.00     0.022 A 
BRANCH  67  71
ATOM     71  S   UNL A   1      47.179  24.477  35.718  1.00  0.00     0.124 S 
ATOM     72  O   UNL A   1      48.107  24.957  36.737  1.00  0.00    -0.237 OA
ATOM     73  O   UNL A   1      45.781  24.381  36.124  1.00  0.00    -0.237 OA
ATOM     74  O   UNL A   1      47.668  23.361  34.911  1.00  0.00    -0.744 OA
ENDBRANCH  67  71
ENDBRANCH  41  64
ENDBRANCH  15  16
ENDBRANCH   8  10
ENDBRANCH   7   8
ENDBRANCH   6   7
ENDBRANCH   5   6
ENDBRANCH   4   5
ENDBRANCH   3   4
ENDBRANCH   2   3
ENDBRANCH   1   2
BRANCH   1  75
ATOM     75  C   UNL A   1      30.562  25.104  25.601  1.00  0.00     0.188 C 
BRANCH  75  76
ATOM     76  C   UNL A   1      30.452  23.858  26.510  1.00  0.00     0.188 C 
BRANCH  76  77
ATOM     77  O   UNL A   1      31.472  23.760  27.493  1.00  0.00    -0.376 OA
BRANCH  77  78
ATOM     78  C   UNL A   1      32.610  22.987  27.124  1.00  0.00     0.202 C 
BRANCH  78  79
ATOM     79  C   UNL A   1      33.794  23.791  26.573  1.00  0.00     0.261 C 
BRANCH  79  80
ATOM     80  O   UNL A   1      35.067  23.125  26.597  1.00  0.00    -0.460 OA
BRANCH  80  81
ATOM     81  C   UNL A   1      35.876  23.196  25.511  1.00  0.00     0.338 C 
ATOM     82  O   UNL A   1      36.431  24.168  25.061  1.00  0.00    -0.246 OA
BRANCH  81  83
ATOM     83  C   UNL A   1      36.117  21.788  25.098  1.00  0.00     0.063 A 
ATOM     84  C   UNL A   1      37.430  21.310  25.018  1.00  0.00     0.016 A 
ATOM     85  C   UNL A   1      35.033  20.911  24.976  1.00  0.00     0.062 A 
ATOM     86  C   UNL A   1      37.650  19.939  24.880  1.00  0.00     0.005 A 
ATOM     87  C   UNL A   1      35.249  19.546  24.803  1.00  0.00     0.120 A 
ATOM     88  C   UNL A   1      36.563  19.065  24.776  1.00  0.00     0.046 A 
BRANCH  87  89
ATOM     89  O   UNL A   1      34.280  18.587  24.691  1.00  0.00    -0.488 OA
BRANCH  89  90
ATOM     90  C   UNL A   1      34.615  17.372  24.011  1.00  0.00     0.302 C 
BRANCH  90  91
ATOM     91  C   UNL A   1      33.393  16.504  23.747  1.00  0.00     0.379 C 
ATOM     92  F   UNL A   1      32.627  16.399  24.860  1.00  0.00    -0.207 F 
ATOM     93  F   UNL A   1      32.614  17.105  22.809  1.00  0.00    -0.207 F 
ENDBRANCH  90  91
ENDBRANCH  89  90
ENDBRANCH  87  89
ENDBRANCH  81  83
ENDBRANCH  80  81
ENDBRANCH  79  80
ENDBRANCH  78  79
ENDBRANCH  77  78
ENDBRANCH  76  77
ENDBRANCH  75  76
ENDBRANCH   1  75
TORSDOF 26
ENDMDL
MODEL 2
REMARK VINA RESULT:      -9.3      1.765      2.689
REMARK SMILES O=C(OCCOCCOCCOCCOC(=O)c1cccc(OCC(F)F)c1)c1ccc(-c2c3nc(c(-c4cc(S(=O)(=O)[O-])ccc4F)c4ccc([nH]4)c(-c4cc(S(=O)(=O)[O-])ccc4F)c4nc(c(-c5cc(S(=O)(=O)[O-])ccc5F)c5ccc2[nH]5)C=C4)C=C3)cc1
REMARK SMILES IDX 9 1 8 2 7 3 6 4 5 5 4 6 3 7 2 8 1 9 29 10 30 11 91 12 31 13
REMARK SMILES IDX 90 14 32 15 33 16 34 17 84 18 35 19 89 20 83 21 85 22 36 23
REMARK SMILES IDX 88 24 82 25 81 26 37 28 69 29 49 30 68 31 50 32 53 33 67 34
REMARK SMILES IDX 86 35 51 36 52 37 66 39 87 40 54 41 38 42 39 43 47 44 40 45
REMARK SMILES IDX 46 46 48 47 45 48 41 49 42 50 43 51 44 52 70 53 71 54 79 55
REMARK SMILES IDX 72 56 78 57 80 58 77 59 73 60 74 61 75 62 76 63 55 64 56 65
REMARK SMILES IDX 64 66 57 67 63 68 65 69 62 70 58 71 59 72 60 73 61 74 10 75
REMARK SMILES IDX 11 76 12 77 13 78 14 79 15 80 16 81 17 82 18 83 19 84 28 85
REMARK SMILES IDX 20 86 22 87 21 88 23 89 24 90 25 91 26 92 27 93
REMARK H PARENT 85 27 53 38
REMARK Flexibility Score: inf
ROOT
ATOM      1  O   UNL A   1      31.109  29.305  24.229  1.00  0.00    -0.377 OA
ENDROOT
BRANCH   1   2
ATOM      2  C   UNL A   1      32.484  29.474  24.566  1.00  0.00     0.188 C 
BRANCH   2   3
ATOM      3  C   UNL A   1      32.801  29.378  26.059  1.00  0.00     0.188 C 
BRANCH   3   4
ATOM      4  O   UNL A   1      32.734  30.667  26.668  1.00  0.00    -0.376 OA
BRANCH   4   5
ATOM      5  C   UNL A   1      31.444  31.272  26.707  1.00  0.00     0.202 C 
BRANCH   5   6
ATOM      6  C   UNL A   1      31.466  32.800  26.807  1.00  0.00     0.261 C 
BRANCH   6   7
ATOM      7  O   UNL A   1      32.798  33.324  26.915  1.00  0.00    -0.460 OA
BRANCH   7   8
ATOM      8  C   UNL A   1      33.365  33.915  28.000  1.00  0.00     0.338 C 
ATOM      9  O   UNL A   1      32.867  34.959  28.420  1.00  0.00    -0.246 OA
BRANCH   8  10
ATOM     10  C   UNL A   1      34.554  33.366  28.727  1.00  0.00     0.060 A 
ATOM     11  C   UNL A   1      35.848  33.880  28.653  1.00  0.00     0.016 A 
ATOM     12  C   UNL A   1      34.330  32.289  29.601  1.00  0.00     0.016 A 
ATOM     13  C   UNL A   1      36.904  33.307  29.340  1.00  0.00     0.010 A 
ATOM     14  C   UNL A   1      35.382  31.725  30.333  1.00  0.00     0.010 A 
ATOM     15  C   UNL A   1      36.681  32.220  30.176  1.00  0.00    -0.014 A 
BRANCH  15  16
ATOM     16  C   UNL A   1      37.870  31.534  30.714  1.00  0.00     0.031 A 
ATOM     17  C   UNL A   1      38.250  31.818  32.137  1.00  0.00     0.074 A 
ATOM     18  C   UNL A   1      38.455  30.551  30.005  1.00  0.00     0.049 A 
ATOM     19  N   UNL A   1      39.261  31.376  32.831  1.00  0.00    -0.248 NA
ATOM     20  C   UNL A   1      37.350  32.715  32.886  1.00  0.00     0.031 C 
ATOM     21  C   UNL A   1      38.026  30.103  28.676  1.00  0.00     0.029 A 
ATOM     22  N   UNL A   1      39.501  29.723  30.311  1.00  0.00    -0.354 N 
ATOM     23  C   UNL A   1      39.134  31.957  34.088  1.00  0.00     0.074 A 
ATOM     24  C   UNL A   1      37.957  32.796  34.058  1.00  0.00     0.031 C 
ATOM     25  C   UNL A   1      38.790  29.067  28.295  1.00  0.00     0.029 A 
ATOM     26  C   UNL A   1      39.813  28.834  29.307  1.00  0.00     0.049 A 
ATOM     27  H   UNL A   1      39.985  29.760  31.168  1.00  0.00     0.167 HD
ATOM     28  C   UNL A   1      39.939  31.801  35.165  1.00  0.00     0.034 A 
ATOM     29  C   UNL A   1      40.843  27.971  29.210  1.00  0.00     0.034 A 
ATOM     30  C   UNL A   1      41.109  30.961  35.138  1.00  0.00     0.049 A 
ATOM     31  C   UNL A   1      41.808  27.921  30.371  1.00  0.00     0.074 A 
ATOM     32  C   UNL A   1      42.077  30.787  36.108  1.00  0.00     0.029 A 
ATOM     33  N   UNL A   1      41.465  30.147  34.066  1.00  0.00    -0.354 N 
ATOM     34  N   UNL A   1      41.749  28.558  31.522  1.00  0.00    -0.248 NA
ATOM     35  C   UNL A   1      42.978  27.051  30.223  1.00  0.00     0.031 C 
ATOM     36  C   UNL A   1      43.049  29.918  35.597  1.00  0.00     0.029 A 
ATOM     37  C   UNL A   1      42.649  29.487  34.340  1.00  0.00     0.049 A 
ATOM     38  H   UNL A   1      40.949  30.056  33.232  1.00  0.00     0.167 HD
ATOM     39  C   UNL A   1      42.868  28.150  32.240  1.00  0.00     0.074 A 
ATOM     40  C   UNL A   1      43.560  27.187  31.405  1.00  0.00     0.031 C 
ATOM     41  C   UNL A   1      43.301  28.537  33.469  1.00  0.00     0.034 A 
BRANCH  28  42
ATOM     42  C   UNL A   1      39.624  32.632  36.382  1.00  0.00     0.023 A 
ATOM     43  C   UNL A   1      38.779  32.167  37.407  1.00  0.00     0.031 A 
ATOM     44  C   UNL A   1      40.103  33.952  36.471  1.00  0.00     0.131 A 
ATOM     45  C   UNL A   1      38.380  33.038  38.433  1.00  0.00     0.055 A 
ATOM     46  C   UNL A   1      39.764  34.788  37.537  1.00  0.00     0.041 A 
ATOM     47  F   UNL A   1      40.883  34.462  35.506  1.00  0.00    -0.206 F 
ATOM     48  C   UNL A   1      38.886  34.338  38.519  1.00  0.00     0.022 A 
BRANCH  45  49
ATOM     49  S   UNL A   1      37.076  32.500  39.576  1.00  0.00     0.124 S 
ATOM     50  O   UNL A   1      37.487  31.127  39.867  1.00  0.00    -0.237 OA
ATOM     51  O   UNL A   1      37.205  33.450  40.674  1.00  0.00    -0.237 OA
ATOM     52  O   UNL A   1      35.853  32.622  38.785  1.00  0.00    -0.744 OA
ENDBRANCH  45  49
ENDBRANCH  28  42
BRANCH  29  53
ATOM     53  C   UNL A   1      41.080  27.175  27.965  1.00  0.00     0.023 A 
ATOM     54  C   UNL A   1      40.817  25.797  27.912  1.00  0.00     0.031 A 
ATOM     55  C   UNL A   1      41.659  27.771  26.827  1.00  0.00     0.131 A 
ATOM     56  C   UNL A   1      41.189  25.054  26.777  1.00  0.00     0.055 A 
ATOM     57  C   UNL A   1      41.961  27.041  25.676  1.00  0.00     0.041 A 
ATOM     58  F   UNL A   1      41.951  29.082  26.816  1.00  0.00    -0.206 F 
ATOM     59  C   UNL A   1      41.744  25.669  25.654  1.00  0.00     0.022 A 
BRANCH  56  60
ATOM     60  S   UNL A   1      41.059  23.243  26.840  1.00  0.00     0.124 S 
ATOM     61  O   UNL A   1      41.575  22.955  28.173  1.00  0.00    -0.237 OA
ATOM     62  O   UNL A   1      39.628  23.036  26.648  1.00  0.00    -0.237 OA
ATOM     63  O   UNL A   1      41.906  22.803  25.734  1.00  0.00    -0.744 OA
ENDBRANCH  56  60
ENDBRANCH  29  53
BRANCH  41  64
ATOM     64  C   UNL A   1      44.556  27.875  33.973  1.00  0.00     0.023 A 
ATOM     65  C   UNL A   1      44.509  26.675  34.701  1.00  0.00     0.031 A 
ATOM     66  C   UNL A   1      45.809  28.465  33.737  1.00  0.00     0.131 A 
ATOM     67  C   UNL A   1      45.689  26.137  35.228  1.00  0.00     0.055 A 
ATOM     68  C   UNL A   1      46.989  27.886  34.204  1.00  0.00     0.041 A 
ATOM     69  F   UNL A   1      45.906  29.613  33.047  1.00  0.00    -0.206 F 
ATOM     70  C   UNL A   1      46.931  26.724  34.969  1.00  0.00     0.022 A 
BRANCH  67  71
ATOM     71  S   UNL A   1      45.566  24.720  36.352  1.00  0.00     0.124 S 
ATOM     72  O   UNL A   1      46.970  24.381  36.566  1.00  0.00    -0.237 OA
ATOM     73  O   UNL A   1      44.867  25.291  37.498  1.00  0.00    -0.237 OA
ATOM     74  O   UNL A   1      44.801  23.740  35.584  1.00  0.00    -0.744 OA
ENDBRANCH  67  71
ENDBRANCH  41  64
ENDBRANCH  15  16
ENDBRANCH   8  10
ENDBRANCH   7   8
ENDBRANCH   6   7
ENDBRANCH   5   6
ENDBRANCH   4   5
ENDBRANCH   3   4
ENDBRANCH   2   3
ENDBRANCH   1   2
BRANCH   1  75
ATOM     75  C   UNL A   1      30.788  28.218  23.365  1.00  0.00     0.188 C 
BRANCH  75  76
ATOM     76  C   UNL A   1      31.679  26.955  23.383  1.00  0.00     0.188 C 
BRANCH  76  77
ATOM     77  O   UNL A   1      31.406  26.032  22.340  1.00  0.00    -0.376 OA
BRANCH  77  78
ATOM     78  C   UNL A   1      32.527  25.642  21.554  1.00  0.00     0.202 C 
BRANCH  78  79
ATOM     79  C   UNL A   1      33.829  25.427  22.335  1.00  0.00     0.261 C 
BRANCH  79  80
ATOM     80  O   UNL A   1      34.048  24.096  22.832  1.00  0.00    -0.460 OA
BRANCH  80  81
ATOM     81  C   UNL A   1      34.477  23.923  24.106  1.00  0.00     0.338 C 
ATOM     82  O   UNL A   1      35.103  24.696  24.790  1.00  0.00    -0.246 OA
BRANCH  81  83
ATOM     83  C   UNL A   1      33.839  22.665  24.578  1.00  0.00     0.063 A 
ATOM     84  C   UNL A   1      32.517  22.695  25.036  1.00  0.00     0.016 A 
ATOM     85  C   UNL A   1      34.499  21.446  24.385  1.00  0.00     0.062 A 
ATOM     86  C   UNL A   1      31.839  21.492  25.238  1.00  0.00     0.005 A 
ATOM     87  C   UNL A   1      33.835  20.244  24.619  1.00  0.00     0.120 A 
ATOM     88  C   UNL A   1      32.496  20.276  25.027  1.00  0.00     0.046 A 
BRANCH  87  89
ATOM     89  O   UNL A   1      34.358  18.991  24.450  1.00  0.00    -0.488 OA
BRANCH  89  90
ATOM     90  C   UNL A   1      33.607  17.878  24.949  1.00  0.00     0.302 C 
BRANCH  90  91
ATOM     91  C   UNL A   1      33.291  16.862  23.861  1.00  0.00     0.379 C 
ATOM     92  F   UNL A   1      34.285  16.815  22.942  1.00  0.00    -0.207 F 
ATOM     93  F   UNL A   1      33.232  15.621  24.415  1.00  0.00    -0.207 F 
ENDBRANCH  90  91
ENDBRANCH  89  90
ENDBRANCH  87  89
ENDBRANCH  81  83
ENDBRANCH  80  81
ENDBRANCH  79  80
ENDBRANCH  78  79
ENDBRANCH  77  78
ENDBRANCH  76  77
ENDBRANCH  75  76
ENDBRANCH   1  75
TORSDOF 26
ENDMDL
MODEL 3
REMARK VINA RESULT:      -9.1      4.406     10.042
REMARK SMILES O=C(OCCOCCOCCOCCOC(=O)c1cccc(OCC(F)F)c1)c1ccc(-c2c3nc(c(-c4cc(S(=O)(=O)[O-])ccc4F)c4ccc([nH]4)c(-c4cc(S(=O)(=O)[O-])ccc4F)c4nc(c(-c5cc(S(=O)(=O)[O-])ccc5F)c5ccc2[nH]5)C=C4)C=C3)cc1
REMARK SMILES IDX 9 1 8 2 7 3 6 4 5 5 4 6 3 7 2 8 1 9 29 10 30 11 91 12 31 13
REMARK SMILES IDX 90 14 32 15 33 16 34 17 84 18 35 19 89 20 83 21 85 22 36 23
REMARK SMILES IDX 88 24 82 25 81 26 37 28 69 29 49 30 68 31 50 32 53 33 67 34
REMARK SMILES IDX 86 35 51 36 52 37 66 39 87 40 54 41 38 42 39 43 47 44 40 45
REMARK SMILES IDX 46 46 48 47 45 48 41 49 42 50 43 51 44 52 70 53 71 54 79 55
REMARK SMILES IDX 72 56 78 57 80 58 77 59 73 60 74 61 75 62 76 63 55 64 56 65
REMARK SMILES IDX 64 66 57 67 63 68 65 69 62 70 58 71 59 72 60 73 61 74 10 75
REMARK SMILES IDX 11 76 12 77 13 78 14 79 15 80 16 81 17 82 18 83 19 84 28 85
REMARK SMILES IDX 20 86 22 87 21 88 23 89 24 90 25 91 26 92 27 93
REMARK H PARENT 85 27 53 38
REMARK Flexibility Score: inf
ROOT
ATOM      1  O   UNL A   1      31.523  23.370  23.300  1.00  0.00    -0.377 OA
ENDROOT
BRANCH   1   2
ATOM      2  C   UNL A   1      32.496  22.331  23.217  1.00  0.00     0.188 C 
BRANCH   2   3
ATOM      3  C   UNL A   1      33.320  22.114  24.487  1.00  0.00     0.188 C 
BRANCH   3   4
ATOM      4  O   UNL A   1      34.713  22.084  24.181  1.00  0.00    -0.376 OA
BRANCH   4   5
ATOM      5  C   UNL A   1      35.477  21.082  24.847  1.00  0.00     0.202 C 
BRANCH   5   6
ATOM      6  C   UNL A   1      36.600  21.627  25.732  1.00  0.00     0.261 C 
BRANCH   6   7
ATOM      7  O   UNL A   1      37.904  21.306  25.226  1.00  0.00    -0.460 OA
BRANCH   7   8
ATOM      8  C   UNL A   1      39.088  21.383  25.890  1.00  0.00     0.338 C 
ATOM      9  O   UNL A   1      39.780  20.369  25.963  1.00  0.00    -0.246 OA
BRANCH   8  10
ATOM     10  C   UNL A   1      39.610  22.633  26.529  1.00  0.00     0.060 A 
ATOM     11  C   UNL A   1      39.167  23.925  26.246  1.00  0.00     0.016 A 
ATOM     12  C   UNL A   1      40.574  22.482  27.540  1.00  0.00     0.016 A 
ATOM     13  C   UNL A   1      39.711  25.037  26.864  1.00  0.00     0.010 A 
ATOM     14  C   UNL A   1      41.103  23.597  28.202  1.00  0.00     0.010 A 
ATOM     15  C   UNL A   1      40.689  24.883  27.838  1.00  0.00    -0.014 A 
BRANCH  15  16
ATOM     16  C   UNL A   1      41.367  26.105  28.307  1.00  0.00     0.031 A 
ATOM     17  C   UNL A   1      42.767  26.350  27.827  1.00  0.00     0.074 A 
ATOM     18  C   UNL A   1      40.672  27.042  28.977  1.00  0.00     0.049 A 
ATOM     19  N   UNL A   1      43.587  27.320  28.116  1.00  0.00    -0.248 NA
ATOM     20  C   UNL A   1      43.310  25.367  26.870  1.00  0.00     0.031 C 
ATOM     21  C   UNL A   1      39.251  26.943  29.330  1.00  0.00     0.029 A 
ATOM     22  N   UNL A   1      41.043  28.275  29.442  1.00  0.00    -0.354 N 
ATOM     23  C   UNL A   1      44.749  27.055  27.399  1.00  0.00     0.074 A 
ATOM     24  C   UNL A   1      44.534  25.825  26.672  1.00  0.00     0.031 C 
ATOM     25  C   UNL A   1      38.870  28.079  29.935  1.00  0.00     0.029 A 
ATOM     26  C   UNL A   1      40.031  28.947  30.091  1.00  0.00     0.049 A 
ATOM     27  H   UNL A   1      41.947  28.645  29.323  1.00  0.00     0.167 HD
ATOM     28  C   UNL A   1      45.891  27.781  27.363  1.00  0.00     0.034 A 
ATOM     29  C   UNL A   1      40.068  30.108  30.773  1.00  0.00     0.034 A 
ATOM     30  C   UNL A   1      46.057  28.996  28.118  1.00  0.00     0.049 A 
ATOM     31  C   UNL A   1      41.395  30.826  30.834  1.00  0.00     0.074 A 
ATOM     32  C   UNL A   1      47.185  29.780  28.268  1.00  0.00     0.029 A 
ATOM     33  N   UNL A   1      45.046  29.604  28.857  1.00  0.00    -0.354 N 
ATOM     34  N   UNL A   1      42.530  30.515  30.244  1.00  0.00    -0.248 NA
ATOM     35  C   UNL A   1      41.455  32.039  31.654  1.00  0.00     0.031 C 
ATOM     36  C   UNL A   1      46.872  30.824  29.146  1.00  0.00     0.029 A 
ATOM     37  C   UNL A   1      45.528  30.739  29.483  1.00  0.00     0.049 A 
ATOM     38  H   UNL A   1      44.121  29.274  28.925  1.00  0.00     0.167 HD
ATOM     39  C   UNL A   1      43.434  31.506  30.611  1.00  0.00     0.074 A 
ATOM     40  C   UNL A   1      42.699  32.441  31.442  1.00  0.00     0.031 C 
ATOM     41  C   UNL A   1      44.752  31.637  30.308  1.00  0.00     0.034 A 
BRANCH  28  42
ATOM     42  C   UNL A   1      47.040  27.209  26.574  1.00  0.00     0.023 A 
ATOM     43  C   UNL A   1      47.364  27.668  25.284  1.00  0.00     0.031 A 
ATOM     44  C   UNL A   1      47.767  26.119  27.086  1.00  0.00     0.131 A 
ATOM     45  C   UNL A   1      48.331  26.992  24.523  1.00  0.00     0.055 A 
ATOM     46  C   UNL A   1      48.782  25.500  26.354  1.00  0.00     0.041 A 
ATOM     47  F   UNL A   1      47.479  25.615  28.297  1.00  0.00    -0.206 F 
ATOM     48  C   UNL A   1      49.059  25.927  25.058  1.00  0.00     0.022 A 
BRANCH  45  49
ATOM     49  S   UNL A   1      48.524  27.428  22.771  1.00  0.00     0.124 S 
ATOM     50  O   UNL A   1      49.749  28.225  22.800  1.00  0.00    -0.237 OA
ATOM     51  O   UNL A   1      48.627  26.123  22.129  1.00  0.00    -0.237 OA
ATOM     52  O   UNL A   1      47.308  28.179  22.467  1.00  0.00    -0.744 OA
ENDBRANCH  45  49
ENDBRANCH  28  42
BRANCH  29  53
ATOM     53  C   UNL A   1      38.875  30.610  31.524  1.00  0.00     0.023 A 
ATOM     54  C   UNL A   1      38.004  31.562  30.971  1.00  0.00     0.031 A 
ATOM     55  C   UNL A   1      38.636  30.206  32.853  1.00  0.00     0.131 A 
ATOM     56  C   UNL A   1      36.981  32.120  31.757  1.00  0.00     0.055 A 
ATOM     57  C   UNL A   1      37.575  30.711  33.606  1.00  0.00     0.041 A 
ATOM     58  F   UNL A   1      39.440  29.309  33.449  1.00  0.00    -0.206 F 
ATOM     59  C   UNL A   1      36.751  31.689  33.065  1.00  0.00     0.022 A 
BRANCH  56  60
ATOM     60  S   UNL A   1      36.032  33.518  31.090  1.00  0.00     0.124 S 
ATOM     61  O   UNL A   1      34.833  32.853  30.594  1.00  0.00    -0.237 OA
ATOM     62  O   UNL A   1      35.860  34.357  32.271  1.00  0.00    -0.237 OA
ATOM     63  O   UNL A   1      36.913  34.066  30.060  1.00  0.00    -0.744 OA
ENDBRANCH  56  60
ENDBRANCH  29  53
BRANCH  41  64
ATOM     64  C   UNL A   1      45.446  32.857  30.854  1.00  0.00     0.023 A 
ATOM     65  C   UNL A   1      46.084  32.838  32.105  1.00  0.00     0.031 A 
ATOM     66  C   UNL A   1      45.450  34.054  30.119  1.00  0.00     0.131 A 
ATOM     67  C   UNL A   1      46.641  34.016  32.616  1.00  0.00     0.055 A 
ATOM     68  C   UNL A   1      46.070  35.206  30.602  1.00  0.00     0.041 A 
ATOM     69  F   UNL A   1      44.854  34.123  28.918  1.00  0.00    -0.206 F 
ATOM     70  C   UNL A   1      46.656  35.195  31.866  1.00  0.00     0.022 A 
BRANCH  67  71
ATOM     71  S   UNL A   1      47.249  34.013  34.324  1.00  0.00     0.124 S 
ATOM     72  O   UNL A   1      46.034  34.307  35.078  1.00  0.00    -0.237 OA
ATOM     73  O   UNL A   1      47.775  32.661  34.466  1.00  0.00    -0.237 OA
ATOM     74  O   UNL A   1      48.255  35.074  34.331  1.00  0.00    -0.744 OA
ENDBRANCH  67  71
ENDBRANCH  41  64
ENDBRANCH  15  16
ENDBRANCH   8  10
ENDBRANCH   7   8
ENDBRANCH   6   7
ENDBRANCH   5   6
ENDBRANCH   4   5
ENDBRANCH   3   4
ENDBRANCH   2   3
ENDBRANCH   1   2
BRANCH   1  75
ATOM     75  C   UNL A   1      31.817  24.582  22.611  1.00  0.00     0.188 C 
BRANCH  75  76
ATOM     76  C   UNL A   1      30.802  25.746  22.671  1.00  0.00     0.188 C 
BRANCH  76  77
ATOM     77  O   UNL A   1      29.910  25.688  23.774  1.00  0.00    -0.376 OA
BRANCH  77  78
ATOM     78  C   UNL A   1      28.845  26.633  23.755  1.00  0.00     0.202 C 
BRANCH  78  79
ATOM     79  C   UNL A   1      29.153  27.948  23.029  1.00  0.00     0.261 C 
BRANCH  79  80
ATOM     80  O   UNL A   1      29.928  28.906  23.771  1.00  0.00    -0.460 OA
BRANCH  80  81
ATOM     81  C   UNL A   1      31.278  28.910  23.645  1.00  0.00     0.338 C 
ATOM     82  O   UNL A   1      31.930  29.073  22.643  1.00  0.00    -0.246 OA
BRANCH  81  83
ATOM     83  C   UNL A   1      31.810  28.883  25.034  1.00  0.00     0.063 A 
ATOM     84  C   UNL A   1      31.536  27.782  25.853  1.00  0.00     0.016 A 
ATOM     85  C   UNL A   1      32.725  29.861  25.438  1.00  0.00     0.062 A 
ATOM     86  C   UNL A   1      32.234  27.635  27.053  1.00  0.00     0.005 A 
ATOM     87  C   UNL A   1      33.398  29.735  26.652  1.00  0.00     0.120 A 
ATOM     88  C   UNL A   1      33.161  28.607  27.445  1.00  0.00     0.046 A 
BRANCH  87  89
ATOM     89  O   UNL A   1      34.326  30.607  27.150  1.00  0.00    -0.488 OA
BRANCH  89  90
ATOM     90  C   UNL A   1      35.129  30.173  28.254  1.00  0.00     0.302 C 
BRANCH  90  91
ATOM     91  C   UNL A   1      36.589  30.571  28.097  1.00  0.00     0.379 C 
ATOM     92  F   UNL A   1      37.157  29.919  27.053  1.00  0.00    -0.207 F 
ATOM     93  F   UNL A   1      36.660  31.896  27.797  1.00  0.00    -0.207 F 
ENDBRANCH  90  91
ENDBRANCH  89  90
ENDBRANCH  87  89
ENDBRANCH  81  83
ENDBRANCH  80  81
ENDBRANCH  79  80
ENDBRANCH  78  79
ENDBRANCH  77  78
ENDBRANCH  76  77
ENDBRANCH  75  76
ENDBRANCH   1  75
TORSDOF 26
ENDMDL
