MODEL 1
REMARK VINA RESULT:      -9.4      0.000      0.000
REMARK SMILES CC[C@H]1CCCCN1S(=O)(=O)c1ccc2oc(C(=O)OCCOCCOCCOCCOC(=O)c3ccc(-c4c5nc(c(-c6cc(S(=O)(=O)[O-])ccc6F)c6ccc([nH]6)c(-c6cc(S(=O)(=O)[O-])ccc6F)c6nc(c(-c7cc(S(=O)(=O)[O-])ccc7F)c7ccc4[nH]7)C=C6)C=C5)cc3)c(C)c2c1
REMARK SMILES IDX 26 1 25 2 24 3 23 4 22 5 21 6 20 7 18 8 19 9 17 10 12 11
REMARK SMILES IDX 13 12 101 13 14 14 100 15 15 16 98 17 16 18 99 19 9 20 10 21
REMARK SMILES IDX 11 22 8 23 3 24 4 25 5 26 7 27 6 28 2 29 1 30 27 31 28 32
REMARK SMILES IDX 29 33 30 34 31 35 32 36 33 37 34 38 35 39 36 40 97 41 37 42
REMARK SMILES IDX 96 43 38 44 39 45 40 46 90 47 41 48 95 49 89 50 91 51 42 52
REMARK SMILES IDX 94 53 88 54 87 55 43 57 75 58 55 59 74 60 56 61 59 62 73 63
REMARK SMILES IDX 92 64 57 65 58 66 72 68 93 69 60 70 44 71 45 72 53 73 46 74
REMARK SMILES IDX 52 75 54 76 51 77 47 78 48 79 49 80 50 81 76 82 77 83 85 84
REMARK SMILES IDX 78 85 84 86 86 87 83 88 79 89 80 90 81 91 82 92 61 93 62 94
REMARK SMILES IDX 70 95 63 96 69 97 71 98 68 99 64 100 65 101 66 102 67 103
REMARK H PARENT 91 56 59 67
REMARK Flexibility Score: inf
ROOT
ATOM      1  O   UNL A   1      34.491  25.035  25.608  1.00  0.00    -0.377 OA
ENDROOT
BRANCH   1   2
ATOM      2  C   UNL A   1      34.454  26.449  25.581  1.00  0.00     0.188 C 
BRANCH   2   3
ATOM      3  C   UNL A   1      33.376  27.102  26.470  1.00  0.00     0.188 C 
BRANCH   3   4
ATOM      4  O   UNL A   1      33.583  28.289  27.233  1.00  0.00    -0.376 OA
BRANCH   4   5
ATOM      5  C   UNL A   1      33.040  29.540  26.848  1.00  0.00     0.202 C 
BRANCH   5   6
ATOM      6  C   UNL A   1      31.577  29.593  26.395  1.00  0.00     0.261 C 
BRANCH   6   7
ATOM      7  O   UNL A   1      31.349  30.412  25.246  1.00  0.00    -0.457 OA
BRANCH   7   8
ATOM      8  C   UNL A   1      30.507  29.899  24.310  1.00  0.00     0.374 C 
ATOM      9  O   UNL A   1      29.514  30.470  23.872  1.00  0.00    -0.242 OA
BRANCH   8  10
ATOM     10  C   UNL A   1      31.011  28.624  23.846  1.00  0.00     0.215 A 
ATOM     11  C   UNL A   1      32.448  24.481  22.583  1.00  0.00     0.083 A 
ATOM     12  C   UNL A   1      31.184  24.146  23.082  1.00  0.00     0.025 A 
ATOM     13  C   UNL A   1      32.831  25.819  22.411  1.00  0.00     0.034 A 
ATOM     14  C   UNL A   1      30.310  25.150  23.524  1.00  0.00     0.049 A 
ATOM     15  C   UNL A   1      32.032  26.816  22.981  1.00  0.00     0.025 A 
ATOM     16  C   UNL A   1      30.803  26.454  23.508  1.00  0.00     0.135 A 
ATOM     17  C   UNL A   1      32.182  28.217  23.206  1.00  0.00     0.010 A 
ATOM     18  O   UNL A   1      30.178  27.544  24.008  1.00  0.00    -0.449 OA
ATOM     19  C   UNL A   1      33.393  29.012  22.856  1.00  0.00     0.049 C 
BRANCH  11  20
ATOM     20  S   UNL A   1      33.595  23.226  22.054  1.00  0.00     0.243 S 
ATOM     21  O   UNL A   1      34.900  23.717  22.432  1.00  0.00    -0.207 OA
ATOM     22  O   UNL A   1      33.290  22.917  20.671  1.00  0.00    -0.207 OA
BRANCH  20  23
ATOM     23  N   UNL A   1      33.226  21.828  22.980  1.00  0.00    -0.195 NA
ATOM     24  C   UNL A   1      33.500  21.920  24.457  1.00  0.00     0.073 C 
ATOM     25  C   UNL A   1      33.726  20.477  24.965  1.00  0.00     0.020 C 
ATOM     26  C   UNL A   1      32.521  19.575  24.696  1.00  0.00     0.003 C 
ATOM     27  C   UNL A   1      32.008  21.037  22.676  1.00  0.00     0.103 C 
ATOM     28  C   UNL A   1      32.142  19.615  23.224  1.00  0.00     0.017 C 
BRANCH  24  29
ATOM     29  C   UNL A   1      32.396  22.590  25.307  1.00  0.00     0.017 C 
ATOM     30  C   UNL A   1      32.585  22.578  26.812  1.00  0.00     0.005 C 
ENDBRANCH  24  29
ENDBRANCH  20  23
ENDBRANCH  11  20
ENDBRANCH   8  10
ENDBRANCH   7   8
ENDBRANCH   6   7
ENDBRANCH   5   6
ENDBRANCH   4   5
ENDBRANCH   3   4
ENDBRANCH   2   3
ENDBRANCH   1   2
BRANCH   1  31
ATOM     31  C   UNL A   1      35.697  24.474  26.122  1.00  0.00     0.188 C 
BRANCH  31  32
ATOM     32  C   UNL A   1      36.529  23.665  25.112  1.00  0.00     0.188 C 
BRANCH  32  33
ATOM     33  O   UNL A   1      37.775  23.230  25.664  1.00  0.00    -0.376 OA
BRANCH  33  34
ATOM     34  C   UNL A   1      38.062  21.840  25.516  1.00  0.00     0.202 C 
BRANCH  34  35
ATOM     35  C   UNL A   1      39.300  21.381  26.302  1.00  0.00     0.261 C 
BRANCH  35  36
ATOM     36  O   UNL A   1      40.111  20.398  25.636  1.00  0.00    -0.460 OA
BRANCH  36  37
ATOM     37  C   UNL A   1      41.277  20.073  26.236  1.00  0.00     0.338 C 
ATOM     38  O   UNL A   1      41.705  18.951  26.433  1.00  0.00    -0.246 OA
BRANCH  37  39
ATOM     39  C   UNL A   1      42.058  21.310  26.443  1.00  0.00     0.060 A 
ATOM     40  C   UNL A   1      42.431  21.643  27.752  1.00  0.00     0.016 A 
ATOM     41  C   UNL A   1      42.377  22.155  25.377  1.00  0.00     0.016 A 
ATOM     42  C   UNL A   1      43.062  22.859  28.005  1.00  0.00     0.010 A 
ATOM     43  C   UNL A   1      43.000  23.380  25.634  1.00  0.00     0.010 A 
ATOM     44  C   UNL A   1      43.295  23.757  26.955  1.00  0.00    -0.014 A 
BRANCH  44  45
ATOM     45  C   UNL A   1      43.608  25.172  27.277  1.00  0.00     0.031 A 
ATOM     46  C   UNL A   1      45.020  25.649  27.057  1.00  0.00     0.074 A 
ATOM     47  C   UNL A   1      42.660  26.023  27.705  1.00  0.00     0.049 A 
ATOM     48  N   UNL A   1      45.536  26.837  27.231  1.00  0.00    -0.248 NA
ATOM     49  C   UNL A   1      45.979  24.640  26.578  1.00  0.00     0.031 C 
ATOM     50  C   UNL A   1      41.256  25.683  27.927  1.00  0.00     0.029 A 
ATOM     51  N   UNL A   1      42.740  27.354  28.026  1.00  0.00    -0.354 N 
ATOM     52  C   UNL A   1      46.876  26.723  26.872  1.00  0.00     0.074 A 
ATOM     53  C   UNL A   1      47.101  25.337  26.522  1.00  0.00     0.031 C 
ATOM     54  C   UNL A   1      40.605  26.780  28.354  1.00  0.00     0.029 A 
ATOM     55  C   UNL A   1      41.550  27.893  28.455  1.00  0.00     0.049 A 
ATOM     56  H   UNL A   1      43.572  27.876  27.957  1.00  0.00     0.167 HD
ATOM     57  C   UNL A   1      47.829  27.686  26.824  1.00  0.00     0.034 A 
ATOM     58  C   UNL A   1      41.264  29.138  28.884  1.00  0.00     0.034 A 
ATOM     59  C   UNL A   1      47.598  29.057  27.203  1.00  0.00     0.049 A 
ATOM     60  C   UNL A   1      42.356  30.183  28.883  1.00  0.00     0.074 A 
ATOM     61  C   UNL A   1      48.491  30.114  27.210  1.00  0.00     0.029 A 
ATOM     62  N   UNL A   1      46.385  29.562  27.654  1.00  0.00    -0.354 N 
ATOM     63  N   UNL A   1      43.615  30.066  28.526  1.00  0.00    -0.248 NA
ATOM     64  C   UNL A   1      41.979  31.532  29.324  1.00  0.00     0.031 C 
ATOM     65  C   UNL A   1      47.835  31.240  27.722  1.00  0.00     0.029 A 
ATOM     66  C   UNL A   1      46.512  30.906  27.963  1.00  0.00     0.049 A 
ATOM     67  H   UNL A   1      45.555  29.039  27.741  1.00  0.00     0.167 HD
ATOM     68  C   UNL A   1      44.168  31.338  28.663  1.00  0.00     0.074 A 
ATOM     69  C   UNL A   1      43.103  32.205  29.123  1.00  0.00     0.031 C 
ATOM     70  C   UNL A   1      45.438  31.756  28.424  1.00  0.00     0.034 A 
BRANCH  57  71
ATOM     71  C   UNL A   1      49.211  27.259  26.394  1.00  0.00     0.023 A 
ATOM     72  C   UNL A   1      50.227  26.997  27.332  1.00  0.00     0.031 A 
ATOM     73  C   UNL A   1      49.535  27.169  25.030  1.00  0.00     0.131 A 
ATOM     74  C   UNL A   1      51.534  26.736  26.894  1.00  0.00     0.055 A 
ATOM     75  C   UNL A   1      50.820  26.830  24.600  1.00  0.00     0.041 A 
ATOM     76  F   UNL A   1      48.615  27.434  24.090  1.00  0.00    -0.206 F 
ATOM     77  C   UNL A   1      51.832  26.627  25.534  1.00  0.00     0.022 A 
BRANCH  74  78
ATOM     78  S   UNL A   1      52.869  26.693  28.121  1.00  0.00     0.124 S 
ATOM     79  O   UNL A   1      53.306  28.087  28.130  1.00  0.00    -0.237 OA
ATOM     80  O   UNL A   1      52.180  26.233  29.321  1.00  0.00    -0.237 OA
ATOM     81  O   UNL A   1      53.828  25.750  27.551  1.00  0.00    -0.744 OA
ENDBRANCH  74  78
ENDBRANCH  57  71
BRANCH  58  82
ATOM     82  C   UNL A   1      39.896  29.477  29.371  1.00  0.00     0.023 A 
ATOM     83  C   UNL A   1      39.595  29.506  30.742  1.00  0.00     0.031 A 
ATOM     84  C   UNL A   1      38.850  29.714  28.461  1.00  0.00     0.131 A 
ATOM     85  C   UNL A   1      38.272  29.713  31.163  1.00  0.00     0.055 A 
ATOM     86  C   UNL A   1      37.545  29.969  28.886  1.00  0.00     0.041 A 
ATOM     87  F   UNL A   1      39.084  29.701  27.140  1.00  0.00    -0.206 F 
ATOM     88  C   UNL A   1      37.247  29.955  30.246  1.00  0.00     0.022 A 
BRANCH  85  89
ATOM     89  S   UNL A   1      37.891  29.579  32.932  1.00  0.00     0.124 S 
ATOM     90  O   UNL A   1      36.890  30.627  33.100  1.00  0.00    -0.237 OA
ATOM     91  O   UNL A   1      37.407  28.206  33.032  1.00  0.00    -0.237 OA
ATOM     92  O   UNL A   1      39.177  29.833  33.577  1.00  0.00    -0.744 OA
ENDBRANCH  85  89
ENDBRANCH  58  82
BRANCH  70  93
ATOM     93  C   UNL A   1      45.721  33.229  28.601  1.00  0.00     0.023 A 
ATOM     94  C   UNL A   1      46.048  33.779  29.852  1.00  0.00     0.031 A 
ATOM     95  C   UNL A   1      45.638  34.099  27.498  1.00  0.00     0.131 A 
ATOM     96  C   UNL A   1      46.214  35.167  29.985  1.00  0.00     0.055 A 
ATOM     97  C   UNL A   1      45.865  35.469  27.624  1.00  0.00     0.041 A 
ATOM     98  F   UNL A   1      45.330  33.629  26.278  1.00  0.00    -0.206 F 
ATOM     99  C   UNL A   1      46.138  36.013  28.875  1.00  0.00     0.022 A 
BRANCH  96 100
ATOM    100  S   UNL A   1      46.418  35.865  31.646  1.00  0.00     0.124 S 
ATOM    101  O   UNL A   1      47.572  36.741  31.469  1.00  0.00    -0.237 OA
ATOM    102  O   UNL A   1      45.138  36.534  31.861  1.00  0.00    -0.237 OA
ATOM    103  O   UNL A   1      46.652  34.692  32.485  1.00  0.00    -0.744 OA
ENDBRANCH  96 100
ENDBRANCH  70  93
ENDBRANCH  44  45
ENDBRANCH  37  39
ENDBRANCH  36  37
ENDBRANCH  35  36
ENDBRANCH  34  35
ENDBRANCH  33  34
ENDBRANCH  32  33
ENDBRANCH  31  32
ENDBRANCH   1  31
TORSDOF 26
ENDMDL
MODEL 2
REMARK VINA RESULT:      -9.3      2.032      2.393
REMARK SMILES CC[C@H]1CCCCN1S(=O)(=O)c1ccc2oc(C(=O)OCCOCCOCCOCCOC(=O)c3ccc(-c4c5nc(c(-c6cc(S(=O)(=O)[O-])ccc6F)c6ccc([nH]6)c(-c6cc(S(=O)(=O)[O-])ccc6F)c6nc(c(-c7cc(S(=O)(=O)[O-])ccc7F)c7ccc4[nH]7)C=C6)C=C5)cc3)c(C)c2c1
REMARK SMILES IDX 26 1 25 2 24 3 23 4 22 5 21 6 20 7 18 8 19 9 17 10 12 11
REMARK SMILES IDX 13 12 101 13 14 14 100 15 15 16 98 17 16 18 99 19 9 20 10 21
REMARK SMILES IDX 11 22 8 23 3 24 4 25 5 26 7 27 6 28 2 29 1 30 27 31 28 32
REMARK SMILES IDX 29 33 30 34 31 35 32 36 33 37 34 38 35 39 36 40 97 41 37 42
REMARK SMILES IDX 96 43 38 44 39 45 40 46 90 47 41 48 95 49 89 50 91 51 42 52
REMARK SMILES IDX 94 53 88 54 87 55 43 57 75 58 55 59 74 60 56 61 59 62 73 63
REMARK SMILES IDX 92 64 57 65 58 66 72 68 93 69 60 70 44 71 45 72 53 73 46 74
REMARK SMILES IDX 52 75 54 76 51 77 47 78 48 79 49 80 50 81 76 82 77 83 85 84
REMARK SMILES IDX 78 85 84 86 86 87 83 88 79 89 80 90 81 91 82 92 61 93 62 94
REMARK SMILES IDX 70 95 63 96 69 97 71 98 68 99 64 100 65 101 66 102 67 103
REMARK H PARENT 91 56 59 67
REMARK Flexibility Score: inf
ROOT
ATOM      1  O   UNL A   1      34.458  24.962  26.025  1.00  0.00    -0.377 OA
ENDROOT
BRANCH   1   2
ATOM      2  C   UNL A   1      34.216  26.260  25.516  1.00  0.00     0.188 C 
BRANCH   2   3
ATOM      3  C   UNL A   1      33.273  27.140  26.362  1.00  0.00     0.188 C 
BRANCH   3   4
ATOM      4  O   UNL A   1      33.628  28.420  26.881  1.00  0.00    -0.376 OA
BRANCH   4   5
ATOM      5  C   UNL A   1      33.003  29.614  26.443  1.00  0.00     0.202 C 
BRANCH   5   6
ATOM      6  C   UNL A   1      31.501  29.585  26.143  1.00  0.00     0.261 C 
BRANCH   6   7
ATOM      7  O   UNL A   1      31.100  30.447  25.076  1.00  0.00    -0.457 OA
BRANCH   7   8
ATOM      8  C   UNL A   1      30.284  29.892  24.139  1.00  0.00     0.374 C 
ATOM      9  O   UNL A   1      29.283  30.427  23.676  1.00  0.00    -0.242 OA
BRANCH   8  10
ATOM     10  C   UNL A   1      30.829  28.622  23.709  1.00  0.00     0.215 A 
ATOM     11  C   UNL A   1      32.393  24.492  22.556  1.00  0.00     0.083 A 
ATOM     12  C   UNL A   1      31.136  24.134  23.054  1.00  0.00     0.025 A 
ATOM     13  C   UNL A   1      32.738  25.837  22.353  1.00  0.00     0.034 A 
ATOM     14  C   UNL A   1      30.230  25.122  23.466  1.00  0.00     0.049 A 
ATOM     15  C   UNL A   1      31.907  26.823  22.895  1.00  0.00     0.025 A 
ATOM     16  C   UNL A   1      30.686  26.439  23.422  1.00  0.00     0.135 A 
ATOM     17  C   UNL A   1      32.015  28.234  23.087  1.00  0.00     0.010 A 
ATOM     18  O   UNL A   1      30.026  27.522  23.892  1.00  0.00    -0.449 OA
ATOM     19  C   UNL A   1      33.205  29.055  22.725  1.00  0.00     0.049 C 
BRANCH  11  20
ATOM     20  S   UNL A   1      33.580  23.260  22.064  1.00  0.00     0.243 S 
ATOM     21  O   UNL A   1      34.856  23.749  22.531  1.00  0.00    -0.207 OA
ATOM     22  O   UNL A   1      33.359  22.984  20.658  1.00  0.00    -0.207 OA
BRANCH  20  23
ATOM     23  N   UNL A   1      33.167  21.835  22.930  1.00  0.00    -0.195 NA
ATOM     24  C   UNL A   1      33.327  21.900  24.426  1.00  0.00     0.073 C 
ATOM     25  C   UNL A   1      33.540  20.450  24.919  1.00  0.00     0.020 C 
ATOM     26  C   UNL A   1      32.376  19.534  24.542  1.00  0.00     0.003 C 
ATOM     27  C   UNL A   1      31.990  21.031  22.519  1.00  0.00     0.103 C 
ATOM     28  C   UNL A   1      32.109  19.600  23.046  1.00  0.00     0.017 C 
BRANCH  24  29
ATOM     29  C   UNL A   1      32.149  22.533  25.203  1.00  0.00     0.017 C 
ATOM     30  C   UNL A   1      32.288  22.618  26.711  1.00  0.00     0.005 C 
ENDBRANCH  24  29
ENDBRANCH  20  23
ENDBRANCH  11  20
ENDBRANCH   8  10
ENDBRANCH   7   8
ENDBRANCH   6   7
ENDBRANCH   5   6
ENDBRANCH   4   5
ENDBRANCH   3   4
ENDBRANCH   2   3
ENDBRANCH   1   2
BRANCH   1  31
ATOM     31  C   UNL A   1      35.706  24.387  25.643  1.00  0.00     0.188 C 
BRANCH  31  32
ATOM     32  C   UNL A   1      36.101  23.109  26.401  1.00  0.00     0.188 C 
BRANCH  32  33
ATOM     33  O   UNL A   1      36.680  22.126  25.538  1.00  0.00    -0.376 OA
BRANCH  33  34
ATOM     34  C   UNL A   1      38.102  22.160  25.433  1.00  0.00     0.202 C 
BRANCH  34  35
ATOM     35  C   UNL A   1      38.776  20.823  25.781  1.00  0.00     0.261 C 
BRANCH  35  36
ATOM     36  O   UNL A   1      40.212  20.865  25.839  1.00  0.00    -0.460 OA
BRANCH  36  37
ATOM     37  C   UNL A   1      40.766  20.831  27.071  1.00  0.00     0.338 C 
ATOM     38  O   UNL A   1      40.828  19.868  27.813  1.00  0.00    -0.246 OA
BRANCH  37  39
ATOM     39  C   UNL A   1      41.470  22.109  27.305  1.00  0.00     0.060 A 
ATOM     40  C   UNL A   1      41.933  22.379  28.599  1.00  0.00     0.016 A 
ATOM     41  C   UNL A   1      41.632  23.046  26.282  1.00  0.00     0.016 A 
ATOM     42  C   UNL A   1      42.494  23.622  28.889  1.00  0.00     0.010 A 
ATOM     43  C   UNL A   1      42.184  24.296  26.577  1.00  0.00     0.010 A 
ATOM     44  C   UNL A   1      42.567  24.605  27.893  1.00  0.00    -0.014 A 
BRANCH  44  45
ATOM     45  C   UNL A   1      42.804  26.014  28.293  1.00  0.00     0.031 A 
ATOM     46  C   UNL A   1      44.212  26.542  28.213  1.00  0.00     0.074 A 
ATOM     47  C   UNL A   1      41.794  26.819  28.670  1.00  0.00     0.049 A 
ATOM     48  N   UNL A   1      44.671  27.738  28.475  1.00  0.00    -0.248 NA
ATOM     49  C   UNL A   1      45.241  25.583  27.781  1.00  0.00     0.031 C 
ATOM     50  C   UNL A   1      40.389  26.427  28.758  1.00  0.00     0.029 A 
ATOM     51  N   UNL A   1      41.802  28.138  29.045  1.00  0.00    -0.354 N 
ATOM     52  C   UNL A   1      46.040  27.679  28.227  1.00  0.00     0.074 A 
ATOM     53  C   UNL A   1      46.341  26.315  27.847  1.00  0.00     0.031 C 
ATOM     54  C   UNL A   1      39.668  27.487  29.168  1.00  0.00     0.029 A 
ATOM     55  C   UNL A   1      40.563  28.622  29.391  1.00  0.00     0.049 A 
ATOM     56  H   UNL A   1      42.619  28.687  29.067  1.00  0.00     0.167 HD
ATOM     57  C   UNL A   1      46.960  28.672  28.297  1.00  0.00     0.034 A 
ATOM     58  C   UNL A   1      40.200  29.840  29.840  1.00  0.00     0.034 A 
ATOM     59  C   UNL A   1      46.653  30.019  28.705  1.00  0.00     0.049 A 
ATOM     60  C   UNL A   1      41.251  30.917  29.971  1.00  0.00     0.074 A 
ATOM     61  C   UNL A   1      47.505  31.102  28.828  1.00  0.00     0.029 A 
ATOM     62  N   UNL A   1      45.389  30.468  29.069  1.00  0.00    -0.354 N 
ATOM     63  N   UNL A   1      42.540  30.853  29.719  1.00  0.00    -0.248 NA
ATOM     64  C   UNL A   1      40.794  32.236  30.427  1.00  0.00     0.031 C 
ATOM     65  C   UNL A   1      46.771  32.186  29.323  1.00  0.00     0.029 A 
ATOM     66  C   UNL A   1      45.444  31.803  29.437  1.00  0.00     0.049 A 
ATOM     67  H   UNL A   1      44.572  29.917  29.066  1.00  0.00     0.167 HD
ATOM     68  C   UNL A   1      43.036  32.135  29.950  1.00  0.00     0.074 A 
ATOM     69  C   UNL A   1      41.907  32.950  30.348  1.00  0.00     0.031 C 
ATOM     70  C   UNL A   1      44.307  32.600  29.836  1.00  0.00     0.034 A 
BRANCH  57  71
ATOM     71  C   UNL A   1      48.387  28.305  27.972  1.00  0.00     0.023 A 
ATOM     72  C   UNL A   1      49.317  27.993  28.981  1.00  0.00     0.031 A 
ATOM     73  C   UNL A   1      48.841  28.324  26.641  1.00  0.00     0.131 A 
ATOM     74  C   UNL A   1      50.666  27.791  28.652  1.00  0.00     0.055 A 
ATOM     75  C   UNL A   1      50.168  28.042  26.313  1.00  0.00     0.041 A 
ATOM     76  F   UNL A   1      48.006  28.641  25.640  1.00  0.00    -0.206 F 
ATOM     77  C   UNL A   1      51.094  27.789  27.323  1.00  0.00     0.022 A 
BRANCH  74  78
ATOM     78  S   UNL A   1      51.880  27.682  29.996  1.00  0.00     0.124 S 
ATOM     79  O   UNL A   1      51.018  27.452  31.153  1.00  0.00    -0.237 OA
ATOM     80  O   UNL A   1      52.709  26.556  29.582  1.00  0.00    -0.237 OA
ATOM     81  O   UNL A   1      52.539  28.985  29.968  1.00  0.00    -0.744 OA
ENDBRANCH  74  78
ENDBRANCH  57  71
BRANCH  58  82
ATOM     82  C   UNL A   1      38.785  30.117  30.220  1.00  0.00     0.023 A 
ATOM     83  C   UNL A   1      37.952  30.907  29.410  1.00  0.00     0.031 A 
ATOM     84  C   UNL A   1      38.264  29.644  31.438  1.00  0.00     0.131 A 
ATOM     85  C   UNL A   1      36.663  31.244  29.852  1.00  0.00     0.055 A 
ATOM     86  C   UNL A   1      36.964  29.943  31.851  1.00  0.00     0.041 A 
ATOM     87  F   UNL A   1      39.016  28.883  32.247  1.00  0.00    -0.206 F 
ATOM     88  C   UNL A   1      36.160  30.759  31.061  1.00  0.00     0.022 A 
BRANCH  85  89
ATOM     89  S   UNL A   1      35.678  32.401  28.860  1.00  0.00     0.124 S 
ATOM     90  O   UNL A   1      36.670  33.410  28.508  1.00  0.00    -0.237 OA
ATOM     91  O   UNL A   1      35.218  31.545  27.770  1.00  0.00    -0.237 OA
ATOM     92  O   UNL A   1      34.637  32.841  29.785  1.00  0.00    -0.744 OA
ENDBRANCH  85  89
ENDBRANCH  58  82
BRANCH  70  93
ATOM     93  C   UNL A   1      44.524  34.073  30.091  1.00  0.00     0.023 A 
ATOM     94  C   UNL A   1      44.329  35.039  29.088  1.00  0.00     0.031 A 
ATOM     95  C   UNL A   1      44.957  34.512  31.356  1.00  0.00     0.131 A 
ATOM     96  C   UNL A   1      44.630  36.385  29.345  1.00  0.00     0.055 A 
ATOM     97  C   UNL A   1      45.195  35.860  31.624  1.00  0.00     0.041 A 
ATOM     98  F   UNL A   1      45.159  33.635  32.352  1.00  0.00    -0.206 F 
ATOM     99  C   UNL A   1      45.048  36.803  30.611  1.00  0.00     0.022 A 
BRANCH  96 100
ATOM    100  S   UNL A   1      44.576  37.568  27.971  1.00  0.00     0.124 S 
ATOM    101  O   UNL A   1      43.694  38.605  28.496  1.00  0.00    -0.237 OA
ATOM    102  O   UNL A   1      45.981  37.939  27.826  1.00  0.00    -0.237 OA
ATOM    103  O   UNL A   1      44.026  36.786  26.866  1.00  0.00    -0.744 OA
ENDBRANCH  96 100
ENDBRANCH  70  93
ENDBRANCH  44  45
ENDBRANCH  37  39
ENDBRANCH  36  37
ENDBRANCH  35  36
ENDBRANCH  34  35
ENDBRANCH  33  34
ENDBRANCH  32  33
ENDBRANCH  31  32
ENDBRANCH   1  31
TORSDOF 26
ENDMDL
MODEL 3
REMARK VINA RESULT:      -9.2      2.078      2.491
REMARK SMILES CC[C@H]1CCCCN1S(=O)(=O)c1ccc2oc(C(=O)OCCOCCOCCOCCOC(=O)c3ccc(-c4c5nc(c(-c6cc(S(=O)(=O)[O-])ccc6F)c6ccc([nH]6)c(-c6cc(S(=O)(=O)[O-])ccc6F)c6nc(c(-c7cc(S(=O)(=O)[O-])ccc7F)c7ccc4[nH]7)C=C6)C=C5)cc3)c(C)c2c1
REMARK SMILES IDX 26 1 25 2 24 3 23 4 22 5 21 6 20 7 18 8 19 9 17 10 12 11
REMARK SMILES IDX 13 12 101 13 14 14 100 15 15 16 98 17 16 18 99 19 9 20 10 21
REMARK SMILES IDX 11 22 8 23 3 24 4 25 5 26 7 27 6 28 2 29 1 30 27 31 28 32
REMARK SMILES IDX 29 33 30 34 31 35 32 36 33 37 34 38 35 39 36 40 97 41 37 42
REMARK SMILES IDX 96 43 38 44 39 45 40 46 90 47 41 48 95 49 89 50 91 51 42 52
REMARK SMILES IDX 94 53 88 54 87 55 43 57 75 58 55 59 74 60 56 61 59 62 73 63
REMARK SMILES IDX 92 64 57 65 58 66 72 68 93 69 60 70 44 71 45 72 53 73 46 74
REMARK SMILES IDX 52 75 54 76 51 77 47 78 48 79 49 80 50 81 76 82 77 83 85 84
REMARK SMILES IDX 78 85 84 86 86 87 83 88 79 89 80 90 81 91 82 92 61 93 62 94
REMARK SMILES IDX 70 95 63 96 69 97 71 98 68 99 64 100 65 101 66 102 67 103
REMARK H PARENT 91 56 59 67
REMARK Flexibility Score: inf
ROOT
ATOM      1  O   UNL A   1      34.572  25.223  26.066  1.00  0.00    -0.377 OA
ENDROOT
BRANCH   1   2
ATOM      2  C   UNL A   1      34.219  26.370  25.317  1.00  0.00     0.188 C 
BRANCH   2   3
ATOM      3  C   UNL A   1      33.255  27.349  26.018  1.00  0.00     0.188 C 
BRANCH   3   4
ATOM      4  O   UNL A   1      33.655  28.598  26.580  1.00  0.00    -0.376 OA
BRANCH   4   5
ATOM      5  C   UNL A   1      32.879  29.775  26.437  1.00  0.00     0.202 C 
BRANCH   5   6
ATOM      6  C   UNL A   1      31.412  29.637  26.017  1.00  0.00     0.261 C 
BRANCH   6   7
ATOM      7  O   UNL A   1      31.056  30.408  24.867  1.00  0.00    -0.457 OA
BRANCH   7   8
ATOM      8  C   UNL A   1      30.214  29.806  23.986  1.00  0.00     0.374 C 
ATOM      9  O   UNL A   1      29.184  30.306  23.547  1.00  0.00    -0.242 OA
BRANCH   8  10
ATOM     10  C   UNL A   1      30.766  28.532  23.578  1.00  0.00     0.215 A 
ATOM     11  C   UNL A   1      32.368  24.395  22.507  1.00  0.00     0.083 A 
ATOM     12  C   UNL A   1      31.153  24.028  23.094  1.00  0.00     0.025 A 
ATOM     13  C   UNL A   1      32.665  25.737  22.228  1.00  0.00     0.034 A 
ATOM     14  C   UNL A   1      30.247  25.011  23.518  1.00  0.00     0.049 A 
ATOM     15  C   UNL A   1      31.841  26.726  22.776  1.00  0.00     0.025 A 
ATOM     16  C   UNL A   1      30.664  26.335  23.391  1.00  0.00     0.135 A 
ATOM     17  C   UNL A   1      31.923  28.145  22.902  1.00  0.00     0.010 A 
ATOM     18  O   UNL A   1      30.004  27.422  23.854  1.00  0.00    -0.449 OA
ATOM     19  C   UNL A   1      33.068  28.978  22.435  1.00  0.00     0.049 C 
BRANCH  11  20
ATOM     20  S   UNL A   1      33.556  23.171  21.997  1.00  0.00     0.243 S 
ATOM     21  O   UNL A   1      34.840  23.691  22.403  1.00  0.00    -0.207 OA
ATOM     22  O   UNL A   1      33.286  22.859  20.606  1.00  0.00    -0.207 OA
BRANCH  20  23
ATOM     23  N   UNL A   1      33.201  21.760  22.909  1.00  0.00    -0.195 NA
ATOM     24  C   UNL A   1      33.462  21.846  24.390  1.00  0.00     0.073 C 
ATOM     25  C   UNL A   1      33.707  20.403  24.889  1.00  0.00     0.020 C 
ATOM     26  C   UNL A   1      32.519  19.484  24.605  1.00  0.00     0.003 C 
ATOM     27  C   UNL A   1      31.998  20.952  22.591  1.00  0.00     0.103 C 
ATOM     28  C   UNL A   1      32.151  19.528  23.130  1.00  0.00     0.017 C 
BRANCH  24  29
ATOM     29  C   UNL A   1      32.341  22.492  25.235  1.00  0.00     0.017 C 
ATOM     30  C   UNL A   1      32.567  22.568  26.734  1.00  0.00     0.005 C 
ENDBRANCH  24  29
ENDBRANCH  20  23
ENDBRANCH  11  20
ENDBRANCH   8  10
ENDBRANCH   7   8
ENDBRANCH   6   7
ENDBRANCH   5   6
ENDBRANCH   4   5
ENDBRANCH   3   4
ENDBRANCH   2   3
ENDBRANCH   1   2
BRANCH   1  31
ATOM     31  C   UNL A   1      35.562  24.392  25.465  1.00  0.00     0.188 C 
BRANCH  31  32
ATOM     32  C   UNL A   1      36.173  23.324  26.387  1.00  0.00     0.188 C 
BRANCH  32  33
ATOM     33  O   UNL A   1      36.668  22.197  25.656  1.00  0.00    -0.376 OA
BRANCH  33  34
ATOM     34  C   UNL A   1      38.067  22.210  25.379  1.00  0.00     0.202 C 
BRANCH  34  35
ATOM     35  C   UNL A   1      38.780  20.900  25.751  1.00  0.00     0.261 C 
BRANCH  35  36
ATOM     36  O   UNL A   1      40.212  20.990  25.830  1.00  0.00    -0.460 OA
BRANCH  36  37
ATOM     37  C   UNL A   1      40.748  20.991  27.071  1.00  0.00     0.338 C 
ATOM     38  O   UNL A   1      40.820  20.043  27.831  1.00  0.00    -0.246 OA
BRANCH  37  39
ATOM     39  C   UNL A   1      41.419  22.288  27.293  1.00  0.00     0.060 A 
ATOM     40  C   UNL A   1      41.866  22.587  28.586  1.00  0.00     0.016 A 
ATOM     41  C   UNL A   1      41.564  23.216  26.258  1.00  0.00     0.016 A 
ATOM     42  C   UNL A   1      42.395  23.846  28.863  1.00  0.00     0.010 A 
ATOM     43  C   UNL A   1      42.084  24.483  26.540  1.00  0.00     0.010 A 
ATOM     44  C   UNL A   1      42.451  24.818  27.855  1.00  0.00    -0.014 A 
BRANCH  44  45
ATOM     45  C   UNL A   1      42.650  26.237  28.238  1.00  0.00     0.031 A 
ATOM     46  C   UNL A   1      44.040  26.808  28.128  1.00  0.00     0.074 A 
ATOM     47  C   UNL A   1      41.623  27.014  28.624  1.00  0.00     0.049 A 
ATOM     48  N   UNL A   1      44.466  28.020  28.371  1.00  0.00    -0.248 NA
ATOM     49  C   UNL A   1      45.091  25.877  27.688  1.00  0.00     0.031 C 
ATOM     50  C   UNL A   1      40.232  26.581  28.739  1.00  0.00     0.029 A 
ATOM     51  N   UNL A   1      41.596  28.337  28.987  1.00  0.00    -0.354 N 
ATOM     52  C   UNL A   1      45.831  28.001  28.101  1.00  0.00     0.074 A 
ATOM     53  C   UNL A   1      46.168  26.643  27.728  1.00  0.00     0.031 C 
ATOM     54  C   UNL A   1      39.486  27.621  29.152  1.00  0.00     0.029 A 
ATOM     55  C   UNL A   1      40.348  28.786  29.349  1.00  0.00     0.049 A 
ATOM     56  H   UNL A   1      42.396  28.911  28.989  1.00  0.00     0.167 HD
ATOM     57  C   UNL A   1      46.722  29.022  28.145  1.00  0.00     0.034 A 
ATOM     58  C   UNL A   1      39.955  29.997  29.793  1.00  0.00     0.034 A 
ATOM     59  C   UNL A   1      46.380  30.363  28.546  1.00  0.00     0.049 A 
ATOM     60  C   UNL A   1      40.975  31.106  29.896  1.00  0.00     0.074 A 
ATOM     61  C   UNL A   1      47.200  31.473  28.644  1.00  0.00     0.029 A 
ATOM     62  N   UNL A   1      45.109  30.777  28.928  1.00  0.00    -0.354 N 
ATOM     63  N   UNL A   1      42.261  31.080  29.622  1.00  0.00    -0.248 NA
ATOM     64  C   UNL A   1      40.485  32.415  30.347  1.00  0.00     0.031 C 
ATOM     65  C   UNL A   1      46.441  32.539  29.142  1.00  0.00     0.029 A 
ATOM     66  C   UNL A   1      45.129  32.116  29.282  1.00  0.00     0.049 A 
ATOM     67  H   UNL A   1      44.310  30.201  28.943  1.00  0.00     0.167 HD
ATOM     68  C   UNL A   1      42.721  32.379  29.833  1.00  0.00     0.074 A 
ATOM     69  C   UNL A   1      41.574  33.162  30.243  1.00  0.00     0.031 C 
ATOM     70  C   UNL A   1      43.975  32.882  29.693  1.00  0.00     0.034 A 
BRANCH  57  71
ATOM     71  C   UNL A   1      48.154  28.696  27.799  1.00  0.00     0.023 A 
ATOM     72  C   UNL A   1      48.569  28.521  26.466  1.00  0.00     0.031 A 
ATOM     73  C   UNL A   1      49.105  28.502  28.815  1.00  0.00     0.131 A 
ATOM     74  C   UNL A   1      49.873  28.086  26.189  1.00  0.00     0.055 A 
ATOM     75  C   UNL A   1      50.425  28.147  28.529  1.00  0.00     0.041 A 
ATOM     76  F   UNL A   1      48.761  28.629  30.105  1.00  0.00    -0.206 F 
ATOM     77  C   UNL A   1      50.812  27.921  27.210  1.00  0.00     0.022 A 
BRANCH  74  78
ATOM     78  S   UNL A   1      50.283  27.592  24.493  1.00  0.00     0.124 S 
ATOM     79  O   UNL A   1      50.325  26.136  24.612  1.00  0.00    -0.237 OA
ATOM     80  O   UNL A   1      49.169  28.139  23.727  1.00  0.00    -0.237 OA
ATOM     81  O   UNL A   1      51.576  28.227  24.253  1.00  0.00    -0.744 OA
ENDBRANCH  74  78
ENDBRANCH  57  71
BRANCH  58  82
ATOM     82  C   UNL A   1      38.539  30.234  30.194  1.00  0.00     0.023 A 
ATOM     83  C   UNL A   1      37.705  31.092  29.460  1.00  0.00     0.031 A 
ATOM     84  C   UNL A   1      38.018  29.649  31.362  1.00  0.00     0.131 A 
ATOM     85  C   UNL A   1      36.415  31.384  29.929  1.00  0.00     0.055 A 
ATOM     86  C   UNL A   1      36.717  29.904  31.799  1.00  0.00     0.041 A 
ATOM     87  F   UNL A   1      38.771  28.819  32.100  1.00  0.00    -0.206 F 
ATOM     88  C   UNL A   1      35.911  30.788  31.087  1.00  0.00     0.022 A 
BRANCH  85  89
ATOM     89  S   UNL A   1      35.428  32.624  29.045  1.00  0.00     0.124 S 
ATOM     90  O   UNL A   1      35.002  31.879  27.866  1.00  0.00    -0.237 OA
ATOM     91  O   UNL A   1      34.387  32.931  30.022  1.00  0.00    -0.237 OA
ATOM     92  O   UNL A   1      36.382  33.702  28.795  1.00  0.00    -0.744 OA
ENDBRANCH  85  89
ENDBRANCH  58  82
BRANCH  70  93
ATOM     93  C   UNL A   1      44.150  34.363  29.930  1.00  0.00     0.023 A 
ATOM     94  C   UNL A   1      44.471  34.881  31.197  1.00  0.00     0.031 A 
ATOM     95  C   UNL A   1      43.969  35.271  28.871  1.00  0.00     0.131 A 
ATOM     96  C   UNL A   1      44.534  36.270  31.389  1.00  0.00     0.055 A 
ATOM     97  C   UNL A   1      44.096  36.649  29.054  1.00  0.00     0.041 A 
ATOM     98  F   UNL A   1      43.663  34.833  27.639  1.00  0.00    -0.206 F 
ATOM     99  C   UNL A   1      44.363  37.156  30.322  1.00  0.00     0.022 A 
BRANCH  96 100
ATOM    100  S   UNL A   1      44.733  36.908  33.075  1.00  0.00     0.124 S 
ATOM    101  O   UNL A   1      45.300  35.759  33.772  1.00  0.00    -0.237 OA
ATOM    102  O   UNL A   1      45.632  38.040  32.875  1.00  0.00    -0.237 OA
ATOM    103  O   UNL A   1      43.371  37.263  33.470  1.00  0.00    -0.744 OA
ENDBRANCH  96 100
ENDBRANCH  70  93
ENDBRANCH  44  45
ENDBRANCH  37  39
ENDBRANCH  36  37
ENDBRANCH  35  36
ENDBRANCH  34  35
ENDBRANCH  33  34
ENDBRANCH  32  33
ENDBRANCH  31  32
ENDBRANCH   1  31
TORSDOF 26
ENDMDL
