MODEL 1
REMARK VINA RESULT:     -10.5      0.000      0.000
REMARK SMILES Cc1cc(F)cc(N[C@@](C)(C(=O)OCCOCCOCCOCCOC(=O)c2ccc(-c3c4nc(c(-c5cc(S(=O)(=O)[O-])ccc5F)c5ccc([nH]5)c(-c5cc(S(=O)(=O)[O-])ccc5F)c5nc(c(-c6cc(S(=O)(=O)[O-])ccc6F)c6ccc3[nH]6)C=C5)C=C4)cc2)c2ccc(O)cc2)c1
REMARK SMILES IDX 20 1 19 2 18 3 17 4 16 5 15 6 14 7 13 8 11 9 12 10 9 11
REMARK SMILES IDX 10 12 8 13 7 15 1 16 2 17 3 18 98 19 4 20 5 21 6 22 91 23
REMARK SMILES IDX 92 24 97 25 93 26 96 27 94 28 95 29 21 31 22 32 23 33 24 34
REMARK SMILES IDX 25 35 26 36 27 37 28 38 29 39 90 40 30 41 89 42 31 43 32 44
REMARK SMILES IDX 33 45 83 46 34 47 88 48 82 49 84 50 35 51 87 52 81 53 80 54
REMARK SMILES IDX 36 56 68 57 48 58 67 59 49 60 52 61 66 62 85 63 50 64 51 65
REMARK SMILES IDX 65 67 86 68 53 69 37 70 38 71 46 72 39 73 45 74 47 75 44 76
REMARK SMILES IDX 40 77 41 78 42 79 43 80 69 81 70 82 78 83 71 84 77 85 79 86
REMARK SMILES IDX 76 87 72 88 73 89 74 90 75 91 54 92 55 93 63 94 56 95 62 96
REMARK SMILES IDX 64 97 61 98 57 99 58 100 59 101 60 102
REMARK H PARENT 8 14 95 30 84 55 52 66
REMARK Flexibility Score: inf
ROOT
ATOM      1  C   UNL A   1      31.095  30.833  26.207  1.00  0.00     0.188 C 
ENDROOT
BRANCH   1   2
ATOM      2  O   UNL A   1      31.092  30.163  24.964  1.00  0.00    -0.377 OA
BRANCH   2   3
ATOM      3  C   UNL A   1      32.101  29.194  24.778  1.00  0.00     0.188 C 
BRANCH   3   4
ATOM      4  C   UNL A   1      32.268  28.181  25.925  1.00  0.00     0.188 C 
BRANCH   4   5
ATOM      5  O   UNL A   1      31.278  27.197  26.214  1.00  0.00    -0.376 OA
BRANCH   5   6
ATOM      6  C   UNL A   1      31.162  26.043  25.394  1.00  0.00     0.202 C 
BRANCH   6   7
ATOM      7  C   UNL A   1      31.081  24.656  26.065  1.00  0.00     0.261 C 
BRANCH   7   8
ATOM      8  O   UNL A   1      31.832  23.600  25.421  1.00  0.00    -0.461 OA
BRANCH   8   9
ATOM      9  C   UNL A   1      32.346  22.632  26.220  1.00  0.00     0.336 C 
ATOM     10  O   UNL A   1      32.140  22.605  27.435  1.00  0.00    -0.249 OA
BRANCH   9  11
ATOM     11  C   UNL A   1      33.260  21.564  25.478  1.00  0.00     0.158 C 
ATOM     12  C   UNL A   1      32.611  21.535  24.072  1.00  0.00     0.053 C 
BRANCH  11  13
ATOM     13  N   UNL A   1      33.129  20.144  25.995  1.00  0.00    -0.366 N 
ATOM     14  H   UNL A   1      32.891  20.108  26.950  1.00  0.00     0.162 HD
BRANCH  13  15
ATOM     15  C   UNL A   1      33.269  18.883  25.429  1.00  0.00     0.038 A 
ATOM     16  C   UNL A   1      32.032  15.287  26.128  1.00  0.00     0.044 C 
ATOM     17  C   UNL A   1      32.660  16.475  25.458  1.00  0.00    -0.046 A 
ATOM     18  C   UNL A   1      33.269  16.297  24.218  1.00  0.00     0.042 A 
ATOM     19  C   UNL A   1      32.637  17.770  26.032  1.00  0.00     0.029 A 
ATOM     20  C   UNL A   1      33.942  17.359  23.643  1.00  0.00     0.125 A 
ATOM     21  F   UNL A   1      34.566  17.181  22.470  1.00  0.00    -0.207 F 
ATOM     22  C   UNL A   1      33.984  18.610  24.260  1.00  0.00     0.065 A 
ENDBRANCH  13  15
ENDBRANCH  11  13
BRANCH  11  23
ATOM     23  C   UNL A   1      34.726  22.049  25.366  1.00  0.00    -0.011 A 
ATOM     24  C   UNL A   1      35.606  21.465  24.430  1.00  0.00     0.010 A 
ATOM     25  C   UNL A   1      35.273  23.009  26.244  1.00  0.00     0.010 A 
ATOM     26  C   UNL A   1      36.983  21.707  24.485  1.00  0.00     0.046 A 
ATOM     27  C   UNL A   1      36.640  23.296  26.259  1.00  0.00     0.046 A 
ATOM     28  C   UNL A   1      37.490  22.606  25.411  1.00  0.00     0.115 A 
BRANCH  28  29
ATOM     29  O   UNL A   1      38.841  22.772  25.481  1.00  0.00    -0.508 OA
ATOM     30  H   UNL A   1      39.280  22.702  26.306  1.00  0.00     0.293 HD
ENDBRANCH  28  29
ENDBRANCH  11  23
ENDBRANCH   9  11
ENDBRANCH   8   9
ENDBRANCH   7   8
ENDBRANCH   6   7
ENDBRANCH   5   6
ENDBRANCH   4   5
ENDBRANCH   3   4
ENDBRANCH   2   3
ENDBRANCH   1   2
BRANCH   1  31
ATOM     31  C   UNL A   1      31.166  32.366  26.144  1.00  0.00     0.188 C 
BRANCH  31  32
ATOM     32  O   UNL A   1      31.523  32.976  27.381  1.00  0.00    -0.376 OA
BRANCH  32  33
ATOM     33  C   UNL A   1      32.635  33.858  27.416  1.00  0.00     0.202 C 
BRANCH  33  34
ATOM     34  C   UNL A   1      33.794  33.545  28.382  1.00  0.00     0.261 C 
BRANCH  34  35
ATOM     35  O   UNL A   1      34.896  32.783  27.866  1.00  0.00    -0.460 OA
BRANCH  35  36
ATOM     36  C   UNL A   1      34.718  31.451  27.688  1.00  0.00     0.338 C 
ATOM     37  O   UNL A   1      33.773  30.911  27.165  1.00  0.00    -0.246 OA
BRANCH  36  38
ATOM     38  C   UNL A   1      35.997  30.783  28.040  1.00  0.00     0.060 A 
ATOM     39  C   UNL A   1      36.066  29.384  27.961  1.00  0.00     0.016 A 
ATOM     40  C   UNL A   1      37.123  31.524  28.409  1.00  0.00     0.016 A 
ATOM     41  C   UNL A   1      37.251  28.721  28.284  1.00  0.00     0.010 A 
ATOM     42  C   UNL A   1      38.300  30.857  28.763  1.00  0.00     0.010 A 
ATOM     43  C   UNL A   1      38.358  29.451  28.735  1.00  0.00    -0.014 A 
BRANCH  43  44
ATOM     44  C   UNL A   1      39.478  28.737  29.399  1.00  0.00     0.031 A 
ATOM     45  C   UNL A   1      39.961  29.263  30.722  1.00  0.00     0.074 A 
ATOM     46  C   UNL A   1      40.038  27.640  28.861  1.00  0.00     0.049 A 
ATOM     47  N   UNL A   1      40.950  28.856  31.473  1.00  0.00    -0.248 NA
ATOM     48  C   UNL A   1      39.225  30.416  31.263  1.00  0.00     0.031 C 
ATOM     49  C   UNL A   1      39.625  27.010  27.609  1.00  0.00     0.029 A 
ATOM     50  N   UNL A   1      41.086  26.868  29.298  1.00  0.00    -0.354 N 
ATOM     51  C   UNL A   1      40.968  29.714  32.569  1.00  0.00     0.074 A 
ATOM     52  C   UNL A   1      39.914  30.683  32.361  1.00  0.00     0.031 C 
ATOM     53  C   UNL A   1      40.427  25.957  27.369  1.00  0.00     0.029 A 
ATOM     54  C   UNL A   1      41.435  25.866  28.426  1.00  0.00     0.049 A 
ATOM     55  H   UNL A   1      41.545  27.020  30.157  1.00  0.00     0.167 HD
ATOM     56  C   UNL A   1      41.785  29.690  33.651  1.00  0.00     0.034 A 
ATOM     57  C   UNL A   1      42.468  24.998  28.459  1.00  0.00     0.034 A 
ATOM     58  C   UNL A   1      42.842  28.724  33.828  1.00  0.00     0.049 A 
ATOM     59  C   UNL A   1      43.422  25.038  29.629  1.00  0.00     0.074 A 
ATOM     60  C   UNL A   1      43.710  28.585  34.896  1.00  0.00     0.029 A 
ATOM     61  N   UNL A   1      43.192  27.746  32.903  1.00  0.00    -0.354 N 
ATOM     62  N   UNL A   1      43.420  25.836  30.673  1.00  0.00    -0.248 NA
ATOM     63  C   UNL A   1      44.515  24.055  29.628  1.00  0.00     0.031 C 
ATOM     64  C   UNL A   1      44.642  27.593  34.576  1.00  0.00     0.029 A 
ATOM     65  C   UNL A   1      44.295  27.037  33.354  1.00  0.00     0.049 A 
ATOM     66  H   UNL A   1      42.725  27.583  32.052  1.00  0.00     0.167 HD
ATOM     67  C   UNL A   1      44.492  25.432  31.466  1.00  0.00     0.074 A 
ATOM     68  C   UNL A   1      45.111  24.313  30.784  1.00  0.00     0.031 C 
ATOM     69  C   UNL A   1      44.920  25.934  32.655  1.00  0.00     0.034 A 
BRANCH  56  70
ATOM     70  C   UNL A   1      41.609  30.790  34.672  1.00  0.00     0.023 A 
ATOM     71  C   UNL A   1      40.473  30.869  35.498  1.00  0.00     0.031 A 
ATOM     72  C   UNL A   1      42.565  31.818  34.775  1.00  0.00     0.131 A 
ATOM     73  C   UNL A   1      40.273  31.996  36.310  1.00  0.00     0.055 A 
ATOM     74  C   UNL A   1      42.408  32.886  35.659  1.00  0.00     0.041 A 
ATOM     75  F   UNL A   1      43.658  31.815  33.996  1.00  0.00    -0.206 F 
ATOM     76  C   UNL A   1      41.246  32.992  36.417  1.00  0.00     0.022 A 
BRANCH  73  77
ATOM     77  S   UNL A   1      38.643  32.237  37.070  1.00  0.00     0.124 S 
ATOM     78  O   UNL A   1      38.991  32.341  38.486  1.00  0.00    -0.237 OA
ATOM     79  O   UNL A   1      38.178  33.465  36.435  1.00  0.00    -0.237 OA
ATOM     80  O   UNL A   1      37.911  31.027  36.704  1.00  0.00    -0.744 OA
ENDBRANCH  73  77
ENDBRANCH  56  70
BRANCH  57  81
ATOM     81  C   UNL A   1      42.687  24.058  27.321  1.00  0.00     0.023 A 
ATOM     82  C   UNL A   1      42.109  22.780  27.297  1.00  0.00     0.031 A 
ATOM     83  C   UNL A   1      43.505  24.432  26.238  1.00  0.00     0.131 A 
ATOM     84  C   UNL A   1      42.376  21.912  26.225  1.00  0.00     0.055 A 
ATOM     85  C   UNL A   1      43.727  23.585  25.152  1.00  0.00     0.041 A 
ATOM     86  F   UNL A   1      44.087  25.641  26.213  1.00  0.00    -0.206 F 
ATOM     87  C   UNL A   1      43.166  22.312  25.145  1.00  0.00     0.022 A 
BRANCH  84  88
ATOM     88  S   UNL A   1      41.723  20.220  26.288  1.00  0.00     0.124 S 
ATOM     89  O   UNL A   1      42.448  19.582  25.195  1.00  0.00    -0.237 OA
ATOM     90  O   UNL A   1      42.094  19.801  27.636  1.00  0.00    -0.237 OA
ATOM     91  O   UNL A   1      40.290  20.400  26.067  1.00  0.00    -0.744 OA
ENDBRANCH  84  88
ENDBRANCH  57  81
BRANCH  69  92
ATOM     92  C   UNL A   1      46.090  25.245  33.320  1.00  0.00     0.023 A 
ATOM     93  C   UNL A   1      45.921  24.131  34.162  1.00  0.00     0.031 A 
ATOM     94  C   UNL A   1      47.399  25.711  33.103  1.00  0.00     0.131 A 
ATOM     95  C   UNL A   1      47.034  23.558  34.797  1.00  0.00     0.055 A 
ATOM     96  C   UNL A   1      48.509  25.094  33.680  1.00  0.00     0.041 A 
ATOM     97  F   UNL A   1      47.624  26.775  32.314  1.00  0.00    -0.206 F 
ATOM     98  C   UNL A   1      48.329  24.019  34.545  1.00  0.00     0.022 A 
BRANCH  95  99
ATOM     99  S   UNL A   1      46.761  22.269  36.045  1.00  0.00     0.124 S 
ATOM    100  O   UNL A   1      45.417  22.586  36.516  1.00  0.00    -0.237 OA
ATOM    101  O   UNL A   1      46.890  21.044  35.260  1.00  0.00    -0.237 OA
ATOM    102  O   UNL A   1      47.830  22.499  37.015  1.00  0.00    -0.744 OA
ENDBRANCH  95  99
ENDBRANCH  69  92
ENDBRANCH  43  44
ENDBRANCH  36  38
ENDBRANCH  35  36
ENDBRANCH  34  35
ENDBRANCH  33  34
ENDBRANCH  32  33
ENDBRANCH  31  32
ENDBRANCH   1  31
TORSDOF 27
ENDMDL
MODEL 2
REMARK VINA RESULT:     -10.3      3.890     10.005
REMARK SMILES Cc1cc(F)cc(N[C@@](C)(C(=O)OCCOCCOCCOCCOC(=O)c2ccc(-c3c4nc(c(-c5cc(S(=O)(=O)[O-])ccc5F)c5ccc([nH]5)c(-c5cc(S(=O)(=O)[O-])ccc5F)c5nc(c(-c6cc(S(=O)(=O)[O-])ccc6F)c6ccc3[nH]6)C=C5)C=C4)cc2)c2ccc(O)cc2)c1
REMARK SMILES IDX 20 1 19 2 18 3 17 4 16 5 15 6 14 7 13 8 11 9 12 10 9 11
REMARK SMILES IDX 10 12 8 13 7 15 1 16 2 17 3 18 98 19 4 20 5 21 6 22 91 23
REMARK SMILES IDX 92 24 97 25 93 26 96 27 94 28 95 29 21 31 22 32 23 33 24 34
REMARK SMILES IDX 25 35 26 36 27 37 28 38 29 39 90 40 30 41 89 42 31 43 32 44
REMARK SMILES IDX 33 45 83 46 34 47 88 48 82 49 84 50 35 51 87 52 81 53 80 54
REMARK SMILES IDX 36 56 68 57 48 58 67 59 49 60 52 61 66 62 85 63 50 64 51 65
REMARK SMILES IDX 65 67 86 68 53 69 37 70 38 71 46 72 39 73 45 74 47 75 44 76
REMARK SMILES IDX 40 77 41 78 42 79 43 80 69 81 70 82 78 83 71 84 77 85 79 86
REMARK SMILES IDX 76 87 72 88 73 89 74 90 75 91 54 92 55 93 63 94 56 95 62 96
REMARK SMILES IDX 64 97 61 98 57 99 58 100 59 101 60 102
REMARK H PARENT 8 14 95 30 84 55 52 66
REMARK Flexibility Score: inf
ROOT
ATOM      1  C   UNL A   1      42.702  23.168  25.838  1.00  0.00     0.188 C 
ENDROOT
BRANCH   1   2
ATOM      2  O   UNL A   1      42.345  22.388  26.959  1.00  0.00    -0.377 OA
BRANCH   2   3
ATOM      3  C   UNL A   1      40.987  22.015  27.048  1.00  0.00     0.188 C 
BRANCH   3   4
ATOM      4  C   UNL A   1      40.008  23.151  27.395  1.00  0.00     0.188 C 
BRANCH   4   5
ATOM      5  O   UNL A   1      39.040  23.624  26.462  1.00  0.00    -0.376 OA
BRANCH   5   6
ATOM      6  C   UNL A   1      37.935  22.806  26.108  1.00  0.00     0.202 C 
BRANCH   6   7
ATOM      7  C   UNL A   1      37.202  23.075  24.777  1.00  0.00     0.261 C 
BRANCH   7   8
ATOM      8  O   UNL A   1      35.812  22.677  24.731  1.00  0.00    -0.461 OA
BRANCH   8   9
ATOM      9  C   UNL A   1      35.135  22.926  23.583  1.00  0.00     0.336 C 
ATOM     10  O   UNL A   1      35.711  23.183  22.523  1.00  0.00    -0.249 OA
BRANCH   9  11
ATOM     11  C   UNL A   1      33.552  22.899  23.716  1.00  0.00     0.158 C 
ATOM     12  C   UNL A   1      33.122  23.443  22.331  1.00  0.00     0.053 C 
BRANCH  11  13
ATOM     13  N   UNL A   1      32.978  23.885  24.715  1.00  0.00    -0.366 N 
ATOM     14  H   UNL A   1      32.369  23.460  25.361  1.00  0.00     0.162 HD
BRANCH  13  15
ATOM     15  C   UNL A   1      33.115  25.252  24.925  1.00  0.00     0.038 A 
ATOM     16  C   UNL A   1      33.969  28.388  22.831  1.00  0.00     0.044 C 
ATOM     17  C   UNL A   1      33.539  27.503  23.966  1.00  0.00    -0.046 A 
ATOM     18  C   UNL A   1      33.173  28.096  25.172  1.00  0.00     0.042 A 
ATOM     19  C   UNL A   1      33.473  26.094  23.845  1.00  0.00     0.029 A 
ATOM     20  C   UNL A   1      32.877  27.287  26.253  1.00  0.00     0.125 A 
ATOM     21  F   UNL A   1      32.566  27.852  27.428  1.00  0.00    -0.207 F 
ATOM     22  C   UNL A   1      32.898  25.896  26.145  1.00  0.00     0.065 A 
ENDBRANCH  13  15
ENDBRANCH  11  13
BRANCH  11  23
ATOM     23  C   UNL A   1      33.021  21.455  23.896  1.00  0.00    -0.011 A 
ATOM     24  C   UNL A   1      33.177  20.781  25.125  1.00  0.00     0.010 A 
ATOM     25  C   UNL A   1      32.456  20.720  22.832  1.00  0.00     0.010 A 
ATOM     26  C   UNL A   1      32.938  19.406  25.230  1.00  0.00     0.046 A 
ATOM     27  C   UNL A   1      32.160  19.360  22.953  1.00  0.00     0.046 A 
ATOM     28  C   UNL A   1      32.449  18.705  24.138  1.00  0.00     0.115 A 
BRANCH  28  29
ATOM     29  O   UNL A   1      32.286  17.356  24.254  1.00  0.00    -0.508 OA
ATOM     30  H   UNL A   1      31.560  17.011  24.734  1.00  0.00     0.293 HD
ENDBRANCH  28  29
ENDBRANCH  11  23
ENDBRANCH   9  11
ENDBRANCH   8   9
ENDBRANCH   7   8
ENDBRANCH   6   7
ENDBRANCH   5   6
ENDBRANCH   4   5
ENDBRANCH   3   4
ENDBRANCH   2   3
ENDBRANCH   1   2
BRANCH   1  31
ATOM     31  C   UNL A   1      43.692  22.522  24.857  1.00  0.00     0.188 C 
BRANCH  31  32
ATOM     32  O   UNL A   1      44.938  22.166  25.450  1.00  0.00    -0.376 OA
BRANCH  32  33
ATOM     33  C   UNL A   1      45.761  23.192  25.988  1.00  0.00     0.202 C 
BRANCH  33  34
ATOM     34  C   UNL A   1      46.226  24.328  25.056  1.00  0.00     0.261 C 
BRANCH  34  35
ATOM     35  O   UNL A   1      45.278  25.363  24.754  1.00  0.00    -0.460 OA
BRANCH  35  36
ATOM     36  C   UNL A   1      45.652  26.648  24.967  1.00  0.00     0.338 C 
ATOM     37  O   UNL A   1      46.432  27.293  24.309  1.00  0.00    -0.246 OA
BRANCH  36  38
ATOM     38  C   UNL A   1      44.758  27.201  26.017  1.00  0.00     0.060 A 
ATOM     39  C   UNL A   1      44.805  28.577  26.280  1.00  0.00     0.016 A 
ATOM     40  C   UNL A   1      43.861  26.382  26.708  1.00  0.00     0.016 A 
ATOM     41  C   UNL A   1      43.981  29.133  27.259  1.00  0.00     0.010 A 
ATOM     42  C   UNL A   1      43.058  26.934  27.711  1.00  0.00     0.010 A 
ATOM     43  C   UNL A   1      43.140  28.306  28.014  1.00  0.00    -0.014 A 
BRANCH  43  44
ATOM     44  C   UNL A   1      42.535  28.831  29.265  1.00  0.00     0.031 A 
ATOM     45  C   UNL A   1      41.106  29.298  29.212  1.00  0.00     0.074 A 
ATOM     46  C   UNL A   1      43.219  28.872  30.420  1.00  0.00     0.049 A 
ATOM     47  N   UNL A   1      40.371  29.844  30.145  1.00  0.00    -0.248 NA
ATOM     48  C   UNL A   1      40.422  29.132  27.921  1.00  0.00     0.031 C 
ATOM     49  C   UNL A   1      44.591  28.404  30.605  1.00  0.00     0.029 A 
ATOM     50  N   UNL A   1      42.853  29.342  31.657  1.00  0.00    -0.354 N 
ATOM     51  C   UNL A   1      39.140  30.103  29.549  1.00  0.00     0.074 A 
ATOM     52  C   UNL A   1      39.247  29.688  28.167  1.00  0.00     0.031 C 
ATOM     53  C   UNL A   1      44.958  28.631  31.880  1.00  0.00     0.029 A 
ATOM     54  C   UNL A   1      43.864  29.296  32.587  1.00  0.00     0.049 A 
ATOM     55  H   UNL A   1      41.950  29.680  31.859  1.00  0.00     0.167 HD
ATOM     56  C   UNL A   1      38.023  30.632  30.107  1.00  0.00     0.034 A 
ATOM     57  C   UNL A   1      43.912  29.768  33.850  1.00  0.00     0.034 A 
ATOM     58  C   UNL A   1      37.945  31.056  31.484  1.00  0.00     0.049 A 
ATOM     59  C   UNL A   1      42.687  30.434  34.431  1.00  0.00     0.074 A 
ATOM     60  C   UNL A   1      36.859  31.576  32.164  1.00  0.00     0.029 A 
ATOM     61  N   UNL A   1      39.003  31.031  32.386  1.00  0.00    -0.354 N 
ATOM     62  N   UNL A   1      41.519  30.654  33.871  1.00  0.00    -0.248 NA
ATOM     63  C   UNL A   1      42.785  30.908  35.819  1.00  0.00     0.031 C 
ATOM     64  C   UNL A   1      37.284  31.956  33.441  1.00  0.00     0.029 A 
ATOM     65  C   UNL A   1      38.609  31.577  33.599  1.00  0.00     0.049 A 
ATOM     66  H   UNL A   1      39.902  30.680  32.191  1.00  0.00     0.167 HD
ATOM     67  C   UNL A   1      40.736  31.266  34.847  1.00  0.00     0.074 A 
ATOM     68  C   UNL A   1      41.561  31.370  36.033  1.00  0.00     0.031 C 
ATOM     69  C   UNL A   1      39.447  31.695  34.772  1.00  0.00     0.034 A 
BRANCH  56  70
ATOM     70  C   UNL A   1      36.835  30.850  29.197  1.00  0.00     0.023 A 
ATOM     71  C   UNL A   1      36.225  32.109  29.053  1.00  0.00     0.031 A 
ATOM     72  C   UNL A   1      36.261  29.763  28.513  1.00  0.00     0.131 A 
ATOM     73  C   UNL A   1      35.027  32.230  28.332  1.00  0.00     0.055 A 
ATOM     74  C   UNL A   1      35.126  29.910  27.715  1.00  0.00     0.041 A 
ATOM     75  F   UNL A   1      36.780  28.530  28.630  1.00  0.00    -0.206 F 
ATOM     76  C   UNL A   1      34.488  31.144  27.638  1.00  0.00     0.022 A 
BRANCH  73  77
ATOM     77  S   UNL A   1      34.083  33.773  28.475  1.00  0.00     0.124 S 
ATOM     78  O   UNL A   1      34.997  34.735  27.862  1.00  0.00    -0.237 OA
ATOM     79  O   UNL A   1      32.873  33.471  27.719  1.00  0.00    -0.237 OA
ATOM     80  O   UNL A   1      33.899  33.931  29.915  1.00  0.00    -0.744 OA
ENDBRANCH  73  77
ENDBRANCH  56  70
BRANCH  57  81
ATOM     81  C   UNL A   1      45.182  29.682  34.629  1.00  0.00     0.023 A 
ATOM     82  C   UNL A   1      46.156  30.689  34.566  1.00  0.00     0.031 A 
ATOM     83  C   UNL A   1      45.443  28.563  35.442  1.00  0.00     0.131 A 
ATOM     84  C   UNL A   1      47.356  30.548  35.283  1.00  0.00     0.055 A 
ATOM     85  C   UNL A   1      46.613  28.450  36.192  1.00  0.00     0.041 A 
ATOM     86  F   UNL A   1      44.547  27.567  35.533  1.00  0.00    -0.206 F 
ATOM     87  C   UNL A   1      47.583  29.444  36.109  1.00  0.00     0.022 A 
BRANCH  84  88
ATOM     88  S   UNL A   1      48.650  31.802  35.078  1.00  0.00     0.124 S 
ATOM     89  O   UNL A   1      49.702  31.290  35.949  1.00  0.00    -0.237 OA
ATOM     90  O   UNL A   1      48.914  31.734  33.644  1.00  0.00    -0.237 OA
ATOM     91  O   UNL A   1      48.006  33.033  35.532  1.00  0.00    -0.744 OA
ENDBRANCH  84  88
ENDBRANCH  57  81
BRANCH  69  92
ATOM     92  C   UNL A   1      38.833  32.275  36.026  1.00  0.00     0.023 A 
ATOM     93  C   UNL A   1      38.240  31.465  37.011  1.00  0.00     0.031 A 
ATOM     94  C   UNL A   1      38.846  33.666  36.240  1.00  0.00     0.131 A 
ATOM     95  C   UNL A   1      37.638  32.055  38.134  1.00  0.00     0.055 A 
ATOM     96  C   UNL A   1      38.310  34.241  37.392  1.00  0.00     0.041 A 
ATOM     97  F   UNL A   1      39.392  34.491  35.332  1.00  0.00    -0.206 F 
ATOM     98  C   UNL A   1      37.688  33.436  38.341  1.00  0.00     0.022 A 
BRANCH  95  99
ATOM     99  S   UNL A   1      36.692  31.005  39.272  1.00  0.00     0.124 S 
ATOM    100  O   UNL A   1      35.450  31.758  39.414  1.00  0.00    -0.237 OA
ATOM    101  O   UNL A   1      36.595  29.751  38.531  1.00  0.00    -0.237 OA
ATOM    102  O   UNL A   1      37.529  30.955  40.469  1.00  0.00    -0.744 OA
ENDBRANCH  95  99
ENDBRANCH  69  92
ENDBRANCH  43  44
ENDBRANCH  36  38
ENDBRANCH  35  36
ENDBRANCH  34  35
ENDBRANCH  33  34
ENDBRANCH  32  33
ENDBRANCH  31  32
ENDBRANCH   1  31
TORSDOF 27
ENDMDL
MODEL 3
REMARK VINA RESULT:     -10.3      1.522      2.972
REMARK SMILES Cc1cc(F)cc(N[C@@](C)(C(=O)OCCOCCOCCOCCOC(=O)c2ccc(-c3c4nc(c(-c5cc(S(=O)(=O)[O-])ccc5F)c5ccc([nH]5)c(-c5cc(S(=O)(=O)[O-])ccc5F)c5nc(c(-c6cc(S(=O)(=O)[O-])ccc6F)c6ccc3[nH]6)C=C5)C=C4)cc2)c2ccc(O)cc2)c1
REMARK SMILES IDX 20 1 19 2 18 3 17 4 16 5 15 6 14 7 13 8 11 9 12 10 9 11
REMARK SMILES IDX 10 12 8 13 7 15 1 16 2 17 3 18 98 19 4 20 5 21 6 22 91 23
REMARK SMILES IDX 92 24 97 25 93 26 96 27 94 28 95 29 21 31 22 32 23 33 24 34
REMARK SMILES IDX 25 35 26 36 27 37 28 38 29 39 90 40 30 41 89 42 31 43 32 44
REMARK SMILES IDX 33 45 83 46 34 47 88 48 82 49 84 50 35 51 87 52 81 53 80 54
REMARK SMILES IDX 36 56 68 57 48 58 67 59 49 60 52 61 66 62 85 63 50 64 51 65
REMARK SMILES IDX 65 67 86 68 53 69 37 70 38 71 46 72 39 73 45 74 47 75 44 76
REMARK SMILES IDX 40 77 41 78 42 79 43 80 69 81 70 82 78 83 71 84 77 85 79 86
REMARK SMILES IDX 76 87 72 88 73 89 74 90 75 91 54 92 55 93 63 94 56 95 62 96
REMARK SMILES IDX 64 97 61 98 57 99 58 100 59 101 60 102
REMARK H PARENT 8 14 95 30 84 55 52 66
REMARK Flexibility Score: inf
ROOT
ATOM      1  C   UNL A   1      31.469  30.932  26.406  1.00  0.00     0.188 C 
ENDROOT
BRANCH   1   2
ATOM      2  O   UNL A   1      31.191  30.238  25.208  1.00  0.00    -0.377 OA
BRANCH   2   3
ATOM      3  C   UNL A   1      32.276  29.553  24.621  1.00  0.00     0.188 C 
BRANCH   3   4
ATOM      4  C   UNL A   1      32.081  28.037  24.433  1.00  0.00     0.188 C 
BRANCH   4   5
ATOM      5  O   UNL A   1      30.807  27.471  24.134  1.00  0.00    -0.376 OA
BRANCH   5   6
ATOM      6  C   UNL A   1      30.712  26.368  23.244  1.00  0.00     0.202 C 
BRANCH   6   7
ATOM      7  C   UNL A   1      30.350  24.980  23.813  1.00  0.00     0.261 C 
BRANCH   7   8
ATOM      8  O   UNL A   1      31.434  24.025  23.878  1.00  0.00    -0.461 OA
BRANCH   8   9
ATOM      9  C   UNL A   1      31.477  23.213  24.964  1.00  0.00     0.336 C 
ATOM     10  O   UNL A   1      30.566  23.175  25.793  1.00  0.00    -0.249 OA
BRANCH   9  11
ATOM     11  C   UNL A   1      32.803  22.347  25.103  1.00  0.00     0.158 C 
ATOM     12  C   UNL A   1      32.786  22.008  26.614  1.00  0.00     0.053 C 
BRANCH  11  13
ATOM     13  N   UNL A   1      34.093  23.116  24.892  1.00  0.00    -0.366 N 
ATOM     14  H   UNL A   1      33.939  24.038  24.583  1.00  0.00     0.162 HD
BRANCH  13  15
ATOM     15  C   UNL A   1      35.442  22.816  25.036  1.00  0.00     0.038 A 
ATOM     16  C   UNL A   1      38.545  24.370  26.740  1.00  0.00     0.044 C 
ATOM     17  C   UNL A   1      37.644  23.408  26.020  1.00  0.00    -0.046 A 
ATOM     18  C   UNL A   1      38.164  22.180  25.618  1.00  0.00     0.042 A 
ATOM     19  C   UNL A   1      36.283  23.697  25.756  1.00  0.00     0.029 A 
ATOM     20  C   UNL A   1      37.374  21.334  24.862  1.00  0.00     0.125 A 
ATOM     21  F   UNL A   1      37.885  20.170  24.436  1.00  0.00    -0.207 F 
ATOM     22  C   UNL A   1      36.060  21.668  24.536  1.00  0.00     0.065 A 
ENDBRANCH  13  15
ENDBRANCH  11  13
BRANCH  11  23
ATOM     23  C   UNL A   1      32.719  21.041  24.275  1.00  0.00    -0.011 A 
ATOM     24  C   UNL A   1      32.414  21.082  22.898  1.00  0.00     0.010 A 
ATOM     25  C   UNL A   1      32.840  19.764  24.865  1.00  0.00     0.010 A 
ATOM     26  C   UNL A   1      32.085  19.916  22.197  1.00  0.00     0.046 A 
ATOM     27  C   UNL A   1      32.571  18.595  24.149  1.00  0.00     0.046 A 
ATOM     28  C   UNL A   1      32.149  18.686  22.833  1.00  0.00     0.115 A 
BRANCH  28  29
ATOM     29  O   UNL A   1      31.763  17.577  22.140  1.00  0.00    -0.508 OA
ATOM     30  H   UNL A   1      30.863  17.460  21.907  1.00  0.00     0.293 HD
ENDBRANCH  28  29
ENDBRANCH  11  23
ENDBRANCH   9  11
ENDBRANCH   8   9
ENDBRANCH   7   8
ENDBRANCH   6   7
ENDBRANCH   5   6
ENDBRANCH   4   5
ENDBRANCH   3   4
ENDBRANCH   2   3
ENDBRANCH   1   2
BRANCH   1  31
ATOM     31  C   UNL A   1      31.237  32.450  26.373  1.00  0.00     0.188 C 
BRANCH  31  32
ATOM     32  O   UNL A   1      31.657  33.121  27.557  1.00  0.00    -0.376 OA
BRANCH  32  33
ATOM     33  C   UNL A   1      32.802  33.960  27.502  1.00  0.00     0.202 C 
BRANCH  33  34
ATOM     34  C   UNL A   1      34.022  33.599  28.372  1.00  0.00     0.261 C 
BRANCH  34  35
ATOM     35  O   UNL A   1      35.100  32.895  27.736  1.00  0.00    -0.460 OA
BRANCH  35  36
ATOM     36  C   UNL A   1      35.012  31.546  27.648  1.00  0.00     0.338 C 
ATOM     37  O   UNL A   1      34.137  30.911  27.111  1.00  0.00    -0.246 OA
BRANCH  36  38
ATOM     38  C   UNL A   1      36.303  30.987  28.127  1.00  0.00     0.060 A 
ATOM     39  C   UNL A   1      36.494  29.599  28.069  1.00  0.00     0.016 A 
ATOM     40  C   UNL A   1      37.322  31.819  28.595  1.00  0.00     0.016 A 
ATOM     41  C   UNL A   1      37.692  29.037  28.510  1.00  0.00     0.010 A 
ATOM     42  C   UNL A   1      38.511  31.252  29.067  1.00  0.00     0.010 A 
ATOM     43  C   UNL A   1      38.686  29.856  29.058  1.00  0.00    -0.014 A 
BRANCH  43  44
ATOM     44  C   UNL A   1      39.793  29.238  29.833  1.00  0.00     0.031 A 
ATOM     45  C   UNL A   1      40.057  29.761  31.219  1.00  0.00     0.074 A 
ATOM     46  C   UNL A   1      40.527  28.228  29.339  1.00  0.00     0.049 A 
ATOM     47  N   UNL A   1      40.991  29.432  32.072  1.00  0.00    -0.248 NA
ATOM     48  C   UNL A   1      39.143  30.809  31.697  1.00  0.00     0.031 C 
ATOM     49  C   UNL A   1      40.335  27.607  28.030  1.00  0.00     0.029 A 
ATOM     50  N   UNL A   1      41.595  27.555  29.878  1.00  0.00    -0.354 N 
ATOM     51  C   UNL A   1      40.787  30.243  33.184  1.00  0.00     0.074 A 
ATOM     52  C   UNL A   1      39.666  31.104  32.876  1.00  0.00     0.031 C 
ATOM     53  C   UNL A   1      41.270  26.654  27.861  1.00  0.00     0.029 A 
ATOM     54  C   UNL A   1      42.150  26.628  29.028  1.00  0.00     0.049 A 
ATOM     55  H   UNL A   1      41.932  27.721  30.790  1.00  0.00     0.167 HD
ATOM     56  C   UNL A   1      41.470  30.263  34.355  1.00  0.00     0.034 A 
ATOM     57  C   UNL A   1      43.261  25.873  29.163  1.00  0.00     0.034 A 
ATOM     58  C   UNL A   1      42.597  29.408  34.634  1.00  0.00     0.049 A 
ATOM     59  C   UNL A   1      44.062  25.968  30.440  1.00  0.00     0.074 A 
ATOM     60  C   UNL A   1      43.345  29.319  35.794  1.00  0.00     0.029 A 
ATOM     61  N   UNL A   1      43.157  28.509  33.732  1.00  0.00    -0.354 N 
ATOM     62  N   UNL A   1      43.851  26.721  31.497  1.00  0.00    -0.248 NA
ATOM     63  C   UNL A   1      45.248  25.106  30.545  1.00  0.00     0.031 C 
ATOM     64  C   UNL A   1      44.410  28.444  35.562  1.00  0.00     0.029 A 
ATOM     65  C   UNL A   1      44.271  27.902  34.294  1.00  0.00     0.049 A 
ATOM     66  H   UNL A   1      42.813  28.331  32.827  1.00  0.00     0.167 HD
ATOM     67  C   UNL A   1      44.861  26.401  32.402  1.00  0.00     0.074 A 
ATOM     68  C   UNL A   1      45.673  25.381  31.770  1.00  0.00     0.031 C 
ATOM     69  C   UNL A   1      45.089  26.899  33.647  1.00  0.00     0.034 A 
BRANCH  56  70
ATOM     70  C   UNL A   1      41.057  31.299  35.376  1.00  0.00     0.023 A 
ATOM     71  C   UNL A   1      39.886  31.166  36.145  1.00  0.00     0.031 A 
ATOM     72  C   UNL A   1      41.814  32.474  35.535  1.00  0.00     0.131 A 
ATOM     73  C   UNL A   1      39.455  32.227  36.955  1.00  0.00     0.055 A 
ATOM     74  C   UNL A   1      41.432  33.484  36.420  1.00  0.00     0.041 A 
ATOM     75  F   UNL A   1      42.926  32.674  34.812  1.00  0.00    -0.206 F 
ATOM     76  C   UNL A   1      40.234  33.374  37.120  1.00  0.00     0.022 A 
BRANCH  73  77
ATOM     77  S   UNL A   1      37.774  32.169  37.636  1.00  0.00     0.124 S 
ATOM     78  O   UNL A   1      37.023  32.921  36.631  1.00  0.00    -0.237 OA
ATOM     79  O   UNL A   1      37.507  30.736  37.693  1.00  0.00    -0.237 OA
ATOM     80  O   UNL A   1      37.905  32.834  38.930  1.00  0.00    -0.744 OA
ENDBRANCH  73  77
ENDBRANCH  56  70
BRANCH  57  81
ATOM     81  C   UNL A   1      43.712  25.007  28.036  1.00  0.00     0.023 A 
ATOM     82  C   UNL A   1      43.058  23.806  27.719  1.00  0.00     0.031 A 
ATOM     83  C   UNL A   1      44.832  25.370  27.264  1.00  0.00     0.131 A 
ATOM     84  C   UNL A   1      43.543  23.000  26.676  1.00  0.00     0.055 A 
ATOM     85  C   UNL A   1      45.280  24.591  26.197  1.00  0.00     0.041 A 
ATOM     86  F   UNL A   1      45.499  26.505  27.528  1.00  0.00    -0.206 F 
ATOM     87  C   UNL A   1      44.637  23.393  25.902  1.00  0.00     0.022 A 
BRANCH  84  88
ATOM     88  S   UNL A   1      42.757  21.392  26.377  1.00  0.00     0.124 S 
ATOM     89  O   UNL A   1      42.368  20.996  27.725  1.00  0.00    -0.237 OA
ATOM     90  O   UNL A   1      41.668  21.750  25.473  1.00  0.00    -0.237 OA
ATOM     91  O   UNL A   1      43.826  20.598  25.775  1.00  0.00    -0.744 OA
ENDBRANCH  84  88
ENDBRANCH  57  81
BRANCH  69  92
ATOM     92  C   UNL A   1      46.242  26.311  34.430  1.00  0.00     0.023 A 
ATOM     93  C   UNL A   1      46.092  25.170  35.237  1.00  0.00     0.031 A 
ATOM     94  C   UNL A   1      47.516  26.905  34.361  1.00  0.00     0.131 A 
ATOM     95  C   UNL A   1      47.180  24.693  35.985  1.00  0.00     0.055 A 
ATOM     96  C   UNL A   1      48.612  26.384  35.051  1.00  0.00     0.041 A 
ATOM     97  F   UNL A   1      47.720  28.000  33.612  1.00  0.00    -0.206 F 
ATOM     98  C   UNL A   1      48.444  25.280  35.880  1.00  0.00     0.022 A 
BRANCH  95  99
ATOM     99  S   UNL A   1      46.900  23.359  37.183  1.00  0.00     0.124 S 
ATOM    100  O   UNL A   1      46.641  22.219  36.308  1.00  0.00    -0.237 OA
ATOM    101  O   UNL A   1      48.162  23.327  37.915  1.00  0.00    -0.237 OA
ATOM    102  O   UNL A   1      45.747  23.825  37.952  1.00  0.00    -0.744 OA
ENDBRANCH  95  99
ENDBRANCH  69  92
ENDBRANCH  43  44
ENDBRANCH  36  38
ENDBRANCH  35  36
ENDBRANCH  34  35
ENDBRANCH  33  34
ENDBRANCH  32  33
ENDBRANCH  31  32
ENDBRANCH   1  31
TORSDOF 27
ENDMDL
