MODEL 1
REMARK VINA RESULT:     -10.2      0.000      0.000
REMARK SMILES CCOc1cc(C[NH+]2CCC3(CC2)[C@H](C(=O)OCCOCCOCCOCCOC(=O)c2ccc(-c4c5nc(c(-c6cc(S(=O)(=O)[O-])ccc6F)c6ccc([nH]6)c(-c6cc(S(=O)(=O)[O-])ccc6F)c6nc(c(-c7cc(S(=O)(=O)[O-])ccc7F)c7ccc4[nH]7)C=C6)C=C5)cc2)CC(=O)N3C)ccc1OC
REMARK SMILES IDX 22 1 21 2 20 3 19 4 18 5 17 6 15 7 16 8 14 9 8 10 9 11 13 12
REMARK SMILES IDX 10 14 12 15 11 16 98 17 95 18 96 19 99 20 97 21 7 22 6 23
REMARK SMILES IDX 4 24 5 25 102 26 101 27 100 28 3 29 2 30 1 31 103 32 104 33
REMARK SMILES IDX 23 34 24 35 25 36 26 37 27 38 28 39 29 40 30 41 31 42 32 43
REMARK SMILES IDX 33 44 94 45 34 46 93 47 35 48 36 49 37 50 87 51 38 52 92 53
REMARK SMILES IDX 86 54 88 55 39 56 91 57 85 58 84 59 40 61 72 62 52 63 71 64
REMARK SMILES IDX 53 65 56 66 70 67 89 68 54 69 55 70 69 72 90 73 57 74 41 75
REMARK SMILES IDX 42 76 50 77 43 78 49 79 51 80 48 81 44 82 45 83 46 84 47 85
REMARK SMILES IDX 73 86 74 87 82 88 75 89 81 90 83 91 80 92 76 93 77 94 78 95
REMARK SMILES IDX 79 96 58 97 59 98 67 99 60 100 66 101 68 102 65 103 61 104
REMARK SMILES IDX 62 105 63 106 64 107
REMARK H PARENT 8 13 88 60 56 71
REMARK Flexibility Score: inf
ROOT
ATOM      1  C   UNL A   1      35.787  31.206  27.856  1.00  0.00     0.188 C 
ENDROOT
BRANCH   1   2
ATOM      2  C   UNL A   1      35.721  29.692  27.993  1.00  0.00     0.188 C 
BRANCH   2   3
ATOM      3  O   UNL A   1      34.968  29.002  27.019  1.00  0.00    -0.376 OA
BRANCH   3   4
ATOM      4  C   UNL A   1      33.639  28.627  27.397  1.00  0.00     0.202 C 
BRANCH   4   5
ATOM      5  C   UNL A   1      32.437  29.462  26.894  1.00  0.00     0.261 C 
BRANCH   5   6
ATOM      6  O   UNL A   1      32.503  29.949  25.513  1.00  0.00    -0.463 OA
BRANCH   6   7
ATOM      7  C   UNL A   1      31.338  29.856  24.825  1.00  0.00     0.311 C 
ATOM      8  O   UNL A   1      30.487  30.747  24.870  1.00  0.00    -0.252 OA
BRANCH   7   9
ATOM      9  C   UNL A   1      31.133  28.692  23.836  1.00  0.00     0.134 C 
ATOM     10  N   UNL A   1      31.512  24.521  24.504  1.00  0.00    -0.331 N 
ATOM     11  C   UNL A   1      30.800  25.192  25.576  1.00  0.00     0.265 C 
ATOM     12  C   UNL A   1      30.961  24.837  23.206  1.00  0.00     0.265 C 
ATOM     13  H   UNL A   1      31.308  23.532  24.644  1.00  0.00     0.348 HD
ATOM     14  C   UNL A   1      30.741  26.714  25.427  1.00  0.00     0.091 C 
ATOM     15  C   UNL A   1      30.917  26.337  22.896  1.00  0.00     0.091 C 
ATOM     16  C   UNL A   1      30.440  27.295  24.042  1.00  0.00     0.067 C 
ATOM     17  N   UNL A   1      29.036  27.626  23.773  1.00  0.00    -0.339 N 
ATOM     18  C   UNL A   1      30.308  29.281  22.677  1.00  0.00     0.118 C 
ATOM     19  C   UNL A   1      28.929  28.730  22.922  1.00  0.00     0.223 C 
ATOM     20  C   UNL A   1      27.950  26.667  23.793  1.00  0.00     0.147 C 
ATOM     21  O   UNL A   1      27.918  29.116  22.357  1.00  0.00    -0.275 OA
BRANCH  10  22
ATOM     22  C   UNL A   1      32.922  24.123  24.652  1.00  0.00     0.299 C 
BRANCH  22  23
ATOM     23  C   UNL A   1      33.315  22.673  24.409  1.00  0.00     0.010 A 
ATOM     24  C   UNL A   1      34.872  20.850  24.792  1.00  0.00     0.161 A 
ATOM     25  C   UNL A   1      34.609  22.212  24.641  1.00  0.00     0.060 A 
ATOM     26  C   UNL A   1      33.869  19.924  24.527  1.00  0.00     0.160 A 
ATOM     27  C   UNL A   1      32.679  20.359  23.955  1.00  0.00     0.051 A 
ATOM     28  C   UNL A   1      32.401  21.732  23.916  1.00  0.00     0.013 A 
BRANCH  24  29
ATOM     29  O   UNL A   1      36.042  20.527  25.426  1.00  0.00    -0.490 OA
BRANCH  29  30
ATOM     30  C   UNL A   1      37.209  20.988  24.744  1.00  0.00     0.226 C 
ATOM     31  C   UNL A   1      37.988  21.943  25.633  1.00  0.00     0.049 C 
ENDBRANCH  29  30
ENDBRANCH  24  29
BRANCH  26  32
ATOM     32  O   UNL A   1      33.964  18.605  24.875  1.00  0.00    -0.493 OA
ATOM     33  C   UNL A   1      32.668  18.081  25.200  1.00  0.00     0.278 C 
ENDBRANCH  26  32
ENDBRANCH  22  23
ENDBRANCH  10  22
ENDBRANCH   7   9
ENDBRANCH   6   7
ENDBRANCH   5   6
ENDBRANCH   4   5
ENDBRANCH   3   4
ENDBRANCH   2   3
ENDBRANCH   1   2
BRANCH   1  34
ATOM     34  O   UNL A   1      34.998  31.922  28.786  1.00  0.00    -0.377 OA
BRANCH  34  35
ATOM     35  C   UNL A   1      34.759  33.309  28.591  1.00  0.00     0.188 C 
BRANCH  35  36
ATOM     36  C   UNL A   1      33.439  33.741  27.951  1.00  0.00     0.188 C 
BRANCH  36  37
ATOM     37  O   UNL A   1      32.582  34.628  28.677  1.00  0.00    -0.376 OA
BRANCH  37  38
ATOM     38  C   UNL A   1      32.980  35.975  28.899  1.00  0.00     0.202 C 
BRANCH  38  39
ATOM     39  C   UNL A   1      32.685  36.573  30.272  1.00  0.00     0.261 C 
BRANCH  39  40
ATOM     40  O   UNL A   1      32.492  35.550  31.247  1.00  0.00    -0.460 OA
BRANCH  40  41
ATOM     41  C   UNL A   1      33.293  35.693  32.330  1.00  0.00     0.338 C 
ATOM     42  O   UNL A   1      33.083  36.364  33.316  1.00  0.00    -0.246 OA
BRANCH  41  43
ATOM     43  C   UNL A   1      34.389  34.714  32.232  1.00  0.00     0.060 A 
ATOM     44  C   UNL A   1      34.175  33.477  32.851  1.00  0.00     0.016 A 
ATOM     45  C   UNL A   1      35.603  35.014  31.606  1.00  0.00     0.016 A 
ATOM     46  C   UNL A   1      35.211  32.570  32.941  1.00  0.00     0.010 A 
ATOM     47  C   UNL A   1      36.660  34.113  31.723  1.00  0.00     0.010 A 
ATOM     48  C   UNL A   1      36.475  32.935  32.464  1.00  0.00    -0.014 A 
BRANCH  48  49
ATOM     49  C   UNL A   1      37.619  32.247  33.087  1.00  0.00     0.031 A 
ATOM     50  C   UNL A   1      38.287  31.164  32.282  1.00  0.00     0.074 A 
ATOM     51  C   UNL A   1      38.134  32.707  34.236  1.00  0.00     0.049 A 
ATOM     52  N   UNL A   1      39.365  30.476  32.545  1.00  0.00    -0.248 NA
ATOM     53  C   UNL A   1      37.658  30.821  30.993  1.00  0.00     0.031 C 
ATOM     54  C   UNL A   1      37.592  33.823  35.013  1.00  0.00     0.029 A 
ATOM     55  N   UNL A   1      39.245  32.316  34.927  1.00  0.00    -0.354 N 
ATOM     56  C   UNL A   1      39.541  29.625  31.457  1.00  0.00     0.074 A 
ATOM     57  C   UNL A   1      38.438  29.849  30.554  1.00  0.00     0.031 C 
ATOM     58  C   UNL A   1      38.384  34.030  36.079  1.00  0.00     0.029 A 
ATOM     59  C   UNL A   1      39.458  33.042  36.073  1.00  0.00     0.049 A 
ATOM     60  H   UNL A   1      39.834  31.584  34.633  1.00  0.00     0.167 HD
ATOM     61  C   UNL A   1      40.544  28.744  31.235  1.00  0.00     0.034 A 
ATOM     62  C   UNL A   1      40.412  32.899  37.012  1.00  0.00     0.034 A 
ATOM     63  C   UNL A   1      41.619  28.540  32.172  1.00  0.00     0.049 A 
ATOM     64  C   UNL A   1      41.467  31.842  36.789  1.00  0.00     0.074 A 
ATOM     65  C   UNL A   1      42.677  27.654  32.098  1.00  0.00     0.029 A 
ATOM     66  N   UNL A   1      41.764  29.236  33.369  1.00  0.00    -0.354 N 
ATOM     67  N   UNL A   1      41.609  31.013  35.778  1.00  0.00    -0.248 NA
ATOM     68  C   UNL A   1      42.499  31.717  37.821  1.00  0.00     0.031 C 
ATOM     69  C   UNL A   1      43.414  27.760  33.282  1.00  0.00     0.029 A 
ATOM     70  C   UNL A   1      42.876  28.781  34.054  1.00  0.00     0.049 A 
ATOM     71  H   UNL A   1      41.161  29.948  33.682  1.00  0.00     0.167 HD
ATOM     72  C   UNL A   1      42.773  30.294  36.035  1.00  0.00     0.074 A 
ATOM     73  C   UNL A   1      43.297  30.804  37.287  1.00  0.00     0.031 C 
ATOM     74  C   UNL A   1      43.365  29.309  35.307  1.00  0.00     0.034 A 
BRANCH  61  75
ATOM     75  C   UNL A   1      40.464  27.900  29.983  1.00  0.00     0.023 A 
ATOM     76  C   UNL A   1      41.299  28.122  28.873  1.00  0.00     0.031 A 
ATOM     77  C   UNL A   1      39.489  26.893  29.877  1.00  0.00     0.131 A 
ATOM     78  C   UNL A   1      41.095  27.399  27.686  1.00  0.00     0.055 A 
ATOM     79  C   UNL A   1      39.347  26.119  28.724  1.00  0.00     0.041 A 
ATOM     80  F   UNL A   1      38.637  26.658  30.888  1.00  0.00    -0.206 F 
ATOM     81  C   UNL A   1      40.143  26.380  27.613  1.00  0.00     0.022 A 
BRANCH  78  82
ATOM     82  S   UNL A   1      41.980  27.914  26.186  1.00  0.00     0.124 S 
ATOM     83  O   UNL A   1      41.737  26.780  25.297  1.00  0.00    -0.237 OA
ATOM     84  O   UNL A   1      41.307  29.159  25.835  1.00  0.00    -0.237 OA
ATOM     85  O   UNL A   1      43.363  28.057  26.637  1.00  0.00    -0.744 OA
ENDBRANCH  78  82
ENDBRANCH  61  75
BRANCH  62  86
ATOM     86  C   UNL A   1      40.397  33.744  38.238  1.00  0.00     0.023 A 
ATOM     87  C   UNL A   1      39.515  33.481  39.298  1.00  0.00     0.031 A 
ATOM     88  C   UNL A   1      41.243  34.862  38.348  1.00  0.00     0.131 A 
ATOM     89  C   UNL A   1      39.466  34.352  40.398  1.00  0.00     0.055 A 
ATOM     90  C   UNL A   1      41.233  35.691  39.471  1.00  0.00     0.041 A 
ATOM     91  F   UNL A   1      42.107  35.161  37.364  1.00  0.00    -0.206 F 
ATOM     92  C   UNL A   1      40.328  35.446  40.499  1.00  0.00     0.022 A 
BRANCH  89  93
ATOM     93  S   UNL A   1      38.186  34.090  41.655  1.00  0.00     0.124 S 
ATOM     94  O   UNL A   1      37.870  35.457  42.047  1.00  0.00    -0.237 OA
ATOM     95  O   UNL A   1      37.159  33.384  40.896  1.00  0.00    -0.237 OA
ATOM     96  O   UNL A   1      38.867  33.289  42.671  1.00  0.00    -0.744 OA
ENDBRANCH  89  93
ENDBRANCH  62  86
BRANCH  74  97
ATOM     97  C   UNL A   1      44.674  28.774  35.831  1.00  0.00     0.023 A 
ATOM     98  C   UNL A   1      45.909  29.308  35.427  1.00  0.00     0.031 A 
ATOM     99  C   UNL A   1      44.683  27.687  36.725  1.00  0.00     0.131 A 
ATOM    100  C   UNL A   1      47.100  28.700  35.846  1.00  0.00     0.055 A 
ATOM    101  C   UNL A   1      45.872  27.139  37.203  1.00  0.00     0.041 A 
ATOM    102  F   UNL A   1      43.532  27.136  37.144  1.00  0.00    -0.206 F 
ATOM    103  C   UNL A   1      47.091  27.633  36.747  1.00  0.00     0.022 A 
BRANCH 100 104
ATOM    104  S   UNL A   1      48.656  29.229  35.079  1.00  0.00     0.124 S 
ATOM    105  O   UNL A   1      49.580  28.192  35.527  1.00  0.00    -0.237 OA
ATOM    106  O   UNL A   1      48.323  29.215  33.658  1.00  0.00    -0.237 OA
ATOM    107  O   UNL A   1      48.886  30.554  35.650  1.00  0.00    -0.744 OA
ENDBRANCH 100 104
ENDBRANCH  74  97
ENDBRANCH  48  49
ENDBRANCH  41  43
ENDBRANCH  40  41
ENDBRANCH  39  40
ENDBRANCH  38  39
ENDBRANCH  37  38
ENDBRANCH  36  37
ENDBRANCH  35  36
ENDBRANCH  34  35
ENDBRANCH   1  34
TORSDOF 28
ENDMDL
MODEL 2
REMARK VINA RESULT:     -10.2      1.379      2.033
REMARK SMILES CCOc1cc(C[NH+]2CCC3(CC2)[C@H](C(=O)OCCOCCOCCOCCOC(=O)c2ccc(-c4c5nc(c(-c6cc(S(=O)(=O)[O-])ccc6F)c6ccc([nH]6)c(-c6cc(S(=O)(=O)[O-])ccc6F)c6nc(c(-c7cc(S(=O)(=O)[O-])ccc7F)c7ccc4[nH]7)C=C6)C=C5)cc2)CC(=O)N3C)ccc1OC
REMARK SMILES IDX 22 1 21 2 20 3 19 4 18 5 17 6 15 7 16 8 14 9 8 10 9 11 13 12
REMARK SMILES IDX 10 14 12 15 11 16 98 17 95 18 96 19 99 20 97 21 7 22 6 23
REMARK SMILES IDX 4 24 5 25 102 26 101 27 100 28 3 29 2 30 1 31 103 32 104 33
REMARK SMILES IDX 23 34 24 35 25 36 26 37 27 38 28 39 29 40 30 41 31 42 32 43
REMARK SMILES IDX 33 44 94 45 34 46 93 47 35 48 36 49 37 50 87 51 38 52 92 53
REMARK SMILES IDX 86 54 88 55 39 56 91 57 85 58 84 59 40 61 72 62 52 63 71 64
REMARK SMILES IDX 53 65 56 66 70 67 89 68 54 69 55 70 69 72 90 73 57 74 41 75
REMARK SMILES IDX 42 76 50 77 43 78 49 79 51 80 48 81 44 82 45 83 46 84 47 85
REMARK SMILES IDX 73 86 74 87 82 88 75 89 81 90 83 91 80 92 76 93 77 94 78 95
REMARK SMILES IDX 79 96 58 97 59 98 67 99 60 100 66 101 68 102 65 103 61 104
REMARK SMILES IDX 62 105 63 106 64 107
REMARK H PARENT 8 13 88 60 56 71
REMARK Flexibility Score: inf
ROOT
ATOM      1  C   UNL A   1      35.553  31.300  27.998  1.00  0.00     0.188 C 
ENDROOT
BRANCH   1   2
ATOM      2  C   UNL A   1      35.742  29.793  28.103  1.00  0.00     0.188 C 
BRANCH   2   3
ATOM      3  O   UNL A   1      35.193  29.014  27.061  1.00  0.00    -0.376 OA
BRANCH   3   4
ATOM      4  C   UNL A   1      33.852  28.550  27.259  1.00  0.00     0.202 C 
BRANCH   4   5
ATOM      5  C   UNL A   1      32.664  29.433  26.807  1.00  0.00     0.261 C 
BRANCH   5   6
ATOM      6  O   UNL A   1      32.696  29.925  25.426  1.00  0.00    -0.463 OA
BRANCH   6   7
ATOM      7  C   UNL A   1      31.504  29.872  24.781  1.00  0.00     0.311 C 
ATOM      8  O   UNL A   1      30.623  30.713  24.977  1.00  0.00    -0.252 OA
BRANCH   7   9
ATOM      9  C   UNL A   1      31.297  28.839  23.656  1.00  0.00     0.134 C 
ATOM     10  N   UNL A   1      32.507  24.777  23.505  1.00  0.00    -0.331 N 
ATOM     11  C   UNL A   1      31.931  25.137  24.788  1.00  0.00     0.265 C 
ATOM     12  C   UNL A   1      31.652  25.152  22.403  1.00  0.00     0.265 C 
ATOM     13  H   UNL A   1      32.507  23.757  23.505  1.00  0.00     0.348 HD
ATOM     14  C   UNL A   1      31.586  26.622  24.920  1.00  0.00     0.091 C 
ATOM     15  C   UNL A   1      31.291  26.642  22.373  1.00  0.00     0.091 C 
ATOM     16  C   UNL A   1      30.908  27.317  23.736  1.00  0.00     0.067 C 
ATOM     17  N   UNL A   1      29.444  27.394  23.785  1.00  0.00    -0.339 N 
ATOM     18  C   UNL A   1      30.161  29.405  22.785  1.00  0.00     0.118 C 
ATOM     19  C   UNL A   1      28.977  28.561  23.173  1.00  0.00     0.223 C 
ATOM     20  C   UNL A   1      28.564  26.243  23.830  1.00  0.00     0.147 C 
ATOM     21  O   UNL A   1      27.820  28.811  22.875  1.00  0.00    -0.275 OA
BRANCH  10  22
ATOM     22  C   UNL A   1      33.963  24.653  23.327  1.00  0.00     0.299 C 
BRANCH  22  23
ATOM     23  C   UNL A   1      34.757  23.773  24.282  1.00  0.00     0.010 A 
ATOM     24  C   UNL A   1      35.407  21.548  25.002  1.00  0.00     0.161 A 
ATOM     25  C   UNL A   1      34.471  22.419  24.445  1.00  0.00     0.060 A 
ATOM     26  C   UNL A   1      36.569  22.059  25.570  1.00  0.00     0.160 A 
ATOM     27  C   UNL A   1      36.698  23.435  25.726  1.00  0.00     0.051 A 
ATOM     28  C   UNL A   1      35.800  24.285  25.065  1.00  0.00     0.013 A 
BRANCH  24  29
ATOM     29  O   UNL A   1      35.227  20.217  24.736  1.00  0.00    -0.490 OA
BRANCH  29  30
ATOM     30  C   UNL A   1      33.860  19.852  24.543  1.00  0.00     0.226 C 
ATOM     31  C   UNL A   1      33.751  18.357  24.291  1.00  0.00     0.049 C 
ENDBRANCH  29  30
ENDBRANCH  24  29
BRANCH  26  32
ATOM     32  O   UNL A   1      37.636  21.277  25.916  1.00  0.00    -0.493 OA
ATOM     33  C   UNL A   1      38.803  22.086  26.117  1.00  0.00     0.278 C 
ENDBRANCH  26  32
ENDBRANCH  22  23
ENDBRANCH  10  22
ENDBRANCH   7   9
ENDBRANCH   6   7
ENDBRANCH   5   6
ENDBRANCH   4   5
ENDBRANCH   3   4
ENDBRANCH   2   3
ENDBRANCH   1   2
BRANCH   1  34
ATOM     34  O   UNL A   1      34.652  31.852  28.936  1.00  0.00    -0.377 OA
BRANCH  34  35
ATOM     35  C   UNL A   1      34.412  33.253  28.947  1.00  0.00     0.188 C 
BRANCH  35  36
ATOM     36  C   UNL A   1      33.303  33.811  28.054  1.00  0.00     0.188 C 
BRANCH  36  37
ATOM     37  O   UNL A   1      32.497  34.885  28.552  1.00  0.00    -0.376 OA
BRANCH  37  38
ATOM     38  C   UNL A   1      33.100  36.128  28.886  1.00  0.00     0.202 C 
BRANCH  38  39
ATOM     39  C   UNL A   1      32.796  36.703  30.267  1.00  0.00     0.261 C 
BRANCH  39  40
ATOM     40  O   UNL A   1      32.507  35.666  31.203  1.00  0.00    -0.460 OA
BRANCH  40  41
ATOM     41  C   UNL A   1      33.235  35.763  32.342  1.00  0.00     0.338 C 
ATOM     42  O   UNL A   1      32.955  36.384  33.343  1.00  0.00    -0.246 OA
BRANCH  41  43
ATOM     43  C   UNL A   1      34.345  34.798  32.268  1.00  0.00     0.060 A 
ATOM     44  C   UNL A   1      34.133  33.558  32.880  1.00  0.00     0.016 A 
ATOM     45  C   UNL A   1      35.570  35.115  31.671  1.00  0.00     0.016 A 
ATOM     46  C   UNL A   1      35.177  32.664  32.993  1.00  0.00     0.010 A 
ATOM     47  C   UNL A   1      36.635  34.227  31.812  1.00  0.00     0.010 A 
ATOM     48  C   UNL A   1      36.448  33.045  32.546  1.00  0.00    -0.014 A 
BRANCH  48  49
ATOM     49  C   UNL A   1      37.586  32.371  33.195  1.00  0.00     0.031 A 
ATOM     50  C   UNL A   1      38.275  31.287  32.412  1.00  0.00     0.074 A 
ATOM     51  C   UNL A   1      38.076  32.844  34.350  1.00  0.00     0.049 A 
ATOM     52  N   UNL A   1      39.354  30.609  32.699  1.00  0.00    -0.248 NA
ATOM     53  C   UNL A   1      37.672  30.929  31.115  1.00  0.00     0.031 C 
ATOM     54  C   UNL A   1      37.512  33.962  35.108  1.00  0.00     0.029 A 
ATOM     55  N   UNL A   1      39.177  32.467  35.064  1.00  0.00    -0.354 N 
ATOM     56  C   UNL A   1      39.555  29.751  31.622  1.00  0.00     0.074 A 
ATOM     57  C   UNL A   1      38.467  29.959  30.697  1.00  0.00     0.031 C 
ATOM     58  C   UNL A   1      38.283  34.183  36.186  1.00  0.00     0.029 A 
ATOM     59  C   UNL A   1      39.365  33.203  36.207  1.00  0.00     0.049 A 
ATOM     60  H   UNL A   1      39.777  31.737  34.786  1.00  0.00     0.167 HD
ATOM     61  C   UNL A   1      40.569  28.875  31.424  1.00  0.00     0.034 A 
ATOM     62  C   UNL A   1      40.303  33.075  37.164  1.00  0.00     0.034 A 
ATOM     63  C   UNL A   1      41.628  28.687  32.382  1.00  0.00     0.049 A 
ATOM     64  C   UNL A   1      41.369  32.024  36.969  1.00  0.00     0.074 A 
ATOM     65  C   UNL A   1      42.694  27.809  32.334  1.00  0.00     0.029 A 
ATOM     66  N   UNL A   1      41.746  29.394  33.576  1.00  0.00    -0.354 N 
ATOM     67  N   UNL A   1      41.535  31.188  35.967  1.00  0.00    -0.248 NA
ATOM     68  C   UNL A   1      42.383  31.915  38.020  1.00  0.00     0.031 C 
ATOM     69  C   UNL A   1      43.409  27.929  33.531  1.00  0.00     0.029 A 
ATOM     70  C   UNL A   1      42.850  28.952  34.284  1.00  0.00     0.049 A 
ATOM     71  H   UNL A   1      41.133  30.104  33.873  1.00  0.00     0.167 HD
ATOM     72  C   UNL A   1      42.700  30.481  36.251  1.00  0.00     0.074 A 
ATOM     73  C   UNL A   1      43.197  31.004  37.509  1.00  0.00     0.031 C 
ATOM     74  C   UNL A   1      43.312  29.494  35.542  1.00  0.00     0.034 A 
BRANCH  61  75
ATOM     75  C   UNL A   1      40.518  28.021  30.179  1.00  0.00     0.023 A 
ATOM     76  C   UNL A   1      41.401  28.212  29.100  1.00  0.00     0.031 A 
ATOM     77  C   UNL A   1      39.523  27.037  30.043  1.00  0.00     0.131 A 
ATOM     78  C   UNL A   1      41.226  27.482  27.912  1.00  0.00     0.055 A 
ATOM     79  C   UNL A   1      39.408  26.255  28.892  1.00  0.00     0.041 A 
ATOM     80  F   UNL A   1      38.627  26.832  31.022  1.00  0.00    -0.206 F 
ATOM     81  C   UNL A   1      40.253  26.485  27.812  1.00  0.00     0.022 A 
BRANCH  78  82
ATOM     82  S   UNL A   1      42.181  27.961  26.444  1.00  0.00     0.124 S 
ATOM     83  O   UNL A   1      42.047  29.415  26.468  1.00  0.00    -0.237 OA
ATOM     84  O   UNL A   1      43.508  27.436  26.746  1.00  0.00    -0.237 OA
ATOM     85  O   UNL A   1      41.481  27.296  25.348  1.00  0.00    -0.744 OA
ENDBRANCH  78  82
ENDBRANCH  61  75
BRANCH  62  86
ATOM     86  C   UNL A   1      40.259  33.929  38.383  1.00  0.00     0.023 A 
ATOM     87  C   UNL A   1      39.429  33.613  39.471  1.00  0.00     0.031 A 
ATOM     88  C   UNL A   1      41.023  35.109  38.460  1.00  0.00     0.131 A 
ATOM     89  C   UNL A   1      39.347  34.490  40.564  1.00  0.00     0.055 A 
ATOM     90  C   UNL A   1      40.982  35.947  39.575  1.00  0.00     0.041 A 
ATOM     91  F   UNL A   1      41.834  35.460  37.448  1.00  0.00    -0.206 F 
ATOM     92  C   UNL A   1      40.128  35.646  40.630  1.00  0.00     0.022 A 
BRANCH  89  93
ATOM     93  S   UNL A   1      38.126  34.147  41.860  1.00  0.00     0.124 S 
ATOM     94  O   UNL A   1      37.769  35.491  42.295  1.00  0.00    -0.237 OA
ATOM     95  O   UNL A   1      37.100  33.417  41.121  1.00  0.00    -0.237 OA
ATOM     96  O   UNL A   1      38.875  33.352  42.831  1.00  0.00    -0.744 OA
ENDBRANCH  89  93
ENDBRANCH  62  86
BRANCH  74  97
ATOM     97  C   UNL A   1      44.615  28.973  36.094  1.00  0.00     0.023 A 
ATOM     98  C   UNL A   1      44.657  28.031  37.135  1.00  0.00     0.031 A 
ATOM     99  C   UNL A   1      45.836  29.456  35.587  1.00  0.00     0.131 A 
ATOM    100  C   UNL A   1      45.889  27.669  37.695  1.00  0.00     0.055 A 
ATOM    101  C   UNL A   1      47.062  29.029  36.095  1.00  0.00     0.041 A 
ATOM    102  F   UNL A   1      45.856  30.359  34.593  1.00  0.00    -0.206 F 
ATOM    103  C   UNL A   1      47.093  28.145  37.170  1.00  0.00     0.022 A 
BRANCH 100 104
ATOM    104  S   UNL A   1      45.889  26.683  39.217  1.00  0.00     0.124 S 
ATOM    105  O   UNL A   1      46.531  25.448  38.776  1.00  0.00    -0.237 OA
ATOM    106  O   UNL A   1      46.668  27.516  40.128  1.00  0.00    -0.237 OA
ATOM    107  O   UNL A   1      44.471  26.561  39.547  1.00  0.00    -0.744 OA
ENDBRANCH 100 104
ENDBRANCH  74  97
ENDBRANCH  48  49
ENDBRANCH  41  43
ENDBRANCH  40  41
ENDBRANCH  39  40
ENDBRANCH  38  39
ENDBRANCH  37  38
ENDBRANCH  36  37
ENDBRANCH  35  36
ENDBRANCH  34  35
ENDBRANCH   1  34
TORSDOF 28
ENDMDL
MODEL 3
REMARK VINA RESULT:      -8.5      4.570      8.086
REMARK SMILES CCOc1cc(C[NH+]2CCC3(CC2)[C@H](C(=O)OCCOCCOCCOCCOC(=O)c2ccc(-c4c5nc(c(-c6cc(S(=O)(=O)[O-])ccc6F)c6ccc([nH]6)c(-c6cc(S(=O)(=O)[O-])ccc6F)c6nc(c(-c7cc(S(=O)(=O)[O-])ccc7F)c7ccc4[nH]7)C=C6)C=C5)cc2)CC(=O)N3C)ccc1OC
REMARK SMILES IDX 22 1 21 2 20 3 19 4 18 5 17 6 15 7 16 8 14 9 8 10 9 11 13 12
REMARK SMILES IDX 10 14 12 15 11 16 98 17 95 18 96 19 99 20 97 21 7 22 6 23
REMARK SMILES IDX 4 24 5 25 102 26 101 27 100 28 3 29 2 30 1 31 103 32 104 33
REMARK SMILES IDX 23 34 24 35 25 36 26 37 27 38 28 39 29 40 30 41 31 42 32 43
REMARK SMILES IDX 33 44 94 45 34 46 93 47 35 48 36 49 37 50 87 51 38 52 92 53
REMARK SMILES IDX 86 54 88 55 39 56 91 57 85 58 84 59 40 61 72 62 52 63 71 64
REMARK SMILES IDX 53 65 56 66 70 67 89 68 54 69 55 70 69 72 90 73 57 74 41 75
REMARK SMILES IDX 42 76 50 77 43 78 49 79 51 80 48 81 44 82 45 83 46 84 47 85
REMARK SMILES IDX 73 86 74 87 82 88 75 89 81 90 83 91 80 92 76 93 77 94 78 95
REMARK SMILES IDX 79 96 58 97 59 98 67 99 60 100 66 101 68 102 65 103 61 104
REMARK SMILES IDX 62 105 63 106 64 107
REMARK H PARENT 8 13 88 60 56 71
REMARK Flexibility Score: inf
ROOT
ATOM      1  C   UNL A   1      32.806  29.145  23.682  1.00  0.00     0.188 C 
ENDROOT
BRANCH   1   2
ATOM      2  C   UNL A   1      31.571  28.278  23.480  1.00  0.00     0.188 C 
BRANCH   2   3
ATOM      3  O   UNL A   1      30.687  28.173  24.575  1.00  0.00    -0.376 OA
BRANCH   3   4
ATOM      4  C   UNL A   1      30.538  26.866  25.143  1.00  0.00     0.202 C 
BRANCH   4   5
ATOM      5  C   UNL A   1      31.693  25.843  25.019  1.00  0.00     0.261 C 
BRANCH   5   6
ATOM      6  O   UNL A   1      31.346  24.431  25.206  1.00  0.00    -0.463 OA
BRANCH   6   7
ATOM      7  C   UNL A   1      31.409  23.680  24.078  1.00  0.00     0.311 C 
ATOM      8  O   UNL A   1      30.461  23.613  23.291  1.00  0.00    -0.252 OA
BRANCH   7   9
ATOM      9  C   UNL A   1      32.744  23.023  23.679  1.00  0.00     0.134 C 
ATOM     10  N   UNL A   1      36.302  22.609  25.950  1.00  0.00    -0.331 N 
ATOM     11  C   UNL A   1      35.112  22.301  26.722  1.00  0.00     0.265 C 
ATOM     12  C   UNL A   1      36.342  21.882  24.703  1.00  0.00     0.265 C 
ATOM     13  H   UNL A   1      37.069  22.226  26.504  1.00  0.00     0.348 HD
ATOM     14  C   UNL A   1      33.802  22.548  25.971  1.00  0.00     0.091 C 
ATOM     15  C   UNL A   1      35.114  22.105  23.812  1.00  0.00     0.091 C 
ATOM     16  C   UNL A   1      33.709  22.099  24.509  1.00  0.00     0.067 C 
ATOM     17  N   UNL A   1      33.116  20.777  24.277  1.00  0.00    -0.339 N 
ATOM     18  C   UNL A   1      32.414  22.124  22.474  1.00  0.00     0.118 C 
ATOM     19  C   UNL A   1      32.420  20.740  23.065  1.00  0.00     0.223 C 
ATOM     20  C   UNL A   1      33.650  19.536  24.800  1.00  0.00     0.147 C 
ATOM     21  O   UNL A   1      31.997  19.744  22.500  1.00  0.00    -0.275 OA
BRANCH  10  22
ATOM     22  C   UNL A   1      37.001  23.896  26.100  1.00  0.00     0.299 C 
BRANCH  22  23
ATOM     23  C   UNL A   1      38.437  23.908  26.603  1.00  0.00     0.010 A 
ATOM     24  C   UNL A   1      40.668  22.952  26.542  1.00  0.00     0.161 A 
ATOM     25  C   UNL A   1      39.284  22.813  26.439  1.00  0.00     0.060 A 
ATOM     26  C   UNL A   1      41.206  24.153  26.993  1.00  0.00     0.160 A 
ATOM     27  C   UNL A   1      40.354  25.131  27.494  1.00  0.00     0.051 A 
ATOM     28  C   UNL A   1      38.974  25.011  27.281  1.00  0.00     0.013 A 
BRANCH  24  29
ATOM     29  O   UNL A   1      41.419  21.967  25.960  1.00  0.00    -0.490 OA
BRANCH  29  30
ATOM     30  C   UNL A   1      41.773  20.912  26.855  1.00  0.00     0.226 C 
ATOM     31  C   UNL A   1      41.462  19.567  26.222  1.00  0.00     0.049 C 
ENDBRANCH  29  30
ENDBRANCH  24  29
BRANCH  26  32
ATOM     32  O   UNL A   1      42.536  24.455  26.897  1.00  0.00    -0.493 OA
ATOM     33  C   UNL A   1      42.892  24.710  25.531  1.00  0.00     0.278 C 
ENDBRANCH  26  32
ENDBRANCH  22  23
ENDBRANCH  10  22
ENDBRANCH   7   9
ENDBRANCH   6   7
ENDBRANCH   5   6
ENDBRANCH   4   5
ENDBRANCH   3   4
ENDBRANCH   2   3
ENDBRANCH   1   2
BRANCH   1  34
ATOM     34  O   UNL A   1      33.354  29.104  24.985  1.00  0.00    -0.377 OA
BRANCH  34  35
ATOM     35  C   UNL A   1      32.940  30.053  25.957  1.00  0.00     0.188 C 
BRANCH  35  36
ATOM     36  C   UNL A   1      33.747  30.175  27.250  1.00  0.00     0.188 C 
BRANCH  36  37
ATOM     37  O   UNL A   1      33.756  31.430  27.939  1.00  0.00    -0.376 OA
BRANCH  37  38
ATOM     38  C   UNL A   1      34.908  31.830  28.670  1.00  0.00     0.202 C 
BRANCH  38  39
ATOM     39  C   UNL A   1      36.217  31.108  28.360  1.00  0.00     0.261 C 
BRANCH  39  40
ATOM     40  O   UNL A   1      37.029  30.992  29.527  1.00  0.00    -0.460 OA
BRANCH  40  41
ATOM     41  C   UNL A   1      37.766  32.102  29.772  1.00  0.00     0.338 C 
ATOM     42  O   UNL A   1      38.016  33.003  29.002  1.00  0.00    -0.246 OA
BRANCH  41  43
ATOM     43  C   UNL A   1      38.048  32.166  31.216  1.00  0.00     0.060 A 
ATOM     44  C   UNL A   1      37.394  33.174  31.933  1.00  0.00     0.016 A 
ATOM     45  C   UNL A   1      38.961  31.307  31.837  1.00  0.00     0.016 A 
ATOM     46  C   UNL A   1      37.727  33.400  33.253  1.00  0.00     0.010 A 
ATOM     47  C   UNL A   1      39.321  31.552  33.160  1.00  0.00     0.010 A 
ATOM     48  C   UNL A   1      38.760  32.652  33.829  1.00  0.00    -0.014 A 
BRANCH  48  49
ATOM     49  C   UNL A   1      39.463  33.290  34.956  1.00  0.00     0.031 A 
ATOM     50  C   UNL A   1      40.542  34.282  34.615  1.00  0.00     0.074 A 
ATOM     51  C   UNL A   1      39.018  33.116  36.209  1.00  0.00     0.049 A 
ATOM     52  N   UNL A   1      41.241  35.055  35.402  1.00  0.00    -0.248 NA
ATOM     53  C   UNL A   1      40.867  34.434  33.185  1.00  0.00     0.031 C 
ATOM     54  C   UNL A   1      37.907  32.245  36.594  1.00  0.00     0.029 A 
ATOM     55  N   UNL A   1      39.425  33.689  37.380  1.00  0.00    -0.354 N 
ATOM     56  C   UNL A   1      42.082  35.781  34.563  1.00  0.00     0.074 A 
ATOM     57  C   UNL A   1      41.841  35.327  33.215  1.00  0.00     0.031 C 
ATOM     58  C   UNL A   1      37.717  32.349  37.919  1.00  0.00     0.029 A 
ATOM     59  C   UNL A   1      38.713  33.262  38.473  1.00  0.00     0.049 A 
ATOM     60  H   UNL A   1      40.158  34.344  37.434  1.00  0.00     0.167 HD
ATOM     61  C   UNL A   1      42.968  36.748  34.896  1.00  0.00     0.034 A 
ATOM     62  C   UNL A   1      38.873  33.571  39.773  1.00  0.00     0.034 A 
ATOM     63  C   UNL A   1      43.190  37.160  36.259  1.00  0.00     0.049 A 
ATOM     64  C   UNL A   1      39.935  34.582  40.131  1.00  0.00     0.074 A 
ATOM     65  C   UNL A   1      44.083  38.096  36.746  1.00  0.00     0.029 A 
ATOM     66  N   UNL A   1      42.507  36.648  37.358  1.00  0.00    -0.354 N 
ATOM     67  N   UNL A   1      40.755  35.239  39.339  1.00  0.00    -0.248 NA
ATOM     68  C   UNL A   1      40.078  34.908  41.552  1.00  0.00     0.031 C 
ATOM     69  C   UNL A   1      43.995  38.091  38.143  1.00  0.00     0.029 A 
ATOM     70  C   UNL A   1      42.978  37.227  38.524  1.00  0.00     0.049 A 
ATOM     71  H   UNL A   1      41.794  35.972  37.312  1.00  0.00     0.167 HD
ATOM     72  C   UNL A   1      41.484  36.088  40.167  1.00  0.00     0.074 A 
ATOM     73  C   UNL A   1      40.991  35.866  41.512  1.00  0.00     0.031 C 
ATOM     74  C   UNL A   1      42.467  36.975  39.852  1.00  0.00     0.034 A 
BRANCH  61  75
ATOM     75  C   UNL A   1      43.799  37.345  33.783  1.00  0.00     0.023 A 
ATOM     76  C   UNL A   1      43.500  38.594  33.209  1.00  0.00     0.031 A 
ATOM     77  C   UNL A   1      44.874  36.618  33.244  1.00  0.00     0.131 A 
ATOM     78  C   UNL A   1      44.220  39.043  32.089  1.00  0.00     0.055 A 
ATOM     79  C   UNL A   1      45.641  37.108  32.184  1.00  0.00     0.041 A 
ATOM     80  F   UNL A   1      45.186  35.403  33.722  1.00  0.00    -0.206 F 
ATOM     81  C   UNL A   1      45.306  38.321  31.591  1.00  0.00     0.022 A 
BRANCH  78  82
ATOM     82  S   UNL A   1      43.619  40.502  31.192  1.00  0.00     0.124 S 
ATOM     83  O   UNL A   1      43.119  41.334  32.284  1.00  0.00    -0.237 OA
ATOM     84  O   UNL A   1      44.824  40.980  30.524  1.00  0.00    -0.237 OA
ATOM     85  O   UNL A   1      42.588  39.962  30.309  1.00  0.00    -0.744 OA
ENDBRANCH  78  82
ENDBRANCH  61  75
BRANCH  62  86
ATOM     86  C   UNL A   1      38.040  32.907  40.814  1.00  0.00     0.023 A 
ATOM     87  C   UNL A   1      36.730  33.332  41.087  1.00  0.00     0.031 A 
ATOM     88  C   UNL A   1      38.565  31.854  41.587  1.00  0.00     0.131 A 
ATOM     89  C   UNL A   1      36.009  32.741  42.137  1.00  0.00     0.055 A 
ATOM     90  C   UNL A   1      37.822  31.230  42.590  1.00  0.00     0.041 A 
ATOM     91  F   UNL A   1      39.813  31.408  41.369  1.00  0.00    -0.206 F 
ATOM     92  C   UNL A   1      36.540  31.684  42.880  1.00  0.00     0.022 A 
BRANCH  89  93
ATOM     93  S   UNL A   1      34.398  33.442  42.583  1.00  0.00     0.124 S 
ATOM     94  O   UNL A   1      34.048  34.176  41.373  1.00  0.00    -0.237 OA
ATOM     95  O   UNL A   1      33.613  32.243  42.857  1.00  0.00    -0.237 OA
ATOM     96  O   UNL A   1      34.698  34.268  43.751  1.00  0.00    -0.744 OA
ENDBRANCH  89  93
ENDBRANCH  62  86
BRANCH  74  97
ATOM     97  C   UNL A   1      43.017  37.805  40.984  1.00  0.00     0.023 A 
ATOM     98  C   UNL A   1      44.109  37.377  41.757  1.00  0.00     0.031 A 
ATOM     99  C   UNL A   1      42.412  39.032  41.314  1.00  0.00     0.131 A 
ATOM    100  C   UNL A   1      44.506  38.124  42.874  1.00  0.00     0.055 A 
ATOM    101  C   UNL A   1      42.867  39.812  42.377  1.00  0.00     0.041 A 
ATOM    102  F   UNL A   1      41.365  39.491  40.611  1.00  0.00    -0.206 F 
ATOM    103  C   UNL A   1      43.907  39.349  43.177  1.00  0.00     0.022 A 
BRANCH 100 104
ATOM    104  S   UNL A   1      45.719  37.399  44.011  1.00  0.00     0.124 S 
ATOM    105  O   UNL A   1      46.541  36.601  43.106  1.00  0.00    -0.237 OA
ATOM    106  O   UNL A   1      46.360  38.581  44.578  1.00  0.00    -0.237 OA
ATOM    107  O   UNL A   1      44.898  36.630  44.943  1.00  0.00    -0.744 OA
ENDBRANCH 100 104
ENDBRANCH  74  97
ENDBRANCH  48  49
ENDBRANCH  41  43
ENDBRANCH  40  41
ENDBRANCH  39  40
ENDBRANCH  38  39
ENDBRANCH  37  38
ENDBRANCH  36  37
ENDBRANCH  35  36
ENDBRANCH  34  35
ENDBRANCH   1  34
TORSDOF 28
ENDMDL
