MODEL 1
REMARK VINA RESULT:      -9.1      0.000      0.000
REMARK SMILES COc1ccc([C@H](C)NC(=O)c2cnn(C)c2C(=O)OCCOCCOCCOCCOC(=O)c2ccc(-c3c4nc(c(-c5cc(S(=O)(=O)[O-])ccc5F)c5ccc([nH]5)c(-c5cc(S(=O)(=O)[O-])ccc5F)c5nc(c(-c6cc(S(=O)(=O)[O-])ccc6F)c6ccc3[nH]6)C=C5)C=C4)cc2)cc1
REMARK SMILES IDX 25 1 24 2 23 3 22 4 21 5 20 6 18 7 19 8 17 9 12 10 13 11
REMARK SMILES IDX 14 12 15 13 16 14 10 15 9 16 11 18 7 19 8 20 6 21 3 22 4 23
REMARK SMILES IDX 99 24 5 25 98 26 2 27 1 28 26 29 27 30 28 31 29 32 30 33
REMARK SMILES IDX 31 34 32 35 33 36 34 37 35 38 36 39 97 40 37 41 96 42 38 43
REMARK SMILES IDX 39 44 40 45 90 46 41 47 95 48 89 49 91 50 42 51 94 52 88 53
REMARK SMILES IDX 87 54 43 56 75 57 55 58 74 59 56 60 59 61 73 62 92 63 57 64
REMARK SMILES IDX 58 65 72 67 93 68 60 69 44 70 45 71 53 72 46 73 52 74 54 75
REMARK SMILES IDX 51 76 47 77 48 78 49 79 50 80 76 81 77 82 85 83 78 84 84 85
REMARK SMILES IDX 86 86 83 87 79 88 80 89 81 90 82 91 61 92 62 93 70 94 63 95
REMARK SMILES IDX 69 96 71 97 68 98 64 99 65 100 66 101 67 102
REMARK H PARENT 9 17 91 55 59 66
REMARK Flexibility Score: inf
ROOT
ATOM      1  C   UNL A   1      39.288  21.548  26.121  1.00  0.00     0.188 C 
ENDROOT
BRANCH   1   2
ATOM      2  C   UNL A   1      38.011  21.833  25.344  1.00  0.00     0.188 C 
BRANCH   2   3
ATOM      3  O   UNL A   1      37.502  23.160  25.399  1.00  0.00    -0.376 OA
BRANCH   3   4
ATOM      4  C   UNL A   1      36.718  23.561  24.270  1.00  0.00     0.202 C 
BRANCH   4   5
ATOM      5  C   UNL A   1      35.661  22.556  23.770  1.00  0.00     0.261 C 
BRANCH   5   6
ATOM      6  O   UNL A   1      34.786  23.088  22.748  1.00  0.00    -0.459 OA
BRANCH   6   7
ATOM      7  C   UNL A   1      33.492  23.354  23.081  1.00  0.00     0.357 C 
ATOM      8  O   UNL A   1      32.824  24.215  22.552  1.00  0.00    -0.244 OA
BRANCH   7   9
ATOM      9  C   UNL A   1      32.991  22.309  23.965  1.00  0.00     0.159 A 
ATOM     10  C   UNL A   1      32.873  22.387  25.357  1.00  0.00     0.092 A 
ATOM     11  C   UNL A   1      32.277  21.176  25.747  1.00  0.00     0.150 A 
ATOM     12  N   UNL A   1      31.979  20.401  24.712  1.00  0.00    -0.180 NA
ATOM     13  N   UNL A   1      32.406  21.097  23.636  1.00  0.00    -0.261 N 
ATOM     14  C   UNL A   1      32.153  20.475  22.352  1.00  0.00     0.174 C 
BRANCH  10  15
ATOM     15  C   UNL A   1      33.315  23.424  26.261  1.00  0.00     0.255 C 
ATOM     16  N   UNL A   1      32.479  24.477  26.538  1.00  0.00    -0.345 N 
ATOM     17  H   UNL A   1      32.680  24.954  27.376  1.00  0.00     0.164 HD
ATOM     18  O   UNL A   1      34.374  23.327  26.876  1.00  0.00    -0.269 OA
BRANCH  16  19
ATOM     19  C   UNL A   1      31.336  25.007  25.790  1.00  0.00     0.109 C 
ATOM     20  C   UNL A   1      30.043  24.462  26.409  1.00  0.00     0.036 C 
BRANCH  19  21
ATOM     21  C   UNL A   1      31.401  26.537  25.762  1.00  0.00    -0.026 A 
ATOM     22  C   UNL A   1      31.516  29.376  25.634  1.00  0.00     0.118 A 
ATOM     23  C   UNL A   1      31.789  28.702  26.824  1.00  0.00     0.047 A 
ATOM     24  C   UNL A   1      31.148  28.637  24.517  1.00  0.00     0.047 A 
ATOM     25  C   UNL A   1      31.720  27.303  26.893  1.00  0.00     0.009 A 
ATOM     26  C   UNL A   1      31.092  27.241  24.584  1.00  0.00     0.009 A 
BRANCH  22  27
ATOM     27  O   UNL A   1      31.644  30.736  25.688  1.00  0.00    -0.497 OA
ATOM     28  C   UNL A   1      32.214  31.274  26.876  1.00  0.00     0.278 C 
ENDBRANCH  22  27
ENDBRANCH  19  21
ENDBRANCH  16  19
ENDBRANCH  10  15
ENDBRANCH   7   9
ENDBRANCH   6   7
ENDBRANCH   5   6
ENDBRANCH   4   5
ENDBRANCH   3   4
ENDBRANCH   2   3
ENDBRANCH   1   2
BRANCH   1  29
ATOM     29  O   UNL A   1      39.750  20.211  26.050  1.00  0.00    -0.377 OA
BRANCH  29  30
ATOM     30  C   UNL A   1      41.066  20.001  26.549  1.00  0.00     0.188 C 
BRANCH  30  31
ATOM     31  C   UNL A   1      41.638  21.052  27.527  1.00  0.00     0.188 C 
BRANCH  31  32
ATOM     32  O   UNL A   1      42.826  21.720  27.103  1.00  0.00    -0.376 OA
BRANCH  32  33
ATOM     33  C   UNL A   1      42.673  23.101  26.778  1.00  0.00     0.202 C 
BRANCH  33  34
ATOM     34  C   UNL A   1      42.934  23.447  25.305  1.00  0.00     0.261 C 
BRANCH  34  35
ATOM     35  O   UNL A   1      43.019  24.849  25.025  1.00  0.00    -0.460 OA
BRANCH  35  36
ATOM     36  C   UNL A   1      44.208  25.452  25.245  1.00  0.00     0.338 C 
ATOM     37  O   UNL A   1      45.252  25.245  24.654  1.00  0.00    -0.246 OA
BRANCH  36  38
ATOM     38  C   UNL A   1      43.957  26.585  26.161  1.00  0.00     0.060 A 
ATOM     39  C   UNL A   1      43.386  27.751  25.630  1.00  0.00     0.016 A 
ATOM     40  C   UNL A   1      44.168  26.460  27.538  1.00  0.00     0.016 A 
ATOM     41  C   UNL A   1      43.037  28.801  26.479  1.00  0.00     0.010 A 
ATOM     42  C   UNL A   1      43.849  27.523  28.383  1.00  0.00     0.010 A 
ATOM     43  C   UNL A   1      43.309  28.707  27.852  1.00  0.00    -0.014 A 
BRANCH  43  44
ATOM     44  C   UNL A   1      43.309  29.940  28.672  1.00  0.00     0.031 A 
ATOM     45  C   UNL A   1      44.594  30.721  28.719  1.00  0.00     0.074 A 
ATOM     46  C   UNL A   1      42.220  30.355  29.340  1.00  0.00     0.049 A 
ATOM     47  N   UNL A   1      44.875  31.826  29.353  1.00  0.00    -0.248 NA
ATOM     48  C   UNL A   1      45.714  30.168  27.938  1.00  0.00     0.031 C 
ATOM     49  C   UNL A   1      40.918  29.690  29.342  1.00  0.00     0.029 A 
ATOM     50  N   UNL A   1      42.042  31.443  30.157  1.00  0.00    -0.354 N 
ATOM     51  C   UNL A   1      46.199  32.112  29.035  1.00  0.00     0.074 A 
ATOM     52  C   UNL A   1      46.675  31.040  28.189  1.00  0.00     0.031 C 
ATOM     53  C   UNL A   1      40.078  30.379  30.136  1.00  0.00     0.029 A 
ATOM     54  C   UNL A   1      40.789  31.518  30.717  1.00  0.00     0.049 A 
ATOM     55  H   UNL A   1      42.747  32.109  30.327  1.00  0.00     0.167 HD
ATOM     56  C   UNL A   1      46.948  33.175  29.407  1.00  0.00     0.034 A 
ATOM     57  C   UNL A   1      40.288  32.398  31.609  1.00  0.00     0.034 A 
ATOM     58  C   UNL A   1      46.476  34.203  30.297  1.00  0.00     0.049 A 
ATOM     59  C   UNL A   1      41.174  33.524  32.093  1.00  0.00     0.074 A 
ATOM     60  C   UNL A   1      47.148  35.316  30.765  1.00  0.00     0.029 A 
ATOM     61  N   UNL A   1      45.213  34.223  30.876  1.00  0.00    -0.354 N 
ATOM     62  N   UNL A   1      42.416  33.801  31.764  1.00  0.00    -0.248 NA
ATOM     63  C   UNL A   1      40.588  34.461  33.062  1.00  0.00     0.031 C 
ATOM     64  C   UNL A   1      46.314  35.975  31.677  1.00  0.00     0.029 A 
ATOM     65  C   UNL A   1      45.096  35.314  31.720  1.00  0.00     0.049 A 
ATOM     66  H   UNL A   1      44.505  33.560  30.709  1.00  0.00     0.167 HD
ATOM     67  C   UNL A   1      42.747  34.960  32.461  1.00  0.00     0.074 A 
ATOM     68  C   UNL A   1      41.571  35.335  33.220  1.00  0.00     0.031 C 
ATOM     69  C   UNL A   1      43.912  35.659  32.473  1.00  0.00     0.034 A 
BRANCH  56  70
ATOM     70  C   UNL A   1      48.365  33.220  28.893  1.00  0.00     0.023 A 
ATOM     71  C   UNL A   1      48.686  33.851  27.676  1.00  0.00     0.031 A 
ATOM     72  C   UNL A   1      49.393  32.558  29.584  1.00  0.00     0.131 A 
ATOM     73  C   UNL A   1      49.981  33.738  27.151  1.00  0.00     0.055 A 
ATOM     74  C   UNL A   1      50.699  32.517  29.093  1.00  0.00     0.041 A 
ATOM     75  F   UNL A   1      49.138  31.912  30.734  1.00  0.00    -0.206 F 
ATOM     76  C   UNL A   1      50.996  33.095  27.862  1.00  0.00     0.022 A 
BRANCH  73  77
ATOM     77  S   UNL A   1      50.282  34.309  25.455  1.00  0.00     0.124 S 
ATOM     78  O   UNL A   1      48.925  34.600  24.997  1.00  0.00    -0.237 OA
ATOM     79  O   UNL A   1      51.149  35.463  25.659  1.00  0.00    -0.237 OA
ATOM     80  O   UNL A   1      50.915  33.158  24.813  1.00  0.00    -0.744 OA
ENDBRANCH  73  77
ENDBRANCH  56  70
BRANCH  57  81
ATOM     81  C   UNL A   1      38.902  32.242  32.141  1.00  0.00     0.023 A 
ATOM     82  C   UNL A   1      37.804  32.853  31.513  1.00  0.00     0.031 A 
ATOM     83  C   UNL A   1      38.665  31.528  33.329  1.00  0.00     0.131 A 
ATOM     84  C   UNL A   1      36.530  32.774  32.098  1.00  0.00     0.055 A 
ATOM     85  C   UNL A   1      37.389  31.414  33.883  1.00  0.00     0.041 A 
ATOM     86  F   UNL A   1      39.679  30.924  33.973  1.00  0.00    -0.206 F 
ATOM     87  C   UNL A   1      36.312  32.051  33.273  1.00  0.00     0.022 A 
BRANCH  84  88
ATOM     88  S   UNL A   1      35.164  33.701  31.342  1.00  0.00     0.124 S 
ATOM     89  O   UNL A   1      35.597  33.789  29.953  1.00  0.00    -0.237 OA
ATOM     90  O   UNL A   1      34.025  32.828  31.606  1.00  0.00    -0.237 OA
ATOM     91  O   UNL A   1      35.160  34.963  32.078  1.00  0.00    -0.744 OA
ENDBRANCH  84  88
ENDBRANCH  57  81
BRANCH  69  92
ATOM     92  C   UNL A   1      43.948  36.922  33.296  1.00  0.00     0.023 A 
ATOM     93  C   UNL A   1      43.497  38.152  32.786  1.00  0.00     0.031 A 
ATOM     94  C   UNL A   1      44.436  36.888  34.615  1.00  0.00     0.131 A 
ATOM     95  C   UNL A   1      43.590  39.309  33.574  1.00  0.00     0.055 A 
ATOM     96  C   UNL A   1      44.473  38.032  35.413  1.00  0.00     0.041 A 
ATOM     97  F   UNL A   1      44.877  35.739  35.151  1.00  0.00    -0.206 F 
ATOM     98  C   UNL A   1      44.060  39.253  34.890  1.00  0.00     0.022 A 
BRANCH  95  99
ATOM     99  S   UNL A   1      43.163  40.906  32.829  1.00  0.00     0.124 S 
ATOM    100  O   UNL A   1      42.877  40.531  31.448  1.00  0.00    -0.237 OA
ATOM    101  O   UNL A   1      42.015  41.326  33.626  1.00  0.00    -0.237 OA
ATOM    102  O   UNL A   1      44.373  41.706  33.016  1.00  0.00    -0.744 OA
ENDBRANCH  95  99
ENDBRANCH  69  92
ENDBRANCH  43  44
ENDBRANCH  36  38
ENDBRANCH  35  36
ENDBRANCH  34  35
ENDBRANCH  33  34
ENDBRANCH  32  33
ENDBRANCH  31  32
ENDBRANCH  30  31
ENDBRANCH  29  30
ENDBRANCH   1  29
TORSDOF 27
ENDMDL
MODEL 2
REMARK VINA RESULT:      -8.9      4.697      9.725
REMARK SMILES COc1ccc([C@H](C)NC(=O)c2cnn(C)c2C(=O)OCCOCCOCCOCCOC(=O)c2ccc(-c3c4nc(c(-c5cc(S(=O)(=O)[O-])ccc5F)c5ccc([nH]5)c(-c5cc(S(=O)(=O)[O-])ccc5F)c5nc(c(-c6cc(S(=O)(=O)[O-])ccc6F)c6ccc3[nH]6)C=C5)C=C4)cc2)cc1
REMARK SMILES IDX 25 1 24 2 23 3 22 4 21 5 20 6 18 7 19 8 17 9 12 10 13 11
REMARK SMILES IDX 14 12 15 13 16 14 10 15 9 16 11 18 7 19 8 20 6 21 3 22 4 23
REMARK SMILES IDX 99 24 5 25 98 26 2 27 1 28 26 29 27 30 28 31 29 32 30 33
REMARK SMILES IDX 31 34 32 35 33 36 34 37 35 38 36 39 97 40 37 41 96 42 38 43
REMARK SMILES IDX 39 44 40 45 90 46 41 47 95 48 89 49 91 50 42 51 94 52 88 53
REMARK SMILES IDX 87 54 43 56 75 57 55 58 74 59 56 60 59 61 73 62 92 63 57 64
REMARK SMILES IDX 58 65 72 67 93 68 60 69 44 70 45 71 53 72 46 73 52 74 54 75
REMARK SMILES IDX 51 76 47 77 48 78 49 79 50 80 76 81 77 82 85 83 78 84 84 85
REMARK SMILES IDX 86 86 83 87 79 88 80 89 81 90 82 91 61 92 62 93 70 94 63 95
REMARK SMILES IDX 69 96 71 97 68 98 64 99 65 100 66 101 67 102
REMARK H PARENT 9 17 91 55 59 66
REMARK Flexibility Score: inf
ROOT
ATOM      1  C   UNL A   1      40.577  21.765  27.577  1.00  0.00     0.188 C 
ENDROOT
BRANCH   1   2
ATOM      2  C   UNL A   1      39.537  22.121  26.525  1.00  0.00     0.188 C 
BRANCH   2   3
ATOM      3  O   UNL A   1      38.930  23.403  26.622  1.00  0.00    -0.376 OA
BRANCH   3   4
ATOM      4  C   UNL A   1      37.972  23.706  25.601  1.00  0.00     0.202 C 
BRANCH   4   5
ATOM      5  C   UNL A   1      36.534  23.200  25.831  1.00  0.00     0.261 C 
BRANCH   5   6
ATOM      6  O   UNL A   1      36.111  22.191  24.883  1.00  0.00    -0.459 OA
BRANCH   6   7
ATOM      7  C   UNL A   1      35.527  22.601  23.722  1.00  0.00     0.357 C 
ATOM      8  O   UNL A   1      36.146  22.999  22.760  1.00  0.00    -0.244 OA
BRANCH   7   9
ATOM      9  C   UNL A   1      34.110  22.260  23.742  1.00  0.00     0.159 A 
ATOM     10  C   UNL A   1      33.100  22.869  22.988  1.00  0.00     0.092 A 
ATOM     11  C   UNL A   1      31.930  22.153  23.290  1.00  0.00     0.150 A 
ATOM     12  N   UNL A   1      32.154  21.138  24.115  1.00  0.00    -0.180 NA
ATOM     13  N   UNL A   1      33.477  21.204  24.377  1.00  0.00    -0.261 N 
ATOM     14  C   UNL A   1      33.994  20.159  25.237  1.00  0.00     0.174 C 
BRANCH  10  15
ATOM     15  C   UNL A   1      33.166  24.028  22.127  1.00  0.00     0.255 C 
ATOM     16  N   UNL A   1      33.093  25.282  22.680  1.00  0.00    -0.345 N 
ATOM     17  H   UNL A   1      33.463  26.002  22.119  1.00  0.00     0.164 HD
ATOM     18  O   UNL A   1      33.399  23.919  20.926  1.00  0.00    -0.269 OA
BRANCH  16  19
ATOM     19  C   UNL A   1      32.554  25.725  23.968  1.00  0.00     0.109 C 
ATOM     20  C   UNL A   1      33.721  26.037  24.913  1.00  0.00     0.036 C 
BRANCH  19  21
ATOM     21  C   UNL A   1      31.609  26.911  23.753  1.00  0.00    -0.026 A 
ATOM     22  C   UNL A   1      29.798  29.066  23.341  1.00  0.00     0.118 A 
ATOM     23  C   UNL A   1      31.171  29.293  23.433  1.00  0.00     0.047 A 
ATOM     24  C   UNL A   1      29.324  27.769  23.493  1.00  0.00     0.047 A 
ATOM     25  C   UNL A   1      32.065  28.234  23.649  1.00  0.00     0.009 A 
ATOM     26  C   UNL A   1      30.218  26.712  23.697  1.00  0.00     0.009 A 
BRANCH  22  27
ATOM     27  O   UNL A   1      29.035  30.174  23.101  1.00  0.00    -0.497 OA
ATOM     28  C   UNL A   1      27.669  29.947  22.774  1.00  0.00     0.278 C 
ENDBRANCH  22  27
ENDBRANCH  19  21
ENDBRANCH  16  19
ENDBRANCH  10  15
ENDBRANCH   7   9
ENDBRANCH   6   7
ENDBRANCH   5   6
ENDBRANCH   4   5
ENDBRANCH   3   4
ENDBRANCH   2   3
ENDBRANCH   1   2
BRANCH   1  29
ATOM     29  O   UNL A   1      41.003  20.414  27.569  1.00  0.00    -0.377 OA
BRANCH  29  30
ATOM     30  C   UNL A   1      41.174  19.845  26.277  1.00  0.00     0.188 C 
BRANCH  30  31
ATOM     31  C   UNL A   1      42.607  19.462  25.845  1.00  0.00     0.188 C 
BRANCH  31  32
ATOM     32  O   UNL A   1      43.288  20.410  25.024  1.00  0.00    -0.376 OA
BRANCH  32  33
ATOM     33  C   UNL A   1      44.711  20.410  25.134  1.00  0.00     0.202 C 
BRANCH  33  34
ATOM     34  C   UNL A   1      45.338  21.794  25.353  1.00  0.00     0.261 C 
BRANCH  34  35
ATOM     35  O   UNL A   1      44.398  22.873  25.425  1.00  0.00    -0.460 OA
BRANCH  35  36
ATOM     36  C   UNL A   1      44.219  23.458  26.629  1.00  0.00     0.338 C 
ATOM     37  O   UNL A   1      43.727  22.952  27.622  1.00  0.00    -0.246 OA
BRANCH  36  38
ATOM     38  C   UNL A   1      44.956  24.740  26.603  1.00  0.00     0.060 A 
ATOM     39  C   UNL A   1      45.028  25.436  25.388  1.00  0.00     0.016 A 
ATOM     40  C   UNL A   1      45.462  25.305  27.778  1.00  0.00     0.016 A 
ATOM     41  C   UNL A   1      45.622  26.697  25.346  1.00  0.00     0.010 A 
ATOM     42  C   UNL A   1      46.085  26.552  27.730  1.00  0.00     0.010 A 
ATOM     43  C   UNL A   1      46.191  27.239  26.508  1.00  0.00    -0.014 A 
BRANCH  43  44
ATOM     44  C   UNL A   1      47.146  28.363  26.385  1.00  0.00     0.031 A 
ATOM     45  C   UNL A   1      46.571  29.751  26.456  1.00  0.00     0.074 A 
ATOM     46  C   UNL A   1      48.467  28.166  26.225  1.00  0.00     0.049 A 
ATOM     47  N   UNL A   1      47.171  30.907  26.376  1.00  0.00    -0.248 NA
ATOM     48  C   UNL A   1      45.113  29.836  26.642  1.00  0.00     0.031 C 
ATOM     49  C   UNL A   1      49.132  26.866  26.170  1.00  0.00     0.029 A 
ATOM     50  N   UNL A   1      49.485  29.072  26.072  1.00  0.00    -0.354 N 
ATOM     51  C   UNL A   1      46.165  31.858  26.519  1.00  0.00     0.074 A 
ATOM     52  C   UNL A   1      44.916  31.143  26.646  1.00  0.00     0.031 C 
ATOM     53  C   UNL A   1      50.451  27.060  25.981  1.00  0.00     0.029 A 
ATOM     54  C   UNL A   1      50.717  28.494  25.876  1.00  0.00     0.049 A 
ATOM     55  H   UNL A   1      49.347  30.047  26.098  1.00  0.00     0.167 HD
ATOM     56  C   UNL A   1      46.274  33.207  26.551  1.00  0.00     0.034 A 
ATOM     57  C   UNL A   1      51.914  29.065  25.625  1.00  0.00     0.034 A 
ATOM     58  C   UNL A   1      47.519  33.904  26.365  1.00  0.00     0.049 A 
ATOM     59  C   UNL A   1      51.999  30.574  25.563  1.00  0.00     0.074 A 
ATOM     60  C   UNL A   1      47.754  35.266  26.354  1.00  0.00     0.029 A 
ATOM     61  N   UNL A   1      48.742  33.285  26.130  1.00  0.00    -0.354 N 
ATOM     62  N   UNL A   1      51.047  31.465  25.728  1.00  0.00    -0.248 NA
ATOM     63  C   UNL A   1      53.321  31.154  25.289  1.00  0.00     0.031 C 
ATOM     64  C   UNL A   1      49.105  35.472  26.048  1.00  0.00     0.029 A 
ATOM     65  C   UNL A   1      49.728  34.237  25.942  1.00  0.00     0.049 A 
ATOM     66  H   UNL A   1      48.885  32.311  26.103  1.00  0.00     0.167 HD
ATOM     67  C   UNL A   1      51.662  32.709  25.608  1.00  0.00     0.074 A 
ATOM     68  C   UNL A   1      53.068  32.452  25.368  1.00  0.00     0.031 C 
ATOM     69  C   UNL A   1      51.122  33.952  25.695  1.00  0.00     0.034 A 
BRANCH  56  70
ATOM     70  C   UNL A   1      44.997  33.987  26.730  1.00  0.00     0.023 A 
ATOM     71  C   UNL A   1      44.459  34.234  28.008  1.00  0.00     0.031 A 
ATOM     72  C   UNL A   1      44.265  34.420  25.612  1.00  0.00     0.131 A 
ATOM     73  C   UNL A   1      43.193  34.822  28.131  1.00  0.00     0.055 A 
ATOM     74  C   UNL A   1      43.041  35.077  25.745  1.00  0.00     0.041 A 
ATOM     75  F   UNL A   1      44.715  34.184  24.369  1.00  0.00    -0.206 F 
ATOM     76  C   UNL A   1      42.490  35.267  27.009  1.00  0.00     0.022 A 
BRANCH  73  77
ATOM     77  S   UNL A   1      42.409  34.859  29.768  1.00  0.00     0.124 S 
ATOM     78  O   UNL A   1      41.004  35.051  29.418  1.00  0.00    -0.237 OA
ATOM     79  O   UNL A   1      42.760  33.555  30.315  1.00  0.00    -0.237 OA
ATOM     80  O   UNL A   1      43.042  36.002  30.424  1.00  0.00    -0.744 OA
ENDBRANCH  73  77
ENDBRANCH  56  70
BRANCH  57  81
ATOM     81  C   UNL A   1      53.123  28.227  25.371  1.00  0.00     0.023 A 
ATOM     82  C   UNL A   1      53.995  27.867  26.412  1.00  0.00     0.031 A 
ATOM     83  C   UNL A   1      53.457  27.826  24.065  1.00  0.00     0.131 A 
ATOM     84  C   UNL A   1      55.179  27.168  26.124  1.00  0.00     0.055 A 
ATOM     85  C   UNL A   1      54.613  27.092  23.790  1.00  0.00     0.041 A 
ATOM     86  F   UNL A   1      52.660  28.143  23.032  1.00  0.00    -0.206 F 
ATOM     87  C   UNL A   1      55.488  26.769  24.821  1.00  0.00     0.022 A 
BRANCH  84  88
ATOM     88  S   UNL A   1      56.355  26.852  27.469  1.00  0.00     0.124 S 
ATOM     89  O   UNL A   1      56.333  28.121  28.189  1.00  0.00    -0.237 OA
ATOM     90  O   UNL A   1      55.739  25.718  28.149  1.00  0.00    -0.237 OA
ATOM     91  O   UNL A   1      57.602  26.552  26.768  1.00  0.00    -0.744 OA
ENDBRANCH  84  88
ENDBRANCH  57  81
BRANCH  69  92
ATOM     92  C   UNL A   1      52.067  35.122  25.576  1.00  0.00     0.023 A 
ATOM     93  C   UNL A   1      52.711  35.672  26.698  1.00  0.00     0.031 A 
ATOM     94  C   UNL A   1      52.329  35.688  24.316  1.00  0.00     0.131 A 
ATOM     95  C   UNL A   1      53.547  36.787  26.545  1.00  0.00     0.055 A 
ATOM     96  C   UNL A   1      53.207  36.762  24.162  1.00  0.00     0.041 A 
ATOM     97  F   UNL A   1      51.742  35.200  23.212  1.00  0.00    -0.206 F 
ATOM     98  C   UNL A   1      53.812  37.325  25.282  1.00  0.00     0.022 A 
BRANCH  95  99
ATOM     99  S   UNL A   1      54.224  37.579  28.029  1.00  0.00     0.124 S 
ATOM    100  O   UNL A   1      54.092  36.521  29.025  1.00  0.00    -0.237 OA
ATOM    101  O   UNL A   1      55.587  37.901  27.617  1.00  0.00    -0.237 OA
ATOM    102  O   UNL A   1      53.350  38.733  28.231  1.00  0.00    -0.744 OA
ENDBRANCH  95  99
ENDBRANCH  69  92
ENDBRANCH  43  44
ENDBRANCH  36  38
ENDBRANCH  35  36
ENDBRANCH  34  35
ENDBRANCH  33  34
ENDBRANCH  32  33
ENDBRANCH  31  32
ENDBRANCH  30  31
ENDBRANCH  29  30
ENDBRANCH   1  29
TORSDOF 27
ENDMDL
MODEL 3
REMARK VINA RESULT:      -8.6      2.401      3.168
REMARK SMILES COc1ccc([C@H](C)NC(=O)c2cnn(C)c2C(=O)OCCOCCOCCOCCOC(=O)c2ccc(-c3c4nc(c(-c5cc(S(=O)(=O)[O-])ccc5F)c5ccc([nH]5)c(-c5cc(S(=O)(=O)[O-])ccc5F)c5nc(c(-c6cc(S(=O)(=O)[O-])ccc6F)c6ccc3[nH]6)C=C5)C=C4)cc2)cc1
REMARK SMILES IDX 25 1 24 2 23 3 22 4 21 5 20 6 18 7 19 8 17 9 12 10 13 11
REMARK SMILES IDX 14 12 15 13 16 14 10 15 9 16 11 18 7 19 8 20 6 21 3 22 4 23
REMARK SMILES IDX 99 24 5 25 98 26 2 27 1 28 26 29 27 30 28 31 29 32 30 33
REMARK SMILES IDX 31 34 32 35 33 36 34 37 35 38 36 39 97 40 37 41 96 42 38 43
REMARK SMILES IDX 39 44 40 45 90 46 41 47 95 48 89 49 91 50 42 51 94 52 88 53
REMARK SMILES IDX 87 54 43 56 75 57 55 58 74 59 56 60 59 61 73 62 92 63 57 64
REMARK SMILES IDX 58 65 72 67 93 68 60 69 44 70 45 71 53 72 46 73 52 74 54 75
REMARK SMILES IDX 51 76 47 77 48 78 49 79 50 80 76 81 77 82 85 83 78 84 84 85
REMARK SMILES IDX 86 86 83 87 79 88 80 89 81 90 82 91 61 92 62 93 70 94 63 95
REMARK SMILES IDX 69 96 71 97 68 98 64 99 65 100 66 101 67 102
REMARK H PARENT 9 17 91 55 59 66
REMARK Flexibility Score: inf
ROOT
ATOM      1  C   UNL A   1      39.102  23.177  26.612  1.00  0.00     0.188 C 
ENDROOT
BRANCH   1   2
ATOM      2  C   UNL A   1      37.795  23.653  25.994  1.00  0.00     0.188 C 
BRANCH   2   3
ATOM      3  O   UNL A   1      37.110  22.741  25.146  1.00  0.00    -0.376 OA
BRANCH   3   4
ATOM      4  C   UNL A   1      36.372  23.340  24.074  1.00  0.00     0.202 C 
BRANCH   4   5
ATOM      5  C   UNL A   1      35.095  22.605  23.619  1.00  0.00     0.261 C 
BRANCH   5   6
ATOM      6  O   UNL A   1      33.903  23.425  23.662  1.00  0.00    -0.459 OA
BRANCH   6   7
ATOM      7  C   UNL A   1      32.732  22.841  24.042  1.00  0.00     0.357 C 
ATOM      8  O   UNL A   1      32.363  21.755  23.653  1.00  0.00    -0.244 OA
BRANCH   7   9
ATOM      9  C   UNL A   1      32.144  23.599  25.140  1.00  0.00     0.159 A 
ATOM     10  C   UNL A   1      31.237  24.658  25.024  1.00  0.00     0.092 A 
ATOM     11  C   UNL A   1      30.905  25.008  26.343  1.00  0.00     0.150 A 
ATOM     12  N   UNL A   1      31.489  24.223  27.239  1.00  0.00    -0.180 NA
ATOM     13  N   UNL A   1      32.230  23.366  26.503  1.00  0.00    -0.261 N 
ATOM     14  C   UNL A   1      32.947  22.358  27.257  1.00  0.00     0.174 C 
BRANCH  10  15
ATOM     15  C   UNL A   1      30.762  25.337  23.840  1.00  0.00     0.255 C 
ATOM     16  N   UNL A   1      31.648  26.051  23.072  1.00  0.00    -0.345 N 
ATOM     17  H   UNL A   1      31.358  26.205  22.144  1.00  0.00     0.164 HD
ATOM     18  O   UNL A   1      29.608  25.197  23.443  1.00  0.00    -0.269 OA
BRANCH  16  19
ATOM     19  C   UNL A   1      32.954  26.623  23.409  1.00  0.00     0.109 C 
ATOM     20  C   UNL A   1      33.674  27.011  22.112  1.00  0.00     0.036 C 
BRANCH  19  21
ATOM     21  C   UNL A   1      32.773  27.793  24.380  1.00  0.00    -0.026 A 
ATOM     22  C   UNL A   1      32.398  30.004  26.130  1.00  0.00     0.118 A 
ATOM     23  C   UNL A   1      33.293  28.984  26.449  1.00  0.00     0.047 A 
ATOM     24  C   UNL A   1      31.661  29.903  24.957  1.00  0.00     0.047 A 
ATOM     25  C   UNL A   1      33.471  27.886  25.594  1.00  0.00     0.009 A 
ATOM     26  C   UNL A   1      31.847  28.814  24.100  1.00  0.00     0.009 A 
BRANCH  22  27
ATOM     27  O   UNL A   1      32.335  31.032  27.030  1.00  0.00    -0.497 OA
ATOM     28  C   UNL A   1      31.371  32.045  26.770  1.00  0.00     0.278 C 
ENDBRANCH  22  27
ENDBRANCH  19  21
ENDBRANCH  16  19
ENDBRANCH  10  15
ENDBRANCH   7   9
ENDBRANCH   6   7
ENDBRANCH   5   6
ENDBRANCH   4   5
ENDBRANCH   3   4
ENDBRANCH   2   3
ENDBRANCH   1   2
BRANCH   1  29
ATOM     29  O   UNL A   1      39.414  21.813  26.386  1.00  0.00    -0.377 OA
BRANCH  29  30
ATOM     30  C   UNL A   1      40.788  21.543  26.138  1.00  0.00     0.188 C 
BRANCH  30  31
ATOM     31  C   UNL A   1      41.576  20.775  27.222  1.00  0.00     0.188 C 
BRANCH  31  32
ATOM     32  O   UNL A   1      42.577  21.520  27.915  1.00  0.00    -0.376 OA
BRANCH  32  33
ATOM     33  C   UNL A   1      42.177  22.813  28.368  1.00  0.00     0.202 C 
BRANCH  33  34
ATOM     34  C   UNL A   1      43.150  23.946  28.014  1.00  0.00     0.261 C 
BRANCH  34  35
ATOM     35  O   UNL A   1      42.854  25.205  28.632  1.00  0.00    -0.460 OA
BRANCH  35  36
ATOM     36  C   UNL A   1      42.432  26.203  27.826  1.00  0.00     0.338 C 
ATOM     37  O   UNL A   1      41.976  26.093  26.702  1.00  0.00    -0.246 OA
BRANCH  36  38
ATOM     38  C   UNL A   1      42.387  27.433  28.646  1.00  0.00     0.060 A 
ATOM     39  C   UNL A   1      41.784  28.574  28.096  1.00  0.00     0.016 A 
ATOM     40  C   UNL A   1      42.822  27.429  29.976  1.00  0.00     0.016 A 
ATOM     41  C   UNL A   1      41.627  29.719  28.876  1.00  0.00     0.010 A 
ATOM     42  C   UNL A   1      42.695  28.586  30.745  1.00  0.00     0.010 A 
ATOM     43  C   UNL A   1      42.123  29.742  30.188  1.00  0.00    -0.014 A 
BRANCH  43  44
ATOM     44  C   UNL A   1      42.314  31.046  30.863  1.00  0.00     0.031 A 
ATOM     45  C   UNL A   1      43.582  31.791  30.551  1.00  0.00     0.074 A 
ATOM     46  C   UNL A   1      41.401  31.554  31.710  1.00  0.00     0.049 A 
ATOM     47  N   UNL A   1      44.005  32.943  30.996  1.00  0.00    -0.248 NA
ATOM     48  C   UNL A   1      44.499  31.135  29.602  1.00  0.00     0.031 C 
ATOM     49  C   UNL A   1      40.127  30.930  32.062  1.00  0.00     0.029 A 
ATOM     50  N   UNL A   1      41.416  32.719  32.434  1.00  0.00    -0.354 N 
ATOM     51  C   UNL A   1      45.228  33.158  30.369  1.00  0.00     0.074 A 
ATOM     52  C   UNL A   1      45.498  31.999  29.549  1.00  0.00     0.031 C 
ATOM     53  C   UNL A   1      39.488  31.715  32.949  1.00  0.00     0.029 A 
ATOM     54  C   UNL A   1      40.318  32.882  33.245  1.00  0.00     0.049 A 
ATOM     55  H   UNL A   1      42.146  33.377  32.380  1.00  0.00     0.167 HD
ATOM     56  C   UNL A   1      46.049  34.230  30.462  1.00  0.00     0.034 A 
ATOM     57  C   UNL A   1      40.033  33.857  34.134  1.00  0.00     0.034 A 
ATOM     58  C   UNL A   1      45.792  35.350  31.328  1.00  0.00     0.049 A 
ATOM     59  C   UNL A   1      41.013  34.998  34.299  1.00  0.00     0.074 A 
ATOM     60  C   UNL A   1      46.559  36.483  31.526  1.00  0.00     0.029 A 
ATOM     61  N   UNL A   1      44.688  35.462  32.165  1.00  0.00    -0.354 N 
ATOM     62  N   UNL A   1      42.153  35.206  33.680  1.00  0.00    -0.248 NA
ATOM     63  C   UNL A   1      40.662  36.038  35.276  1.00  0.00     0.031 C 
ATOM     64  C   UNL A   1      45.952  37.249  32.529  1.00  0.00     0.029 A 
ATOM     65  C   UNL A   1      44.769  36.630  32.903  1.00  0.00     0.049 A 
ATOM     66  H   UNL A   1      43.956  34.807  32.223  1.00  0.00     0.167 HD
ATOM     67  C   UNL A   1      42.639  36.416  34.171  1.00  0.00     0.074 A 
ATOM     68  C   UNL A   1      41.662  36.894  35.129  1.00  0.00     0.031 C 
ATOM     69  C   UNL A   1      43.783  37.079  33.859  1.00  0.00     0.034 A 
BRANCH  56  70
ATOM     70  C   UNL A   1      47.317  34.185  29.649  1.00  0.00     0.023 A 
ATOM     71  C   UNL A   1      47.363  34.676  28.330  1.00  0.00     0.031 A 
ATOM     72  C   UNL A   1      48.472  33.574  30.165  1.00  0.00     0.131 A 
ATOM     73  C   UNL A   1      48.510  34.476  27.549  1.00  0.00     0.055 A 
ATOM     74  C   UNL A   1      49.638  33.450  29.408  1.00  0.00     0.041 A 
ATOM     75  F   UNL A   1      48.476  33.060  31.406  1.00  0.00    -0.206 F 
ATOM     76  C   UNL A   1      49.657  33.887  28.087  1.00  0.00     0.022 A 
BRANCH  73  77
ATOM     77  S   UNL A   1      48.431  34.858  25.777  1.00  0.00     0.124 S 
ATOM     78  O   UNL A   1      48.507  36.317  25.786  1.00  0.00    -0.237 OA
ATOM     79  O   UNL A   1      49.597  34.160  25.250  1.00  0.00    -0.237 OA
ATOM     80  O   UNL A   1      47.138  34.312  25.367  1.00  0.00    -0.744 OA
ENDBRANCH  73  77
ENDBRANCH  56  70
BRANCH  57  81
ATOM     81  C   UNL A   1      38.798  33.792  34.970  1.00  0.00     0.023 A 
ATOM     82  C   UNL A   1      38.809  33.205  36.246  1.00  0.00     0.031 A 
ATOM     83  C   UNL A   1      37.569  34.261  34.474  1.00  0.00     0.131 A 
ATOM     84  C   UNL A   1      37.610  33.064  36.963  1.00  0.00     0.055 A 
ATOM     85  C   UNL A   1      36.386  34.160  35.209  1.00  0.00     0.041 A 
ATOM     86  F   UNL A   1      37.499  34.830  33.259  1.00  0.00    -0.206 F 
ATOM     87  C   UNL A   1      36.400  33.547  36.458  1.00  0.00     0.022 A 
BRANCH  84  88
ATOM     88  S   UNL A   1      37.636  32.166  38.541  1.00  0.00     0.124 S 
ATOM     89  O   UNL A   1      39.014  32.367  38.975  1.00  0.00    -0.237 OA
ATOM     90  O   UNL A   1      36.613  32.871  39.305  1.00  0.00    -0.237 OA
ATOM     91  O   UNL A   1      37.293  30.798  38.160  1.00  0.00    -0.744 OA
ENDBRANCH  84  88
ENDBRANCH  57  81
BRANCH  69  92
ATOM     92  C   UNL A   1      44.009  38.412  34.526  1.00  0.00     0.023 A 
ATOM     93  C   UNL A   1      43.529  39.610  33.969  1.00  0.00     0.031 A 
ATOM     94  C   UNL A   1      44.710  38.480  35.743  1.00  0.00     0.131 A 
ATOM     95  C   UNL A   1      43.801  40.831  34.603  1.00  0.00     0.055 A 
ATOM     96  C   UNL A   1      44.928  39.692  36.398  1.00  0.00     0.041 A 
ATOM     97  F   UNL A   1      45.188  37.365  36.319  1.00  0.00    -0.206 F 
ATOM     98  C   UNL A   1      44.484  40.878  35.822  1.00  0.00     0.022 A 
BRANCH  95  99
ATOM     99  S   UNL A   1      43.321  42.370  33.772  1.00  0.00     0.124 S 
ATOM    100  O   UNL A   1      43.892  43.383  34.655  1.00  0.00    -0.237 OA
ATOM    101  O   UNL A   1      43.956  42.232  32.466  1.00  0.00    -0.237 OA
ATOM    102  O   UNL A   1      41.860  42.312  33.760  1.00  0.00    -0.744 OA
ENDBRANCH  95  99
ENDBRANCH  69  92
ENDBRANCH  43  44
ENDBRANCH  36  38
ENDBRANCH  35  36
ENDBRANCH  34  35
ENDBRANCH  33  34
ENDBRANCH  32  33
ENDBRANCH  31  32
ENDBRANCH  30  31
ENDBRANCH  29  30
ENDBRANCH   1  29
TORSDOF 27
ENDMDL
