MODEL 1
REMARK VINA RESULT:      -7.9      0.000      0.000
REMARK SMILES CC[N@@H+]([C@H]1C[C@H]2CC[C@@H](C1)[NH2+]2)[C@@H](C)[C@@H](C)C(=O)OCCOCCOCCOCCOC(=O)c1ccc(-c2c3nc(c(-c4cc(S(=O)(=O)[O-])ccc4F)c4ccc([nH]4)c(-c4cc(S(=O)(=O)[O-])ccc4F)c4nc(c(-c5cc(S(=O)(=O)[O-])ccc5F)c5ccc2[nH]5)C=C4)C=C3)cc1
REMARK SMILES IDX 24 1 23 2 22 3 21 4 20 5 19 6 18 7 16 8 17 9 14 10 15 11
REMARK SMILES IDX 12 12 13 13 3 14 2 16 1 17 4 18 5 19 10 20 6 21 9 22 7 23
REMARK SMILES IDX 11 24 8 25 25 28 26 29 27 30 28 31 29 32 30 33 31 34 32 35
REMARK SMILES IDX 33 36 34 37 95 38 35 39 94 40 36 41 37 42 38 43 88 44 39 45
REMARK SMILES IDX 93 46 87 47 89 48 40 49 92 50 86 51 85 52 41 54 73 55 53 56
REMARK SMILES IDX 72 57 54 58 57 59 71 60 90 61 55 62 56 63 70 65 91 66 58 67
REMARK SMILES IDX 42 68 43 69 51 70 44 71 50 72 52 73 49 74 45 75 46 76 47 77
REMARK SMILES IDX 48 78 74 79 75 80 83 81 76 82 82 83 84 84 81 85 77 86 78 87
REMARK SMILES IDX 79 88 80 89 59 90 60 91 68 92 61 93 67 94 69 95 66 96 62 97
REMARK SMILES IDX 63 98 64 99 65 100
REMARK H PARENT 3 15 11 26 11 27 89 53 57 64
REMARK Flexibility Score: inf
ROOT
ATOM      1  O   UNL A   1      33.464  34.290  30.597  1.00  0.00    -0.377 OA
ENDROOT
BRANCH   1   2
ATOM      2  C   UNL A   1      33.975  34.430  29.287  1.00  0.00     0.188 C 
BRANCH   2   3
ATOM      3  C   UNL A   1      34.840  33.240  28.875  1.00  0.00     0.188 C 
BRANCH   3   4
ATOM      4  O   UNL A   1      34.223  31.963  28.878  1.00  0.00    -0.376 OA
BRANCH   4   5
ATOM      5  C   UNL A   1      34.158  31.226  27.656  1.00  0.00     0.202 C 
BRANCH   5   6
ATOM      6  C   UNL A   1      34.391  29.698  27.644  1.00  0.00     0.261 C 
BRANCH   6   7
ATOM      7  O   UNL A   1      34.509  29.056  26.335  1.00  0.00    -0.463 OA
BRANCH   7   8
ATOM      8  C   UNL A   1      33.335  28.682  25.791  1.00  0.00     0.314 C 
ATOM      9  O   UNL A   1      32.284  28.678  26.444  1.00  0.00    -0.252 OA
BRANCH   8  10
ATOM     10  C   UNL A   1      33.251  28.267  24.318  1.00  0.00     0.154 C 
ATOM     11  C   UNL A   1      31.827  28.680  23.896  1.00  0.00     0.026 C 
BRANCH  10  12
ATOM     12  C   UNL A   1      33.637  26.967  23.540  1.00  0.00     0.195 C 
ATOM     13  C   UNL A   1      32.977  26.759  22.181  1.00  0.00     0.076 C 
BRANCH  12  14
ATOM     14  N   UNL A   1      33.398  25.718  24.392  1.00  0.00    -0.329 N 
ATOM     15  H   UNL A   1      33.602  24.928  23.780  1.00  0.00     0.348 HD
BRANCH  14  16
ATOM     16  C   UNL A   1      34.356  25.534  25.503  1.00  0.00     0.259 C 
ATOM     17  C   UNL A   1      35.349  24.370  25.464  1.00  0.00     0.071 C 
ENDBRANCH  14  16
BRANCH  14  18
ATOM     18  C   UNL A   1      31.951  25.581  24.802  1.00  0.00     0.196 C 
ATOM     19  C   UNL A   1      31.204  24.577  23.887  1.00  0.00     0.130 C 
ATOM     20  C   UNL A   1      31.607  25.329  26.307  1.00  0.00     0.130 C 
ATOM     21  C   UNL A   1      30.929  23.212  24.531  1.00  0.00     0.188 C 
ATOM     22  C   UNL A   1      31.233  23.883  26.702  1.00  0.00     0.188 C 
ATOM     23  C   UNL A   1      32.204  22.501  24.985  1.00  0.00     0.071 C 
ATOM     24  N   UNL A   1      30.187  23.411  25.789  1.00  0.00    -0.341 N 
ATOM     25  C   UNL A   1      32.265  22.783  26.484  1.00  0.00     0.071 C 
ATOM     26  H   UNL A   1      29.779  22.536  26.118  1.00  0.00     0.346 HD
ATOM     27  H   UNL A   1      29.401  24.055  25.701  1.00  0.00     0.346 HD
ENDBRANCH  14  18
ENDBRANCH  12  14
ENDBRANCH  10  12
ENDBRANCH   8  10
ENDBRANCH   7   8
ENDBRANCH   6   7
ENDBRANCH   5   6
ENDBRANCH   4   5
ENDBRANCH   3   4
ENDBRANCH   2   3
ENDBRANCH   1   2
BRANCH   1  28
ATOM     28  C   UNL A   1      33.581  35.322  31.569  1.00  0.00     0.188 C 
BRANCH  28  29
ATOM     29  C   UNL A   1      34.936  35.519  32.239  1.00  0.00     0.188 C 
BRANCH  29  30
ATOM     30  O   UNL A   1      35.128  34.879  33.502  1.00  0.00    -0.376 OA
BRANCH  30  31
ATOM     31  C   UNL A   1      34.935  33.470  33.587  1.00  0.00     0.202 C 
BRANCH  31  32
ATOM     32  C   UNL A   1      35.921  32.596  32.803  1.00  0.00     0.261 C 
BRANCH  32  33
ATOM     33  O   UNL A   1      37.296  32.834  33.144  1.00  0.00    -0.460 OA
BRANCH  33  34
ATOM     34  C   UNL A   1      37.745  32.158  34.232  1.00  0.00     0.338 C 
ATOM     35  O   UNL A   1      37.209  32.079  35.320  1.00  0.00    -0.246 OA
BRANCH  34  36
ATOM     36  C   UNL A   1      38.940  31.378  33.858  1.00  0.00     0.060 A 
ATOM     37  C   UNL A   1      38.869  29.980  33.897  1.00  0.00     0.016 A 
ATOM     38  C   UNL A   1      40.140  32.020  33.544  1.00  0.00     0.016 A 
ATOM     39  C   UNL A   1      40.004  29.216  33.632  1.00  0.00     0.010 A 
ATOM     40  C   UNL A   1      41.281  31.252  33.299  1.00  0.00     0.010 A 
ATOM     41  C   UNL A   1      41.222  29.848  33.361  1.00  0.00    -0.014 A 
BRANCH  41  42
ATOM     42  C   UNL A   1      42.466  29.049  33.260  1.00  0.00     0.031 A 
ATOM     43  C   UNL A   1      43.281  28.815  34.501  1.00  0.00     0.074 A 
ATOM     44  C   UNL A   1      42.855  28.545  32.075  1.00  0.00     0.049 A 
ATOM     45  N   UNL A   1      44.448  28.241  34.629  1.00  0.00    -0.248 NA
ATOM     46  C   UNL A   1      42.703  29.295  35.767  1.00  0.00     0.031 C 
ATOM     47  C   UNL A   1      42.108  28.666  30.823  1.00  0.00     0.029 A 
ATOM     48  N   UNL A   1      43.982  27.846  31.728  1.00  0.00    -0.354 N 
ATOM     49  C   UNL A   1      44.754  28.301  35.984  1.00  0.00     0.074 A 
ATOM     50  C   UNL A   1      43.657  28.987  36.634  1.00  0.00     0.031 C 
ATOM     51  C   UNL A   1      42.810  28.078  29.839  1.00  0.00     0.029 A 
ATOM     52  C   UNL A   1      44.076  27.588  30.379  1.00  0.00     0.049 A 
ATOM     53  H   UNL A   1      44.659  27.554  32.380  1.00  0.00     0.167 HD
ATOM     54  C   UNL A   1      45.851  27.827  36.622  1.00  0.00     0.034 A 
ATOM     55  C   UNL A   1      45.088  27.060  29.661  1.00  0.00     0.034 A 
ATOM     56  C   UNL A   1      46.936  27.153  35.950  1.00  0.00     0.049 A 
ATOM     57  C   UNL A   1      46.344  26.631  30.386  1.00  0.00     0.074 A 
ATOM     58  C   UNL A   1      48.081  26.607  36.502  1.00  0.00     0.029 A 
ATOM     59  N   UNL A   1      47.019  26.949  34.579  1.00  0.00    -0.354 N 
ATOM     60  N   UNL A   1      46.613  26.674  31.672  1.00  0.00    -0.248 NA
ATOM     61  C   UNL A   1      47.430  26.079  29.564  1.00  0.00     0.031 C 
ATOM     62  C   UNL A   1      48.895  26.154  35.459  1.00  0.00     0.029 A 
ATOM     63  C   UNL A   1      48.218  26.329  34.263  1.00  0.00     0.049 A 
ATOM     64  H   UNL A   1      46.328  27.206  33.927  1.00  0.00     0.167 HD
ATOM     65  C   UNL A   1      47.887  26.127  31.811  1.00  0.00     0.074 A 
ATOM     66  C   UNL A   1      48.319  25.739  30.485  1.00  0.00     0.031 C 
ATOM     67  C   UNL A   1      48.636  25.959  32.932  1.00  0.00     0.034 A 
BRANCH  54  68
ATOM     68  C   UNL A   1      45.967  28.072  38.106  1.00  0.00     0.023 A 
ATOM     69  C   UNL A   1      46.596  29.215  38.627  1.00  0.00     0.031 A 
ATOM     70  C   UNL A   1      45.417  27.150  39.014  1.00  0.00     0.131 A 
ATOM     71  C   UNL A   1      46.697  29.385  40.016  1.00  0.00     0.055 A 
ATOM     72  C   UNL A   1      45.457  27.359  40.393  1.00  0.00     0.041 A 
ATOM     73  F   UNL A   1      44.827  26.027  38.573  1.00  0.00    -0.206 F 
ATOM     74  C   UNL A   1      46.108  28.478  40.902  1.00  0.00     0.022 A 
BRANCH  71  75
ATOM     75  S   UNL A   1      47.704  30.750  40.656  1.00  0.00     0.124 S 
ATOM     76  O   UNL A   1      48.065  30.254  41.982  1.00  0.00    -0.237 OA
ATOM     77  O   UNL A   1      48.789  30.826  39.685  1.00  0.00    -0.237 OA
ATOM     78  O   UNL A   1      46.784  31.886  40.654  1.00  0.00    -0.744 OA
ENDBRANCH  71  75
ENDBRANCH  54  68
BRANCH  55  79
ATOM     79  C   UNL A   1      45.003  26.964  28.173  1.00  0.00     0.023 A 
ATOM     80  C   UNL A   1      44.594  25.776  27.547  1.00  0.00     0.031 A 
ATOM     81  C   UNL A   1      45.420  28.027  27.353  1.00  0.00     0.131 A 
ATOM     82  C   UNL A   1      44.675  25.657  26.150  1.00  0.00     0.055 A 
ATOM     83  C   UNL A   1      45.431  27.929  25.960  1.00  0.00     0.041 A 
ATOM     84  F   UNL A   1      45.830  29.185  27.895  1.00  0.00    -0.206 F 
ATOM     85  C   UNL A   1      45.075  26.729  25.352  1.00  0.00     0.022 A 
BRANCH  82  86
ATOM     86  S   UNL A   1      44.379  24.030  25.404  1.00  0.00     0.124 S 
ATOM     87  O   UNL A   1      45.315  24.043  24.286  1.00  0.00    -0.237 OA
ATOM     88  O   UNL A   1      44.704  23.129  26.504  1.00  0.00    -0.237 OA
ATOM     89  O   UNL A   1      42.965  24.078  25.036  1.00  0.00    -0.744 OA
ENDBRANCH  82  86
ENDBRANCH  55  79
BRANCH  67  90
ATOM     90  C   UNL A   1      49.981  25.293  32.767  1.00  0.00     0.023 A 
ATOM     91  C   UNL A   1      50.139  23.902  32.899  1.00  0.00     0.031 A 
ATOM     92  C   UNL A   1      51.124  26.062  32.480  1.00  0.00     0.131 A 
ATOM     93  C   UNL A   1      51.416  23.332  32.807  1.00  0.00     0.055 A 
ATOM     94  C   UNL A   1      52.381  25.480  32.318  1.00  0.00     0.041 A 
ATOM     95  F   UNL A   1      51.034  27.395  32.345  1.00  0.00    -0.206 F 
ATOM     96  C   UNL A   1      52.535  24.108  32.496  1.00  0.00     0.022 A 
BRANCH  93  97
ATOM     97  S   UNL A   1      51.613  21.572  33.200  1.00  0.00     0.124 S 
ATOM     98  O   UNL A   1      52.421  21.101  32.080  1.00  0.00    -0.237 OA
ATOM     99  O   UNL A   1      52.284  21.614  34.496  1.00  0.00    -0.237 OA
ATOM    100  O   UNL A   1      50.240  21.071  33.229  1.00  0.00    -0.744 OA
ENDBRANCH  93  97
ENDBRANCH  67  90
ENDBRANCH  41  42
ENDBRANCH  34  36
ENDBRANCH  33  34
ENDBRANCH  32  33
ENDBRANCH  31  32
ENDBRANCH  30  31
ENDBRANCH  29  30
ENDBRANCH  28  29
ENDBRANCH   1  28
TORSDOF 27
ENDMDL
MODEL 2
REMARK VINA RESULT:      -7.9     11.063     13.892
REMARK SMILES CC[N@@H+]([C@H]1C[C@H]2CC[C@@H](C1)[NH2+]2)[C@@H](C)[C@@H](C)C(=O)OCCOCCOCCOCCOC(=O)c1ccc(-c2c3nc(c(-c4cc(S(=O)(=O)[O-])ccc4F)c4ccc([nH]4)c(-c4cc(S(=O)(=O)[O-])ccc4F)c4nc(c(-c5cc(S(=O)(=O)[O-])ccc5F)c5ccc2[nH]5)C=C4)C=C3)cc1
REMARK SMILES IDX 24 1 23 2 22 3 21 4 20 5 19 6 18 7 16 8 17 9 14 10 15 11
REMARK SMILES IDX 12 12 13 13 3 14 2 16 1 17 4 18 5 19 10 20 6 21 9 22 7 23
REMARK SMILES IDX 11 24 8 25 25 28 26 29 27 30 28 31 29 32 30 33 31 34 32 35
REMARK SMILES IDX 33 36 34 37 95 38 35 39 94 40 36 41 37 42 38 43 88 44 39 45
REMARK SMILES IDX 93 46 87 47 89 48 40 49 92 50 86 51 85 52 41 54 73 55 53 56
REMARK SMILES IDX 72 57 54 58 57 59 71 60 90 61 55 62 56 63 70 65 91 66 58 67
REMARK SMILES IDX 42 68 43 69 51 70 44 71 50 72 52 73 49 74 45 75 46 76 47 77
REMARK SMILES IDX 48 78 74 79 75 80 83 81 76 82 82 83 84 84 81 85 77 86 78 87
REMARK SMILES IDX 79 88 80 89 59 90 60 91 68 92 61 93 67 94 69 95 66 96 62 97
REMARK SMILES IDX 63 98 64 99 65 100
REMARK H PARENT 3 15 11 26 11 27 89 53 57 64
REMARK Flexibility Score: inf
ROOT
ATOM      1  O   UNL A   1      42.402  41.772  22.084  1.00  0.00    -0.377 OA
ENDROOT
BRANCH   1   2
ATOM      2  C   UNL A   1      42.709  42.283  20.802  1.00  0.00     0.188 C 
BRANCH   2   3
ATOM      3  C   UNL A   1      44.037  43.037  20.785  1.00  0.00     0.188 C 
BRANCH   3   4
ATOM      4  O   UNL A   1      44.021  44.361  20.275  1.00  0.00    -0.376 OA
BRANCH   4   5
ATOM      5  C   UNL A   1      43.392  44.608  19.017  1.00  0.00     0.202 C 
BRANCH   5   6
ATOM      6  C   UNL A   1      44.238  44.926  17.762  1.00  0.00     0.261 C 
BRANCH   6   7
ATOM      7  O   UNL A   1      43.690  45.908  16.827  1.00  0.00    -0.463 OA
BRANCH   7   8
ATOM      8  C   UNL A   1      42.645  46.611  17.306  1.00  0.00     0.314 C 
ATOM      9  O   UNL A   1      41.532  46.095  17.469  1.00  0.00    -0.252 OA
BRANCH   8  10
ATOM     10  C   UNL A   1      42.804  48.084  17.697  1.00  0.00     0.154 C 
ATOM     11  C   UNL A   1      42.864  48.823  16.345  1.00  0.00     0.026 C 
BRANCH  10  12
ATOM     12  C   UNL A   1      43.727  48.838  18.711  1.00  0.00     0.195 C 
ATOM     13  C   UNL A   1      43.765  50.358  18.604  1.00  0.00     0.076 C 
BRANCH  12  14
ATOM     14  N   UNL A   1      45.162  48.310  18.653  1.00  0.00    -0.329 N 
ATOM     15  H   UNL A   1      45.076  47.304  18.501  1.00  0.00     0.348 HD
BRANCH  14  16
ATOM     16  C   UNL A   1      45.940  48.757  17.478  1.00  0.00     0.259 C 
ATOM     17  C   UNL A   1      46.453  47.726  16.469  1.00  0.00     0.071 C 
ENDBRANCH  14  16
BRANCH  14  18
ATOM     18  C   UNL A   1      45.884  48.485  19.968  1.00  0.00     0.196 C 
ATOM     19  C   UNL A   1      45.648  47.270  20.900  1.00  0.00     0.130 C 
ATOM     20  C   UNL A   1      47.392  48.899  19.958  1.00  0.00     0.130 C 
ATOM     21  C   UNL A   1      46.844  46.317  21.017  1.00  0.00     0.188 C 
ATOM     22  C   UNL A   1      48.422  47.780  20.228  1.00  0.00     0.188 C 
ATOM     23  C   UNL A   1      47.276  45.737  19.670  1.00  0.00     0.071 C 
ATOM     24  N   UNL A   1      48.029  47.077  21.453  1.00  0.00    -0.341 N 
ATOM     25  C   UNL A   1      48.472  46.596  19.270  1.00  0.00     0.071 C 
ATOM     26  H   UNL A   1      48.770  46.453  21.773  1.00  0.00     0.346 HD
ATOM     27  H   UNL A   1      47.847  47.700  22.240  1.00  0.00     0.346 HD
ENDBRANCH  14  18
ENDBRANCH  12  14
ENDBRANCH  10  12
ENDBRANCH   8  10
ENDBRANCH   7   8
ENDBRANCH   6   7
ENDBRANCH   5   6
ENDBRANCH   4   5
ENDBRANCH   3   4
ENDBRANCH   2   3
ENDBRANCH   1   2
BRANCH   1  28
ATOM     28  C   UNL A   1      42.185  42.621  23.204  1.00  0.00     0.188 C 
BRANCH  28  29
ATOM     29  C   UNL A   1      43.162  42.528  24.369  1.00  0.00     0.188 C 
BRANCH  29  30
ATOM     30  O   UNL A   1      43.391  41.225  24.913  1.00  0.00    -0.376 OA
BRANCH  30  31
ATOM     31  C   UNL A   1      44.070  41.120  26.161  1.00  0.00     0.202 C 
BRANCH  31  32
ATOM     32  C   UNL A   1      44.603  39.732  26.536  1.00  0.00     0.261 C 
BRANCH  32  33
ATOM     33  O   UNL A   1      43.944  39.152  27.673  1.00  0.00    -0.460 OA
BRANCH  33  34
ATOM     34  C   UNL A   1      42.791  38.492  27.395  1.00  0.00     0.338 C 
ATOM     35  O   UNL A   1      41.874  38.876  26.696  1.00  0.00    -0.246 OA
BRANCH  34  36
ATOM     36  C   UNL A   1      42.868  37.128  27.955  1.00  0.00     0.060 A 
ATOM     37  C   UNL A   1      41.759  36.285  27.823  1.00  0.00     0.016 A 
ATOM     38  C   UNL A   1      43.996  36.713  28.667  1.00  0.00     0.016 A 
ATOM     39  C   UNL A   1      41.767  35.022  28.414  1.00  0.00     0.010 A 
ATOM     40  C   UNL A   1      43.994  35.456  29.275  1.00  0.00     0.010 A 
ATOM     41  C   UNL A   1      42.873  34.613  29.168  1.00  0.00    -0.014 A 
BRANCH  41  42
ATOM     42  C   UNL A   1      42.815  33.354  29.947  1.00  0.00     0.031 A 
ATOM     43  C   UNL A   1      42.244  33.386  31.337  1.00  0.00     0.074 A 
ATOM     44  C   UNL A   1      43.267  32.205  29.414  1.00  0.00     0.049 A 
ATOM     45  N   UNL A   1      42.191  32.436  32.232  1.00  0.00    -0.248 NA
ATOM     46  C   UNL A   1      41.657  34.663  31.776  1.00  0.00     0.031 C 
ATOM     47  C   UNL A   1      43.787  32.054  28.055  1.00  0.00     0.029 A 
ATOM     48  N   UNL A   1      43.378  30.951  29.957  1.00  0.00    -0.354 N 
ATOM     49  C   UNL A   1      41.579  32.999  33.346  1.00  0.00     0.074 A 
ATOM     50  C   UNL A   1      41.297  34.381  33.020  1.00  0.00     0.031 C 
ATOM     51  C   UNL A   1      44.181  30.782  27.879  1.00  0.00     0.029 A 
ATOM     52  C   UNL A   1      43.992  30.043  29.125  1.00  0.00     0.049 A 
ATOM     53  H   UNL A   1      43.048  30.720  30.856  1.00  0.00     0.167 HD
ATOM     54  C   UNL A   1      41.283  32.412  34.531  1.00  0.00     0.034 A 
ATOM     55  C   UNL A   1      44.396  28.778  29.362  1.00  0.00     0.034 A 
ATOM     56  C   UNL A   1      41.580  31.033  34.835  1.00  0.00     0.049 A 
ATOM     57  C   UNL A   1      44.142  28.180  30.727  1.00  0.00     0.074 A 
ATOM     58  C   UNL A   1      41.298  30.328  35.992  1.00  0.00     0.029 A 
ATOM     59  N   UNL A   1      42.242  30.156  33.987  1.00  0.00    -0.354 N 
ATOM     60  N   UNL A   1      43.543  28.716  31.767  1.00  0.00    -0.248 NA
ATOM     61  C   UNL A   1      44.615  26.806  30.949  1.00  0.00     0.031 C 
ATOM     62  C   UNL A   1      41.866  29.056  35.878  1.00  0.00     0.029 A 
ATOM     63  C   UNL A   1      42.420  28.933  34.614  1.00  0.00     0.049 A 
ATOM     64  H   UNL A   1      42.542  30.371  33.074  1.00  0.00     0.167 HD
ATOM     65  C   UNL A   1      43.544  27.731  32.754  1.00  0.00     0.074 A 
ATOM     66  C   UNL A   1      44.178  26.566  32.176  1.00  0.00     0.031 C 
ATOM     67  C   UNL A   1      43.065  27.783  34.023  1.00  0.00     0.034 A 
BRANCH  54  68
ATOM     68  C   UNL A   1      40.660  33.267  35.607  1.00  0.00     0.023 A 
ATOM     69  C   UNL A   1      41.435  34.054  36.475  1.00  0.00     0.031 A 
ATOM     70  C   UNL A   1      39.262  33.307  35.750  1.00  0.00     0.131 A 
ATOM     71  C   UNL A   1      40.808  34.814  37.475  1.00  0.00     0.055 A 
ATOM     72  C   UNL A   1      38.641  34.120  36.699  1.00  0.00     0.041 A 
ATOM     73  F   UNL A   1      38.473  32.555  34.965  1.00  0.00    -0.206 F 
ATOM     74  C   UNL A   1      39.415  34.874  37.574  1.00  0.00     0.022 A 
BRANCH  71  75
ATOM     75  S   UNL A   1      41.840  35.642  38.715  1.00  0.00     0.124 S 
ATOM     76  O   UNL A   1      42.383  36.761  37.948  1.00  0.00    -0.237 OA
ATOM     77  O   UNL A   1      40.873  35.988  39.751  1.00  0.00    -0.237 OA
ATOM     78  O   UNL A   1      42.816  34.620  39.088  1.00  0.00    -0.744 OA
ENDBRANCH  71  75
ENDBRANCH  54  68
BRANCH  55  79
ATOM     79  C   UNL A   1      45.140  28.005  28.323  1.00  0.00     0.023 A 
ATOM     80  C   UNL A   1      44.463  27.182  27.410  1.00  0.00     0.031 A 
ATOM     81  C   UNL A   1      46.547  28.004  28.289  1.00  0.00     0.131 A 
ATOM     82  C   UNL A   1      45.191  26.343  26.550  1.00  0.00     0.055 A 
ATOM     83  C   UNL A   1      47.265  27.221  27.383  1.00  0.00     0.041 A 
ATOM     84  F   UNL A   1      47.249  28.765  29.144  1.00  0.00    -0.206 F 
ATOM     85  C   UNL A   1      46.586  26.369  26.519  1.00  0.00     0.022 A 
BRANCH  82  86
ATOM     86  S   UNL A   1      44.283  25.117  25.568  1.00  0.00     0.124 S 
ATOM     87  O   UNL A   1      45.305  24.680  24.625  1.00  0.00    -0.237 OA
ATOM     88  O   UNL A   1      43.890  24.147  26.584  1.00  0.00    -0.237 OA
ATOM     89  O   UNL A   1      43.187  25.891  24.989  1.00  0.00    -0.744 OA
ENDBRANCH  82  86
ENDBRANCH  55  79
BRANCH  67  90
ATOM     90  C   UNL A   1      43.178  26.526  34.853  1.00  0.00     0.023 A 
ATOM     91  C   UNL A   1      44.411  26.089  35.368  1.00  0.00     0.031 A 
ATOM     92  C   UNL A   1      42.036  25.750  35.125  1.00  0.00     0.131 A 
ATOM     93  C   UNL A   1      44.483  24.879  36.075  1.00  0.00     0.055 A 
ATOM     94  C   UNL A   1      42.104  24.586  35.890  1.00  0.00     0.041 A 
ATOM     95  F   UNL A   1      40.833  26.117  34.656  1.00  0.00    -0.206 F 
ATOM     96  C   UNL A   1      43.335  24.136  36.358  1.00  0.00     0.022 A 
BRANCH  93  97
ATOM     97  S   UNL A   1      46.116  24.237  36.534  1.00  0.00     0.124 S 
ATOM     98  O   UNL A   1      46.806  24.218  35.248  1.00  0.00    -0.237 OA
ATOM     99  O   UNL A   1      46.585  25.232  37.494  1.00  0.00    -0.237 OA
ATOM    100  O   UNL A   1      45.821  22.922  37.099  1.00  0.00    -0.744 OA
ENDBRANCH  93  97
ENDBRANCH  67  90
ENDBRANCH  41  42
ENDBRANCH  34  36
ENDBRANCH  33  34
ENDBRANCH  32  33
ENDBRANCH  31  32
ENDBRANCH  30  31
ENDBRANCH  29  30
ENDBRANCH  28  29
ENDBRANCH   1  28
TORSDOF 27
ENDMDL
MODEL 3
REMARK VINA RESULT:      -7.7      2.371      4.024
REMARK SMILES CC[N@@H+]([C@H]1C[C@H]2CC[C@@H](C1)[NH2+]2)[C@@H](C)[C@@H](C)C(=O)OCCOCCOCCOCCOC(=O)c1ccc(-c2c3nc(c(-c4cc(S(=O)(=O)[O-])ccc4F)c4ccc([nH]4)c(-c4cc(S(=O)(=O)[O-])ccc4F)c4nc(c(-c5cc(S(=O)(=O)[O-])ccc5F)c5ccc2[nH]5)C=C4)C=C3)cc1
REMARK SMILES IDX 24 1 23 2 22 3 21 4 20 5 19 6 18 7 16 8 17 9 14 10 15 11
REMARK SMILES IDX 12 12 13 13 3 14 2 16 1 17 4 18 5 19 10 20 6 21 9 22 7 23
REMARK SMILES IDX 11 24 8 25 25 28 26 29 27 30 28 31 29 32 30 33 31 34 32 35
REMARK SMILES IDX 33 36 34 37 95 38 35 39 94 40 36 41 37 42 38 43 88 44 39 45
REMARK SMILES IDX 93 46 87 47 89 48 40 49 92 50 86 51 85 52 41 54 73 55 53 56
REMARK SMILES IDX 72 57 54 58 57 59 71 60 90 61 55 62 56 63 70 65 91 66 58 67
REMARK SMILES IDX 42 68 43 69 51 70 44 71 50 72 52 73 49 74 45 75 46 76 47 77
REMARK SMILES IDX 48 78 74 79 75 80 83 81 76 82 82 83 84 84 81 85 77 86 78 87
REMARK SMILES IDX 79 88 80 89 59 90 60 91 68 92 61 93 67 94 69 95 66 96 62 97
REMARK SMILES IDX 63 98 64 99 65 100
REMARK H PARENT 3 15 11 26 11 27 89 53 57 64
REMARK Flexibility Score: inf
ROOT
ATOM      1  O   UNL A   1      39.735  27.034  28.527  1.00  0.00    -0.377 OA
ENDROOT
BRANCH   1   2
ATOM      2  C   UNL A   1      39.985  26.142  27.460  1.00  0.00     0.188 C 
BRANCH   2   3
ATOM      3  C   UNL A   1      39.202  24.838  27.603  1.00  0.00     0.188 C 
BRANCH   3   4
ATOM      4  O   UNL A   1      38.121  24.633  26.709  1.00  0.00    -0.376 OA
BRANCH   4   5
ATOM      5  C   UNL A   1      38.046  23.402  25.988  1.00  0.00     0.202 C 
BRANCH   5   6
ATOM      6  C   UNL A   1      36.714  22.621  25.899  1.00  0.00     0.261 C 
BRANCH   6   7
ATOM      7  O   UNL A   1      35.489  23.368  26.182  1.00  0.00    -0.463 OA
BRANCH   7   8
ATOM      8  C   UNL A   1      34.475  22.617  26.651  1.00  0.00     0.314 C 
ATOM      9  O   UNL A   1      34.670  21.650  27.398  1.00  0.00    -0.252 OA
BRANCH   8  10
ATOM     10  C   UNL A   1      33.022  22.951  26.297  1.00  0.00     0.154 C 
ATOM     11  C   UNL A   1      32.412  21.591  25.903  1.00  0.00     0.026 C 
BRANCH  10  12
ATOM     12  C   UNL A   1      32.354  24.062  25.421  1.00  0.00     0.195 C 
ATOM     13  C   UNL A   1      30.942  23.781  24.917  1.00  0.00     0.076 C 
BRANCH  12  14
ATOM     14  N   UNL A   1      33.233  24.427  24.222  1.00  0.00    -0.329 N 
ATOM     15  H   UNL A   1      33.989  23.742  24.221  1.00  0.00     0.348 HD
BRANCH  14  16
ATOM     16  C   UNL A   1      32.598  24.224  22.903  1.00  0.00     0.259 C 
ATOM     17  C   UNL A   1      33.294  23.357  21.851  1.00  0.00     0.071 C 
ENDBRANCH  14  16
BRANCH  14  18
ATOM     18  C   UNL A   1      33.882  25.781  24.388  1.00  0.00     0.196 C 
ATOM     19  C   UNL A   1      33.504  26.728  23.221  1.00  0.00     0.130 C 
ATOM     20  C   UNL A   1      33.768  26.515  25.764  1.00  0.00     0.130 C 
ATOM     21  C   UNL A   1      32.474  27.805  23.584  1.00  0.00     0.188 C 
ATOM     22  C   UNL A   1      32.740  27.663  25.857  1.00  0.00     0.188 C 
ATOM     23  C   UNL A   1      31.158  27.220  24.096  1.00  0.00     0.071 C 
ATOM     24  N   UNL A   1      32.969  28.580  24.736  1.00  0.00    -0.341 N 
ATOM     25  C   UNL A   1      31.270  27.340  25.613  1.00  0.00     0.071 C 
ATOM     26  H   UNL A   1      32.440  29.445  24.853  1.00  0.00     0.346 HD
ATOM     27  H   UNL A   1      33.941  28.874  24.642  1.00  0.00     0.346 HD
ENDBRANCH  14  18
ENDBRANCH  12  14
ENDBRANCH  10  12
ENDBRANCH   8  10
ENDBRANCH   7   8
ENDBRANCH   6   7
ENDBRANCH   5   6
ENDBRANCH   4   5
ENDBRANCH   3   4
ENDBRANCH   2   3
ENDBRANCH   1   2
BRANCH   1  28
ATOM     28  C   UNL A   1      39.519  28.424  28.316  1.00  0.00     0.188 C 
BRANCH  28  29
ATOM     29  C   UNL A   1      38.090  28.895  28.076  1.00  0.00     0.188 C 
BRANCH  29  30
ATOM     30  O   UNL A   1      37.576  29.876  28.980  1.00  0.00    -0.376 OA
BRANCH  30  31
ATOM     31  C   UNL A   1      36.737  29.445  30.048  1.00  0.00     0.202 C 
BRANCH  31  32
ATOM     32  C   UNL A   1      36.254  30.527  31.020  1.00  0.00     0.261 C 
BRANCH  32  33
ATOM     33  O   UNL A   1      36.840  30.427  32.328  1.00  0.00    -0.460 OA
BRANCH  33  34
ATOM     34  C   UNL A   1      37.871  31.279  32.563  1.00  0.00     0.338 C 
ATOM     35  O   UNL A   1      37.818  32.490  32.648  1.00  0.00    -0.246 OA
BRANCH  34  36
ATOM     36  C   UNL A   1      39.085  30.496  32.864  1.00  0.00     0.060 A 
ATOM     37  C   UNL A   1      40.284  31.181  33.096  1.00  0.00     0.016 A 
ATOM     38  C   UNL A   1      39.057  29.100  32.843  1.00  0.00     0.016 A 
ATOM     39  C   UNL A   1      41.466  30.470  33.299  1.00  0.00     0.010 A 
ATOM     40  C   UNL A   1      40.246  28.390  33.026  1.00  0.00     0.010 A 
ATOM     41  C   UNL A   1      41.458  29.072  33.234  1.00  0.00    -0.014 A 
BRANCH  41  42
ATOM     42  C   UNL A   1      42.735  28.321  33.266  1.00  0.00     0.031 A 
ATOM     43  C   UNL A   1      43.357  28.001  34.596  1.00  0.00     0.074 A 
ATOM     44  C   UNL A   1      43.324  27.935  32.119  1.00  0.00     0.049 A 
ATOM     45  N   UNL A   1      44.513  27.452  34.858  1.00  0.00    -0.248 NA
ATOM     46  C   UNL A   1      42.570  28.352  35.789  1.00  0.00     0.031 C 
ATOM     47  C   UNL A   1      42.775  28.144  30.779  1.00  0.00     0.029 A 
ATOM     48  N   UNL A   1      44.520  27.301  31.898  1.00  0.00    -0.354 N 
ATOM     49  C   UNL A   1      44.602  27.401  36.245  1.00  0.00     0.074 A 
ATOM     50  C   UNL A   1      43.390  27.996  36.768  1.00  0.00     0.031 C 
ATOM     51  C   UNL A   1      43.645  27.666  29.874  1.00  0.00     0.029 A 
ATOM     52  C   UNL A   1      44.832  27.166  30.565  1.00  0.00     0.049 A 
ATOM     53  H   UNL A   1      45.099  26.973  32.623  1.00  0.00     0.167 HD
ATOM     54  C   UNL A   1      45.606  26.904  37.007  1.00  0.00     0.034 A 
ATOM     55  C   UNL A   1      45.964  26.732  29.974  1.00  0.00     0.034 A 
ATOM     56  C   UNL A   1      46.809  26.323  36.462  1.00  0.00     0.049 A 
ATOM     57  C   UNL A   1      47.109  26.277  30.850  1.00  0.00     0.074 A 
ATOM     58  C   UNL A   1      47.877  25.763  37.141  1.00  0.00     0.029 A 
ATOM     59  N   UNL A   1      47.112  26.243  35.109  1.00  0.00    -0.354 N 
ATOM     60  N   UNL A   1      47.174  26.214  32.162  1.00  0.00    -0.248 NA
ATOM     61  C   UNL A   1      48.332  25.830  30.168  1.00  0.00     0.031 C 
ATOM     62  C   UNL A   1      48.861  25.426  36.206  1.00  0.00     0.029 A 
ATOM     63  C   UNL A   1      48.370  25.688  34.937  1.00  0.00     0.049 A 
ATOM     64  H   UNL A   1      46.520  26.537  34.380  1.00  0.00     0.167 HD
ATOM     65  C   UNL A   1      48.433  25.693  32.455  1.00  0.00     0.074 A 
ATOM     66  C   UNL A   1      49.081  25.436  31.187  1.00  0.00     0.031 C 
ATOM     67  C   UNL A   1      49.005  25.449  33.662  1.00  0.00     0.034 A 
BRANCH  54  68
ATOM     68  C   UNL A   1      45.480  27.020  38.506  1.00  0.00     0.023 A 
ATOM     69  C   UNL A   1      45.996  28.117  39.216  1.00  0.00     0.031 A 
ATOM     70  C   UNL A   1      44.809  26.020  39.233  1.00  0.00     0.131 A 
ATOM     71  C   UNL A   1      45.872  28.166  40.612  1.00  0.00     0.055 A 
ATOM     72  C   UNL A   1      44.627  26.110  40.613  1.00  0.00     0.041 A 
ATOM     73  F   UNL A   1      44.318  24.937  38.611  1.00  0.00    -0.206 F 
ATOM     74  C   UNL A   1      45.167  27.184  41.313  1.00  0.00     0.022 A 
BRANCH  71  75
ATOM     75  S   UNL A   1      46.739  29.477  41.518  1.00  0.00     0.124 S 
ATOM     76  O   UNL A   1      48.120  29.003  41.472  1.00  0.00    -0.237 OA
ATOM     77  O   UNL A   1      46.443  30.661  40.721  1.00  0.00    -0.237 OA
ATOM     78  O   UNL A   1      46.122  29.445  42.843  1.00  0.00    -0.744 OA
ENDBRANCH  71  75
ENDBRANCH  54  68
BRANCH  55  79
ATOM     79  C   UNL A   1      46.115  26.765  28.489  1.00  0.00     0.023 A 
ATOM     80  C   UNL A   1      45.779  25.652  27.702  1.00  0.00     0.031 A 
ATOM     81  C   UNL A   1      46.686  27.876  27.842  1.00  0.00     0.131 A 
ATOM     82  C   UNL A   1      46.080  25.648  26.331  1.00  0.00     0.055 A 
ATOM     83  C   UNL A   1      46.916  27.895  26.465  1.00  0.00     0.041 A 
ATOM     84  F   UNL A   1      47.035  28.967  28.544  1.00  0.00    -0.206 F 
ATOM     85  C   UNL A   1      46.630  26.767  25.704  1.00  0.00     0.022 A 
BRANCH  82  86
ATOM     86  S   UNL A   1      45.863  24.103  25.404  1.00  0.00     0.124 S 
ATOM     87  O   UNL A   1      44.415  23.935  25.445  1.00  0.00    -0.237 OA
ATOM     88  O   UNL A   1      46.434  24.446  24.107  1.00  0.00    -0.237 OA
ATOM     89  O   UNL A   1      46.627  23.130  26.183  1.00  0.00    -0.744 OA
ENDBRANCH  82  86
ENDBRANCH  55  79
BRANCH  67  90
ATOM     90  C   UNL A   1      50.386  24.838  33.657  1.00  0.00     0.023 A 
ATOM     91  C   UNL A   1      51.545  25.631  33.605  1.00  0.00     0.031 A 
ATOM     92  C   UNL A   1      50.544  23.440  33.699  1.00  0.00     0.131 A 
ATOM     93  C   UNL A   1      52.807  25.022  33.532  1.00  0.00     0.055 A 
ATOM     94  C   UNL A   1      51.804  22.842  33.699  1.00  0.00     0.041 A 
ATOM     95  F   UNL A   1      49.473  22.632  33.746  1.00  0.00    -0.206 F 
ATOM     96  C   UNL A   1      52.945  23.633  33.601  1.00  0.00     0.022 A 
BRANCH  93  97
ATOM     97  S   UNL A   1      54.261  26.067  33.245  1.00  0.00     0.124 S 
ATOM     98  O   UNL A   1      55.226  25.506  34.186  1.00  0.00    -0.237 OA
ATOM     99  O   UNL A   1      54.540  25.833  31.832  1.00  0.00    -0.237 OA
ATOM    100  O   UNL A   1      53.787  27.411  33.569  1.00  0.00    -0.744 OA
ENDBRANCH  93  97
ENDBRANCH  67  90
ENDBRANCH  41  42
ENDBRANCH  34  36
ENDBRANCH  33  34
ENDBRANCH  32  33
ENDBRANCH  31  32
ENDBRANCH  30  31
ENDBRANCH  29  30
ENDBRANCH  28  29
ENDBRANCH   1  28
TORSDOF 27
ENDMDL
