MODEL 1
REMARK VINA RESULT:      -9.8      0.000      0.000
REMARK SMILES CCOC(=O)c1c(NC(=O)[C@@H]2[C@@H]3CC[C@@H](C3)[C@@H]2C(=O)OCCOCCOCCOCCOC(=O)c2ccc(-c3c4nc(c(-c5cc(S(=O)(=O)[O-])ccc5F)c5ccc([nH]5)c(-c5cc(S(=O)(=O)[O-])ccc5F)c5nc(c(-c6cc(S(=O)(=O)[O-])ccc6F)c6ccc3[nH]6)C=C5)C=C4)cc2)sc2c1CCCC2
REMARK SMILES IDX 25 1 24 2 23 3 22 4 21 5 20 6 18 7 19 8 17 9 11 10 12 11
REMARK SMILES IDX 13 12 16 13 15 14 14 15 9 16 8 17 10 19 7 20 6 21 100 22
REMARK SMILES IDX 98 23 99 24 101 25 104 26 102 27 103 28 4 29 5 30 3 31 2 32
REMARK SMILES IDX 1 33 26 34 27 35 28 36 29 37 30 38 31 39 32 40 33 41 34 42
REMARK SMILES IDX 35 43 36 44 97 45 37 46 96 47 38 48 39 49 40 50 90 51 41 52
REMARK SMILES IDX 95 53 89 54 91 55 42 56 94 57 88 58 87 59 43 61 75 62 55 63
REMARK SMILES IDX 74 64 56 65 59 66 73 67 92 68 57 69 58 70 72 72 93 73 60 74
REMARK SMILES IDX 44 75 45 76 53 77 46 78 52 79 54 80 51 81 47 82 48 83 49 84
REMARK SMILES IDX 50 85 76 86 77 87 85 88 78 89 84 90 86 91 83 92 79 93 80 94
REMARK SMILES IDX 81 95 82 96 61 97 62 98 70 99 63 100 69 101 71 102 68 103
REMARK SMILES IDX 64 104 65 105 66 106 67 107
REMARK H PARENT 8 18 91 60 59 71
REMARK Flexibility Score: inf
ROOT
ATOM      1  C   UNL A   1      36.638  22.674  25.522  1.00  0.00     0.188 C 
ENDROOT
BRANCH   1   2
ATOM      2  C   UNL A   1      35.160  22.642  25.981  1.00  0.00     0.188 C 
BRANCH   2   3
ATOM      3  O   UNL A   1      34.180  22.819  24.983  1.00  0.00    -0.376 OA
BRANCH   3   4
ATOM      4  C   UNL A   1      34.592  23.035  23.647  1.00  0.00     0.202 C 
BRANCH   4   5
ATOM      5  C   UNL A   1      33.657  23.702  22.599  1.00  0.00     0.261 C 
BRANCH   5   6
ATOM      6  O   UNL A   1      33.959  25.077  22.284  1.00  0.00    -0.463 OA
BRANCH   6   7
ATOM      7  C   UNL A   1      32.981  25.866  21.732  1.00  0.00     0.310 C 
ATOM      8  O   UNL A   1      32.853  26.104  20.540  1.00  0.00    -0.252 OA
BRANCH   7   9
ATOM      9  C   UNL A   1      31.962  26.441  22.889  1.00  0.00     0.115 C 
ATOM     10  C   UNL A   1      32.547  27.381  24.755  1.00  0.00     0.096 C 
ATOM     11  C   UNL A   1      31.198  26.614  26.135  1.00  0.00     0.003 C 
ATOM     12  C   UNL A   1      31.301  25.044  26.507  1.00  0.00     0.005 C 
ATOM     13  C   UNL A   1      29.636  25.926  25.164  1.00  0.00     0.009 C 
ATOM     14  C   UNL A   1      30.518  25.060  23.597  1.00  0.00     0.004 C 
ATOM     15  C   UNL A   1      30.796  24.070  25.107  1.00  0.00     0.005 C 
BRANCH  10  16
ATOM     16  C   UNL A   1      33.952  27.163  25.788  1.00  0.00     0.229 C 
ATOM     17  N   UNL A   1      34.514  28.039  26.768  1.00  0.00    -0.317 N 
ATOM     18  H   UNL A   1      35.358  27.737  27.173  1.00  0.00     0.170 HD
ATOM     19  O   UNL A   1      34.609  26.125  25.577  1.00  0.00    -0.274 OA
BRANCH  17  20
ATOM     20  C   UNL A   1      34.024  29.278  27.233  1.00  0.00     0.110 A 
ATOM     21  C   UNL A   1      34.719  30.127  28.048  1.00  0.00     0.098 A 
ATOM     22  C   UNL A   1      34.286  31.477  28.030  1.00  0.00    -0.017 A 
ATOM     23  S   UNL A   1      32.636  30.067  26.631  1.00  0.00    -0.122 S 
ATOM     24  C   UNL A   1      33.102  31.586  27.345  1.00  0.00     0.011 A 
ATOM     25  C   UNL A   1      35.016  32.675  28.586  1.00  0.00     0.038 C 
ATOM     26  C   UNL A   1      32.372  32.900  27.229  1.00  0.00     0.047 C 
ATOM     27  C   UNL A   1      33.986  33.653  29.121  1.00  0.00     0.005 C 
ATOM     28  C   UNL A   1      33.124  34.079  27.931  1.00  0.00     0.006 C 
BRANCH  21  29
ATOM     29  C   UNL A   1      36.064  29.769  28.064  1.00  0.00     0.341 C 
ATOM     30  O   UNL A   1      36.476  30.152  26.956  1.00  0.00    -0.246 OA
BRANCH  29  31
ATOM     31  O   UNL A   1      37.099  28.711  29.105  1.00  0.00    -0.462 OA
BRANCH  31  32
ATOM     32  C   UNL A   1      38.272  28.654  30.574  1.00  0.00     0.230 C 
ATOM     33  C   UNL A   1      37.952  29.397  31.872  1.00  0.00     0.049 C 
ENDBRANCH  31  32
ENDBRANCH  29  31
ENDBRANCH  21  29
ENDBRANCH  17  20
ENDBRANCH  10  16
ENDBRANCH   7   9
ENDBRANCH   6   7
ENDBRANCH   5   6
ENDBRANCH   4   5
ENDBRANCH   3   4
ENDBRANCH   2   3
ENDBRANCH   1   2
BRANCH   1  34
ATOM     34  O   UNL A   1      37.271  21.555  24.924  1.00  0.00    -0.377 OA
BRANCH  34  35
ATOM     35  C   UNL A   1      38.517  21.124  25.443  1.00  0.00     0.188 C 
BRANCH  35  36
ATOM     36  C   UNL A   1      39.248  22.052  26.445  1.00  0.00     0.188 C 
BRANCH  36  37
ATOM     37  O   UNL A   1      40.092  21.387  27.362  1.00  0.00    -0.376 OA
BRANCH  37  38
ATOM     38  C   UNL A   1      41.118  20.532  26.899  1.00  0.00     0.202 C 
BRANCH  38  39
ATOM     39  C   UNL A   1      42.248  20.978  25.948  1.00  0.00     0.261 C 
BRANCH  39  40
ATOM     40  O   UNL A   1      42.166  22.263  25.320  1.00  0.00    -0.460 OA
BRANCH  40  41
ATOM     41  C   UNL A   1      43.311  22.972  25.177  1.00  0.00     0.338 C 
ATOM     42  O   UNL A   1      44.103  22.889  24.258  1.00  0.00    -0.246 OA
BRANCH  41  43
ATOM     43  C   UNL A   1      43.316  24.029  26.221  1.00  0.00     0.060 A 
ATOM     44  C   UNL A   1      44.386  24.940  26.292  1.00  0.00     0.016 A 
ATOM     45  C   UNL A   1      42.229  24.163  27.087  1.00  0.00     0.016 A 
ATOM     46  C   UNL A   1      44.378  25.972  27.232  1.00  0.00     0.010 A 
ATOM     47  C   UNL A   1      42.248  25.163  28.063  1.00  0.00     0.010 A 
ATOM     48  C   UNL A   1      43.335  26.052  28.160  1.00  0.00    -0.014 A 
BRANCH  48  49
ATOM     49  C   UNL A   1      43.496  26.884  29.379  1.00  0.00     0.031 A 
ATOM     50  C   UNL A   1      44.006  26.205  30.621  1.00  0.00     0.074 A 
ATOM     51  C   UNL A   1      43.217  28.199  29.391  1.00  0.00     0.049 A 
ATOM     52  N   UNL A   1      44.132  26.673  31.835  1.00  0.00    -0.248 NA
ATOM     53  C   UNL A   1      44.414  24.800  30.468  1.00  0.00     0.031 C 
ATOM     54  C   UNL A   1      42.788  28.983  28.236  1.00  0.00     0.029 A 
ATOM     55  N   UNL A   1      43.243  29.104  30.423  1.00  0.00    -0.354 N 
ATOM     56  C   UNL A   1      44.622  25.614  32.595  1.00  0.00     0.074 A 
ATOM     57  C   UNL A   1      44.725  24.474  31.711  1.00  0.00     0.031 C 
ATOM     58  C   UNL A   1      42.579  30.252  28.627  1.00  0.00     0.029 A 
ATOM     59  C   UNL A   1      42.809  30.359  30.068  1.00  0.00     0.049 A 
ATOM     60  H   UNL A   1      43.545  28.876  31.332  1.00  0.00     0.167 HD
ATOM     61  C   UNL A   1      44.959  25.601  33.907  1.00  0.00     0.034 A 
ATOM     62  C   UNL A   1      42.590  31.454  30.827  1.00  0.00     0.034 A 
ATOM     63  C   UNL A   1      44.830  26.744  34.775  1.00  0.00     0.049 A 
ATOM     64  C   UNL A   1      42.854  31.383  32.315  1.00  0.00     0.074 A 
ATOM     65  C   UNL A   1      45.147  26.844  36.117  1.00  0.00     0.029 A 
ATOM     66  N   UNL A   1      44.326  27.981  34.393  1.00  0.00    -0.354 N 
ATOM     67  N   UNL A   1      43.310  30.378  33.028  1.00  0.00    -0.248 NA
ATOM     68  C   UNL A   1      42.579  32.595  33.098  1.00  0.00     0.031 C 
ATOM     69  C   UNL A   1      44.743  28.103  36.570  1.00  0.00     0.029 A 
ATOM     70  C   UNL A   1      44.281  28.833  35.486  1.00  0.00     0.049 A 
ATOM     71  H   UNL A   1      44.043  28.218  33.481  1.00  0.00     0.167 HD
ATOM     72  C   UNL A   1      43.413  30.853  34.335  1.00  0.00     0.074 A 
ATOM     73  C   UNL A   1      42.980  32.234  34.307  1.00  0.00     0.031 C 
ATOM     74  C   UNL A   1      43.839  30.209  35.452  1.00  0.00     0.034 A 
BRANCH  61  75
ATOM     75  C   UNL A   1      45.436  24.290  34.485  1.00  0.00     0.023 A 
ATOM     76  C   UNL A   1      46.801  23.966  34.565  1.00  0.00     0.031 A 
ATOM     77  C   UNL A   1      44.507  23.331  34.928  1.00  0.00     0.131 A 
ATOM     78  C   UNL A   1      47.193  22.688  34.989  1.00  0.00     0.055 A 
ATOM     79  C   UNL A   1      44.909  22.099  35.443  1.00  0.00     0.041 A 
ATOM     80  F   UNL A   1      43.188  23.569  34.849  1.00  0.00    -0.206 F 
ATOM     81  C   UNL A   1      46.259  21.763  35.459  1.00  0.00     0.022 A 
BRANCH  78  82
ATOM     82  S   UNL A   1      48.921  22.191  34.745  1.00  0.00     0.124 S 
ATOM     83  O   UNL A   1      48.766  20.844  34.201  1.00  0.00    -0.237 OA
ATOM     84  O   UNL A   1      49.411  23.203  33.818  1.00  0.00    -0.237 OA
ATOM     85  O   UNL A   1      49.486  22.251  36.091  1.00  0.00    -0.744 OA
ENDBRANCH  78  82
ENDBRANCH  61  75
BRANCH  62  86
ATOM     86  C   UNL A   1      42.053  32.705  30.213  1.00  0.00     0.023 A 
ATOM     87  C   UNL A   1      42.896  33.603  29.539  1.00  0.00     0.031 A 
ATOM     88  C   UNL A   1      40.695  33.052  30.344  1.00  0.00     0.131 A 
ATOM     89  C   UNL A   1      42.385  34.821  29.063  1.00  0.00     0.055 A 
ATOM     90  C   UNL A   1      40.179  34.233  29.808  1.00  0.00     0.041 A 
ATOM     91  F   UNL A   1      39.844  32.241  30.993  1.00  0.00    -0.206 F 
ATOM     92  C   UNL A   1      41.029  35.133  29.174  1.00  0.00     0.022 A 
BRANCH  89  93
ATOM     93  S   UNL A   1      43.545  36.045  28.391  1.00  0.00     0.124 S 
ATOM     94  O   UNL A   1      42.993  37.290  28.913  1.00  0.00    -0.237 OA
ATOM     95  O   UNL A   1      44.812  35.611  28.969  1.00  0.00    -0.237 OA
ATOM     96  O   UNL A   1      43.427  35.865  26.945  1.00  0.00    -0.744 OA
ENDBRANCH  89  93
ENDBRANCH  62  86
BRANCH  74  97
ATOM     97  C   UNL A   1      43.921  31.007  36.734  1.00  0.00     0.023 A 
ATOM     98  C   UNL A   1      42.782  31.321  37.494  1.00  0.00     0.031 A 
ATOM     99  C   UNL A   1      45.170  31.454  37.205  1.00  0.00     0.131 A 
ATOM    100  C   UNL A   1      42.908  32.105  38.652  1.00  0.00     0.055 A 
ATOM    101  C   UNL A   1      45.298  32.167  38.397  1.00  0.00     0.041 A 
ATOM    102  F   UNL A   1      46.293  31.195  36.516  1.00  0.00    -0.206 F 
ATOM    103  C   UNL A   1      44.161  32.508  39.121  1.00  0.00     0.022 A 
BRANCH 100 104
ATOM    104  S   UNL A   1      41.403  32.693  39.475  1.00  0.00     0.124 S 
ATOM    105  O   UNL A   1      41.770  34.058  39.837  1.00  0.00    -0.237 OA
ATOM    106  O   UNL A   1      40.399  32.559  38.424  1.00  0.00    -0.237 OA
ATOM    107  O   UNL A   1      41.246  31.774  40.602  1.00  0.00    -0.744 OA
ENDBRANCH 100 104
ENDBRANCH  74  97
ENDBRANCH  48  49
ENDBRANCH  41  43
ENDBRANCH  40  41
ENDBRANCH  39  40
ENDBRANCH  38  39
ENDBRANCH  37  38
ENDBRANCH  36  37
ENDBRANCH  35  36
ENDBRANCH  34  35
ENDBRANCH   1  34
TORSDOF 28
ENDMDL
MODEL 2
REMARK VINA RESULT:      -9.5      5.635      9.766
REMARK SMILES CCOC(=O)c1c(NC(=O)[C@@H]2[C@@H]3CC[C@@H](C3)[C@@H]2C(=O)OCCOCCOCCOCCOC(=O)c2ccc(-c3c4nc(c(-c5cc(S(=O)(=O)[O-])ccc5F)c5ccc([nH]5)c(-c5cc(S(=O)(=O)[O-])ccc5F)c5nc(c(-c6cc(S(=O)(=O)[O-])ccc6F)c6ccc3[nH]6)C=C5)C=C4)cc2)sc2c1CCCC2
REMARK SMILES IDX 25 1 24 2 23 3 22 4 21 5 20 6 18 7 19 8 17 9 11 10 12 11
REMARK SMILES IDX 13 12 16 13 15 14 14 15 9 16 8 17 10 19 7 20 6 21 100 22
REMARK SMILES IDX 98 23 99 24 101 25 104 26 102 27 103 28 4 29 5 30 3 31 2 32
REMARK SMILES IDX 1 33 26 34 27 35 28 36 29 37 30 38 31 39 32 40 33 41 34 42
REMARK SMILES IDX 35 43 36 44 97 45 37 46 96 47 38 48 39 49 40 50 90 51 41 52
REMARK SMILES IDX 95 53 89 54 91 55 42 56 94 57 88 58 87 59 43 61 75 62 55 63
REMARK SMILES IDX 74 64 56 65 59 66 73 67 92 68 57 69 58 70 72 72 93 73 60 74
REMARK SMILES IDX 44 75 45 76 53 77 46 78 52 79 54 80 51 81 47 82 48 83 49 84
REMARK SMILES IDX 50 85 76 86 77 87 85 88 78 89 84 90 86 91 83 92 79 93 80 94
REMARK SMILES IDX 81 95 82 96 61 97 62 98 70 99 63 100 69 101 71 102 68 103
REMARK SMILES IDX 64 104 65 105 66 106 67 107
REMARK H PARENT 8 18 91 60 59 71
REMARK Flexibility Score: inf
ROOT
ATOM      1  C   UNL A   1      33.608  20.740  24.897  1.00  0.00     0.188 C 
ENDROOT
BRANCH   1   2
ATOM      2  C   UNL A   1      32.797  20.814  23.580  1.00  0.00     0.188 C 
BRANCH   2   3
ATOM      3  O   UNL A   1      32.408  22.098  23.145  1.00  0.00    -0.376 OA
BRANCH   3   4
ATOM      4  C   UNL A   1      33.364  22.927  22.511  1.00  0.00     0.202 C 
BRANCH   4   5
ATOM      5  C   UNL A   1      34.049  24.106  23.258  1.00  0.00     0.261 C 
BRANCH   5   6
ATOM      6  O   UNL A   1      34.257  25.299  22.474  1.00  0.00    -0.463 OA
BRANCH   6   7
ATOM      7  C   UNL A   1      33.181  25.894  21.864  1.00  0.00     0.310 C 
ATOM      8  O   UNL A   1      32.987  25.937  20.658  1.00  0.00    -0.252 OA
BRANCH   7   9
ATOM      9  C   UNL A   1      32.147  26.527  22.976  1.00  0.00     0.115 C 
ATOM     10  C   UNL A   1      32.705  27.491  24.838  1.00  0.00     0.096 C 
ATOM     11  C   UNL A   1      31.291  26.798  26.193  1.00  0.00     0.003 C 
ATOM     12  C   UNL A   1      31.332  25.235  26.602  1.00  0.00     0.005 C 
ATOM     13  C   UNL A   1      29.738  26.138  25.190  1.00  0.00     0.009 C 
ATOM     14  C   UNL A   1      30.638  25.208  23.669  1.00  0.00     0.004 C 
ATOM     15  C   UNL A   1      30.839  24.245  25.209  1.00  0.00     0.005 C 
BRANCH  10  16
ATOM     16  C   UNL A   1      34.071  27.252  25.918  1.00  0.00     0.229 C 
ATOM     17  N   UNL A   1      34.620  28.126  26.908  1.00  0.00    -0.317 N 
ATOM     18  H   UNL A   1      35.444  27.810  27.344  1.00  0.00     0.170 HD
ATOM     19  O   UNL A   1      34.711  26.198  25.738  1.00  0.00    -0.274 OA
BRANCH  17  20
ATOM     20  C   UNL A   1      34.143  29.379  27.345  1.00  0.00     0.110 A 
ATOM     21  C   UNL A   1      34.760  30.157  28.285  1.00  0.00     0.098 A 
ATOM     22  C   UNL A   1      34.417  31.532  28.257  1.00  0.00    -0.017 A 
ATOM     23  S   UNL A   1      32.909  30.276  26.580  1.00  0.00    -0.122 S 
ATOM     24  C   UNL A   1      33.356  31.739  27.413  1.00  0.00     0.011 A 
ATOM     25  C   UNL A   1      35.128  32.662  28.960  1.00  0.00     0.038 C 
ATOM     26  C   UNL A   1      32.731  33.101  27.243  1.00  0.00     0.047 C 
ATOM     27  C   UNL A   1      34.092  33.689  29.378  1.00  0.00     0.005 C 
ATOM     28  C   UNL A   1      33.442  34.207  28.092  1.00  0.00     0.006 C 
BRANCH  21  29
ATOM     29  C   UNL A   1      36.064  29.711  28.481  1.00  0.00     0.341 C 
ATOM     30  O   UNL A   1      36.025  29.199  29.613  1.00  0.00    -0.246 OA
BRANCH  29  31
ATOM     31  O   UNL A   1      37.652  29.986  27.659  1.00  0.00    -0.462 OA
BRANCH  31  32
ATOM     32  C   UNL A   1      39.096  29.176  26.766  1.00  0.00     0.230 C 
ATOM     33  C   UNL A   1      40.391  28.833  27.504  1.00  0.00     0.049 C 
ENDBRANCH  31  32
ENDBRANCH  29  31
ENDBRANCH  21  29
ENDBRANCH  17  20
ENDBRANCH  10  16
ENDBRANCH   7   9
ENDBRANCH   6   7
ENDBRANCH   5   6
ENDBRANCH   4   5
ENDBRANCH   3   4
ENDBRANCH   2   3
ENDBRANCH   1   2
BRANCH   1  34
ATOM     34  O   UNL A   1      34.990  20.422  24.918  1.00  0.00    -0.377 OA
BRANCH  34  35
ATOM     35  C   UNL A   1      35.904  21.409  25.363  1.00  0.00     0.188 C 
BRANCH  35  36
ATOM     36  C   UNL A   1      37.326  21.413  24.750  1.00  0.00     0.188 C 
BRANCH  36  37
ATOM     37  O   UNL A   1      38.376  21.281  25.685  1.00  0.00    -0.376 OA
BRANCH  37  38
ATOM     38  C   UNL A   1      39.110  22.415  26.101  1.00  0.00     0.202 C 
BRANCH  38  39
ATOM     39  C   UNL A   1      40.630  22.410  26.363  1.00  0.00     0.261 C 
BRANCH  39  40
ATOM     40  O   UNL A   1      41.232  23.540  27.005  1.00  0.00    -0.460 OA
BRANCH  40  41
ATOM     41  C   UNL A   1      41.014  24.764  26.467  1.00  0.00     0.338 C 
ATOM     42  O   UNL A   1      39.934  25.249  26.189  1.00  0.00    -0.246 OA
BRANCH  41  43
ATOM     43  C   UNL A   1      42.306  25.498  26.488  1.00  0.00     0.060 A 
ATOM     44  C   UNL A   1      42.996  25.669  27.702  1.00  0.00     0.016 A 
ATOM     45  C   UNL A   1      42.868  25.959  25.296  1.00  0.00     0.016 A 
ATOM     46  C   UNL A   1      44.235  26.309  27.729  1.00  0.00     0.010 A 
ATOM     47  C   UNL A   1      44.083  26.648  25.332  1.00  0.00     0.010 A 
ATOM     48  C   UNL A   1      44.758  26.853  26.551  1.00  0.00    -0.014 A 
BRANCH  48  49
ATOM     49  C   UNL A   1      45.858  27.847  26.623  1.00  0.00     0.031 A 
ATOM     50  C   UNL A   1      45.478  29.297  26.740  1.00  0.00     0.074 A 
ATOM     51  C   UNL A   1      47.152  27.484  26.600  1.00  0.00     0.049 A 
ATOM     52  N   UNL A   1      46.234  30.363  26.711  1.00  0.00    -0.248 NA
ATOM     53  C   UNL A   1      44.042  29.578  26.898  1.00  0.00     0.031 C 
ATOM     54  C   UNL A   1      47.646  26.111  26.563  1.00  0.00     0.029 A 
ATOM     55  N   UNL A   1      48.291  28.253  26.593  1.00  0.00    -0.354 N 
ATOM     56  C   UNL A   1      45.364  31.442  26.833  1.00  0.00     0.074 A 
ATOM     57  C   UNL A   1      44.025  30.900  26.891  1.00  0.00     0.031 C 
ATOM     58  C   UNL A   1      48.990  26.134  26.524  1.00  0.00     0.029 A 
ATOM     59  C   UNL A   1      49.450  27.522  26.482  1.00  0.00     0.049 A 
ATOM     60  H   UNL A   1      48.278  29.235  26.661  1.00  0.00     0.167 HD
ATOM     61  C   UNL A   1      45.660  32.763  26.896  1.00  0.00     0.034 A 
ATOM     62  C   UNL A   1      50.728  27.929  26.328  1.00  0.00     0.034 A 
ATOM     63  C   UNL A   1      47.002  33.284  26.816  1.00  0.00     0.049 A 
ATOM     64  C   UNL A   1      51.025  29.412  26.275  1.00  0.00     0.074 A 
ATOM     65  C   UNL A   1      47.417  34.602  26.875  1.00  0.00     0.029 A 
ATOM     66  N   UNL A   1      48.146  32.516  26.640  1.00  0.00    -0.354 N 
ATOM     67  N   UNL A   1      50.198  30.428  26.383  1.00  0.00    -0.248 NA
ATOM     68  C   UNL A   1      52.429  29.802  26.085  1.00  0.00     0.031 C 
ATOM     69  C   UNL A   1      48.793  34.638  26.635  1.00  0.00     0.029 A 
ATOM     70  C   UNL A   1      49.258  33.337  26.542  1.00  0.00     0.049 A 
ATOM     71  H   UNL A   1      48.164  31.533  26.593  1.00  0.00     0.167 HD
ATOM     72  C   UNL A   1      50.990  31.573  26.315  1.00  0.00     0.074 A 
ATOM     73  C   UNL A   1      52.357  31.122  26.164  1.00  0.00     0.031 C 
ATOM     74  C   UNL A   1      50.620  32.878  26.383  1.00  0.00     0.034 A 
BRANCH  61  75
ATOM     75  C   UNL A   1      44.503  33.728  26.993  1.00  0.00     0.023 A 
ATOM     76  C   UNL A   1      43.834  33.965  28.206  1.00  0.00     0.031 A 
ATOM     77  C   UNL A   1      44.035  34.391  25.845  1.00  0.00     0.131 A 
ATOM     78  C   UNL A   1      42.684  34.769  28.225  1.00  0.00     0.055 A 
ATOM     79  C   UNL A   1      42.951  35.269  25.891  1.00  0.00     0.041 A 
ATOM     80  F   UNL A   1      44.612  34.183  24.651  1.00  0.00    -0.206 F 
ATOM     81  C   UNL A   1      42.257  35.448  27.083  1.00  0.00     0.022 A 
BRANCH  78  82
ATOM     82  S   UNL A   1      41.656  34.766  29.720  1.00  0.00     0.124 S 
ATOM     83  O   UNL A   1      42.499  35.502  30.659  1.00  0.00    -0.237 OA
ATOM     84  O   UNL A   1      40.448  35.449  29.273  1.00  0.00    -0.237 OA
ATOM     85  O   UNL A   1      41.495  33.345  30.021  1.00  0.00    -0.744 OA
ENDBRANCH  78  82
ENDBRANCH  61  75
BRANCH  62  86
ATOM     86  C   UNL A   1      51.826  26.931  26.168  1.00  0.00     0.023 A 
ATOM     87  C   UNL A   1      52.754  26.702  27.197  1.00  0.00     0.031 A 
ATOM     88  C   UNL A   1      52.002  26.234  24.958  1.00  0.00     0.131 A 
ATOM     89  C   UNL A   1      53.838  25.836  26.983  1.00  0.00     0.055 A 
ATOM     90  C   UNL A   1      53.043  25.322  24.775  1.00  0.00     0.041 A 
ATOM     91  F   UNL A   1      51.156  26.425  23.933  1.00  0.00    -0.206 F 
ATOM     92  C   UNL A   1      53.977  25.129  25.787  1.00  0.00     0.022 A 
BRANCH  89  93
ATOM     93  S   UNL A   1      55.129  25.731  28.253  1.00  0.00     0.124 S 
ATOM     94  O   UNL A   1      55.744  24.446  27.942  1.00  0.00    -0.237 OA
ATOM     95  O   UNL A   1      55.933  26.914  27.968  1.00  0.00    -0.237 OA
ATOM     96  O   UNL A   1      54.377  25.777  29.506  1.00  0.00    -0.744 OA
ENDBRANCH  89  93
ENDBRANCH  62  86
BRANCH  74  97
ATOM     97  C   UNL A   1      51.716  33.920  26.360  1.00  0.00     0.023 A 
ATOM     98  C   UNL A   1      52.391  34.322  27.525  1.00  0.00     0.031 A 
ATOM     99  C   UNL A   1      52.096  34.513  25.141  1.00  0.00     0.131 A 
ATOM    100  C   UNL A   1      53.369  35.327  27.455  1.00  0.00     0.055 A 
ATOM    101  C   UNL A   1      53.123  35.455  25.067  1.00  0.00     0.041 A 
ATOM    102  F   UNL A   1      51.481  34.177  23.996  1.00  0.00    -0.206 F 
ATOM    103  C   UNL A   1      53.756  35.877  26.229  1.00  0.00     0.022 A 
BRANCH 100 104
ATOM    104  S   UNL A   1      54.049  35.993  28.999  1.00  0.00     0.124 S 
ATOM    105  O   UNL A   1      53.367  35.181  30.003  1.00  0.00    -0.237 OA
ATOM    106  O   UNL A   1      55.478  35.746  28.844  1.00  0.00    -0.237 OA
ATOM    107  O   UNL A   1      53.655  37.400  28.970  1.00  0.00    -0.744 OA
ENDBRANCH 100 104
ENDBRANCH  74  97
ENDBRANCH  48  49
ENDBRANCH  41  43
ENDBRANCH  40  41
ENDBRANCH  39  40
ENDBRANCH  38  39
ENDBRANCH  37  38
ENDBRANCH  36  37
ENDBRANCH  35  36
ENDBRANCH  34  35
ENDBRANCH   1  34
TORSDOF 28
ENDMDL
MODEL 3
REMARK VINA RESULT:      -9.1      4.202     10.138
REMARK SMILES CCOC(=O)c1c(NC(=O)[C@@H]2[C@@H]3CC[C@@H](C3)[C@@H]2C(=O)OCCOCCOCCOCCOC(=O)c2ccc(-c3c4nc(c(-c5cc(S(=O)(=O)[O-])ccc5F)c5ccc([nH]5)c(-c5cc(S(=O)(=O)[O-])ccc5F)c5nc(c(-c6cc(S(=O)(=O)[O-])ccc6F)c6ccc3[nH]6)C=C5)C=C4)cc2)sc2c1CCCC2
REMARK SMILES IDX 25 1 24 2 23 3 22 4 21 5 20 6 18 7 19 8 17 9 11 10 12 11
REMARK SMILES IDX 13 12 16 13 15 14 14 15 9 16 8 17 10 19 7 20 6 21 100 22
REMARK SMILES IDX 98 23 99 24 101 25 104 26 102 27 103 28 4 29 5 30 3 31 2 32
REMARK SMILES IDX 1 33 26 34 27 35 28 36 29 37 30 38 31 39 32 40 33 41 34 42
REMARK SMILES IDX 35 43 36 44 97 45 37 46 96 47 38 48 39 49 40 50 90 51 41 52
REMARK SMILES IDX 95 53 89 54 91 55 42 56 94 57 88 58 87 59 43 61 75 62 55 63
REMARK SMILES IDX 74 64 56 65 59 66 73 67 92 68 57 69 58 70 72 72 93 73 60 74
REMARK SMILES IDX 44 75 45 76 53 77 46 78 52 79 54 80 51 81 47 82 48 83 49 84
REMARK SMILES IDX 50 85 76 86 77 87 85 88 78 89 84 90 86 91 83 92 79 93 80 94
REMARK SMILES IDX 81 95 82 96 61 97 62 98 70 99 63 100 69 101 71 102 68 103
REMARK SMILES IDX 64 104 65 105 66 106 67 107
REMARK H PARENT 8 18 91 60 59 71
REMARK Flexibility Score: inf
ROOT
ATOM      1  C   UNL A   1      35.664  23.593  24.940  1.00  0.00     0.188 C 
ENDROOT
BRANCH   1   2
ATOM      2  C   UNL A   1      36.584  23.448  26.177  1.00  0.00     0.188 C 
BRANCH   2   3
ATOM      3  O   UNL A   1      37.842  24.083  26.113  1.00  0.00    -0.376 OA
BRANCH   3   4
ATOM      4  C   UNL A   1      38.986  23.388  26.569  1.00  0.00     0.202 C 
BRANCH   4   5
ATOM      5  C   UNL A   1      40.400  24.035  26.548  1.00  0.00     0.261 C 
BRANCH   5   6
ATOM      6  O   UNL A   1      41.505  23.109  26.507  1.00  0.00    -0.463 OA
BRANCH   6   7
ATOM      7  C   UNL A   1      41.816  22.391  27.635  1.00  0.00     0.310 C 
ATOM      8  O   UNL A   1      41.436  21.255  27.879  1.00  0.00    -0.252 OA
BRANCH   7   9
ATOM      9  C   UNL A   1      42.809  23.250  28.628  1.00  0.00     0.115 C 
ATOM     10  C   UNL A   1      42.641  25.364  29.086  1.00  0.00     0.096 C 
ATOM     11  C   UNL A   1      44.610  26.023  29.095  1.00  0.00     0.003 C 
ATOM     12  C   UNL A   1      45.409  26.050  27.690  1.00  0.00     0.005 C 
ATOM     13  C   UNL A   1      45.786  24.469  29.337  1.00  0.00     0.009 C 
ATOM     14  C   UNL A   1      44.877  23.124  28.176  1.00  0.00     0.004 C 
ATOM     15  C   UNL A   1      45.713  24.383  27.150  1.00  0.00     0.005 C 
BRANCH  10  16
ATOM     16  C   UNL A   1      42.037  26.723  28.148  1.00  0.00     0.229 C 
ATOM     17  N   UNL A   1      41.123  27.758  28.520  1.00  0.00    -0.317 N 
ATOM     18  H   UNL A   1      40.866  28.376  27.798  1.00  0.00     0.170 HD
ATOM     19  O   UNL A   1      42.390  26.741  26.954  1.00  0.00    -0.274 OA
BRANCH  17  20
ATOM     20  C   UNL A   1      40.539  28.014  29.778  1.00  0.00     0.110 A 
ATOM     21  C   UNL A   1      40.960  28.986  30.642  1.00  0.00     0.098 A 
ATOM     22  C   UNL A   1      40.004  29.398  31.605  1.00  0.00    -0.017 A 
ATOM     23  S   UNL A   1      39.043  27.384  30.307  1.00  0.00    -0.122 S 
ATOM     24  C   UNL A   1      38.920  28.558  31.588  1.00  0.00     0.011 A 
ATOM     25  C   UNL A   1      40.070  30.621  32.487  1.00  0.00     0.038 C 
ATOM     26  C   UNL A   1      37.779  28.716  32.560  1.00  0.00     0.047 C 
ATOM     27  C   UNL A   1      39.427  30.282  33.819  1.00  0.00     0.005 C 
ATOM     28  C   UNL A   1      37.966  29.933  33.527  1.00  0.00     0.006 C 
BRANCH  21  29
ATOM     29  C   UNL A   1      41.790  29.882  29.975  1.00  0.00     0.341 C 
ATOM     30  O   UNL A   1      41.014  30.475  29.207  1.00  0.00    -0.246 OA
BRANCH  29  31
ATOM     31  O   UNL A   1      43.579  30.089  29.800  1.00  0.00    -0.462 OA
BRANCH  31  32
ATOM     32  C   UNL A   1      45.107  29.600  28.819  1.00  0.00     0.230 C 
ATOM     33  C   UNL A   1      45.053  29.435  27.299  1.00  0.00     0.049 C 
ENDBRANCH  31  32
ENDBRANCH  29  31
ENDBRANCH  21  29
ENDBRANCH  17  20
ENDBRANCH  10  16
ENDBRANCH   7   9
ENDBRANCH   6   7
ENDBRANCH   5   6
ENDBRANCH   4   5
ENDBRANCH   3   4
ENDBRANCH   2   3
ENDBRANCH   1   2
BRANCH   1  34
ATOM     34  O   UNL A   1      34.998  24.806  24.631  1.00  0.00    -0.377 OA
BRANCH  34  35
ATOM     35  C   UNL A   1      33.962  25.249  25.490  1.00  0.00     0.188 C 
BRANCH  35  36
ATOM     36  C   UNL A   1      33.465  26.708  25.340  1.00  0.00     0.188 C 
BRANCH  36  37
ATOM     37  O   UNL A   1      34.056  27.631  26.230  1.00  0.00    -0.376 OA
BRANCH  37  38
ATOM     38  C   UNL A   1      33.293  28.690  26.773  1.00  0.00     0.202 C 
BRANCH  38  39
ATOM     39  C   UNL A   1      33.806  30.137  26.916  1.00  0.00     0.261 C 
BRANCH  39  40
ATOM     40  O   UNL A   1      33.799  30.757  28.208  1.00  0.00    -0.460 OA
BRANCH  40  41
ATOM     41  C   UNL A   1      33.859  32.108  28.262  1.00  0.00     0.338 C 
ATOM     42  O   UNL A   1      33.098  32.888  27.721  1.00  0.00    -0.246 OA
BRANCH  41  43
ATOM     43  C   UNL A   1      34.877  32.471  29.281  1.00  0.00     0.060 A 
ATOM     44  C   UNL A   1      34.845  33.742  29.883  1.00  0.00     0.016 A 
ATOM     45  C   UNL A   1      35.822  31.529  29.692  1.00  0.00     0.016 A 
ATOM     46  C   UNL A   1      35.762  34.077  30.881  1.00  0.00     0.010 A 
ATOM     47  C   UNL A   1      36.773  31.885  30.652  1.00  0.00     0.010 A 
ATOM     48  C   UNL A   1      36.767  33.170  31.229  1.00  0.00    -0.014 A 
BRANCH  48  49
ATOM     49  C   UNL A   1      37.952  33.638  31.990  1.00  0.00     0.031 A 
ATOM     50  C   UNL A   1      39.162  34.059  31.202  1.00  0.00     0.074 A 
ATOM     51  C   UNL A   1      37.960  33.706  33.333  1.00  0.00     0.049 A 
ATOM     52  N   UNL A   1      40.352  34.402  31.620  1.00  0.00    -0.248 NA
ATOM     53  C   UNL A   1      39.004  34.082  29.739  1.00  0.00     0.031 C 
ATOM     54  C   UNL A   1      36.828  33.397  34.202  1.00  0.00     0.029 A 
ATOM     55  N   UNL A   1      38.969  34.048  34.200  1.00  0.00    -0.354 N 
ATOM     56  C   UNL A   1      41.090  34.666  30.470  1.00  0.00     0.074 A 
ATOM     57  C   UNL A   1      40.224  34.401  29.342  1.00  0.00     0.031 C 
ATOM     58  C   UNL A   1      37.210  33.552  35.482  1.00  0.00     0.029 A 
ATOM     59  C   UNL A   1      38.625  33.921  35.525  1.00  0.00     0.049 A 
ATOM     60  H   UNL A   1      39.855  34.356  33.900  1.00  0.00     0.167 HD
ATOM     61  C   UNL A   1      42.371  35.097  30.369  1.00  0.00     0.034 A 
ATOM     62  C   UNL A   1      39.377  34.051  36.638  1.00  0.00     0.034 A 
ATOM     63  C   UNL A   1      43.223  35.337  31.506  1.00  0.00     0.049 A 
ATOM     64  C   UNL A   1      40.840  34.412  36.499  1.00  0.00     0.074 A 
ATOM     65  C   UNL A   1      44.534  35.779  31.519  1.00  0.00     0.029 A 
ATOM     66  N   UNL A   1      42.860  35.135  32.831  1.00  0.00    -0.354 N 
ATOM     67  N   UNL A   1      41.534  34.654  35.410  1.00  0.00    -0.248 NA
ATOM     68  C   UNL A   1      41.618  34.521  37.741  1.00  0.00     0.031 C 
ATOM     69  C   UNL A   1      44.992  35.749  32.839  1.00  0.00     0.029 A 
ATOM     70  C   UNL A   1      43.936  35.399  33.664  1.00  0.00     0.049 A 
ATOM     71  H   UNL A   1      41.968  34.847  33.134  1.00  0.00     0.167 HD
ATOM     72  C   UNL A   1      42.818  34.983  35.841  1.00  0.00     0.074 A 
ATOM     73  C   UNL A   1      42.798  34.916  37.287  1.00  0.00     0.031 C 
ATOM     74  C   UNL A   1      43.910  35.322  35.107  1.00  0.00     0.034 A 
BRANCH  61  75
ATOM     75  C   UNL A   1      42.935  35.270  28.978  1.00  0.00     0.023 A 
ATOM     76  C   UNL A   1      43.570  34.217  28.299  1.00  0.00     0.031 A 
ATOM     77  C   UNL A   1      42.871  36.521  28.338  1.00  0.00     0.131 A 
ATOM     78  C   UNL A   1      44.192  34.456  27.064  1.00  0.00     0.055 A 
ATOM     79  C   UNL A   1      43.405  36.725  27.066  1.00  0.00     0.041 A 
ATOM     80  F   UNL A   1      42.304  37.574  28.948  1.00  0.00    -0.206 F 
ATOM     81  C   UNL A   1      44.087  35.693  26.428  1.00  0.00     0.022 A 
BRANCH  78  82
ATOM     82  S   UNL A   1      45.292  33.179  26.393  1.00  0.00     0.124 S 
ATOM     83  O   UNL A   1      45.891  32.637  27.611  1.00  0.00    -0.237 OA
ATOM     84  O   UNL A   1      44.365  32.301  25.691  1.00  0.00    -0.237 OA
ATOM     85  O   UNL A   1      46.208  33.932  25.540  1.00  0.00    -0.744 OA
ENDBRANCH  78  82
ENDBRANCH  61  75
BRANCH  62  86
ATOM     86  C   UNL A   1      38.784  33.802  37.986  1.00  0.00     0.023 A 
ATOM     87  C   UNL A   1      38.205  32.563  38.305  1.00  0.00     0.031 A 
ATOM     88  C   UNL A   1      38.732  34.821  38.955  1.00  0.00     0.131 A 
ATOM     89  C   UNL A   1      37.561  32.390  39.541  1.00  0.00     0.055 A 
ATOM     90  C   UNL A   1      38.152  34.621  40.208  1.00  0.00     0.041 A 
ATOM     91  F   UNL A   1      39.255  36.031  38.699  1.00  0.00    -0.206 F 
ATOM     92  C   UNL A   1      37.549  33.402  40.503  1.00  0.00     0.022 A 
BRANCH  89  93
ATOM     93  S   UNL A   1      36.642  30.852  39.832  1.00  0.00     0.124 S 
ATOM     94  O   UNL A   1      37.666  30.006  40.432  1.00  0.00    -0.237 OA
ATOM     95  O   UNL A   1      35.576  31.300  40.722  1.00  0.00    -0.237 OA
ATOM     96  O   UNL A   1      36.209  30.457  38.494  1.00  0.00    -0.744 OA
ENDBRANCH  89  93
ENDBRANCH  62  86
BRANCH  74  97
ATOM     97  C   UNL A   1      45.165  35.711  35.856  1.00  0.00     0.023 A 
ATOM     98  C   UNL A   1      45.298  36.954  36.498  1.00  0.00     0.031 A 
ATOM     99  C   UNL A   1      46.244  34.811  35.934  1.00  0.00     0.131 A 
ATOM    100  C   UNL A   1      46.503  37.284  37.140  1.00  0.00     0.055 A 
ATOM    101  C   UNL A   1      47.409  35.114  36.641  1.00  0.00     0.041 A 
ATOM    102  F   UNL A   1      46.180  33.613  35.333  1.00  0.00    -0.206 F 
ATOM    103  C   UNL A   1      47.548  36.362  37.237  1.00  0.00     0.022 A 
BRANCH 100 104
ATOM    104  S   UNL A   1      46.732  38.977  37.748  1.00  0.00     0.124 S 
ATOM    105  O   UNL A   1      47.926  39.399  37.022  1.00  0.00    -0.237 OA
ATOM    106  O   UNL A   1      45.484  39.623  37.353  1.00  0.00    -0.237 OA
ATOM    107  O   UNL A   1      46.911  38.805  39.189  1.00  0.00    -0.744 OA
ENDBRANCH 100 104
ENDBRANCH  74  97
ENDBRANCH  48  49
ENDBRANCH  41  43
ENDBRANCH  40  41
ENDBRANCH  39  40
ENDBRANCH  38  39
ENDBRANCH  37  38
ENDBRANCH  36  37
ENDBRANCH  35  36
ENDBRANCH  34  35
ENDBRANCH   1  34
TORSDOF 28
ENDMDL
