MODEL 1
REMARK VINA RESULT:     -10.6      0.000      0.000
REMARK SMILES CCc1cc2c(C)cc(=O)oc2cc1O[C@H](C)C(=O)OCCOCCOCCOCCOC(=O)c1ccc(-c2c3nc(c(-c4cc(S(=O)(=O)[O-])ccc4F)c4ccc([nH]4)c(-c4cc(S(=O)(=O)[O-])ccc4F)c4nc(c(-c5cc(S(=O)(=O)[O-])ccc5F)c5ccc2[nH]5)C=C4)C=C3)cc1
REMARK SMILES IDX 26 1 25 2 24 3 23 4 22 5 21 6 20 7 18 8 19 9 16 10 17 11
REMARK SMILES IDX 15 12 14 13 3 14 4 15 5 16 13 17 6 18 12 19 7 20 8 21 11 22
REMARK SMILES IDX 9 23 10 24 2 25 1 26 27 27 28 28 29 29 30 30 31 31 32 32
REMARK SMILES IDX 33 33 34 34 35 35 36 36 97 37 37 38 96 39 38 40 39 41 40 42
REMARK SMILES IDX 90 43 41 44 95 45 89 46 91 47 42 48 94 49 88 50 87 51 43 53
REMARK SMILES IDX 75 54 55 55 74 56 56 57 59 58 73 59 92 60 57 61 58 62 72 64
REMARK SMILES IDX 93 65 60 66 44 67 45 68 53 69 46 70 52 71 54 72 51 73 47 74
REMARK SMILES IDX 48 75 49 76 50 77 76 78 77 79 85 80 78 81 84 82 86 83 83 84
REMARK SMILES IDX 79 85 80 86 81 87 82 88 61 89 62 90 70 91 63 92 69 93 71 94
REMARK SMILES IDX 68 95 64 96 65 97 66 98 67 99
REMARK H PARENT 91 52 59 63
REMARK Flexibility Score: inf
ROOT
ATOM      1  O   UNL A   1      40.027  21.465  27.185  1.00  0.00    -0.377 OA
ENDROOT
BRANCH   1   2
ATOM      2  C   UNL A   1      39.625  22.242  26.072  1.00  0.00     0.188 C 
BRANCH   2   3
ATOM      3  C   UNL A   1      38.103  22.466  25.930  1.00  0.00     0.188 C 
BRANCH   3   4
ATOM      4  O   UNL A   1      37.342  21.854  24.895  1.00  0.00    -0.376 OA
BRANCH   4   5
ATOM      5  C   UNL A   1      36.916  20.505  24.984  1.00  0.00     0.202 C 
BRANCH   5   6
ATOM      6  C   UNL A   1      35.432  20.186  24.903  1.00  0.00     0.261 C 
BRANCH   6   7
ATOM      7  O   UNL A   1      34.532  21.017  25.659  1.00  0.00    -0.461 OA
BRANCH   7   8
ATOM      8  C   UNL A   1      33.378  21.396  25.047  1.00  0.00     0.347 C 
ATOM      9  O   UNL A   1      32.364  20.705  24.974  1.00  0.00    -0.248 OA
BRANCH   8  10
ATOM     10  C   UNL A   1      33.530  22.697  24.248  1.00  0.00     0.279 C 
ATOM     11  C   UNL A   1      32.907  22.662  22.846  1.00  0.00     0.066 C 
BRANCH  10  12
ATOM     12  O   UNL A   1      33.276  23.949  24.906  1.00  0.00    -0.479 OA
BRANCH  12  13
ATOM     13  C   UNL A   1      32.152  24.669  24.600  1.00  0.00     0.127 A 
ATOM     14  C   UNL A   1      31.039  24.553  25.444  1.00  0.00    -0.005 A 
ATOM     15  C   UNL A   1      29.901  25.366  25.198  1.00  0.00     0.019 A 
ATOM     16  C   UNL A   1      29.866  26.276  24.131  1.00  0.00     0.021 A 
ATOM     17  C   UNL A   1      32.018  25.427  23.447  1.00  0.00     0.094 A 
ATOM     18  C   UNL A   1      28.744  27.157  23.785  1.00  0.00    -0.033 A 
ATOM     19  C   UNL A   1      30.960  26.307  23.290  1.00  0.00     0.142 A 
ATOM     20  C   UNL A   1      27.374  26.848  24.296  1.00  0.00     0.045 C 
ATOM     21  C   UNL A   1      28.974  28.179  22.946  1.00  0.00     0.098 A 
ATOM     22  O   UNL A   1      31.102  27.265  22.272  1.00  0.00    -0.423 OA
ATOM     23  C   UNL A   1      30.272  28.371  22.277  1.00  0.00     0.336 A 
ATOM     24  O   UNL A   1      30.539  29.396  21.665  1.00  0.00    -0.246 OA
BRANCH  14  25
ATOM     25  C   UNL A   1      31.070  23.561  26.588  1.00  0.00     0.036 C 
ATOM     26  C   UNL A   1      29.905  22.580  26.588  1.00  0.00     0.009 C 
ENDBRANCH  14  25
ENDBRANCH  12  13
ENDBRANCH  10  12
ENDBRANCH   8  10
ENDBRANCH   7   8
ENDBRANCH   6   7
ENDBRANCH   5   6
ENDBRANCH   4   5
ENDBRANCH   3   4
ENDBRANCH   2   3
ENDBRANCH   1   2
BRANCH   1  27
ATOM     27  C   UNL A   1      41.418  21.465  27.504  1.00  0.00     0.188 C 
BRANCH  27  28
ATOM     28  C   UNL A   1      42.345  20.553  26.674  1.00  0.00     0.188 C 
BRANCH  28  29
ATOM     29  O   UNL A   1      42.753  21.130  25.442  1.00  0.00    -0.376 OA
BRANCH  29  30
ATOM     30  C   UNL A   1      44.123  21.149  25.086  1.00  0.00     0.202 C 
BRANCH  30  31
ATOM     31  C   UNL A   1      44.684  22.391  24.373  1.00  0.00     0.261 C 
BRANCH  31  32
ATOM     32  O   UNL A   1      43.925  23.605  24.473  1.00  0.00    -0.460 OA
BRANCH  32  33
ATOM     33  C   UNL A   1      44.553  24.700  24.959  1.00  0.00     0.338 C 
ATOM     34  O   UNL A   1      45.657  25.095  24.650  1.00  0.00    -0.246 OA
BRANCH  33  35
ATOM     35  C   UNL A   1      43.575  25.465  25.767  1.00  0.00     0.060 A 
ATOM     36  C   UNL A   1      43.698  26.860  25.824  1.00  0.00     0.016 A 
ATOM     37  C   UNL A   1      42.565  24.815  26.480  1.00  0.00     0.016 A 
ATOM     38  C   UNL A   1      42.862  27.600  26.656  1.00  0.00     0.010 A 
ATOM     39  C   UNL A   1      41.745  25.555  27.337  1.00  0.00     0.010 A 
ATOM     40  C   UNL A   1      41.934  26.942  27.472  1.00  0.00    -0.014 A 
BRANCH  40  41
ATOM     41  C   UNL A   1      41.401  27.665  28.655  1.00  0.00     0.031 A 
ATOM     42  C   UNL A   1      42.183  27.569  29.941  1.00  0.00     0.074 A 
ATOM     43  C   UNL A   1      40.315  28.452  28.574  1.00  0.00     0.049 A 
ATOM     44  N   UNL A   1      41.944  28.109  31.106  1.00  0.00    -0.248 NA
ATOM     45  C   UNL A   1      43.403  26.745  29.899  1.00  0.00     0.031 C 
ATOM     46  C   UNL A   1      39.520  28.676  27.368  1.00  0.00     0.029 A 
ATOM     47  N   UNL A   1      39.700  29.220  29.531  1.00  0.00    -0.354 N 
ATOM     48  C   UNL A   1      42.983  27.694  31.935  1.00  0.00     0.074 A 
ATOM     49  C   UNL A   1      43.820  26.814  31.153  1.00  0.00     0.031 C 
ATOM     50  C   UNL A   1      38.521  29.529  27.659  1.00  0.00     0.029 A 
ATOM     51  C   UNL A   1      38.585  29.883  29.077  1.00  0.00     0.049 A 
ATOM     52  H   UNL A   1      40.029  29.291  30.457  1.00  0.00     0.167 HD
ATOM     53  C   UNL A   1      43.227  28.030  33.225  1.00  0.00     0.034 A 
ATOM     54  C   UNL A   1      37.709  30.668  29.738  1.00  0.00     0.034 A 
ATOM     55  C   UNL A   1      42.373  28.899  33.996  1.00  0.00     0.049 A 
ATOM     56  C   UNL A   1      37.944  30.943  31.207  1.00  0.00     0.074 A 
ATOM     57  C   UNL A   1      42.514  29.300  35.313  1.00  0.00     0.029 A 
ATOM     58  N   UNL A   1      41.212  29.498  33.522  1.00  0.00    -0.354 N 
ATOM     59  N   UNL A   1      38.925  30.539  31.984  1.00  0.00    -0.248 NA
ATOM     60  C   UNL A   1      36.958  31.795  31.884  1.00  0.00     0.031 C 
ATOM     61  C   UNL A   1      41.399  30.070  35.658  1.00  0.00     0.029 A 
ATOM     62  C   UNL A   1      40.610  30.235  34.530  1.00  0.00     0.049 A 
ATOM     63  H   UNL A   1      40.867  29.410  32.604  1.00  0.00     0.167 HD
ATOM     64  C   UNL A   1      38.693  31.126  33.227  1.00  0.00     0.074 A 
ATOM     65  C   UNL A   1      37.492  31.924  33.088  1.00  0.00     0.031 C 
ATOM     66  C   UNL A   1      39.406  31.020  34.379  1.00  0.00     0.034 A 
BRANCH  53  67
ATOM     67  C   UNL A   1      44.433  27.406  33.887  1.00  0.00     0.023 A 
ATOM     68  C   UNL A   1      44.458  26.048  34.255  1.00  0.00     0.031 A 
ATOM     69  C   UNL A   1      45.558  28.190  34.195  1.00  0.00     0.131 A 
ATOM     70  C   UNL A   1      45.549  25.537  34.973  1.00  0.00     0.055 A 
ATOM     71  C   UNL A   1      46.679  27.653  34.831  1.00  0.00     0.041 A 
ATOM     72  F   UNL A   1      45.581  29.499  33.897  1.00  0.00    -0.206 F 
ATOM     73  C   UNL A   1      46.673  26.323  35.239  1.00  0.00     0.022 A 
BRANCH  70  74
ATOM     74  S   UNL A   1      45.412  23.879  35.696  1.00  0.00     0.124 S 
ATOM     75  O   UNL A   1      44.087  23.933  36.308  1.00  0.00    -0.237 OA
ATOM     76  O   UNL A   1      45.543  23.014  34.529  1.00  0.00    -0.237 OA
ATOM     77  O   UNL A   1      46.526  23.823  36.641  1.00  0.00    -0.744 OA
ENDBRANCH  70  74
ENDBRANCH  53  67
BRANCH  54  78
ATOM     78  C   UNL A   1      36.511  31.228  29.046  1.00  0.00     0.023 A 
ATOM     79  C   UNL A   1      35.485  30.395  28.574  1.00  0.00     0.031 A 
ATOM     80  C   UNL A   1      36.417  32.605  28.772  1.00  0.00     0.131 A 
ATOM     81  C   UNL A   1      34.443  30.934  27.802  1.00  0.00     0.055 A 
ATOM     82  C   UNL A   1      35.344  33.146  28.061  1.00  0.00     0.041 A 
ATOM     83  F   UNL A   1      37.373  33.449  29.192  1.00  0.00    -0.206 F 
ATOM     84  C   UNL A   1      34.358  32.307  27.556  1.00  0.00     0.022 A 
BRANCH  81  85
ATOM     85  S   UNL A   1      33.258  29.801  27.025  1.00  0.00     0.124 S 
ATOM     86  O   UNL A   1      32.070  30.641  26.922  1.00  0.00    -0.237 OA
ATOM     87  O   UNL A   1      33.927  29.478  25.769  1.00  0.00    -0.237 OA
ATOM     88  O   UNL A   1      33.165  28.699  27.981  1.00  0.00    -0.744 OA
ENDBRANCH  81  85
ENDBRANCH  54  78
BRANCH  66  89
ATOM     89  C   UNL A   1      38.930  31.835  35.561  1.00  0.00     0.023 A 
ATOM     90  C   UNL A   1      38.362  31.236  36.699  1.00  0.00     0.031 A 
ATOM     91  C   UNL A   1      39.011  33.240  35.530  1.00  0.00     0.131 A 
ATOM     92  C   UNL A   1      37.819  32.037  37.715  1.00  0.00     0.055 A 
ATOM     93  C   UNL A   1      38.545  34.029  36.583  1.00  0.00     0.041 A 
ATOM     94  F   UNL A   1      39.541  33.873  34.471  1.00  0.00    -0.206 F 
ATOM     95  C   UNL A   1      37.925  33.428  37.675  1.00  0.00     0.022 A 
BRANCH  92  96
ATOM     96  S   UNL A   1      36.844  31.238  39.021  1.00  0.00     0.124 S 
ATOM     97  O   UNL A   1      36.606  29.915  38.453  1.00  0.00    -0.237 OA
ATOM     98  O   UNL A   1      37.753  31.287  40.162  1.00  0.00    -0.237 OA
ATOM     99  O   UNL A   1      35.661  32.088  39.133  1.00  0.00    -0.744 OA
ENDBRANCH  92  96
ENDBRANCH  66  89
ENDBRANCH  40  41
ENDBRANCH  33  35
ENDBRANCH  32  33
ENDBRANCH  31  32
ENDBRANCH  30  31
ENDBRANCH  29  30
ENDBRANCH  28  29
ENDBRANCH  27  28
ENDBRANCH   1  27
TORSDOF 26
ENDMDL
MODEL 2
REMARK VINA RESULT:     -10.0      1.908      2.174
REMARK SMILES CCc1cc2c(C)cc(=O)oc2cc1O[C@H](C)C(=O)OCCOCCOCCOCCOC(=O)c1ccc(-c2c3nc(c(-c4cc(S(=O)(=O)[O-])ccc4F)c4ccc([nH]4)c(-c4cc(S(=O)(=O)[O-])ccc4F)c4nc(c(-c5cc(S(=O)(=O)[O-])ccc5F)c5ccc2[nH]5)C=C4)C=C3)cc1
REMARK SMILES IDX 26 1 25 2 24 3 23 4 22 5 21 6 20 7 18 8 19 9 16 10 17 11
REMARK SMILES IDX 15 12 14 13 3 14 4 15 5 16 13 17 6 18 12 19 7 20 8 21 11 22
REMARK SMILES IDX 9 23 10 24 2 25 1 26 27 27 28 28 29 29 30 30 31 31 32 32
REMARK SMILES IDX 33 33 34 34 35 35 36 36 97 37 37 38 96 39 38 40 39 41 40 42
REMARK SMILES IDX 90 43 41 44 95 45 89 46 91 47 42 48 94 49 88 50 87 51 43 53
REMARK SMILES IDX 75 54 55 55 74 56 56 57 59 58 73 59 92 60 57 61 58 62 72 64
REMARK SMILES IDX 93 65 60 66 44 67 45 68 53 69 46 70 52 71 54 72 51 73 47 74
REMARK SMILES IDX 48 75 49 76 50 77 76 78 77 79 85 80 78 81 84 82 86 83 83 84
REMARK SMILES IDX 79 85 80 86 81 87 82 88 61 89 62 90 70 91 63 92 69 93 71 94
REMARK SMILES IDX 68 95 64 96 65 97 66 98 67 99
REMARK H PARENT 91 52 59 63
REMARK Flexibility Score: inf
ROOT
ATOM      1  O   UNL A   1      39.818  21.391  27.136  1.00  0.00    -0.377 OA
ENDROOT
BRANCH   1   2
ATOM      2  C   UNL A   1      39.408  22.023  25.938  1.00  0.00     0.188 C 
BRANCH   2   3
ATOM      3  C   UNL A   1      37.882  22.196  25.763  1.00  0.00     0.188 C 
BRANCH   3   4
ATOM      4  O   UNL A   1      37.152  21.490  24.768  1.00  0.00    -0.376 OA
BRANCH   4   5
ATOM      5  C   UNL A   1      36.739  20.148  24.960  1.00  0.00     0.202 C 
BRANCH   5   6
ATOM      6  C   UNL A   1      35.260  19.804  24.874  1.00  0.00     0.261 C 
BRANCH   6   7
ATOM      7  O   UNL A   1      34.346  20.602  25.650  1.00  0.00    -0.461 OA
BRANCH   7   8
ATOM      8  C   UNL A   1      33.149  20.901  25.079  1.00  0.00     0.347 C 
ATOM      9  O   UNL A   1      32.166  20.163  25.084  1.00  0.00    -0.248 OA
BRANCH   8  10
ATOM     10  C   UNL A   1      33.203  22.171  24.220  1.00  0.00     0.279 C 
ATOM     11  C   UNL A   1      32.384  22.101  22.925  1.00  0.00     0.066 C 
BRANCH  10  12
ATOM     12  O   UNL A   1      33.063  23.449  24.862  1.00  0.00    -0.479 OA
BRANCH  12  13
ATOM     13  C   UNL A   1      31.989  24.248  24.575  1.00  0.00     0.127 A 
ATOM     14  C   UNL A   1      30.865  24.175  25.411  1.00  0.00    -0.005 A 
ATOM     15  C   UNL A   1      29.782  25.065  25.187  1.00  0.00     0.019 A 
ATOM     16  C   UNL A   1      29.810  26.009  24.149  1.00  0.00     0.021 A 
ATOM     17  C   UNL A   1      31.909  25.049  23.447  1.00  0.00     0.094 A 
ATOM     18  C   UNL A   1      28.748  26.969  23.828  1.00  0.00    -0.033 A 
ATOM     19  C   UNL A   1      30.908  25.998  23.314  1.00  0.00     0.142 A 
ATOM     20  C   UNL A   1      27.358  26.731  24.323  1.00  0.00     0.045 C 
ATOM     21  C   UNL A   1      29.046  28.001  23.022  1.00  0.00     0.098 A 
ATOM     22  O   UNL A   1      31.116  26.976  22.327  1.00  0.00    -0.423 OA
ATOM     23  C   UNL A   1      30.357  28.132  22.365  1.00  0.00     0.336 A 
ATOM     24  O   UNL A   1      30.690  29.157  21.786  1.00  0.00    -0.246 OA
BRANCH  14  25
ATOM     25  C   UNL A   1      30.828  23.148  26.523  1.00  0.00     0.036 C 
ATOM     26  C   UNL A   1      29.442  22.926  27.114  1.00  0.00     0.009 C 
ENDBRANCH  14  25
ENDBRANCH  12  13
ENDBRANCH  10  12
ENDBRANCH   8  10
ENDBRANCH   7   8
ENDBRANCH   6   7
ENDBRANCH   5   6
ENDBRANCH   4   5
ENDBRANCH   3   4
ENDBRANCH   2   3
ENDBRANCH   1   2
BRANCH   1  27
ATOM     27  C   UNL A   1      41.209  21.441  27.449  1.00  0.00     0.188 C 
BRANCH  27  28
ATOM     28  C   UNL A   1      42.139  20.426  26.751  1.00  0.00     0.188 C 
BRANCH  28  29
ATOM     29  O   UNL A   1      42.630  20.877  25.498  1.00  0.00    -0.376 OA
BRANCH  29  30
ATOM     30  C   UNL A   1      44.010  20.772  25.196  1.00  0.00     0.202 C 
BRANCH  30  31
ATOM     31  C   UNL A   1      44.766  22.034  24.747  1.00  0.00     0.261 C 
BRANCH  31  32
ATOM     32  O   UNL A   1      44.152  23.301  25.023  1.00  0.00    -0.460 OA
BRANCH  32  33
ATOM     33  C   UNL A   1      44.834  24.173  25.799  1.00  0.00     0.338 C 
ATOM     34  O   UNL A   1      46.031  24.369  25.785  1.00  0.00    -0.246 OA
BRANCH  33  35
ATOM     35  C   UNL A   1      43.847  25.015  26.514  1.00  0.00     0.060 A 
ATOM     36  C   UNL A   1      43.959  26.409  26.419  1.00  0.00     0.016 A 
ATOM     37  C   UNL A   1      42.838  24.439  27.291  1.00  0.00     0.016 A 
ATOM     38  C   UNL A   1      43.115  27.229  27.161  1.00  0.00     0.010 A 
ATOM     39  C   UNL A   1      42.009  25.262  28.059  1.00  0.00     0.010 A 
ATOM     40  C   UNL A   1      42.187  26.657  28.041  1.00  0.00    -0.014 A 
BRANCH  40  41
ATOM     41  C   UNL A   1      41.644  27.501  29.136  1.00  0.00     0.031 A 
ATOM     42  C   UNL A   1      42.393  27.514  30.444  1.00  0.00     0.074 A 
ATOM     43  C   UNL A   1      40.578  28.299  28.953  1.00  0.00     0.049 A 
ATOM     44  N   UNL A   1      42.140  28.168  31.546  1.00  0.00    -0.248 NA
ATOM     45  C   UNL A   1      43.596  26.666  30.512  1.00  0.00     0.031 C 
ATOM     46  C   UNL A   1      39.815  28.421  27.712  1.00  0.00     0.029 A 
ATOM     47  N   UNL A   1      39.958  29.167  29.816  1.00  0.00    -0.354 N 
ATOM     48  C   UNL A   1      43.150  27.814  32.437  1.00  0.00     0.074 A 
ATOM     49  C   UNL A   1      43.986  26.846  31.763  1.00  0.00     0.031 C 
ATOM     50  C   UNL A   1      38.830  29.318  27.895  1.00  0.00     0.029 A 
ATOM     51  C   UNL A   1      38.868  29.805  29.273  1.00  0.00     0.049 A 
ATOM     52  H   UNL A   1      40.267  29.320  30.739  1.00  0.00     0.167 HD
ATOM     53  C   UNL A   1      43.372  28.269  33.694  1.00  0.00     0.034 A 
ATOM     54  C   UNL A   1      37.996  30.667  29.834  1.00  0.00     0.034 A 
ATOM     55  C   UNL A   1      42.521  29.224  34.356  1.00  0.00     0.049 A 
ATOM     56  C   UNL A   1      38.203  31.078  31.275  1.00  0.00     0.074 A 
ATOM     57  C   UNL A   1      42.640  29.747  35.632  1.00  0.00     0.029 A 
ATOM     58  N   UNL A   1      41.385  29.798  33.799  1.00  0.00    -0.354 N 
ATOM     59  N   UNL A   1      39.157  30.732  32.111  1.00  0.00    -0.248 NA
ATOM     60  C   UNL A   1      37.221  32.011  31.842  1.00  0.00     0.031 C 
ATOM     61  C   UNL A   1      41.535  30.570  35.874  1.00  0.00     0.029 A 
ATOM     62  C   UNL A   1      40.777  30.641  34.716  1.00  0.00     0.049 A 
ATOM     63  H   UNL A   1      41.059  29.629  32.885  1.00  0.00     0.167 HD
ATOM     64  C   UNL A   1      38.910  31.440  33.286  1.00  0.00     0.074 A 
ATOM     65  C   UNL A   1      37.731  32.245  33.041  1.00  0.00     0.031 C 
ATOM     66  C   UNL A   1      39.594  31.431  34.460  1.00  0.00     0.034 A 
BRANCH  53  67
ATOM     67  C   UNL A   1      44.549  27.687  34.442  1.00  0.00     0.023 A 
ATOM     68  C   UNL A   1      45.837  28.244  34.351  1.00  0.00     0.031 A 
ATOM     69  C   UNL A   1      44.389  26.530  35.225  1.00  0.00     0.131 A 
ATOM     70  C   UNL A   1      46.923  27.604  34.967  1.00  0.00     0.055 A 
ATOM     71  C   UNL A   1      45.458  25.948  35.908  1.00  0.00     0.041 A 
ATOM     72  F   UNL A   1      43.190  25.933  35.326  1.00  0.00    -0.206 F 
ATOM     73  C   UNL A   1      46.738  26.476  35.768  1.00  0.00     0.022 A 
BRANCH  70  74
ATOM     74  S   UNL A   1      48.601  28.171  34.574  1.00  0.00     0.124 S 
ATOM     75  O   UNL A   1      49.417  27.173  35.260  1.00  0.00    -0.237 OA
ATOM     76  O   UNL A   1      48.618  28.119  33.117  1.00  0.00    -0.237 OA
ATOM     77  O   UNL A   1      48.654  29.513  35.151  1.00  0.00    -0.744 OA
ENDBRANCH  70  74
ENDBRANCH  53  67
BRANCH  54  78
ATOM     78  C   UNL A   1      36.827  31.183  29.062  1.00  0.00     0.023 A 
ATOM     79  C   UNL A   1      35.792  30.328  28.647  1.00  0.00     0.031 A 
ATOM     80  C   UNL A   1      36.770  32.528  28.654  1.00  0.00     0.131 A 
ATOM     81  C   UNL A   1      34.781  30.811  27.802  1.00  0.00     0.055 A 
ATOM     82  C   UNL A   1      35.726  33.019  27.867  1.00  0.00     0.041 A 
ATOM     83  F   UNL A   1      37.736  33.389  29.013  1.00  0.00    -0.206 F 
ATOM     84  C   UNL A   1      34.733  32.155  27.422  1.00  0.00     0.022 A 
BRANCH  81  85
ATOM     85  S   UNL A   1      33.588  29.632  27.109  1.00  0.00     0.124 S 
ATOM     86  O   UNL A   1      34.119  28.360  27.587  1.00  0.00    -0.237 OA
ATOM     87  O   UNL A   1      32.338  30.075  27.717  1.00  0.00    -0.237 OA
ATOM     88  O   UNL A   1      33.691  29.852  25.668  1.00  0.00    -0.744 OA
ENDBRANCH  81  85
ENDBRANCH  54  78
BRANCH  66  89
ATOM     89  C   UNL A   1      39.109  32.366  35.547  1.00  0.00     0.023 A 
ATOM     90  C   UNL A   1      39.621  33.667  35.692  1.00  0.00     0.031 A 
ATOM     91  C   UNL A   1      38.146  31.932  36.476  1.00  0.00     0.131 A 
ATOM     92  C   UNL A   1      39.235  34.453  36.789  1.00  0.00     0.055 A 
ATOM     93  C   UNL A   1      37.703  32.750  37.516  1.00  0.00     0.041 A 
ATOM     94  F   UNL A   1      37.618  30.699  36.392  1.00  0.00    -0.206 F 
ATOM     95  C   UNL A   1      38.265  34.012  37.690  1.00  0.00     0.022 A 
BRANCH  92  96
ATOM     96  S   UNL A   1      40.127  36.002  37.102  1.00  0.00     0.124 S 
ATOM     97  O   UNL A   1      41.509  35.543  37.186  1.00  0.00    -0.237 OA
ATOM     98  O   UNL A   1      39.792  36.797  35.925  1.00  0.00    -0.237 OA
ATOM     99  O   UNL A   1      39.553  36.480  38.358  1.00  0.00    -0.744 OA
ENDBRANCH  92  96
ENDBRANCH  66  89
ENDBRANCH  40  41
ENDBRANCH  33  35
ENDBRANCH  32  33
ENDBRANCH  31  32
ENDBRANCH  30  31
ENDBRANCH  29  30
ENDBRANCH  28  29
ENDBRANCH  27  28
ENDBRANCH   1  27
TORSDOF 26
ENDMDL
MODEL 3
REMARK VINA RESULT:      -9.6      2.074      2.334
REMARK SMILES CCc1cc2c(C)cc(=O)oc2cc1O[C@H](C)C(=O)OCCOCCOCCOCCOC(=O)c1ccc(-c2c3nc(c(-c4cc(S(=O)(=O)[O-])ccc4F)c4ccc([nH]4)c(-c4cc(S(=O)(=O)[O-])ccc4F)c4nc(c(-c5cc(S(=O)(=O)[O-])ccc5F)c5ccc2[nH]5)C=C4)C=C3)cc1
REMARK SMILES IDX 26 1 25 2 24 3 23 4 22 5 21 6 20 7 18 8 19 9 16 10 17 11
REMARK SMILES IDX 15 12 14 13 3 14 4 15 5 16 13 17 6 18 12 19 7 20 8 21 11 22
REMARK SMILES IDX 9 23 10 24 2 25 1 26 27 27 28 28 29 29 30 30 31 31 32 32
REMARK SMILES IDX 33 33 34 34 35 35 36 36 97 37 37 38 96 39 38 40 39 41 40 42
REMARK SMILES IDX 90 43 41 44 95 45 89 46 91 47 42 48 94 49 88 50 87 51 43 53
REMARK SMILES IDX 75 54 55 55 74 56 56 57 59 58 73 59 92 60 57 61 58 62 72 64
REMARK SMILES IDX 93 65 60 66 44 67 45 68 53 69 46 70 52 71 54 72 51 73 47 74
REMARK SMILES IDX 48 75 49 76 50 77 76 78 77 79 85 80 78 81 84 82 86 83 83 84
REMARK SMILES IDX 79 85 80 86 81 87 82 88 61 89 62 90 70 91 63 92 69 93 71 94
REMARK SMILES IDX 68 95 64 96 65 97 66 98 67 99
REMARK H PARENT 91 52 59 63
REMARK Flexibility Score: inf
ROOT
ATOM      1  O   UNL A   1      39.768  21.307  27.032  1.00  0.00    -0.377 OA
ENDROOT
BRANCH   1   2
ATOM      2  C   UNL A   1      39.316  21.797  25.783  1.00  0.00     0.188 C 
BRANCH   2   3
ATOM      3  C   UNL A   1      37.782  21.840  25.599  1.00  0.00     0.188 C 
BRANCH   3   4
ATOM      4  O   UNL A   1      37.117  21.054  24.619  1.00  0.00    -0.376 OA
BRANCH   4   5
ATOM      5  C   UNL A   1      36.782  19.697  24.857  1.00  0.00     0.202 C 
BRANCH   5   6
ATOM      6  C   UNL A   1      35.334  19.253  24.723  1.00  0.00     0.261 C 
BRANCH   6   7
ATOM      7  O   UNL A   1      34.346  19.968  25.489  1.00  0.00    -0.461 OA
BRANCH   7   8
ATOM      8  C   UNL A   1      33.191  20.299  24.852  1.00  0.00     0.347 C 
ATOM      9  O   UNL A   1      32.221  19.554  24.729  1.00  0.00    -0.248 OA
BRANCH   8  10
ATOM     10  C   UNL A   1      33.291  21.629  24.095  1.00  0.00     0.279 C 
ATOM     11  C   UNL A   1      32.436  21.706  22.823  1.00  0.00     0.066 C 
BRANCH  10  12
ATOM     12  O   UNL A   1      33.239  22.857  24.839  1.00  0.00    -0.479 OA
BRANCH  12  13
ATOM     13  C   UNL A   1      32.333  23.827  24.501  1.00  0.00     0.127 A 
ATOM     14  C   UNL A   1      31.063  23.785  25.095  1.00  0.00    -0.005 A 
ATOM     15  C   UNL A   1      30.146  24.836  24.830  1.00  0.00     0.019 A 
ATOM     16  C   UNL A   1      30.479  25.909  23.990  1.00  0.00     0.021 A 
ATOM     17  C   UNL A   1      32.565  24.786  23.529  1.00  0.00     0.094 A 
ATOM     18  C   UNL A   1      29.610  27.039  23.648  1.00  0.00    -0.033 A 
ATOM     19  C   UNL A   1      31.716  25.871  23.379  1.00  0.00     0.142 A 
ATOM     20  C   UNL A   1      28.132  26.921  23.835  1.00  0.00     0.045 C 
ATOM     21  C   UNL A   1      30.169  28.128  23.096  1.00  0.00     0.098 A 
ATOM     22  O   UNL A   1      32.218  26.946  22.626  1.00  0.00    -0.423 OA
ATOM     23  C   UNL A   1      31.592  28.176  22.720  1.00  0.00     0.336 A 
ATOM     24  O   UNL A   1      32.140  29.220  22.393  1.00  0.00    -0.246 OA
BRANCH  14  25
ATOM     25  C   UNL A   1      30.696  22.621  25.991  1.00  0.00     0.036 C 
ATOM     26  C   UNL A   1      29.722  22.981  27.105  1.00  0.00     0.009 C 
ENDBRANCH  14  25
ENDBRANCH  12  13
ENDBRANCH  10  12
ENDBRANCH   8  10
ENDBRANCH   7   8
ENDBRANCH   6   7
ENDBRANCH   5   6
ENDBRANCH   4   5
ENDBRANCH   3   4
ENDBRANCH   2   3
ENDBRANCH   1   2
BRANCH   1  27
ATOM     27  C   UNL A   1      41.170  21.378  27.285  1.00  0.00     0.188 C 
BRANCH  27  28
ATOM     28  C   UNL A   1      42.059  20.245  26.731  1.00  0.00     0.188 C 
BRANCH  28  29
ATOM     29  O   UNL A   1      42.666  20.559  25.486  1.00  0.00    -0.376 OA
BRANCH  29  30
ATOM     30  C   UNL A   1      44.027  20.241  25.260  1.00  0.00     0.202 C 
BRANCH  30  31
ATOM     31  C   UNL A   1      45.024  21.388  25.022  1.00  0.00     0.261 C 
BRANCH  31  32
ATOM     32  O   UNL A   1      44.577  22.719  25.321  1.00  0.00    -0.460 OA
BRANCH  32  33
ATOM     33  C   UNL A   1      45.218  23.389  26.305  1.00  0.00     0.338 C 
ATOM     34  O   UNL A   1      46.410  23.388  26.522  1.00  0.00    -0.246 OA
BRANCH  33  35
ATOM     35  C   UNL A   1      44.243  24.309  26.938  1.00  0.00     0.060 A 
ATOM     36  C   UNL A   1      44.459  25.690  26.834  1.00  0.00     0.016 A 
ATOM     37  C   UNL A   1      43.145  23.817  27.648  1.00  0.00     0.016 A 
ATOM     38  C   UNL A   1      43.623  26.579  27.505  1.00  0.00     0.010 A 
ATOM     39  C   UNL A   1      42.323  24.708  28.345  1.00  0.00     0.010 A 
ATOM     40  C   UNL A   1      42.599  26.087  28.323  1.00  0.00    -0.014 A 
BRANCH  40  41
ATOM     41  C   UNL A   1      42.040  26.984  29.366  1.00  0.00     0.031 A 
ATOM     42  C   UNL A   1      42.782  27.078  30.676  1.00  0.00     0.074 A 
ATOM     43  C   UNL A   1      40.967  27.759  29.134  1.00  0.00     0.049 A 
ATOM     44  N   UNL A   1      42.515  27.791  31.738  1.00  0.00    -0.248 NA
ATOM     45  C   UNL A   1      43.993  26.249  30.798  1.00  0.00     0.031 C 
ATOM     46  C   UNL A   1      40.210  27.803  27.884  1.00  0.00     0.029 A 
ATOM     47  N   UNL A   1      40.333  28.667  29.944  1.00  0.00    -0.354 N 
ATOM     48  C   UNL A   1      43.524  27.498  32.653  1.00  0.00     0.074 A 
ATOM     49  C   UNL A   1      44.373  26.503  32.038  1.00  0.00     0.031 C 
ATOM     50  C   UNL A   1      39.214  28.698  28.011  1.00  0.00     0.029 A 
ATOM     51  C   UNL A   1      39.240  29.262  29.360  1.00  0.00     0.049 A 
ATOM     52  H   UNL A   1      40.635  28.875  30.858  1.00  0.00     0.167 HD
ATOM     53  C   UNL A   1      43.733  28.024  33.883  1.00  0.00     0.034 A 
ATOM     54  C   UNL A   1      38.355  30.144  29.868  1.00  0.00     0.034 A 
ATOM     55  C   UNL A   1      42.868  29.006  34.487  1.00  0.00     0.049 A 
ATOM     56  C   UNL A   1      38.549  30.638  31.285  1.00  0.00     0.074 A 
ATOM     57  C   UNL A   1      42.974  29.600  35.733  1.00  0.00     0.029 A 
ATOM     58  N   UNL A   1      41.729  29.535  33.893  1.00  0.00    -0.354 N 
ATOM     59  N   UNL A   1      39.502  30.348  32.143  1.00  0.00    -0.248 NA
ATOM     60  C   UNL A   1      37.553  31.590  31.793  1.00  0.00     0.031 C 
ATOM     61  C   UNL A   1      41.859  30.423  35.922  1.00  0.00     0.029 A 
ATOM     62  C   UNL A   1      41.106  30.421  34.758  1.00  0.00     0.049 A 
ATOM     63  H   UNL A   1      41.411  29.312  32.988  1.00  0.00     0.167 HD
ATOM     64  C   UNL A   1      39.240  31.119  33.276  1.00  0.00     0.074 A 
ATOM     65  C   UNL A   1      38.054  31.895  32.980  1.00  0.00     0.031 C 
ATOM     66  C   UNL A   1      39.917  31.182  34.452  1.00  0.00     0.034 A 
BRANCH  53  67
ATOM     67  C   UNL A   1      44.911  27.497  34.669  1.00  0.00     0.023 A 
ATOM     68  C   UNL A   1      44.803  26.371  35.505  1.00  0.00     0.031 A 
ATOM     69  C   UNL A   1      46.151  28.158  34.617  1.00  0.00     0.131 A 
ATOM     70  C   UNL A   1      45.888  25.986  36.308  1.00  0.00     0.055 A 
ATOM     71  C   UNL A   1      47.253  27.717  35.351  1.00  0.00     0.041 A 
ATOM     72  F   UNL A   1      46.308  29.258  33.862  1.00  0.00    -0.206 F 
ATOM     73  C   UNL A   1      47.121  26.634  36.215  1.00  0.00     0.022 A 
BRANCH  70  74
ATOM     74  S   UNL A   1      45.617  24.733  37.590  1.00  0.00     0.124 S 
ATOM     75  O   UNL A   1      45.421  23.528  36.788  1.00  0.00    -0.237 OA
ATOM     76  O   UNL A   1      46.854  24.796  38.359  1.00  0.00    -0.237 OA
ATOM     77  O   UNL A   1      44.424  25.209  38.288  1.00  0.00    -0.744 OA
ENDBRANCH  70  74
ENDBRANCH  53  67
BRANCH  54  78
ATOM     78  C   UNL A   1      37.185  30.603  29.061  1.00  0.00     0.023 A 
ATOM     79  C   UNL A   1      36.834  31.961  28.992  1.00  0.00     0.031 A 
ATOM     80  C   UNL A   1      36.348  29.676  28.414  1.00  0.00     0.131 A 
ATOM     81  C   UNL A   1      35.649  32.347  28.345  1.00  0.00     0.055 A 
ATOM     82  C   UNL A   1      35.206  30.071  27.716  1.00  0.00     0.041 A 
ATOM     83  F   UNL A   1      36.629  28.363  28.454  1.00  0.00    -0.206 F 
ATOM     84  C   UNL A   1      34.841  31.412  27.694  1.00  0.00     0.022 A 
BRANCH  81  85
ATOM     85  S   UNL A   1      35.116  34.077  28.465  1.00  0.00     0.124 S 
ATOM     86  O   UNL A   1      33.864  33.949  29.202  1.00  0.00    -0.237 OA
ATOM     87  O   UNL A   1      36.227  34.687  29.186  1.00  0.00    -0.237 OA
ATOM     88  O   UNL A   1      34.980  34.488  27.069  1.00  0.00    -0.744 OA
ENDBRANCH  81  85
ENDBRANCH  54  78
BRANCH  66  89
ATOM     89  C   UNL A   1      39.416  32.171  35.482  1.00  0.00     0.023 A 
ATOM     90  C   UNL A   1      39.922  33.480  35.566  1.00  0.00     0.031 A 
ATOM     91  C   UNL A   1      38.442  31.783  36.421  1.00  0.00     0.131 A 
ATOM     92  C   UNL A   1      39.520  34.321  36.615  1.00  0.00     0.055 A 
ATOM     93  C   UNL A   1      37.984  32.652  37.411  1.00  0.00     0.041 A 
ATOM     94  F   UNL A   1      37.920  30.545  36.395  1.00  0.00    -0.206 F 
ATOM     95  C   UNL A   1      38.540  33.924  37.526  1.00  0.00     0.022 A 
BRANCH  92  96
ATOM     96  S   UNL A   1      40.403  35.887  36.857  1.00  0.00     0.124 S 
ATOM     97  O   UNL A   1      40.155  36.158  38.269  1.00  0.00    -0.237 OA
ATOM     98  O   UNL A   1      41.774  35.528  36.510  1.00  0.00    -0.237 OA
ATOM     99  O   UNL A   1      39.745  36.800  35.924  1.00  0.00    -0.744 OA
ENDBRANCH  92  96
ENDBRANCH  66  89
ENDBRANCH  40  41
ENDBRANCH  33  35
ENDBRANCH  32  33
ENDBRANCH  31  32
ENDBRANCH  30  31
ENDBRANCH  29  30
ENDBRANCH  28  29
ENDBRANCH  27  28
ENDBRANCH   1  27
TORSDOF 26
ENDMDL
