MODEL 1
REMARK VINA RESULT:      -9.9      0.000      0.000
REMARK SMILES [H]/N=c1\ccc2c(C)c(CC(=O)OCCOCCOCCOCCOC(=O)c3ccc(-c4c5nc(c(-c6cc(S(=O)(=O)[O-])ccc6F)c6ccc([nH]6)c(-c6cc(S(=O)(=O)[O-])ccc6F)c6nc(c(-c7cc(S(=O)(=O)[O-])ccc7F)c7ccc4[nH]7)C=C6)C=C5)cc3)c(O)oc-2c1
REMARK SMILES IDX 20 1 19 2 18 3 17 4 16 5 15 6 14 7 13 8 11 9 12 10 10 11
REMARK SMILES IDX 9 12 8 13 7 14 6 15 5 16 94 17 91 18 4 19 95 20 93 21 3 22
REMARK SMILES IDX 2 23 1 24 92 25 21 27 22 28 23 29 24 30 25 31 26 32 27 33
REMARK SMILES IDX 28 34 29 35 90 36 30 37 89 38 31 39 32 40 33 41 83 42 34 43
REMARK SMILES IDX 88 44 82 45 84 46 35 47 87 48 81 49 80 50 36 52 68 53 48 54
REMARK SMILES IDX 67 55 49 56 52 57 66 58 85 59 50 60 51 61 65 63 86 64 53 65
REMARK SMILES IDX 37 66 38 67 46 68 39 69 45 70 47 71 44 72 40 73 41 74 42 75
REMARK SMILES IDX 43 76 69 77 70 78 78 79 71 80 77 81 79 82 76 83 72 84 73 85
REMARK SMILES IDX 74 86 75 87 54 88 55 89 63 90 56 91 62 92 64 93 61 94 57 95
REMARK SMILES IDX 58 96 59 97 60 98
REMARK H PARENT 92 26 84 51 52 62
REMARK Flexibility Score: inf
ROOT
ATOM      1  C   UNL A   1      39.077  20.931  25.747  1.00  0.00     0.188 C 
ENDROOT
BRANCH   1   2
ATOM      2  O   UNL A   1      38.370  22.148  25.613  1.00  0.00    -0.377 OA
BRANCH   2   3
ATOM      3  C   UNL A   1      36.989  22.066  25.907  1.00  0.00     0.188 C 
BRANCH   3   4
ATOM      4  C   UNL A   1      36.252  20.953  25.134  1.00  0.00     0.188 C 
BRANCH   4   5
ATOM      5  O   UNL A   1      34.927  21.130  24.643  1.00  0.00    -0.376 OA
BRANCH   5   6
ATOM      6  C   UNL A   1      33.997  20.070  24.760  1.00  0.00     0.202 C 
BRANCH   6   7
ATOM      7  C   UNL A   1      32.511  20.385  24.499  1.00  0.00     0.261 C 
BRANCH   7   8
ATOM      8  O   UNL A   1      32.191  21.718  24.029  1.00  0.00    -0.463 OA
BRANCH   8   9
ATOM      9  C   UNL A   1      31.436  22.490  24.849  1.00  0.00     0.310 C 
ATOM     10  O   UNL A   1      30.953  22.098  25.908  1.00  0.00    -0.252 OA
BRANCH   9  11
ATOM     11  C   UNL A   1      31.153  23.915  24.334  1.00  0.00     0.166 C 
BRANCH  11  12
ATOM     12  C   UNL A   1      31.463  25.167  25.154  1.00  0.00     0.048 A 
ATOM     13  C   UNL A   1      33.840  25.337  24.128  1.00  0.00     0.046 C 
ATOM     14  C   UNL A   1      32.767  25.885  25.042  1.00  0.00    -0.029 A 
ATOM     15  C   UNL A   1      32.970  27.024  25.764  1.00  0.00     0.021 A 
ATOM     16  C   UNL A   1      34.185  27.838  25.651  1.00  0.00     0.014 A 
ATOM     17  C   UNL A   1      31.956  27.459  26.727  1.00  0.00     0.140 A 
ATOM     18  C   UNL A   1      30.600  25.577  26.113  1.00  0.00     0.286 A 
ATOM     19  C   UNL A   1      34.321  29.000  26.307  1.00  0.00     0.028 A 
ATOM     20  C   UNL A   1      32.088  28.597  27.423  1.00  0.00     0.075 A 
ATOM     21  O   UNL A   1      30.857  26.651  26.943  1.00  0.00    -0.425 OA
ATOM     22  C   UNL A   1      33.259  29.480  27.225  1.00  0.00     0.058 A 
ATOM     23  N   UNL A   1      33.331  30.609  27.848  1.00  0.00    -0.301 NA
ATOM     24  H   UNL A   1      34.111  31.196  27.713  1.00  0.00     0.188 HD
BRANCH  18  25
ATOM     25  O   UNL A   1      29.406  24.930  26.352  1.00  0.00    -0.480 OA
ATOM     26  H   UNL A   1      29.284  24.453  27.149  1.00  0.00     0.297 HD
ENDBRANCH  18  25
ENDBRANCH  11  12
ENDBRANCH   9  11
ENDBRANCH   8   9
ENDBRANCH   7   8
ENDBRANCH   6   7
ENDBRANCH   5   6
ENDBRANCH   4   5
ENDBRANCH   3   4
ENDBRANCH   2   3
ENDBRANCH   1   2
BRANCH   1  27
ATOM     27  C   UNL A   1      40.409  21.058  26.496  1.00  0.00     0.188 C 
BRANCH  27  28
ATOM     28  O   UNL A   1      40.654  19.942  27.357  1.00  0.00    -0.376 OA
BRANCH  28  29
ATOM     29  C   UNL A   1      41.965  19.397  27.343  1.00  0.00     0.202 C 
BRANCH  29  30
ATOM     30  C   UNL A   1      42.311  18.568  26.097  1.00  0.00     0.261 C 
BRANCH  30  31
ATOM     31  O   UNL A   1      42.709  19.308  24.935  1.00  0.00    -0.460 OA
BRANCH  31  32
ATOM     32  C   UNL A   1      44.017  19.666  24.844  1.00  0.00     0.338 C 
ATOM     33  O   UNL A   1      44.895  19.041  24.309  1.00  0.00    -0.246 OA
BRANCH  32  34
ATOM     34  C   UNL A   1      44.114  21.077  25.309  1.00  0.00     0.060 A 
ATOM     35  C   UNL A   1      44.333  21.386  26.656  1.00  0.00     0.016 A 
ATOM     36  C   UNL A   1      43.889  22.101  24.381  1.00  0.00     0.016 A 
ATOM     37  C   UNL A   1      44.352  22.723  27.065  1.00  0.00     0.010 A 
ATOM     38  C   UNL A   1      43.885  23.436  24.797  1.00  0.00     0.010 A 
ATOM     39  C   UNL A   1      44.143  23.759  26.137  1.00  0.00    -0.014 A 
BRANCH  39  40
ATOM     40  C   UNL A   1      44.436  25.165  26.510  1.00  0.00     0.031 A 
ATOM     41  C   UNL A   1      43.395  26.102  27.040  1.00  0.00     0.074 A 
ATOM     42  C   UNL A   1      45.697  25.597  26.309  1.00  0.00     0.049 A 
ATOM     43  N   UNL A   1      43.542  27.337  27.447  1.00  0.00    -0.248 NA
ATOM     44  C   UNL A   1      42.016  25.602  27.116  1.00  0.00     0.031 C 
ATOM     45  C   UNL A   1      46.771  24.772  25.753  1.00  0.00     0.029 A 
ATOM     46  N   UNL A   1      46.288  26.813  26.531  1.00  0.00    -0.354 N 
ATOM     47  C   UNL A   1      42.283  27.760  27.855  1.00  0.00     0.074 A 
ATOM     48  C   UNL A   1      41.374  26.662  27.594  1.00  0.00     0.031 C 
ATOM     49  C   UNL A   1      47.892  25.502  25.687  1.00  0.00     0.029 A 
ATOM     50  C   UNL A   1      47.614  26.852  26.168  1.00  0.00     0.049 A 
ATOM     51  H   UNL A   1      45.809  27.584  26.913  1.00  0.00     0.167 HD
ATOM     52  C   UNL A   1      41.934  28.947  28.413  1.00  0.00     0.034 A 
ATOM     53  C   UNL A   1      48.511  27.857  26.216  1.00  0.00     0.034 A 
ATOM     54  C   UNL A   1      42.862  30.033  28.639  1.00  0.00     0.049 A 
ATOM     55  C   UNL A   1      48.096  29.171  26.819  1.00  0.00     0.074 A 
ATOM     56  C   UNL A   1      42.616  31.255  29.243  1.00  0.00     0.029 A 
ATOM     57  N   UNL A   1      44.200  30.042  28.265  1.00  0.00    -0.354 N 
ATOM     58  N   UNL A   1      46.930  29.517  27.311  1.00  0.00    -0.248 NA
ATOM     59  C   UNL A   1      49.116  30.225  26.899  1.00  0.00     0.031 C 
ATOM     60  C   UNL A   1      43.776  32.026  29.164  1.00  0.00     0.029 A 
ATOM     61  C   UNL A   1      44.779  31.260  28.592  1.00  0.00     0.049 A 
ATOM     62  H   UNL A   1      44.670  29.293  27.832  1.00  0.00     0.167 HD
ATOM     63  C   UNL A   1      47.080  30.817  27.781  1.00  0.00     0.074 A 
ATOM     64  C   UNL A   1      48.460  31.186  27.538  1.00  0.00     0.031 C 
ATOM     65  C   UNL A   1      46.157  31.628  28.357  1.00  0.00     0.034 A 
BRANCH  52  66
ATOM     66  C   UNL A   1      40.506  29.155  28.864  1.00  0.00     0.023 A 
ATOM     67  C   UNL A   1      40.161  29.031  30.225  1.00  0.00     0.031 A 
ATOM     68  C   UNL A   1      39.463  29.301  27.930  1.00  0.00     0.131 A 
ATOM     69  C   UNL A   1      38.812  29.013  30.606  1.00  0.00     0.055 A 
ATOM     70  C   UNL A   1      38.123  29.326  28.320  1.00  0.00     0.041 A 
ATOM     71  F   UNL A   1      39.734  29.411  26.619  1.00  0.00    -0.206 F 
ATOM     72  C   UNL A   1      37.792  29.167  29.662  1.00  0.00     0.022 A 
BRANCH  69  73
ATOM     73  S   UNL A   1      38.322  28.710  32.327  1.00  0.00     0.124 S 
ATOM     74  O   UNL A   1      36.921  29.126  32.316  1.00  0.00    -0.237 OA
ATOM     75  O   UNL A   1      38.544  27.273  32.461  1.00  0.00    -0.237 OA
ATOM     76  O   UNL A   1      39.215  29.563  33.102  1.00  0.00    -0.744 OA
ENDBRANCH  69  73
ENDBRANCH  52  66
BRANCH  53  77
ATOM     77  C   UNL A   1      49.902  27.593  25.747  1.00  0.00     0.023 A 
ATOM     78  C   UNL A   1      50.250  27.763  24.393  1.00  0.00     0.031 A 
ATOM     79  C   UNL A   1      50.855  27.026  26.609  1.00  0.00     0.131 A 
ATOM     80  C   UNL A   1      51.485  27.295  23.928  1.00  0.00     0.055 A 
ATOM     81  C   UNL A   1      52.115  26.633  26.155  1.00  0.00     0.041 A 
ATOM     82  F   UNL A   1      50.563  26.825  27.903  1.00  0.00    -0.206 F 
ATOM     83  C   UNL A   1      52.427  26.748  24.804  1.00  0.00     0.022 A 
BRANCH  80  84
ATOM     84  S   UNL A   1      51.846  27.239  22.150  1.00  0.00     0.124 S 
ATOM     85  O   UNL A   1      52.299  28.601  21.888  1.00  0.00    -0.237 OA
ATOM     86  O   UNL A   1      52.879  26.207  22.089  1.00  0.00    -0.237 OA
ATOM     87  O   UNL A   1      50.568  26.872  21.549  1.00  0.00    -0.744 OA
ENDBRANCH  80  84
ENDBRANCH  53  77
BRANCH  65  88
ATOM     88  C   UNL A   1      46.576  33.019  28.778  1.00  0.00     0.023 A 
ATOM     89  C   UNL A   1      46.538  34.078  27.850  1.00  0.00     0.031 A 
ATOM     90  C   UNL A   1      47.156  33.261  30.035  1.00  0.00     0.131 A 
ATOM     91  C   UNL A   1      47.116  35.313  28.174  1.00  0.00     0.055 A 
ATOM     92  C   UNL A   1      47.680  34.510  30.374  1.00  0.00     0.041 A 
ATOM     93  F   UNL A   1      47.227  32.283  30.954  1.00  0.00    -0.206 F 
ATOM     94  C   UNL A   1      47.676  35.537  29.435  1.00  0.00     0.022 A 
BRANCH  91  95
ATOM     95  S   UNL A   1      47.249  36.639  26.942  1.00  0.00     0.124 S 
ATOM     96  O   UNL A   1      47.778  35.922  25.783  1.00  0.00    -0.237 OA
ATOM     97  O   UNL A   1      45.863  37.082  26.819  1.00  0.00    -0.237 OA
ATOM     98  O   UNL A   1      48.164  37.597  27.552  1.00  0.00    -0.744 OA
ENDBRANCH  91  95
ENDBRANCH  65  88
ENDBRANCH  39  40
ENDBRANCH  32  34
ENDBRANCH  31  32
ENDBRANCH  30  31
ENDBRANCH  29  30
ENDBRANCH  28  29
ENDBRANCH  27  28
ENDBRANCH   1  27
TORSDOF 25
ENDMDL
MODEL 2
REMARK VINA RESULT:      -9.8      3.875      9.121
REMARK SMILES [H]/N=c1\ccc2c(C)c(CC(=O)OCCOCCOCCOCCOC(=O)c3ccc(-c4c5nc(c(-c6cc(S(=O)(=O)[O-])ccc6F)c6ccc([nH]6)c(-c6cc(S(=O)(=O)[O-])ccc6F)c6nc(c(-c7cc(S(=O)(=O)[O-])ccc7F)c7ccc4[nH]7)C=C6)C=C5)cc3)c(O)oc-2c1
REMARK SMILES IDX 20 1 19 2 18 3 17 4 16 5 15 6 14 7 13 8 11 9 12 10 10 11
REMARK SMILES IDX 9 12 8 13 7 14 6 15 5 16 94 17 91 18 4 19 95 20 93 21 3 22
REMARK SMILES IDX 2 23 1 24 92 25 21 27 22 28 23 29 24 30 25 31 26 32 27 33
REMARK SMILES IDX 28 34 29 35 90 36 30 37 89 38 31 39 32 40 33 41 83 42 34 43
REMARK SMILES IDX 88 44 82 45 84 46 35 47 87 48 81 49 80 50 36 52 68 53 48 54
REMARK SMILES IDX 67 55 49 56 52 57 66 58 85 59 50 60 51 61 65 63 86 64 53 65
REMARK SMILES IDX 37 66 38 67 46 68 39 69 45 70 47 71 44 72 40 73 41 74 42 75
REMARK SMILES IDX 43 76 69 77 70 78 78 79 71 80 77 81 79 82 76 83 72 84 73 85
REMARK SMILES IDX 74 86 75 87 54 88 55 89 63 90 56 91 62 92 64 93 61 94 57 95
REMARK SMILES IDX 58 96 59 97 60 98
REMARK H PARENT 92 26 84 51 52 62
REMARK Flexibility Score: inf
ROOT
ATOM      1  C   UNL A   1      33.991  25.436  23.087  1.00  0.00     0.188 C 
ENDROOT
BRANCH   1   2
ATOM      2  O   UNL A   1      33.679  25.739  21.742  1.00  0.00    -0.377 OA
BRANCH   2   3
ATOM      3  C   UNL A   1      32.308  25.631  21.413  1.00  0.00     0.188 C 
BRANCH   3   4
ATOM      4  C   UNL A   1      31.412  26.661  22.131  1.00  0.00     0.188 C 
BRANCH   4   5
ATOM      5  O   UNL A   1      30.628  26.313  23.267  1.00  0.00    -0.376 OA
BRANCH   5   6
ATOM      6  C   UNL A   1      30.902  26.925  24.513  1.00  0.00     0.202 C 
BRANCH   6   7
ATOM      7  C   UNL A   1      30.462  26.184  25.791  1.00  0.00     0.261 C 
BRANCH   7   8
ATOM      8  O   UNL A   1      30.104  24.787  25.654  1.00  0.00    -0.463 OA
BRANCH   8   9
ATOM      9  C   UNL A   1      30.825  23.897  26.381  1.00  0.00     0.310 C 
ATOM     10  O   UNL A   1      30.486  23.482  27.486  1.00  0.00    -0.252 OA
BRANCH   9  11
ATOM     11  C   UNL A   1      32.166  23.468  25.754  1.00  0.00     0.166 C 
BRANCH  11  12
ATOM     12  C   UNL A   1      32.492  22.014  25.416  1.00  0.00     0.048 A 
ATOM     13  C   UNL A   1      31.418  22.242  23.066  1.00  0.00     0.046 C 
ATOM     14  C   UNL A   1      32.153  21.411  24.094  1.00  0.00    -0.029 A 
ATOM     15  C   UNL A   1      32.511  20.121  23.833  1.00  0.00     0.021 A 
ATOM     16  C   UNL A   1      32.293  19.478  22.532  1.00  0.00     0.014 A 
ATOM     17  C   UNL A   1      33.114  19.310  24.892  1.00  0.00     0.140 A 
ATOM     18  C   UNL A   1      32.981  21.192  26.375  1.00  0.00     0.286 A 
ATOM     19  C   UNL A   1      32.734  18.237  22.275  1.00  0.00     0.028 A 
ATOM     20  C   UNL A   1      33.526  18.054  24.669  1.00  0.00     0.075 A 
ATOM     21  O   UNL A   1      33.221  19.849  26.159  1.00  0.00    -0.425 OA
ATOM     22  C   UNL A   1      33.415  17.443  23.327  1.00  0.00     0.058 A 
ATOM     23  N   UNL A   1      33.888  16.260  23.113  1.00  0.00    -0.301 NA
ATOM     24  H   UNL A   1      33.813  15.855  22.217  1.00  0.00     0.188 HD
BRANCH  18  25
ATOM     25  O   UNL A   1      33.249  21.632  27.654  1.00  0.00    -0.480 OA
ATOM     26  H   UNL A   1      32.656  21.436  28.351  1.00  0.00     0.297 HD
ENDBRANCH  18  25
ENDBRANCH  11  12
ENDBRANCH   9  11
ENDBRANCH   8   9
ENDBRANCH   7   8
ENDBRANCH   6   7
ENDBRANCH   5   6
ENDBRANCH   4   5
ENDBRANCH   3   4
ENDBRANCH   2   3
ENDBRANCH   1   2
BRANCH   1  27
ATOM     27  C   UNL A   1      34.774  24.130  23.271  1.00  0.00     0.188 C 
BRANCH  27  28
ATOM     28  O   UNL A   1      35.221  23.951  24.618  1.00  0.00    -0.376 OA
BRANCH  28  29
ATOM     29  C   UNL A   1      36.073  22.844  24.870  1.00  0.00     0.202 C 
BRANCH  29  30
ATOM     30  C   UNL A   1      37.143  23.079  25.946  1.00  0.00     0.261 C 
BRANCH  30  31
ATOM     31  O   UNL A   1      38.500  22.830  25.554  1.00  0.00    -0.460 OA
BRANCH  31  32
ATOM     32  C   UNL A   1      39.397  22.576  26.542  1.00  0.00     0.338 C 
ATOM     33  O   UNL A   1      39.790  21.494  26.892  1.00  0.00    -0.246 OA
BRANCH  32  34
ATOM     34  C   UNL A   1      39.983  23.885  26.943  1.00  0.00     0.060 A 
ATOM     35  C   UNL A   1      40.070  24.950  26.041  1.00  0.00     0.016 A 
ATOM     36  C   UNL A   1      40.533  24.003  28.226  1.00  0.00     0.016 A 
ATOM     37  C   UNL A   1      40.686  26.142  26.435  1.00  0.00     0.010 A 
ATOM     38  C   UNL A   1      41.168  25.187  28.609  1.00  0.00     0.010 A 
ATOM     39  C   UNL A   1      41.227  26.275  27.727  1.00  0.00    -0.014 A 
BRANCH  39  40
ATOM     40  C   UNL A   1      41.625  27.612  28.234  1.00  0.00     0.031 A 
ATOM     41  C   UNL A   1      43.053  28.054  28.336  1.00  0.00     0.074 A 
ATOM     42  C   UNL A   1      40.634  28.423  28.654  1.00  0.00     0.049 A 
ATOM     43  N   UNL A   1      43.522  29.214  28.716  1.00  0.00    -0.248 NA
ATOM     44  C   UNL A   1      44.087  27.074  27.978  1.00  0.00     0.031 C 
ATOM     45  C   UNL A   1      39.215  28.065  28.638  1.00  0.00     0.029 A 
ATOM     46  N   UNL A   1      40.655  29.689  29.177  1.00  0.00    -0.354 N 
ATOM     47  C   UNL A   1      44.905  29.121  28.620  1.00  0.00     0.074 A 
ATOM     48  C   UNL A   1      45.199  27.767  28.196  1.00  0.00     0.031 C 
ATOM     49  C   UNL A   1      38.500  29.090  29.119  1.00  0.00     0.029 A 
ATOM     50  C   UNL A   1      39.408  30.168  29.503  1.00  0.00     0.049 A 
ATOM     51  H   UNL A   1      41.483  30.206  29.307  1.00  0.00     0.167 HD
ATOM     52  C   UNL A   1      45.831  30.088  28.847  1.00  0.00     0.034 A 
ATOM     53  C   UNL A   1      39.029  31.341  30.048  1.00  0.00     0.034 A 
ATOM     54  C   UNL A   1      45.505  31.424  29.294  1.00  0.00     0.049 A 
ATOM     55  C   UNL A   1      40.075  32.390  30.310  1.00  0.00     0.074 A 
ATOM     56  C   UNL A   1      46.367  32.488  29.503  1.00  0.00     0.029 A 
ATOM     57  N   UNL A   1      44.232  31.882  29.611  1.00  0.00    -0.354 N 
ATOM     58  N   UNL A   1      41.370  32.329  30.102  1.00  0.00    -0.248 NA
ATOM     59  C   UNL A   1      39.617  33.673  30.857  1.00  0.00     0.031 C 
ATOM     60  C   UNL A   1      45.631  33.556  30.018  1.00  0.00     0.029 A 
ATOM     61  C   UNL A   1      44.293  33.197  30.048  1.00  0.00     0.049 A 
ATOM     62  H   UNL A   1      43.407  31.350  29.535  1.00  0.00     0.167 HD
ATOM     63  C   UNL A   1      41.878  33.570  30.468  1.00  0.00     0.074 A 
ATOM     64  C   UNL A   1      40.746  34.372  30.887  1.00  0.00     0.031 C 
ATOM     65  C   UNL A   1      43.165  34.001  30.460  1.00  0.00     0.034 A 
BRANCH  52  66
ATOM     66  C   UNL A   1      47.289  29.781  28.591  1.00  0.00     0.023 A 
ATOM     67  C   UNL A   1      48.127  29.360  29.644  1.00  0.00     0.031 A 
ATOM     68  C   UNL A   1      47.885  30.072  27.350  1.00  0.00     0.131 A 
ATOM     69  C   UNL A   1      49.512  29.284  29.447  1.00  0.00     0.055 A 
ATOM     70  C   UNL A   1      49.261  29.953  27.147  1.00  0.00     0.041 A 
ATOM     71  F   UNL A   1      47.135  30.488  26.316  1.00  0.00    -0.206 F 
ATOM     72  C   UNL A   1      50.083  29.571  28.203  1.00  0.00     0.022 A 
BRANCH  69  73
ATOM     73  S   UNL A   1      50.639  28.889  30.814  1.00  0.00     0.124 S 
ATOM     74  O   UNL A   1      50.016  29.598  31.929  1.00  0.00    -0.237 OA
ATOM     75  O   UNL A   1      50.548  27.432  30.875  1.00  0.00    -0.237 OA
ATOM     76  O   UNL A   1      51.922  29.425  30.378  1.00  0.00    -0.744 OA
ENDBRANCH  69  73
ENDBRANCH  52  66
BRANCH  53  77
ATOM     77  C   UNL A   1      37.576  31.581  30.285  1.00  0.00     0.023 A 
ATOM     78  C   UNL A   1      36.778  32.195  29.300  1.00  0.00     0.031 A 
ATOM     79  C   UNL A   1      37.005  31.341  31.544  1.00  0.00     0.131 A 
ATOM     80  C   UNL A   1      35.483  32.619  29.620  1.00  0.00     0.055 A 
ATOM     81  C   UNL A   1      35.686  31.695  31.833  1.00  0.00     0.041 A 
ATOM     82  F   UNL A   1      37.732  30.777  32.521  1.00  0.00    -0.206 F 
ATOM     83  C   UNL A   1      34.925  32.357  30.875  1.00  0.00     0.022 A 
BRANCH  80  84
ATOM     84  S   UNL A   1      34.537  33.661  28.472  1.00  0.00     0.124 S 
ATOM     85  O   UNL A   1      35.451  33.774  27.340  1.00  0.00    -0.237 OA
ATOM     86  O   UNL A   1      33.347  32.845  28.243  1.00  0.00    -0.237 OA
ATOM     87  O   UNL A   1      34.311  34.889  29.227  1.00  0.00    -0.744 OA
ENDBRANCH  80  84
ENDBRANCH  53  77
BRANCH  65  88
ATOM     88  C   UNL A   1      43.460  35.411  30.920  1.00  0.00     0.023 A 
ATOM     89  C   UNL A   1      43.472  36.469  29.989  1.00  0.00     0.031 A 
ATOM     90  C   UNL A   1      43.880  35.682  32.233  1.00  0.00     0.131 A 
ATOM     91  C   UNL A   1      43.944  37.731  30.371  1.00  0.00     0.055 A 
ATOM     92  C   UNL A   1      44.296  36.956  32.624  1.00  0.00     0.041 A 
ATOM     93  F   UNL A   1      43.898  34.707  33.158  1.00  0.00    -0.206 F 
ATOM     94  C   UNL A   1      44.345  37.983  31.687  1.00  0.00     0.022 A 
BRANCH  91  95
ATOM     95  S   UNL A   1      44.146  39.064  29.156  1.00  0.00     0.124 S 
ATOM     96  O   UNL A   1      45.162  39.901  29.792  1.00  0.00    -0.237 OA
ATOM     97  O   UNL A   1      44.592  38.335  27.973  1.00  0.00    -0.237 OA
ATOM     98  O   UNL A   1      42.818  39.661  29.063  1.00  0.00    -0.744 OA
ENDBRANCH  91  95
ENDBRANCH  65  88
ENDBRANCH  39  40
ENDBRANCH  32  34
ENDBRANCH  31  32
ENDBRANCH  30  31
ENDBRANCH  29  30
ENDBRANCH  28  29
ENDBRANCH  27  28
ENDBRANCH   1  27
TORSDOF 25
ENDMDL
MODEL 3
REMARK VINA RESULT:      -9.8      4.002      6.330
REMARK SMILES [H]/N=c1\ccc2c(C)c(CC(=O)OCCOCCOCCOCCOC(=O)c3ccc(-c4c5nc(c(-c6cc(S(=O)(=O)[O-])ccc6F)c6ccc([nH]6)c(-c6cc(S(=O)(=O)[O-])ccc6F)c6nc(c(-c7cc(S(=O)(=O)[O-])ccc7F)c7ccc4[nH]7)C=C6)C=C5)cc3)c(O)oc-2c1
REMARK SMILES IDX 20 1 19 2 18 3 17 4 16 5 15 6 14 7 13 8 11 9 12 10 10 11
REMARK SMILES IDX 9 12 8 13 7 14 6 15 5 16 94 17 91 18 4 19 95 20 93 21 3 22
REMARK SMILES IDX 2 23 1 24 92 25 21 27 22 28 23 29 24 30 25 31 26 32 27 33
REMARK SMILES IDX 28 34 29 35 90 36 30 37 89 38 31 39 32 40 33 41 83 42 34 43
REMARK SMILES IDX 88 44 82 45 84 46 35 47 87 48 81 49 80 50 36 52 68 53 48 54
REMARK SMILES IDX 67 55 49 56 52 57 66 58 85 59 50 60 51 61 65 63 86 64 53 65
REMARK SMILES IDX 37 66 38 67 46 68 39 69 45 70 47 71 44 72 40 73 41 74 42 75
REMARK SMILES IDX 43 76 69 77 70 78 78 79 71 80 77 81 79 82 76 83 72 84 73 85
REMARK SMILES IDX 74 86 75 87 54 88 55 89 63 90 56 91 62 92 64 93 61 94 57 95
REMARK SMILES IDX 58 96 59 97 60 98
REMARK H PARENT 92 26 84 51 52 62
REMARK Flexibility Score: inf
ROOT
ATOM      1  C   UNL A   1      34.039  25.304  23.012  1.00  0.00     0.188 C 
ENDROOT
BRANCH   1   2
ATOM      2  O   UNL A   1      33.682  25.617  21.680  1.00  0.00    -0.377 OA
BRANCH   2   3
ATOM      3  C   UNL A   1      32.298  25.821  21.471  1.00  0.00     0.188 C 
BRANCH   3   4
ATOM      4  C   UNL A   1      31.674  26.873  22.412  1.00  0.00     0.188 C 
BRANCH   4   5
ATOM      5  O   UNL A   1      30.885  26.500  23.537  1.00  0.00    -0.376 OA
BRANCH   5   6
ATOM      6  C   UNL A   1      31.237  26.981  24.821  1.00  0.00     0.202 C 
BRANCH   6   7
ATOM      7  C   UNL A   1      30.725  26.199  26.047  1.00  0.00     0.261 C 
BRANCH   7   8
ATOM      8  O   UNL A   1      30.227  24.858  25.815  1.00  0.00    -0.463 OA
BRANCH   8   9
ATOM      9  C   UNL A   1      30.881  23.847  26.438  1.00  0.00     0.310 C 
ATOM     10  O   UNL A   1      30.496  23.322  27.480  1.00  0.00    -0.252 OA
BRANCH   9  11
ATOM     11  C   UNL A   1      32.209  23.420  25.784  1.00  0.00     0.166 C 
BRANCH  11  12
ATOM     12  C   UNL A   1      32.532  21.965  25.444  1.00  0.00     0.048 A 
ATOM     13  C   UNL A   1      31.384  22.175  23.128  1.00  0.00     0.046 C 
ATOM     14  C   UNL A   1      32.154  21.353  24.136  1.00  0.00    -0.029 A 
ATOM     15  C   UNL A   1      32.510  20.064  23.870  1.00  0.00     0.021 A 
ATOM     16  C   UNL A   1      32.255  19.412  22.581  1.00  0.00     0.014 A 
ATOM     17  C   UNL A   1      33.150  19.261  24.915  1.00  0.00     0.140 A 
ATOM     18  C   UNL A   1      33.055  21.150  26.391  1.00  0.00     0.286 A 
ATOM     19  C   UNL A   1      32.694  18.173  22.316  1.00  0.00     0.028 A 
ATOM     20  C   UNL A   1      33.562  18.007  24.685  1.00  0.00     0.075 A 
ATOM     21  O   UNL A   1      33.295  19.807  26.174  1.00  0.00    -0.425 OA
ATOM     22  C   UNL A   1      33.412  17.387  23.350  1.00  0.00     0.058 A 
ATOM     23  N   UNL A   1      33.883  16.206  23.128  1.00  0.00    -0.301 NA
ATOM     24  H   UNL A   1      33.783  15.796  22.237  1.00  0.00     0.188 HD
BRANCH  18  25
ATOM     25  O   UNL A   1      33.361  21.599  27.659  1.00  0.00    -0.480 OA
ATOM     26  H   UNL A   1      32.866  21.299  28.394  1.00  0.00     0.297 HD
ENDBRANCH  18  25
ENDBRANCH  11  12
ENDBRANCH   9  11
ENDBRANCH   8   9
ENDBRANCH   7   8
ENDBRANCH   6   7
ENDBRANCH   5   6
ENDBRANCH   4   5
ENDBRANCH   3   4
ENDBRANCH   2   3
ENDBRANCH   1   2
BRANCH   1  27
ATOM     27  C   UNL A   1      34.714  23.937  23.176  1.00  0.00     0.188 C 
BRANCH  27  28
ATOM     28  O   UNL A   1      35.239  23.746  24.493  1.00  0.00    -0.376 OA
BRANCH  28  29
ATOM     29  C   UNL A   1      36.054  22.602  24.699  1.00  0.00     0.202 C 
BRANCH  29  30
ATOM     30  C   UNL A   1      37.074  22.728  25.841  1.00  0.00     0.261 C 
BRANCH  30  31
ATOM     31  O   UNL A   1      38.452  22.570  25.479  1.00  0.00    -0.460 OA
BRANCH  31  32
ATOM     32  C   UNL A   1      39.354  22.469  26.490  1.00  0.00     0.338 C 
ATOM     33  O   UNL A   1      39.990  21.492  26.788  1.00  0.00    -0.246 OA
BRANCH  32  34
ATOM     34  C   UNL A   1      39.588  23.848  27.001  1.00  0.00     0.060 A 
ATOM     35  C   UNL A   1      39.723  24.104  28.370  1.00  0.00     0.016 A 
ATOM     36  C   UNL A   1      39.581  24.908  26.085  1.00  0.00     0.016 A 
ATOM     37  C   UNL A   1      39.877  25.421  28.816  1.00  0.00     0.010 A 
ATOM     38  C   UNL A   1      39.711  26.224  26.536  1.00  0.00     0.010 A 
ATOM     39  C   UNL A   1      39.886  26.489  27.901  1.00  0.00    -0.014 A 
BRANCH  39  40
ATOM     40  C   UNL A   1      40.322  27.839  28.337  1.00  0.00     0.031 A 
ATOM     41  C   UNL A   1      39.368  28.892  28.811  1.00  0.00     0.074 A 
ATOM     42  C   UNL A   1      41.640  28.111  28.248  1.00  0.00     0.049 A 
ATOM     43  N   UNL A   1      39.634  30.089  29.264  1.00  0.00    -0.248 NA
ATOM     44  C   UNL A   1      37.935  28.570  28.764  1.00  0.00     0.031 C 
ATOM     45  C   UNL A   1      42.643  27.167  27.756  1.00  0.00     0.029 A 
ATOM     46  N   UNL A   1      42.358  29.238  28.551  1.00  0.00    -0.354 N 
ATOM     47  C   UNL A   1      38.409  30.662  29.584  1.00  0.00     0.074 A 
ATOM     48  C   UNL A   1      37.394  29.694  29.220  1.00  0.00     0.031 C 
ATOM     49  C   UNL A   1      43.848  27.749  27.798  1.00  0.00     0.029 A 
ATOM     50  C   UNL A   1      43.704  29.114  28.295  1.00  0.00     0.049 A 
ATOM     51  H   UNL A   1      41.951  30.056  28.917  1.00  0.00     0.167 HD
ATOM     52  C   UNL A   1      38.168  31.874  30.147  1.00  0.00     0.034 A 
ATOM     53  C   UNL A   1      44.713  29.995  28.443  1.00  0.00     0.034 A 
ATOM     54  C   UNL A   1      39.203  32.828  30.476  1.00  0.00     0.049 A 
ATOM     55  C   UNL A   1      44.419  31.340  29.050  1.00  0.00     0.074 A 
ATOM     56  C   UNL A   1      39.064  34.059  31.095  1.00  0.00     0.029 A 
ATOM     57  N   UNL A   1      40.558  32.673  30.210  1.00  0.00    -0.354 N 
ATOM     58  N   UNL A   1      43.269  31.822  29.458  1.00  0.00    -0.248 NA
ATOM     59  C   UNL A   1      45.553  32.253  29.240  1.00  0.00     0.031 C 
ATOM     60  C   UNL A   1      40.314  34.678  31.130  1.00  0.00     0.029 A 
ATOM     61  C   UNL A   1      41.256  33.800  30.617  1.00  0.00     0.049 A 
ATOM     62  H   UNL A   1      40.964  31.878  29.793  1.00  0.00     0.167 HD
ATOM     63  C   UNL A   1      43.542  33.083  29.977  1.00  0.00     0.074 A 
ATOM     64  C   UNL A   1      44.973  33.278  29.853  1.00  0.00     0.031 C 
ATOM     65  C   UNL A   1      42.684  33.995  30.501  1.00  0.00     0.034 A 
BRANCH  52  66
ATOM     66  C   UNL A   1      36.745  32.253  30.490  1.00  0.00     0.023 A 
ATOM     67  C   UNL A   1      35.938  32.926  29.550  1.00  0.00     0.031 A 
ATOM     68  C   UNL A   1      36.249  32.104  31.799  1.00  0.00     0.131 A 
ATOM     69  C   UNL A   1      34.703  33.460  29.944  1.00  0.00     0.055 A 
ATOM     70  C   UNL A   1      35.000  32.600  32.174  1.00  0.00     0.041 A 
ATOM     71  F   UNL A   1      36.981  31.481  32.737  1.00  0.00    -0.206 F 
ATOM     72  C   UNL A   1      34.227  33.295  31.249  1.00  0.00     0.022 A 
BRANCH  69  73
ATOM     73  S   UNL A   1      33.702  34.458  28.807  1.00  0.00     0.124 S 
ATOM     74  O   UNL A   1      33.297  33.464  27.814  1.00  0.00    -0.237 OA
ATOM     75  O   UNL A   1      32.632  34.937  29.679  1.00  0.00    -0.237 OA
ATOM     76  O   UNL A   1      34.626  35.476  28.324  1.00  0.00    -0.744 OA
ENDBRANCH  69  73
ENDBRANCH  52  66
BRANCH  53  77
ATOM     77  C   UNL A   1      46.094  29.565  28.078  1.00  0.00     0.023 A 
ATOM     78  C   UNL A   1      46.923  28.929  29.023  1.00  0.00     0.031 A 
ATOM     79  C   UNL A   1      46.652  29.916  26.839  1.00  0.00     0.131 A 
ATOM     80  C   UNL A   1      48.281  28.740  28.741  1.00  0.00     0.055 A 
ATOM     81  C   UNL A   1      47.989  29.654  26.534  1.00  0.00     0.041 A 
ATOM     82  F   UNL A   1      45.908  30.542  25.914  1.00  0.00    -0.206 F 
ATOM     83  C   UNL A   1      48.816  29.082  27.496  1.00  0.00     0.022 A 
BRANCH  80  84
ATOM     84  S   UNL A   1      49.429  28.189  30.035  1.00  0.00     0.124 S 
ATOM     85  O   UNL A   1      48.750  27.010  30.563  1.00  0.00    -0.237 OA
ATOM     86  O   UNL A   1      50.642  27.927  29.264  1.00  0.00    -0.237 OA
ATOM     87  O   UNL A   1      49.505  29.332  30.939  1.00  0.00    -0.744 OA
ENDBRANCH  80  84
ENDBRANCH  53  77
BRANCH  65  88
ATOM     88  C   UNL A   1      43.239  35.312  30.994  1.00  0.00     0.023 A 
ATOM     89  C   UNL A   1      43.576  36.324  30.074  1.00  0.00     0.031 A 
ATOM     90  C   UNL A   1      43.578  35.506  32.344  1.00  0.00     0.131 A 
ATOM     91  C   UNL A   1      44.277  37.457  30.506  1.00  0.00     0.055 A 
ATOM     92  C   UNL A   1      44.227  36.663  32.780  1.00  0.00     0.041 A 
ATOM     93  F   UNL A   1      43.289  34.568  33.262  1.00  0.00    -0.206 F 
ATOM     94  C   UNL A   1      44.594  37.637  31.856  1.00  0.00     0.022 A 
BRANCH  91  95
ATOM     95  S   UNL A   1      44.887  38.691  29.323  1.00  0.00     0.124 S 
ATOM     96  O   UNL A   1      44.146  38.342  28.113  1.00  0.00    -0.237 OA
ATOM     97  O   UNL A   1      44.489  39.945  29.956  1.00  0.00    -0.237 OA
ATOM     98  O   UNL A   1      46.324  38.444  29.265  1.00  0.00    -0.744 OA
ENDBRANCH  91  95
ENDBRANCH  65  88
ENDBRANCH  39  40
ENDBRANCH  32  34
ENDBRANCH  31  32
ENDBRANCH  30  31
ENDBRANCH  29  30
ENDBRANCH  28  29
ENDBRANCH  27  28
ENDBRANCH   1  27
TORSDOF 25
ENDMDL
