MODEL 1
REMARK VINA RESULT:      -8.7      0.000      0.000
REMARK SMILES CCCN1C(=O)C[C@H](C(=O)OCCOCCOCCOCCOC(=O)c2ccc(-c3c4nc(c(-c5cc(S(=O)(=O)[O-])ccc5F)c5ccc([nH]5)c(-c5cc(S(=O)(=O)[O-])ccc5F)c5nc(c(-c6cc(S(=O)(=O)[O-])ccc6F)c6ccc3[nH]6)C=C5)C=C4)cc2)[C@@H]1c1cncn1C1CC1
REMARK SMILES IDX 18 1 17 2 16 3 15 4 14 5 13 6 12 7 11 8 9 9 10 10 8 11 4 12
REMARK SMILES IDX 5 13 89 14 6 15 7 16 3 17 2 18 1 19 90 20 91 21 94 22 92 23
REMARK SMILES IDX 93 24 95 25 96 26 97 27 19 28 20 29 21 30 22 31 23 32 24 33
REMARK SMILES IDX 25 34 26 35 27 36 88 37 28 38 87 39 29 40 30 41 31 42 81 43
REMARK SMILES IDX 32 44 86 45 80 46 82 47 33 48 85 49 79 50 78 51 34 53 66 54
REMARK SMILES IDX 46 55 65 56 47 57 50 58 64 59 83 60 48 61 49 62 63 64 84 65
REMARK SMILES IDX 51 66 35 67 36 68 44 69 37 70 43 71 45 72 42 73 38 74 39 75
REMARK SMILES IDX 40 76 41 77 67 78 68 79 76 80 69 81 75 82 77 83 74 84 70 85
REMARK SMILES IDX 71 86 72 87 73 88 52 89 53 90 61 91 54 92 60 93 62 94 59 95
REMARK SMILES IDX 55 96 56 97 57 98 58 99
REMARK H PARENT 82 52 50 63
REMARK Flexibility Score: inf
ROOT
ATOM      1  C   UNL A   1      40.698  19.673  26.225  1.00  0.00     0.188 C 
ENDROOT
BRANCH   1   2
ATOM      2  O   UNL A   1      40.577  20.867  26.983  1.00  0.00    -0.377 OA
BRANCH   2   3
ATOM      3  C   UNL A   1      39.660  21.828  26.508  1.00  0.00     0.188 C 
BRANCH   3   4
ATOM      4  C   UNL A   1      38.553  21.299  25.581  1.00  0.00     0.188 C 
BRANCH   4   5
ATOM      5  O   UNL A   1      37.356  22.022  25.335  1.00  0.00    -0.376 OA
BRANCH   5   6
ATOM      6  C   UNL A   1      36.162  21.380  24.912  1.00  0.00     0.202 C 
BRANCH   6   7
ATOM      7  C   UNL A   1      34.875  22.176  24.655  1.00  0.00     0.261 C 
BRANCH   7   8
ATOM      8  O   UNL A   1      35.046  23.528  24.202  1.00  0.00    -0.463 OA
BRANCH   8   9
ATOM      9  C   UNL A   1      34.032  24.021  23.467  1.00  0.00     0.312 C 
ATOM     10  O   UNL A   1      33.188  23.343  22.889  1.00  0.00    -0.252 OA
BRANCH   9  11
ATOM     11  C   UNL A   1      34.050  25.513  23.315  1.00  0.00     0.137 C 
ATOM     12  N   UNL A   1      33.589  27.574  24.196  1.00  0.00    -0.333 N 
ATOM     13  C   UNL A   1      33.428  27.691  22.818  1.00  0.00     0.224 C 
ATOM     14  C   UNL A   1      33.607  26.200  24.599  1.00  0.00     0.148 C 
ATOM     15  O   UNL A   1      33.397  28.722  22.167  1.00  0.00    -0.275 OA
ATOM     16  C   UNL A   1      33.314  26.299  22.246  1.00  0.00     0.118 C 
BRANCH  12  17
ATOM     17  C   UNL A   1      33.867  28.678  25.100  1.00  0.00     0.120 C 
BRANCH  17  18
ATOM     18  C   UNL A   1      33.433  28.445  26.549  1.00  0.00     0.018 C 
ATOM     19  C   UNL A   1      33.293  29.727  27.357  1.00  0.00     0.006 C 
ENDBRANCH  17  18
ENDBRANCH  12  17
BRANCH  14  20
ATOM     20  C   UNL A   1      32.359  25.678  25.243  1.00  0.00     0.061 A 
ATOM     21  C   UNL A   1      32.420  24.664  26.205  1.00  0.00     0.136 A 
ATOM     22  N   UNL A   1      31.002  25.967  25.194  1.00  0.00    -0.330 N 
ATOM     23  N   UNL A   1      31.205  24.288  26.665  1.00  0.00    -0.245 NA
ATOM     24  C   UNL A   1      30.373  25.072  26.034  1.00  0.00     0.199 A 
BRANCH  22  25
ATOM     25  C   UNL A   1      30.143  26.948  24.551  1.00  0.00     0.088 C 
ATOM     26  C   UNL A   1      30.404  28.253  23.862  1.00  0.00     0.027 C 
ATOM     27  C   UNL A   1      30.029  27.061  23.045  1.00  0.00     0.027 C 
ENDBRANCH  22  25
ENDBRANCH  14  20
ENDBRANCH   9  11
ENDBRANCH   8   9
ENDBRANCH   7   8
ENDBRANCH   6   7
ENDBRANCH   5   6
ENDBRANCH   4   5
ENDBRANCH   3   4
ENDBRANCH   2   3
ENDBRANCH   1   2
BRANCH   1  28
ATOM     28  C   UNL A   1      42.104  19.053  26.104  1.00  0.00     0.188 C 
BRANCH  28  29
ATOM     29  O   UNL A   1      42.855  19.540  24.998  1.00  0.00    -0.376 OA
BRANCH  29  30
ATOM     30  C   UNL A   1      44.259  19.698  25.134  1.00  0.00     0.202 C 
BRANCH  30  31
ATOM     31  C   UNL A   1      44.848  21.118  25.059  1.00  0.00     0.261 C 
BRANCH  31  32
ATOM     32  O   UNL A   1      43.931  22.214  25.208  1.00  0.00    -0.460 OA
BRANCH  32  33
ATOM     33  C   UNL A   1      43.738  22.710  26.449  1.00  0.00     0.338 C 
ATOM     34  O   UNL A   1      43.356  22.091  27.428  1.00  0.00    -0.246 OA
BRANCH  33  35
ATOM     35  C   UNL A   1      44.284  24.084  26.476  1.00  0.00     0.060 A 
ATOM     36  C   UNL A   1      44.364  24.805  25.277  1.00  0.00     0.016 A 
ATOM     37  C   UNL A   1      44.706  24.662  27.676  1.00  0.00     0.016 A 
ATOM     38  C   UNL A   1      44.907  26.089  25.266  1.00  0.00     0.010 A 
ATOM     39  C   UNL A   1      45.277  25.939  27.659  1.00  0.00     0.010 A 
ATOM     40  C   UNL A   1      45.416  26.641  26.448  1.00  0.00    -0.014 A 
BRANCH  40  41
ATOM     41  C   UNL A   1      46.295  27.835  26.374  1.00  0.00     0.031 A 
ATOM     42  C   UNL A   1      47.770  27.611  26.178  1.00  0.00     0.074 A 
ATOM     43  C   UNL A   1      45.801  29.083  26.447  1.00  0.00     0.049 A 
ATOM     44  N   UNL A   1      48.748  28.477  26.142  1.00  0.00    -0.248 NA
ATOM     45  C   UNL A   1      48.196  26.212  26.009  1.00  0.00     0.031 C 
ATOM     46  C   UNL A   1      44.386  29.423  26.580  1.00  0.00     0.029 A 
ATOM     47  N   UNL A   1      46.440  30.296  26.427  1.00  0.00    -0.354 N 
ATOM     48  C   UNL A   1      49.908  27.729  25.956  1.00  0.00     0.074 A 
ATOM     49  C   UNL A   1      49.510  26.338  25.930  1.00  0.00     0.031 C 
ATOM     50  C   UNL A   1      44.266  30.761  26.650  1.00  0.00     0.029 A 
ATOM     51  C   UNL A   1      45.598  31.368  26.610  1.00  0.00     0.049 A 
ATOM     52  H   UNL A   1      47.411  30.391  26.293  1.00  0.00     0.167 HD
ATOM     53  C   UNL A   1      51.183  28.165  25.817  1.00  0.00     0.034 A 
ATOM     54  C   UNL A   1      45.872  32.679  26.766  1.00  0.00     0.034 A 
ATOM     55  C   UNL A   1      51.559  29.557  25.861  1.00  0.00     0.049 A 
ATOM     56  C   UNL A   1      47.311  33.138  26.699  1.00  0.00     0.074 A 
ATOM     57  C   UNL A   1      52.816  30.114  25.711  1.00  0.00     0.029 A 
ATOM     58  N   UNL A   1      50.683  30.611  26.094  1.00  0.00    -0.354 N 
ATOM     59  N   UNL A   1      48.401  32.426  26.510  1.00  0.00    -0.248 NA
ATOM     60  C   UNL A   1      47.558  34.577  26.857  1.00  0.00     0.031 C 
ATOM     61  C   UNL A   1      52.715  31.490  25.944  1.00  0.00     0.029 A 
ATOM     62  C   UNL A   1      51.380  31.809  26.136  1.00  0.00     0.049 A 
ATOM     63  H   UNL A   1      49.710  30.521  26.210  1.00  0.00     0.167 HD
ATOM     64  C   UNL A   1      49.455  33.338  26.496  1.00  0.00     0.074 A 
ATOM     65  C   UNL A   1      48.869  34.649  26.681  1.00  0.00     0.031 C 
ATOM     66  C   UNL A   1      50.785  33.112  26.337  1.00  0.00     0.034 A 
BRANCH  53  67
ATOM     67  C   UNL A   1      52.261  27.116  25.675  1.00  0.00     0.023 A 
ATOM     68  C   UNL A   1      53.074  26.730  26.756  1.00  0.00     0.031 A 
ATOM     69  C   UNL A   1      52.513  26.528  24.422  1.00  0.00     0.131 A 
ATOM     70  C   UNL A   1      54.150  25.853  26.545  1.00  0.00     0.055 A 
ATOM     71  C   UNL A   1      53.526  25.584  24.241  1.00  0.00     0.041 A 
ATOM     72  F   UNL A   1      51.791  26.876  23.346  1.00  0.00    -0.206 F 
ATOM     73  C   UNL A   1      54.364  25.256  25.302  1.00  0.00     0.022 A 
BRANCH  70  74
ATOM     74  S   UNL A   1      55.368  25.642  27.873  1.00  0.00     0.124 S 
ATOM     75  O   UNL A   1      54.553  25.884  29.062  1.00  0.00    -0.237 OA
ATOM     76  O   UNL A   1      55.815  24.269  27.675  1.00  0.00    -0.237 OA
ATOM     77  O   UNL A   1      56.365  26.671  27.590  1.00  0.00    -0.744 OA
ENDBRANCH  70  74
ENDBRANCH  53  67
BRANCH  54  78
ATOM     78  C   UNL A   1      44.775  33.647  27.058  1.00  0.00     0.023 A 
ATOM     79  C   UNL A   1      44.306  33.854  28.365  1.00  0.00     0.031 A 
ATOM     80  C   UNL A   1      44.143  34.350  26.015  1.00  0.00     0.131 A 
ATOM     81  C   UNL A   1      43.213  34.708  28.588  1.00  0.00     0.055 A 
ATOM     82  C   UNL A   1      43.097  35.241  26.249  1.00  0.00     0.041 A 
ATOM     83  F   UNL A   1      44.545  34.183  24.744  1.00  0.00    -0.206 F 
ATOM     84  C   UNL A   1      42.618  35.416  27.542  1.00  0.00     0.022 A 
BRANCH  81  85
ATOM     85  S   UNL A   1      42.518  34.813  30.262  1.00  0.00     0.124 S 
ATOM     86  O   UNL A   1      42.956  33.551  30.843  1.00  0.00    -0.237 OA
ATOM     87  O   UNL A   1      43.158  36.017  30.780  1.00  0.00    -0.237 OA
ATOM     88  O   UNL A   1      41.080  34.927  30.026  1.00  0.00    -0.744 OA
ENDBRANCH  81  85
ENDBRANCH  54  78
BRANCH  66  89
ATOM     89  C   UNL A   1      51.696  34.319  26.305  1.00  0.00     0.023 A 
ATOM     90  C   UNL A   1      52.294  34.835  27.467  1.00  0.00     0.031 A 
ATOM     91  C   UNL A   1      51.967  34.966  25.084  1.00  0.00     0.131 A 
ATOM     92  C   UNL A   1      53.083  35.994  27.394  1.00  0.00     0.055 A 
ATOM     93  C   UNL A   1      52.811  36.074  25.007  1.00  0.00     0.041 A 
ATOM     94  F   UNL A   1      51.420  34.523  23.940  1.00  0.00    -0.206 F 
ATOM     95  C   UNL A   1      53.363  36.603  26.170  1.00  0.00     0.022 A 
BRANCH  92  96
ATOM     96  S   UNL A   1      53.653  36.759  28.937  1.00  0.00     0.124 S 
ATOM     97  O   UNL A   1      53.137  38.118  28.809  1.00  0.00    -0.237 OA
ATOM     98  O   UNL A   1      53.015  35.928  29.954  1.00  0.00    -0.237 OA
ATOM     99  O   UNL A   1      55.108  36.639  28.863  1.00  0.00    -0.744 OA
ENDBRANCH  92  96
ENDBRANCH  66  89
ENDBRANCH  40  41
ENDBRANCH  33  35
ENDBRANCH  32  33
ENDBRANCH  31  32
ENDBRANCH  30  31
ENDBRANCH  29  30
ENDBRANCH  28  29
ENDBRANCH   1  28
TORSDOF 27
ENDMDL
MODEL 2
REMARK VINA RESULT:      -8.3      4.190      9.231
REMARK SMILES CCCN1C(=O)C[C@H](C(=O)OCCOCCOCCOCCOC(=O)c2ccc(-c3c4nc(c(-c5cc(S(=O)(=O)[O-])ccc5F)c5ccc([nH]5)c(-c5cc(S(=O)(=O)[O-])ccc5F)c5nc(c(-c6cc(S(=O)(=O)[O-])ccc6F)c6ccc3[nH]6)C=C5)C=C4)cc2)[C@@H]1c1cncn1C1CC1
REMARK SMILES IDX 18 1 17 2 16 3 15 4 14 5 13 6 12 7 11 8 9 9 10 10 8 11 4 12
REMARK SMILES IDX 5 13 89 14 6 15 7 16 3 17 2 18 1 19 90 20 91 21 94 22 92 23
REMARK SMILES IDX 93 24 95 25 96 26 97 27 19 28 20 29 21 30 22 31 23 32 24 33
REMARK SMILES IDX 25 34 26 35 27 36 88 37 28 38 87 39 29 40 30 41 31 42 81 43
REMARK SMILES IDX 32 44 86 45 80 46 82 47 33 48 85 49 79 50 78 51 34 53 66 54
REMARK SMILES IDX 46 55 65 56 47 57 50 58 64 59 83 60 48 61 49 62 63 64 84 65
REMARK SMILES IDX 51 66 35 67 36 68 44 69 37 70 43 71 45 72 42 73 38 74 39 75
REMARK SMILES IDX 40 76 41 77 67 78 68 79 76 80 69 81 75 82 77 83 74 84 70 85
REMARK SMILES IDX 71 86 72 87 73 88 52 89 53 90 61 91 54 92 60 93 62 94 59 95
REMARK SMILES IDX 55 96 56 97 57 98 58 99
REMARK H PARENT 82 52 50 63
REMARK Flexibility Score: inf
ROOT
ATOM      1  C   UNL A   1      37.501  20.976  25.070  1.00  0.00     0.188 C 
ENDROOT
BRANCH   1   2
ATOM      2  O   UNL A   1      36.393  21.807  25.379  1.00  0.00    -0.377 OA
BRANCH   2   3
ATOM      3  C   UNL A   1      35.196  21.156  25.745  1.00  0.00     0.188 C 
BRANCH   3   4
ATOM      4  C   UNL A   1      34.650  20.136  24.731  1.00  0.00     0.188 C 
BRANCH   4   5
ATOM      5  O   UNL A   1      33.352  20.248  24.164  1.00  0.00    -0.376 OA
BRANCH   5   6
ATOM      6  C   UNL A   1      32.545  21.400  24.353  1.00  0.00     0.202 C 
BRANCH   6   7
ATOM      7  C   UNL A   1      31.892  22.122  23.166  1.00  0.00     0.261 C 
BRANCH   7   8
ATOM      8  O   UNL A   1      32.756  22.434  22.063  1.00  0.00    -0.463 OA
BRANCH   8   9
ATOM      9  C   UNL A   1      33.672  23.391  22.303  1.00  0.00     0.312 C 
ATOM     10  O   UNL A   1      34.815  23.186  22.701  1.00  0.00    -0.252 OA
BRANCH   9  11
ATOM     11  C   UNL A   1      33.160  24.791  22.137  1.00  0.00     0.137 C 
ATOM     12  N   UNL A   1      32.864  26.882  23.017  1.00  0.00    -0.333 N 
ATOM     13  C   UNL A   1      31.787  26.659  22.162  1.00  0.00     0.224 C 
ATOM     14  C   UNL A   1      33.536  25.657  23.330  1.00  0.00     0.148 C 
ATOM     15  O   UNL A   1      31.034  27.498  21.696  1.00  0.00    -0.275 OA
ATOM     16  C   UNL A   1      31.714  25.177  21.888  1.00  0.00     0.118 C 
BRANCH  12  17
ATOM     17  C   UNL A   1      33.354  28.191  23.416  1.00  0.00     0.120 C 
BRANCH  17  18
ATOM     18  C   UNL A   1      33.377  28.432  24.927  1.00  0.00     0.018 C 
ATOM     19  C   UNL A   1      32.048  28.915  25.489  1.00  0.00     0.006 C 
ENDBRANCH  17  18
ENDBRANCH  12  17
BRANCH  14  20
ATOM     20  C   UNL A   1      33.272  25.080  24.688  1.00  0.00     0.061 A 
ATOM     21  C   UNL A   1      34.327  24.800  25.563  1.00  0.00     0.136 A 
ATOM     22  N   UNL A   1      32.156  24.744  25.440  1.00  0.00    -0.330 N 
ATOM     23  N   UNL A   1      33.922  24.257  26.734  1.00  0.00    -0.245 NA
ATOM     24  C   UNL A   1      32.620  24.221  26.630  1.00  0.00     0.199 A 
BRANCH  22  25
ATOM     25  C   UNL A   1      30.711  24.843  25.310  1.00  0.00     0.088 C 
ATOM     26  C   UNL A   1      29.614  25.216  26.260  1.00  0.00     0.027 C 
ATOM     27  C   UNL A   1      30.000  26.173  25.180  1.00  0.00     0.027 C 
ENDBRANCH  22  25
ENDBRANCH  14  20
ENDBRANCH   9  11
ENDBRANCH   8   9
ENDBRANCH   7   8
ENDBRANCH   6   7
ENDBRANCH   5   6
ENDBRANCH   4   5
ENDBRANCH   3   4
ENDBRANCH   2   3
ENDBRANCH   1   2
BRANCH   1  28
ATOM     28  C   UNL A   1      38.849  21.321  25.734  1.00  0.00     0.188 C 
BRANCH  28  29
ATOM     29  O   UNL A   1      39.726  20.208  25.870  1.00  0.00    -0.376 OA
BRANCH  29  30
ATOM     30  C   UNL A   1      41.021  20.414  26.413  1.00  0.00     0.202 C 
BRANCH  30  31
ATOM     31  C   UNL A   1      41.429  21.843  26.814  1.00  0.00     0.261 C 
BRANCH  31  32
ATOM     32  O   UNL A   1      42.041  22.656  25.801  1.00  0.00    -0.460 OA
BRANCH  32  33
ATOM     33  C   UNL A   1      43.276  23.146  26.045  1.00  0.00     0.338 C 
ATOM     34  O   UNL A   1      44.325  22.735  25.578  1.00  0.00    -0.246 OA
BRANCH  33  35
ATOM     35  C   UNL A   1      43.121  24.409  26.798  1.00  0.00     0.060 A 
ATOM     36  C   UNL A   1      42.867  25.592  26.091  1.00  0.00     0.016 A 
ATOM     37  C   UNL A   1      43.217  24.427  28.192  1.00  0.00     0.016 A 
ATOM     38  C   UNL A   1      42.751  26.804  26.771  1.00  0.00     0.010 A 
ATOM     39  C   UNL A   1      43.129  25.647  28.870  1.00  0.00     0.010 A 
ATOM     40  C   UNL A   1      42.936  26.845  28.159  1.00  0.00    -0.014 A 
BRANCH  40  41
ATOM     41  C   UNL A   1      43.161  28.153  28.823  1.00  0.00     0.031 A 
ATOM     42  C   UNL A   1      41.957  28.908  29.319  1.00  0.00     0.074 A 
ATOM     43  C   UNL A   1      44.397  28.645  29.014  1.00  0.00     0.049 A 
ATOM     44  N   UNL A   1      41.882  30.089  29.874  1.00  0.00    -0.248 NA
ATOM     45  C   UNL A   1      40.658  28.236  29.152  1.00  0.00     0.031 C 
ATOM     46  C   UNL A   1      45.639  27.979  28.628  1.00  0.00     0.029 A 
ATOM     47  N   UNL A   1      44.808  29.829  29.573  1.00  0.00    -0.354 N 
ATOM     48  C   UNL A   1      40.529  30.307  30.115  1.00  0.00     0.074 A 
ATOM     49  C   UNL A   1      39.820  29.153  29.606  1.00  0.00     0.031 C 
ATOM     50  C   UNL A   1      46.675  28.775  28.946  1.00  0.00     0.029 A 
ATOM     51  C   UNL A   1      46.168  30.024  29.516  1.00  0.00     0.049 A 
ATOM     52  H   UNL A   1      44.188  30.478  29.977  1.00  0.00     0.167 HD
ATOM     53  C   UNL A   1      39.936  31.371  30.709  1.00  0.00     0.034 A 
ATOM     54  C   UNL A   1      46.912  31.099  29.850  1.00  0.00     0.034 A 
ATOM     55  C   UNL A   1      40.661  32.519  31.196  1.00  0.00     0.049 A 
ATOM     56  C   UNL A   1      46.223  32.314  30.427  1.00  0.00     0.074 A 
ATOM     57  C   UNL A   1      40.166  33.643  31.833  1.00  0.00     0.029 A 
ATOM     58  N   UNL A   1      42.034  32.700  31.080  1.00  0.00    -0.354 N 
ATOM     59  N   UNL A   1      44.944  32.508  30.664  1.00  0.00    -0.248 NA
ATOM     60  C   UNL A   1      47.077  33.452  30.791  1.00  0.00     0.031 C 
ATOM     61  C   UNL A   1      41.223  34.541  32.018  1.00  0.00     0.029 A 
ATOM     62  C   UNL A   1      42.396  33.937  31.592  1.00  0.00     0.049 A 
ATOM     63  H   UNL A   1      42.659  32.046  30.692  1.00  0.00     0.167 HD
ATOM     64  C   UNL A   1      44.849  33.777  31.233  1.00  0.00     0.074 A 
ATOM     65  C   UNL A   1      46.199  34.294  31.316  1.00  0.00     0.031 C 
ATOM     66  C   UNL A   1      43.747  34.450  31.656  1.00  0.00     0.034 A 
BRANCH  53  67
ATOM     67  C   UNL A   1      38.427  31.363  30.796  1.00  0.00     0.023 A 
ATOM     68  C   UNL A   1      37.619  31.949  29.807  1.00  0.00     0.031 A 
ATOM     69  C   UNL A   1      37.788  30.800  31.917  1.00  0.00     0.131 A 
ATOM     70  C   UNL A   1      36.231  32.037  29.997  1.00  0.00     0.055 A 
ATOM     71  C   UNL A   1      36.399  30.808  32.054  1.00  0.00     0.041 A 
ATOM     72  F   UNL A   1      38.506  30.251  32.909  1.00  0.00    -0.206 F 
ATOM     73  C   UNL A   1      35.613  31.446  31.100  1.00  0.00     0.022 A 
BRANCH  70  74
ATOM     74  S   UNL A   1      35.268  33.087  28.874  1.00  0.00     0.124 S 
ATOM     75  O   UNL A   1      36.029  34.334  28.909  1.00  0.00    -0.237 OA
ATOM     76  O   UNL A   1      35.322  32.341  27.622  1.00  0.00    -0.237 OA
ATOM     77  O   UNL A   1      33.953  33.150  29.507  1.00  0.00    -0.744 OA
ENDBRANCH  70  74
ENDBRANCH  53  67
BRANCH  54  78
ATOM     78  C   UNL A   1      48.382  31.104  29.595  1.00  0.00     0.023 A 
ATOM     79  C   UNL A   1      48.913  31.510  28.360  1.00  0.00     0.031 A 
ATOM     80  C   UNL A   1      49.281  30.651  30.579  1.00  0.00     0.131 A 
ATOM     81  C   UNL A   1      50.296  31.417  28.129  1.00  0.00     0.055 A 
ATOM     82  C   UNL A   1      50.659  30.617  30.365  1.00  0.00     0.041 A 
ATOM     83  F   UNL A   1      48.828  30.242  31.775  1.00  0.00    -0.206 F 
ATOM     84  C   UNL A   1      51.173  30.991  29.129  1.00  0.00     0.022 A 
BRANCH  81  85
ATOM     85  S   UNL A   1      50.927  31.778  26.466  1.00  0.00     0.124 S 
ATOM     86  O   UNL A   1      50.903  30.459  25.849  1.00  0.00    -0.237 OA
ATOM     87  O   UNL A   1      49.946  32.737  25.972  1.00  0.00    -0.237 OA
ATOM     88  O   UNL A   1      52.258  32.326  26.720  1.00  0.00    -0.744 OA
ENDBRANCH  81  85
ENDBRANCH  54  78
BRANCH  66  89
ATOM     89  C   UNL A   1      43.962  35.804  32.295  1.00  0.00     0.023 A 
ATOM     90  C   UNL A   1      43.920  36.995  31.551  1.00  0.00     0.031 A 
ATOM     91  C   UNL A   1      44.217  35.899  33.676  1.00  0.00     0.131 A 
ATOM     92  C   UNL A   1      44.186  38.223  32.180  1.00  0.00     0.055 A 
ATOM     93  C   UNL A   1      44.408  37.128  34.309  1.00  0.00     0.041 A 
ATOM     94  F   UNL A   1      44.274  34.795  34.439  1.00  0.00    -0.206 F 
ATOM     95  C   UNL A   1      44.408  38.298  33.556  1.00  0.00     0.022 A 
BRANCH  92  96
ATOM     96  S   UNL A   1      44.345  39.711  31.154  1.00  0.00     0.124 S 
ATOM     97  O   UNL A   1      43.648  39.314  29.935  1.00  0.00    -0.237 OA
ATOM     98  O   UNL A   1      43.680  40.724  31.967  1.00  0.00    -0.237 OA
ATOM     99  O   UNL A   1      45.791  39.879  31.016  1.00  0.00    -0.744 OA
ENDBRANCH  92  96
ENDBRANCH  66  89
ENDBRANCH  40  41
ENDBRANCH  33  35
ENDBRANCH  32  33
ENDBRANCH  31  32
ENDBRANCH  30  31
ENDBRANCH  29  30
ENDBRANCH  28  29
ENDBRANCH   1  28
TORSDOF 27
ENDMDL
MODEL 3
REMARK VINA RESULT:      -8.2      6.690     13.790
REMARK SMILES CCCN1C(=O)C[C@H](C(=O)OCCOCCOCCOCCOC(=O)c2ccc(-c3c4nc(c(-c5cc(S(=O)(=O)[O-])ccc5F)c5ccc([nH]5)c(-c5cc(S(=O)(=O)[O-])ccc5F)c5nc(c(-c6cc(S(=O)(=O)[O-])ccc6F)c6ccc3[nH]6)C=C5)C=C4)cc2)[C@@H]1c1cncn1C1CC1
REMARK SMILES IDX 18 1 17 2 16 3 15 4 14 5 13 6 12 7 11 8 9 9 10 10 8 11 4 12
REMARK SMILES IDX 5 13 89 14 6 15 7 16 3 17 2 18 1 19 90 20 91 21 94 22 92 23
REMARK SMILES IDX 93 24 95 25 96 26 97 27 19 28 20 29 21 30 22 31 23 32 24 33
REMARK SMILES IDX 25 34 26 35 27 36 88 37 28 38 87 39 29 40 30 41 31 42 81 43
REMARK SMILES IDX 32 44 86 45 80 46 82 47 33 48 85 49 79 50 78 51 34 53 66 54
REMARK SMILES IDX 46 55 65 56 47 57 50 58 64 59 83 60 48 61 49 62 63 64 84 65
REMARK SMILES IDX 51 66 35 67 36 68 44 69 37 70 43 71 45 72 42 73 38 74 39 75
REMARK SMILES IDX 40 76 41 77 67 78 68 79 76 80 69 81 75 82 77 83 74 84 70 85
REMARK SMILES IDX 71 86 72 87 73 88 52 89 53 90 61 91 54 92 60 93 62 94 59 95
REMARK SMILES IDX 55 96 56 97 57 98 58 99
REMARK H PARENT 82 52 50 63
REMARK Flexibility Score: inf
ROOT
ATOM      1  C   UNL A   1      43.065  34.927  36.277  1.00  0.00     0.188 C 
ENDROOT
BRANCH   1   2
ATOM      2  O   UNL A   1      42.064  35.642  35.569  1.00  0.00    -0.377 OA
BRANCH   2   3
ATOM      3  C   UNL A   1      41.687  35.127  34.311  1.00  0.00     0.188 C 
BRANCH   3   4
ATOM      4  C   UNL A   1      41.672  33.593  34.192  1.00  0.00     0.188 C 
BRANCH   4   5
ATOM      5  O   UNL A   1      41.583  32.928  32.940  1.00  0.00    -0.376 OA
BRANCH   5   6
ATOM      6  C   UNL A   1      40.627  33.299  31.958  1.00  0.00     0.202 C 
BRANCH   6   7
ATOM      7  C   UNL A   1      40.850  32.992  30.470  1.00  0.00     0.261 C 
BRANCH   7   8
ATOM      8  O   UNL A   1      42.126  33.368  29.931  1.00  0.00    -0.463 OA
BRANCH   8   9
ATOM      9  C   UNL A   1      42.952  32.345  29.642  1.00  0.00     0.312 C 
ATOM     10  O   UNL A   1      42.590  31.229  29.280  1.00  0.00    -0.252 OA
BRANCH   9  11
ATOM     11  C   UNL A   1      44.403  32.636  29.887  1.00  0.00     0.137 C 
ATOM     12  N   UNL A   1      46.299  33.766  29.283  1.00  0.00    -0.333 N 
ATOM     13  C   UNL A   1      46.719  32.546  29.808  1.00  0.00     0.224 C 
ATOM     14  C   UNL A   1      44.904  33.737  28.963  1.00  0.00     0.148 C 
ATOM     15  O   UNL A   1      47.838  32.261  30.199  1.00  0.00    -0.275 OA
ATOM     16  C   UNL A   1      45.528  31.619  29.833  1.00  0.00     0.118 C 
BRANCH  12  17
ATOM     17  C   UNL A   1      47.114  34.968  29.214  1.00  0.00     0.120 C 
BRANCH  17  18
ATOM     18  C   UNL A   1      46.322  36.276  29.166  1.00  0.00     0.018 C 
ATOM     19  C   UNL A   1      46.466  37.029  27.850  1.00  0.00     0.006 C 
ENDBRANCH  17  18
ENDBRANCH  12  17
BRANCH  14  20
ATOM     20  C   UNL A   1      44.556  33.605  27.511  1.00  0.00     0.061 A 
ATOM     21  C   UNL A   1      45.125  32.595  26.728  1.00  0.00     0.136 A 
ATOM     22  N   UNL A   1      43.699  34.236  26.619  1.00  0.00    -0.330 N 
ATOM     23  N   UNL A   1      44.728  32.633  25.435  1.00  0.00    -0.245 NA
ATOM     24  C   UNL A   1      43.888  33.631  25.392  1.00  0.00     0.199 A 
BRANCH  22  25
ATOM     25  C   UNL A   1      42.687  35.277  26.666  1.00  0.00     0.088 C 
ATOM     26  C   UNL A   1      42.208  36.201  27.745  1.00  0.00     0.027 C 
ATOM     27  C   UNL A   1      43.039  36.749  26.631  1.00  0.00     0.027 C 
ENDBRANCH  22  25
ENDBRANCH  14  20
ENDBRANCH   9  11
ENDBRANCH   8   9
ENDBRANCH   7   8
ENDBRANCH   6   7
ENDBRANCH   5   6
ENDBRANCH   4   5
ENDBRANCH   3   4
ENDBRANCH   2   3
ENDBRANCH   1   2
BRANCH   1  28
ATOM     28  C   UNL A   1      42.920  34.839  37.809  1.00  0.00     0.188 C 
BRANCH  28  29
ATOM     29  O   UNL A   1      41.626  34.432  38.242  1.00  0.00    -0.376 OA
BRANCH  29  30
ATOM     30  C   UNL A   1      41.324  34.460  39.629  1.00  0.00     0.202 C 
BRANCH  30  31
ATOM     31  C   UNL A   1      39.846  34.471  40.057  1.00  0.00     0.261 C 
BRANCH  31  32
ATOM     32  O   UNL A   1      39.191  33.199  40.177  1.00  0.00    -0.460 OA
BRANCH  32  33
ATOM     33  C   UNL A   1      37.945  33.080  39.671  1.00  0.00     0.338 C 
ATOM     34  O   UNL A   1      36.915  33.507  40.167  1.00  0.00    -0.246 OA
BRANCH  33  35
ATOM     35  C   UNL A   1      38.063  32.540  38.299  1.00  0.00     0.060 A 
ATOM     36  C   UNL A   1      37.771  31.188  38.076  1.00  0.00     0.016 A 
ATOM     37  C   UNL A   1      38.450  33.363  37.238  1.00  0.00     0.016 A 
ATOM     38  C   UNL A   1      37.907  30.643  36.800  1.00  0.00     0.010 A 
ATOM     39  C   UNL A   1      38.613  32.808  35.964  1.00  0.00     0.010 A 
ATOM     40  C   UNL A   1      38.381  31.438  35.749  1.00  0.00    -0.014 A 
BRANCH  40  41
ATOM     41  C   UNL A   1      38.854  30.787  34.502  1.00  0.00     0.031 A 
ATOM     42  C   UNL A   1      40.171  30.060  34.543  1.00  0.00     0.074 A 
ATOM     43  C   UNL A   1      38.126  30.811  33.372  1.00  0.00     0.049 A 
ATOM     44  N   UNL A   1      40.828  29.467  33.581  1.00  0.00    -0.248 NA
ATOM     45  C   UNL A   1      40.841  30.007  35.852  1.00  0.00     0.031 C 
ATOM     46  C   UNL A   1      36.812  31.435  33.228  1.00  0.00     0.029 A 
ATOM     47  N   UNL A   1      38.397  30.302  32.127  1.00  0.00    -0.354 N 
ATOM     48  C   UNL A   1      41.993  28.978  34.165  1.00  0.00     0.074 A 
ATOM     49  C   UNL A   1      41.968  29.383  35.554  1.00  0.00     0.031 C 
ATOM     50  C   UNL A   1      36.399  31.288  31.957  1.00  0.00     0.029 A 
ATOM     51  C   UNL A   1      37.437  30.599  31.188  1.00  0.00     0.049 A 
ATOM     52  H   UNL A   1      39.202  29.773  31.925  1.00  0.00     0.167 HD
ATOM     53  C   UNL A   1      42.987  28.256  33.594  1.00  0.00     0.034 A 
ATOM     54  C   UNL A   1      37.417  30.376  29.858  1.00  0.00     0.034 A 
ATOM     55  C   UNL A   1      42.999  27.876  32.202  1.00  0.00     0.049 A 
ATOM     56  C   UNL A   1      38.578  29.648  29.221  1.00  0.00     0.074 A 
ATOM     57  C   UNL A   1      43.943  27.128  31.522  1.00  0.00     0.029 A 
ATOM     58  N   UNL A   1      42.030  28.234  31.271  1.00  0.00    -0.354 N 
ATOM     59  N   UNL A   1      39.670  29.177  29.782  1.00  0.00    -0.248 NA
ATOM     60  C   UNL A   1      38.502  29.413  27.773  1.00  0.00     0.031 C 
ATOM     61  C   UNL A   1      43.594  27.112  30.167  1.00  0.00     0.029 A 
ATOM     62  C   UNL A   1      42.379  27.761  30.015  1.00  0.00     0.049 A 
ATOM     63  H   UNL A   1      41.215  28.748  31.474  1.00  0.00     0.167 HD
ATOM     64  C   UNL A   1      40.392  28.564  28.759  1.00  0.00     0.074 A 
ATOM     65  C   UNL A   1      39.605  28.713  27.553  1.00  0.00     0.031 C 
ATOM     66  C   UNL A   1      41.592  27.929  28.814  1.00  0.00     0.034 A 
BRANCH  53  67
ATOM     67  C   UNL A   1      44.169  27.897  34.464  1.00  0.00     0.023 A 
ATOM     68  C   UNL A   1      44.302  26.628  35.056  1.00  0.00     0.031 A 
ATOM     69  C   UNL A   1      45.156  28.859  34.746  1.00  0.00     0.131 A 
ATOM     70  C   UNL A   1      45.345  26.384  35.964  1.00  0.00     0.055 A 
ATOM     71  C   UNL A   1      46.243  28.579  35.577  1.00  0.00     0.041 A 
ATOM     72  F   UNL A   1      45.069  30.097  34.235  1.00  0.00    -0.206 F 
ATOM     73  C   UNL A   1      46.332  27.342  36.206  1.00  0.00     0.022 A 
BRANCH  70  74
ATOM     74  S   UNL A   1      45.293  24.866  36.954  1.00  0.00     0.124 S 
ATOM     75  O   UNL A   1      46.656  24.809  37.480  1.00  0.00    -0.237 OA
ATOM     76  O   UNL A   1      44.246  25.159  37.926  1.00  0.00    -0.237 OA
ATOM     77  O   UNL A   1      44.967  23.830  35.978  1.00  0.00    -0.744 OA
ENDBRANCH  70  74
ENDBRANCH  53  67
BRANCH  54  78
ATOM     78  C   UNL A   1      36.291  30.893  29.026  1.00  0.00     0.023 A 
ATOM     79  C   UNL A   1      35.314  30.037  28.495  1.00  0.00     0.031 A 
ATOM     80  C   UNL A   1      36.207  32.262  28.708  1.00  0.00     0.131 A 
ATOM     81  C   UNL A   1      34.321  30.550  27.645  1.00  0.00     0.055 A 
ATOM     82  C   UNL A   1      35.184  32.776  27.910  1.00  0.00     0.041 A 
ATOM     83  F   UNL A   1      37.120  33.126  29.180  1.00  0.00    -0.206 F 
ATOM     84  C   UNL A   1      34.239  31.916  27.364  1.00  0.00     0.022 A 
BRANCH  81  85
ATOM     85  S   UNL A   1      33.184  29.391  26.834  1.00  0.00     0.124 S 
ATOM     86  O   UNL A   1      31.895  29.829  27.353  1.00  0.00    -0.237 OA
ATOM     87  O   UNL A   1      33.433  29.660  25.422  1.00  0.00    -0.237 OA
ATOM     88  O   UNL A   1      33.637  28.084  27.307  1.00  0.00    -0.744 OA
ENDBRANCH  81  85
ENDBRANCH  54  78
BRANCH  66  89
ATOM     89  C   UNL A   1      42.105  27.302  27.537  1.00  0.00     0.023 A 
ATOM     90  C   UNL A   1      42.044  25.916  27.309  1.00  0.00     0.031 A 
ATOM     91  C   UNL A   1      42.667  28.109  26.530  1.00  0.00     0.131 A 
ATOM     92  C   UNL A   1      42.588  25.375  26.133  1.00  0.00     0.055 A 
ATOM     93  C   UNL A   1      43.140  27.574  25.332  1.00  0.00     0.041 A 
ATOM     94  F   UNL A   1      42.758  29.440  26.692  1.00  0.00    -0.206 F 
ATOM     95  C   UNL A   1      43.115  26.196  25.134  1.00  0.00     0.022 A 
BRANCH  92  96
ATOM     96  S   UNL A   1      42.695  23.572  25.972  1.00  0.00     0.124 S 
ATOM     97  O   UNL A   1      43.665  23.233  27.008  1.00  0.00    -0.237 OA
ATOM     98  O   UNL A   1      41.320  23.152  26.224  1.00  0.00    -0.237 OA
ATOM     99  O   UNL A   1      43.160  23.377  24.599  1.00  0.00    -0.744 OA
ENDBRANCH  92  96
ENDBRANCH  66  89
ENDBRANCH  40  41
ENDBRANCH  33  35
ENDBRANCH  32  33
ENDBRANCH  31  32
ENDBRANCH  30  31
ENDBRANCH  29  30
ENDBRANCH  28  29
ENDBRANCH   1  28
TORSDOF 27
ENDMDL
