MODEL 1
REMARK VINA RESULT:      -8.2      0.000      0.000
REMARK SMILES CC(C)[C@H](NC(=O)OCc1ccccc1)C(=O)NCC(=O)OCCOCCOCCOCCOC(=O)c1ccc(-c2c3nc(c(-c4cc(S(=O)(=O)[O-])ccc4F)c4ccc([nH]4)c(-c4cc(S(=O)(=O)[O-])ccc4F)c4nc(c(-c5cc(S(=O)(=O)[O-])ccc5F)c5ccc2[nH]5)C=C4)C=C3)cc1
REMARK SMILES IDX 26 1 25 2 24 3 23 4 22 5 20 6 21 7 19 8 18 9 16 10 17 11
REMARK SMILES IDX 4 13 2 14 1 15 3 16 5 17 6 18 7 20 8 21 9 22 10 23 11 24
REMARK SMILES IDX 15 25 12 26 14 27 13 28 27 29 28 30 29 31 30 32 31 33 32 34
REMARK SMILES IDX 33 35 34 36 35 37 36 38 37 39 38 40 99 41 39 42 98 43 40 44
REMARK SMILES IDX 41 45 42 46 92 47 43 48 97 49 91 50 93 51 44 52 96 53 90 54
REMARK SMILES IDX 89 55 45 57 77 58 57 59 76 60 58 61 61 62 75 63 94 64 59 65
REMARK SMILES IDX 60 66 74 68 95 69 62 70 46 71 47 72 55 73 48 74 54 75 56 76
REMARK SMILES IDX 53 77 49 78 50 79 51 80 52 81 78 82 79 83 87 84 80 85 86 86
REMARK SMILES IDX 88 87 85 88 81 89 82 90 83 91 84 92 63 93 64 94 72 95 65 96
REMARK SMILES IDX 71 97 73 98 70 99 66 100 67 101 68 102 69 103
REMARK H PARENT 18 12 5 19 93 56 61 67
REMARK Flexibility Score: inf
ROOT
ATOM      1  C   UNL A   1      34.133  29.483  27.233  1.00  0.00     0.188 C 
ENDROOT
BRANCH   1   2
ATOM      2  O   UNL A   1      33.383  28.311  27.479  1.00  0.00    -0.376 OA
BRANCH   2   3
ATOM      3  C   UNL A   1      31.961  28.255  27.447  1.00  0.00     0.202 C 
BRANCH   3   4
ATOM      4  C   UNL A   1      31.128  26.994  27.165  1.00  0.00     0.261 C 
BRANCH   4   5
ATOM      5  O   UNL A   1      31.143  26.555  25.809  1.00  0.00    -0.462 OA
BRANCH   5   6
ATOM      6  C   UNL A   1      31.002  25.220  25.644  1.00  0.00     0.325 C 
ATOM      7  O   UNL A   1      30.265  24.677  24.827  1.00  0.00    -0.250 OA
BRANCH   6   8
ATOM      8  C   UNL A   1      32.022  24.426  26.445  1.00  0.00     0.238 C 
BRANCH   8   9
ATOM      9  N   UNL A   1      33.461  24.524  26.148  1.00  0.00    -0.343 N 
ATOM     10  C   UNL A   1      34.126  23.998  25.061  1.00  0.00     0.243 C 
ATOM     11  O   UNL A   1      35.128  24.555  24.620  1.00  0.00    -0.273 OA
ATOM     12  H   UNL A   1      34.010  25.021  26.798  1.00  0.00     0.164 HD
BRANCH  10  13
ATOM     13  C   UNL A   1      33.521  22.741  24.409  1.00  0.00     0.177 C 
BRANCH  13  14
ATOM     14  C   UNL A   1      34.012  21.396  25.025  1.00  0.00     0.015 C 
ATOM     15  C   UNL A   1      34.495  21.436  26.486  1.00  0.00     0.010 C 
ATOM     16  C   UNL A   1      32.889  20.355  24.947  1.00  0.00     0.010 C 
ENDBRANCH  13  14
BRANCH  13  17
ATOM     17  N   UNL A   1      33.899  22.963  23.004  1.00  0.00    -0.309 N 
ATOM     18  C   UNL A   1      33.255  23.572  22.000  1.00  0.00     0.408 C 
ATOM     19  H   UNL A   1      34.779  22.598  22.759  1.00  0.00     0.167 HD
ATOM     20  O   UNL A   1      33.550  23.305  20.838  1.00  0.00    -0.225 OA
BRANCH  18  21
ATOM     21  O   UNL A   1      32.351  24.476  22.411  1.00  0.00    -0.445 OA
BRANCH  21  22
ATOM     22  C   UNL A   1      32.353  25.677  21.639  1.00  0.00     0.270 C 
BRANCH  22  23
ATOM     23  C   UNL A   1      31.989  26.910  22.439  1.00  0.00    -0.011 A 
ATOM     24  C   UNL A   1      30.651  27.323  22.478  1.00  0.00     0.007 A 
ATOM     25  C   UNL A   1      32.950  27.724  23.064  1.00  0.00     0.007 A 
ATOM     26  C   UNL A   1      30.287  28.506  23.123  1.00  0.00     0.000 A 
ATOM     27  C   UNL A   1      32.588  28.908  23.706  1.00  0.00     0.000 A 
ATOM     28  C   UNL A   1      31.256  29.300  23.733  1.00  0.00     0.000 A 
ENDBRANCH  22  23
ENDBRANCH  21  22
ENDBRANCH  18  21
ENDBRANCH  13  17
ENDBRANCH  10  13
ENDBRANCH   8   9
ENDBRANCH   6   8
ENDBRANCH   5   6
ENDBRANCH   4   5
ENDBRANCH   3   4
ENDBRANCH   2   3
ENDBRANCH   1   2
BRANCH   1  29
ATOM     29  C   UNL A   1      33.469  30.781  26.750  1.00  0.00     0.188 C 
BRANCH  29  30
ATOM     30  O   UNL A   1      33.087  31.694  27.756  1.00  0.00    -0.377 OA
BRANCH  30  31
ATOM     31  C   UNL A   1      34.039  32.678  28.172  1.00  0.00     0.188 C 
BRANCH  31  32
ATOM     32  C   UNL A   1      34.948  32.430  29.400  1.00  0.00     0.188 C 
BRANCH  32  33
ATOM     33  O   UNL A   1      34.334  32.635  30.661  1.00  0.00    -0.376 OA
BRANCH  33  34
ATOM     34  C   UNL A   1      35.027  32.258  31.841  1.00  0.00     0.202 C 
BRANCH  34  35
ATOM     35  C   UNL A   1      36.394  31.566  31.709  1.00  0.00     0.261 C 
BRANCH  35  36
ATOM     36  O   UNL A   1      36.668  30.497  32.629  1.00  0.00    -0.460 OA
BRANCH  36  37
ATOM     37  C   UNL A   1      37.611  29.591  32.288  1.00  0.00     0.338 C 
ATOM     38  O   UNL A   1      37.488  28.381  32.274  1.00  0.00    -0.246 OA
BRANCH  37  39
ATOM     39  C   UNL A   1      38.759  30.334  31.726  1.00  0.00     0.060 A 
ATOM     40  C   UNL A   1      38.986  30.294  30.344  1.00  0.00     0.016 A 
ATOM     41  C   UNL A   1      39.610  31.062  32.559  1.00  0.00     0.016 A 
ATOM     42  C   UNL A   1      40.088  30.952  29.795  1.00  0.00     0.010 A 
ATOM     43  C   UNL A   1      40.727  31.700  32.012  1.00  0.00     0.010 A 
ATOM     44  C   UNL A   1      40.992  31.618  30.633  1.00  0.00    -0.014 A 
BRANCH  44  45
ATOM     45  C   UNL A   1      42.314  32.040  30.104  1.00  0.00     0.031 A 
ATOM     46  C   UNL A   1      42.507  33.494  29.762  1.00  0.00     0.074 A 
ATOM     47  C   UNL A   1      43.328  31.169  29.958  1.00  0.00     0.049 A 
ATOM     48  N   UNL A   1      43.529  34.091  29.208  1.00  0.00    -0.248 NA
ATOM     49  C   UNL A   1      41.389  34.393  30.091  1.00  0.00     0.031 C 
ATOM     50  C   UNL A   1      43.287  29.754  30.321  1.00  0.00     0.029 A 
ATOM     51  N   UNL A   1      44.594  31.351  29.459  1.00  0.00    -0.354 N 
ATOM     52  C   UNL A   1      43.181  35.435  29.124  1.00  0.00     0.074 A 
ATOM     53  C   UNL A   1      41.834  35.554  29.639  1.00  0.00     0.031 C 
ATOM     54  C   UNL A   1      44.472  29.193  30.019  1.00  0.00     0.029 A 
ATOM     55  C   UNL A   1      45.338  30.195  29.398  1.00  0.00     0.049 A 
ATOM     56  H   UNL A   1      44.938  32.228  29.170  1.00  0.00     0.167 HD
ATOM     57  C   UNL A   1      43.922  36.477  28.673  1.00  0.00     0.034 A 
ATOM     58  C   UNL A   1      46.559  29.969  28.871  1.00  0.00     0.034 A 
ATOM     59  C   UNL A   1      45.256  36.341  28.143  1.00  0.00     0.049 A 
ATOM     60  C   UNL A   1      47.313  31.125  28.246  1.00  0.00     0.074 A 
ATOM     61  C   UNL A   1      46.087  37.326  27.639  1.00  0.00     0.029 A 
ATOM     62  N   UNL A   1      45.951  35.144  28.040  1.00  0.00    -0.354 N 
ATOM     63  N   UNL A   1      46.968  32.390  28.158  1.00  0.00    -0.248 NA
ATOM     64  C   UNL A   1      48.624  30.822  27.653  1.00  0.00     0.031 C 
ATOM     65  C   UNL A   1      47.250  36.716  27.162  1.00  0.00     0.029 A 
ATOM     66  C   UNL A   1      47.188  35.361  27.453  1.00  0.00     0.049 A 
ATOM     67  H   UNL A   1      45.616  34.269  28.340  1.00  0.00     0.167 HD
ATOM     68  C   UNL A   1      48.041  33.035  27.543  1.00  0.00     0.074 A 
ATOM     69  C   UNL A   1      49.045  32.025  27.295  1.00  0.00     0.031 C 
ATOM     70  C   UNL A   1      48.185  34.345  27.216  1.00  0.00     0.034 A 
BRANCH  57  71
ATOM     71  C   UNL A   1      43.282  37.843  28.696  1.00  0.00     0.023 A 
ATOM     72  C   UNL A   1      43.480  38.730  29.769  1.00  0.00     0.031 A 
ATOM     73  C   UNL A   1      42.447  38.259  27.643  1.00  0.00     0.131 A 
ATOM     74  C   UNL A   1      42.799  39.957  29.797  1.00  0.00     0.055 A 
ATOM     75  C   UNL A   1      41.841  39.516  27.638  1.00  0.00     0.041 A 
ATOM     76  F   UNL A   1      42.200  37.445  26.606  1.00  0.00    -0.206 F 
ATOM     77  C   UNL A   1      42.004  40.369  28.726  1.00  0.00     0.022 A 
BRANCH  74  78
ATOM     78  S   UNL A   1      42.854  40.940  31.320  1.00  0.00     0.124 S 
ATOM     79  O   UNL A   1      44.108  41.670  31.155  1.00  0.00    -0.237 OA
ATOM     80  O   UNL A   1      41.634  41.735  31.227  1.00  0.00    -0.237 OA
ATOM     81  O   UNL A   1      42.862  39.931  32.379  1.00  0.00    -0.744 OA
ENDBRANCH  74  78
ENDBRANCH  57  71
BRANCH  58  82
ATOM     82  C   UNL A   1      47.146  28.595  28.852  1.00  0.00     0.023 A 
ATOM     83  C   UNL A   1      46.849  27.697  27.814  1.00  0.00     0.031 A 
ATOM     84  C   UNL A   1      47.926  28.122  29.923  1.00  0.00     0.131 A 
ATOM     85  C   UNL A   1      47.265  26.358  27.903  1.00  0.00     0.055 A 
ATOM     86  C   UNL A   1      48.399  26.809  29.972  1.00  0.00     0.041 A 
ATOM     87  F   UNL A   1      48.232  28.931  30.950  1.00  0.00    -0.206 F 
ATOM     88  C   UNL A   1      48.051  25.913  28.967  1.00  0.00     0.022 A 
BRANCH  85  89
ATOM     89  S   UNL A   1      46.638  25.175  26.679  1.00  0.00     0.124 S 
ATOM     90  O   UNL A   1      47.357  25.586  25.478  1.00  0.00    -0.237 OA
ATOM     91  O   UNL A   1      47.039  23.898  27.261  1.00  0.00    -0.237 OA
ATOM     92  O   UNL A   1      45.200  25.429  26.667  1.00  0.00    -0.744 OA
ENDBRANCH  85  89
ENDBRANCH  58  82
BRANCH  70  93
ATOM     93  C   UNL A   1      49.506  34.771  26.619  1.00  0.00     0.023 A 
ATOM     94  C   UNL A   1      50.678  34.871  27.390  1.00  0.00     0.031 A 
ATOM     95  C   UNL A   1      49.592  35.082  25.248  1.00  0.00     0.131 A 
ATOM     96  C   UNL A   1      51.867  35.326  26.800  1.00  0.00     0.055 A 
ATOM     97  C   UNL A   1      50.794  35.467  24.653  1.00  0.00     0.041 A 
ATOM     98  F   UNL A   1      48.506  35.008  24.462  1.00  0.00    -0.206 F 
ATOM     99  C   UNL A   1      51.938  35.605  25.433  1.00  0.00     0.022 A 
BRANCH  96 100
ATOM    100  S   UNL A   1      53.300  35.647  27.865  1.00  0.00     0.124 S 
ATOM    101  O   UNL A   1      54.413  35.275  26.998  1.00  0.00    -0.237 OA
ATOM    102  O   UNL A   1      53.164  37.070  28.153  1.00  0.00    -0.237 OA
ATOM    103  O   UNL A   1      53.083  34.761  29.009  1.00  0.00    -0.744 OA
ENDBRANCH  96 100
ENDBRANCH  70  93
ENDBRANCH  44  45
ENDBRANCH  37  39
ENDBRANCH  36  37
ENDBRANCH  35  36
ENDBRANCH  34  35
ENDBRANCH  33  34
ENDBRANCH  32  33
ENDBRANCH  31  32
ENDBRANCH  30  31
ENDBRANCH  29  30
ENDBRANCH   1  29
TORSDOF 30
ENDMDL
MODEL 2
REMARK VINA RESULT:      -8.0      8.853     17.788
REMARK SMILES CC(C)[C@H](NC(=O)OCc1ccccc1)C(=O)NCC(=O)OCCOCCOCCOCCOC(=O)c1ccc(-c2c3nc(c(-c4cc(S(=O)(=O)[O-])ccc4F)c4ccc([nH]4)c(-c4cc(S(=O)(=O)[O-])ccc4F)c4nc(c(-c5cc(S(=O)(=O)[O-])ccc5F)c5ccc2[nH]5)C=C4)C=C3)cc1
REMARK SMILES IDX 26 1 25 2 24 3 23 4 22 5 20 6 21 7 19 8 18 9 16 10 17 11
REMARK SMILES IDX 4 13 2 14 1 15 3 16 5 17 6 18 7 20 8 21 9 22 10 23 11 24
REMARK SMILES IDX 15 25 12 26 14 27 13 28 27 29 28 30 29 31 30 32 31 33 32 34
REMARK SMILES IDX 33 35 34 36 35 37 36 38 37 39 38 40 99 41 39 42 98 43 40 44
REMARK SMILES IDX 41 45 42 46 92 47 43 48 97 49 91 50 93 51 44 52 96 53 90 54
REMARK SMILES IDX 89 55 45 57 77 58 57 59 76 60 58 61 61 62 75 63 94 64 59 65
REMARK SMILES IDX 60 66 74 68 95 69 62 70 46 71 47 72 55 73 48 74 54 75 56 76
REMARK SMILES IDX 53 77 49 78 50 79 51 80 52 81 78 82 79 83 87 84 80 85 86 86
REMARK SMILES IDX 88 87 85 88 81 89 82 90 83 91 84 92 63 93 64 94 72 95 65 96
REMARK SMILES IDX 71 97 73 98 70 99 66 100 67 101 68 102 69 103
REMARK H PARENT 18 12 5 19 93 56 61 67
REMARK Flexibility Score: inf
ROOT
ATOM      1  C   UNL A   1      41.654  41.314  25.452  1.00  0.00     0.188 C 
ENDROOT
BRANCH   1   2
ATOM      2  O   UNL A   1      42.063  41.313  24.100  1.00  0.00    -0.376 OA
BRANCH   2   3
ATOM      3  C   UNL A   1      41.958  42.439  23.235  1.00  0.00     0.202 C 
BRANCH   3   4
ATOM      4  C   UNL A   1      42.165  42.412  21.713  1.00  0.00     0.261 C 
BRANCH   4   5
ATOM      5  O   UNL A   1      41.493  43.446  20.997  1.00  0.00    -0.462 OA
BRANCH   5   6
ATOM      6  C   UNL A   1      41.890  43.597  19.712  1.00  0.00     0.325 C 
ATOM      7  O   UNL A   1      41.176  43.456  18.725  1.00  0.00    -0.250 OA
BRANCH   6   8
ATOM      8  C   UNL A   1      43.293  44.173  19.604  1.00  0.00     0.238 C 
BRANCH   8   9
ATOM      9  N   UNL A   1      43.957  44.313  18.297  1.00  0.00    -0.343 N 
ATOM     10  C   UNL A   1      44.480  45.463  17.746  1.00  0.00     0.243 C 
ATOM     11  O   UNL A   1      45.440  45.402  16.981  1.00  0.00    -0.273 OA
ATOM     12  H   UNL A   1      44.037  43.493  17.757  1.00  0.00     0.164 HD
BRANCH  10  13
ATOM     13  C   UNL A   1      43.849  46.799  18.179  1.00  0.00     0.177 C 
BRANCH  13  14
ATOM     14  C   UNL A   1      42.999  47.498  17.076  1.00  0.00     0.015 C 
ATOM     15  C   UNL A   1      41.859  46.673  16.450  1.00  0.00     0.010 C 
ATOM     16  C   UNL A   1      42.373  48.778  17.642  1.00  0.00     0.010 C 
ENDBRANCH  13  14
BRANCH  13  17
ATOM     17  N   UNL A   1      45.050  47.534  18.605  1.00  0.00    -0.309 N 
ATOM     18  C   UNL A   1      45.550  47.784  19.822  1.00  0.00     0.408 C 
ATOM     19  H   UNL A   1      45.580  47.909  17.865  1.00  0.00     0.167 HD
ATOM     20  O   UNL A   1      46.316  48.730  19.982  1.00  0.00    -0.225 OA
BRANCH  18  21
ATOM     21  O   UNL A   1      45.163  46.898  20.755  1.00  0.00    -0.445 OA
BRANCH  21  22
ATOM     22  C   UNL A   1      46.230  46.087  21.249  1.00  0.00     0.270 C 
BRANCH  22  23
ATOM     23  C   UNL A   1      46.001  45.579  22.657  1.00  0.00    -0.011 A 
ATOM     24  C   UNL A   1      47.107  45.221  23.437  1.00  0.00     0.007 A 
ATOM     25  C   UNL A   1      44.718  45.351  23.185  1.00  0.00     0.007 A 
ATOM     26  C   UNL A   1      46.936  44.658  24.704  1.00  0.00     0.000 A 
ATOM     27  C   UNL A   1      44.545  44.785  24.448  1.00  0.00     0.000 A 
ATOM     28  C   UNL A   1      45.656  44.436  25.206  1.00  0.00     0.000 A 
ENDBRANCH  22  23
ENDBRANCH  21  22
ENDBRANCH  18  21
ENDBRANCH  13  17
ENDBRANCH  10  13
ENDBRANCH   8   9
ENDBRANCH   6   8
ENDBRANCH   5   6
ENDBRANCH   4   5
ENDBRANCH   3   4
ENDBRANCH   2   3
ENDBRANCH   1   2
BRANCH   1  29
ATOM     29  C   UNL A   1      41.235  40.022  26.169  1.00  0.00     0.188 C 
BRANCH  29  30
ATOM     30  O   UNL A   1      42.238  39.376  26.923  1.00  0.00    -0.377 OA
BRANCH  30  31
ATOM     31  C   UNL A   1      42.095  37.976  27.179  1.00  0.00     0.188 C 
BRANCH  31  32
ATOM     32  C   UNL A   1      43.324  37.108  27.544  1.00  0.00     0.188 C 
BRANCH  32  33
ATOM     33  O   UNL A   1      44.584  37.721  27.333  1.00  0.00    -0.376 OA
BRANCH  33  34
ATOM     34  C   UNL A   1      45.716  37.245  28.044  1.00  0.00     0.202 C 
BRANCH  34  35
ATOM     35  C   UNL A   1      46.476  38.214  28.965  1.00  0.00     0.261 C 
BRANCH  35  36
ATOM     36  O   UNL A   1      46.125  38.191  30.358  1.00  0.00    -0.460 OA
BRANCH  36  37
ATOM     37  C   UNL A   1      45.183  39.057  30.791  1.00  0.00     0.338 C 
ATOM     38  O   UNL A   1      44.731  40.008  30.182  1.00  0.00    -0.246 OA
BRANCH  37  39
ATOM     39  C   UNL A   1      44.638  38.525  32.059  1.00  0.00     0.060 A 
ATOM     40  C   UNL A   1      45.102  37.292  32.536  1.00  0.00     0.016 A 
ATOM     41  C   UNL A   1      43.671  39.237  32.770  1.00  0.00     0.016 A 
ATOM     42  C   UNL A   1      44.572  36.749  33.707  1.00  0.00     0.010 A 
ATOM     43  C   UNL A   1      43.122  38.681  33.929  1.00  0.00     0.010 A 
ATOM     44  C   UNL A   1      43.544  37.418  34.384  1.00  0.00    -0.014 A 
BRANCH  44  45
ATOM     45  C   UNL A   1      42.766  36.708  35.431  1.00  0.00     0.031 A 
ATOM     46  C   UNL A   1      41.805  35.636  34.992  1.00  0.00     0.074 A 
ATOM     47  C   UNL A   1      42.926  36.981  36.738  1.00  0.00     0.049 A 
ATOM     48  N   UNL A   1      40.954  34.938  35.698  1.00  0.00    -0.248 NA
ATOM     49  C   UNL A   1      41.805  35.310  33.556  1.00  0.00     0.031 C 
ATOM     50  C   UNL A   1      43.875  37.945  37.291  1.00  0.00     0.029 A 
ATOM     51  N   UNL A   1      42.285  36.471  37.840  1.00  0.00    -0.354 N 
ATOM     52  C   UNL A   1      40.321  34.090  34.797  1.00  0.00     0.074 A 
ATOM     53  C   UNL A   1      40.851  34.396  33.486  1.00  0.00     0.031 C 
ATOM     54  C   UNL A   1      43.744  37.965  38.630  1.00  0.00     0.029 A 
ATOM     55  C   UNL A   1      42.671  37.054  39.025  1.00  0.00     0.049 A 
ATOM     56  H   UNL A   1      41.610  35.755  37.787  1.00  0.00     0.167 HD
ATOM     57  C   UNL A   1      39.394  33.131  35.041  1.00  0.00     0.034 A 
ATOM     58  C   UNL A   1      42.188  36.892  40.275  1.00  0.00     0.034 A 
ATOM     59  C   UNL A   1      38.858  32.850  36.350  1.00  0.00     0.049 A 
ATOM     60  C   UNL A   1      41.053  35.915  40.502  1.00  0.00     0.074 A 
ATOM     61  C   UNL A   1      37.900  31.918  36.707  1.00  0.00     0.029 A 
ATOM     62  N   UNL A   1      39.229  33.505  37.516  1.00  0.00    -0.354 N 
ATOM     63  N   UNL A   1      40.450  35.128  39.639  1.00  0.00    -0.248 NA
ATOM     64  C   UNL A   1      40.537  35.801  41.874  1.00  0.00     0.031 C 
ATOM     65  C   UNL A   1      37.636  32.061  38.072  1.00  0.00     0.029 A 
ATOM     66  C   UNL A   1      38.496  33.018  38.588  1.00  0.00     0.049 A 
ATOM     67  H   UNL A   1      39.911  34.212  37.575  1.00  0.00     0.167 HD
ATOM     68  C   UNL A   1      39.520  34.396  40.377  1.00  0.00     0.074 A 
ATOM     69  C   UNL A   1      39.651  34.825  41.752  1.00  0.00     0.031 C 
ATOM     70  C   UNL A   1      38.640  33.451  39.958  1.00  0.00     0.034 A 
BRANCH  57  71
ATOM     71  C   UNL A   1      38.872  32.354  33.857  1.00  0.00     0.023 A 
ATOM     72  C   UNL A   1      37.787  32.818  33.094  1.00  0.00     0.031 A 
ATOM     73  C   UNL A   1      39.452  31.124  33.498  1.00  0.00     0.131 A 
ATOM     74  C   UNL A   1      37.273  32.027  32.055  1.00  0.00     0.055 A 
ATOM     75  C   UNL A   1      38.989  30.382  32.410  1.00  0.00     0.041 A 
ATOM     76  F   UNL A   1      40.472  30.617  34.207  1.00  0.00    -0.206 F 
ATOM     77  C   UNL A   1      37.884  30.826  31.689  1.00  0.00     0.022 A 
BRANCH  74  78
ATOM     78  S   UNL A   1      35.707  32.521  31.286  1.00  0.00     0.124 S 
ATOM     79  O   UNL A   1      34.802  32.522  32.433  1.00  0.00    -0.237 OA
ATOM     80  O   UNL A   1      36.029  33.829  30.725  1.00  0.00    -0.237 OA
ATOM     81  O   UNL A   1      35.458  31.466  30.306  1.00  0.00    -0.744 OA
ENDBRANCH  74  78
ENDBRANCH  57  71
BRANCH  58  82
ATOM     82  C   UNL A   1      42.720  37.699  41.414  1.00  0.00     0.023 A 
ATOM     83  C   UNL A   1      42.142  38.932  41.760  1.00  0.00     0.031 A 
ATOM     84  C   UNL A   1      43.880  37.304  42.107  1.00  0.00     0.131 A 
ATOM     85  C   UNL A   1      42.761  39.755  42.714  1.00  0.00     0.055 A 
ATOM     86  C   UNL A   1      44.451  38.093  43.106  1.00  0.00     0.041 A 
ATOM     87  F   UNL A   1      44.484  36.141  41.812  1.00  0.00    -0.206 F 
ATOM     88  C   UNL A   1      43.903  39.337  43.401  1.00  0.00     0.022 A 
BRANCH  85  89
ATOM     89  S   UNL A   1      42.135  41.443  42.938  1.00  0.00     0.124 S 
ATOM     90  O   UNL A   1      40.910  41.204  43.693  1.00  0.00    -0.237 OA
ATOM     91  O   UNL A   1      43.227  42.076  43.669  1.00  0.00    -0.237 OA
ATOM     92  O   UNL A   1      41.945  41.918  41.570  1.00  0.00    -0.744 OA
ENDBRANCH  85  89
ENDBRANCH  58  82
BRANCH  70  93
ATOM     93  C   UNL A   1      37.799  32.767  41.011  1.00  0.00     0.023 A 
ATOM     94  C   UNL A   1      36.476  33.160  41.282  1.00  0.00     0.031 A 
ATOM     95  C   UNL A   1      38.335  31.700  41.757  1.00  0.00     0.131 A 
ATOM     96  C   UNL A   1      35.757  32.531  42.309  1.00  0.00     0.055 A 
ATOM     97  C   UNL A   1      37.590  31.033  42.729  1.00  0.00     0.041 A 
ATOM     98  F   UNL A   1      39.594  31.283  41.545  1.00  0.00    -0.206 F 
ATOM     99  C   UNL A   1      36.297  31.456  43.020  1.00  0.00     0.022 A 
BRANCH  96 100
ATOM    100  S   UNL A   1      34.136  33.200  42.774  1.00  0.00     0.124 S 
ATOM    101  O   UNL A   1      33.634  32.177  43.685  1.00  0.00    -0.237 OA
ATOM    102  O   UNL A   1      34.489  34.479  43.383  1.00  0.00    -0.237 OA
ATOM    103  O   UNL A   1      33.426  33.297  41.499  1.00  0.00    -0.744 OA
ENDBRANCH  96 100
ENDBRANCH  70  93
ENDBRANCH  44  45
ENDBRANCH  37  39
ENDBRANCH  36  37
ENDBRANCH  35  36
ENDBRANCH  34  35
ENDBRANCH  33  34
ENDBRANCH  32  33
ENDBRANCH  31  32
ENDBRANCH  30  31
ENDBRANCH  29  30
ENDBRANCH   1  29
TORSDOF 30
ENDMDL
MODEL 3
REMARK VINA RESULT:      -7.6      6.417     10.171
REMARK SMILES CC(C)[C@H](NC(=O)OCc1ccccc1)C(=O)NCC(=O)OCCOCCOCCOCCOC(=O)c1ccc(-c2c3nc(c(-c4cc(S(=O)(=O)[O-])ccc4F)c4ccc([nH]4)c(-c4cc(S(=O)(=O)[O-])ccc4F)c4nc(c(-c5cc(S(=O)(=O)[O-])ccc5F)c5ccc2[nH]5)C=C4)C=C3)cc1
REMARK SMILES IDX 26 1 25 2 24 3 23 4 22 5 20 6 21 7 19 8 18 9 16 10 17 11
REMARK SMILES IDX 4 13 2 14 1 15 3 16 5 17 6 18 7 20 8 21 9 22 10 23 11 24
REMARK SMILES IDX 15 25 12 26 14 27 13 28 27 29 28 30 29 31 30 32 31 33 32 34
REMARK SMILES IDX 33 35 34 36 35 37 36 38 37 39 38 40 99 41 39 42 98 43 40 44
REMARK SMILES IDX 41 45 42 46 92 47 43 48 97 49 91 50 93 51 44 52 96 53 90 54
REMARK SMILES IDX 89 55 45 57 77 58 57 59 76 60 58 61 61 62 75 63 94 64 59 65
REMARK SMILES IDX 60 66 74 68 95 69 62 70 46 71 47 72 55 73 48 74 54 75 56 76
REMARK SMILES IDX 53 77 49 78 50 79 51 80 52 81 78 82 79 83 87 84 80 85 86 86
REMARK SMILES IDX 88 87 85 88 81 89 82 90 83 91 84 92 63 93 64 94 72 95 65 96
REMARK SMILES IDX 71 97 73 98 70 99 66 100 67 101 68 102 69 103
REMARK H PARENT 18 12 5 19 93 56 61 67
REMARK Flexibility Score: inf
ROOT
ATOM      1  C   UNL A   1      33.734  25.435  25.778  1.00  0.00     0.188 C 
ENDROOT
BRANCH   1   2
ATOM      2  O   UNL A   1      34.792  24.843  25.051  1.00  0.00    -0.376 OA
BRANCH   2   3
ATOM      3  C   UNL A   1      35.708  23.902  25.601  1.00  0.00     0.202 C 
BRANCH   3   4
ATOM      4  C   UNL A   1      37.001  23.423  24.925  1.00  0.00     0.261 C 
BRANCH   4   5
ATOM      5  O   UNL A   1      37.838  22.605  25.741  1.00  0.00    -0.462 OA
BRANCH   5   6
ATOM      6  C   UNL A   1      38.929  23.232  26.240  1.00  0.00     0.325 C 
ATOM      7  O   UNL A   1      39.104  24.446  26.264  1.00  0.00    -0.250 OA
BRANCH   6   8
ATOM      8  C   UNL A   1      39.858  22.279  26.975  1.00  0.00     0.238 C 
BRANCH   8   9
ATOM      9  N   UNL A   1      40.552  21.195  26.260  1.00  0.00    -0.343 N 
ATOM     10  C   UNL A   1      41.913  21.034  26.107  1.00  0.00     0.243 C 
ATOM     11  O   UNL A   1      42.396  19.909  26.006  1.00  0.00    -0.273 OA
ATOM     12  H   UNL A   1      39.981  20.506  25.847  1.00  0.00     0.164 HD
BRANCH  10  13
ATOM     13  C   UNL A   1      42.777  22.308  26.132  1.00  0.00     0.177 C 
BRANCH  13  14
ATOM     14  C   UNL A   1      43.888  22.354  25.039  1.00  0.00     0.015 C 
ATOM     15  C   UNL A   1      44.346  23.748  24.572  1.00  0.00     0.010 C 
ATOM     16  C   UNL A   1      45.133  21.613  25.541  1.00  0.00     0.010 C 
ENDBRANCH  13  14
BRANCH  13  17
ATOM     17  N   UNL A   1      43.263  22.273  27.519  1.00  0.00    -0.309 N 
ATOM     18  C   UNL A   1      43.938  23.175  28.244  1.00  0.00     0.408 C 
ATOM     19  H   UNL A   1      43.058  21.439  28.000  1.00  0.00     0.167 HD
ATOM     20  O   UNL A   1      44.585  22.808  29.222  1.00  0.00    -0.225 OA
BRANCH  18  21
ATOM     21  O   UNL A   1      43.780  24.437  27.814  1.00  0.00    -0.445 OA
BRANCH  21  22
ATOM     22  C   UNL A   1      42.738  25.143  28.486  1.00  0.00     0.270 C 
BRANCH  22  23
ATOM     23  C   UNL A   1      42.874  26.650  28.400  1.00  0.00    -0.011 A 
ATOM     24  C   UNL A   1      41.953  27.454  29.083  1.00  0.00     0.007 A 
ATOM     25  C   UNL A   1      43.824  27.283  27.580  1.00  0.00     0.007 A 
ATOM     26  C   UNL A   1      41.985  28.844  28.952  1.00  0.00     0.000 A 
ATOM     27  C   UNL A   1      43.855  28.671  27.446  1.00  0.00     0.000 A 
ATOM     28  C   UNL A   1      42.932  29.451  28.131  1.00  0.00     0.000 A 
ENDBRANCH  22  23
ENDBRANCH  21  22
ENDBRANCH  18  21
ENDBRANCH  13  17
ENDBRANCH  10  13
ENDBRANCH   8   9
ENDBRANCH   6   8
ENDBRANCH   5   6
ENDBRANCH   4   5
ENDBRANCH   3   4
ENDBRANCH   2   3
ENDBRANCH   1   2
BRANCH   1  29
ATOM     29  C   UNL A   1      33.238  26.855  25.468  1.00  0.00     0.188 C 
BRANCH  29  30
ATOM     30  O   UNL A   1      33.130  27.730  26.570  1.00  0.00    -0.377 OA
BRANCH  30  31
ATOM     31  C   UNL A   1      33.993  28.870  26.614  1.00  0.00     0.188 C 
BRANCH  31  32
ATOM     32  C   UNL A   1      33.549  30.172  27.323  1.00  0.00     0.188 C 
BRANCH  32  33
ATOM     33  O   UNL A   1      34.573  31.131  27.528  1.00  0.00    -0.376 OA
BRANCH  33  34
ATOM     34  C   UNL A   1      34.219  32.484  27.768  1.00  0.00     0.202 C 
BRANCH  34  35
ATOM     35  C   UNL A   1      33.801  32.901  29.188  1.00  0.00     0.261 C 
BRANCH  35  36
ATOM     36  O   UNL A   1      34.507  34.009  29.770  1.00  0.00    -0.460 OA
BRANCH  36  37
ATOM     37  C   UNL A   1      34.455  34.160  31.112  1.00  0.00     0.338 C 
ATOM     38  O   UNL A   1      33.487  34.486  31.772  1.00  0.00    -0.246 OA
BRANCH  37  39
ATOM     39  C   UNL A   1      35.729  33.654  31.666  1.00  0.00     0.060 A 
ATOM     40  C   UNL A   1      35.783  32.344  32.161  1.00  0.00     0.016 A 
ATOM     41  C   UNL A   1      36.861  34.469  31.702  1.00  0.00     0.016 A 
ATOM     42  C   UNL A   1      36.962  31.857  32.728  1.00  0.00     0.010 A 
ATOM     43  C   UNL A   1      38.034  33.990  32.293  1.00  0.00     0.010 A 
ATOM     44  C   UNL A   1      38.080  32.695  32.841  1.00  0.00    -0.014 A 
BRANCH  44  45
ATOM     45  C   UNL A   1      39.213  32.298  33.715  1.00  0.00     0.031 A 
ATOM     46  C   UNL A   1      39.141  32.663  35.174  1.00  0.00     0.074 A 
ATOM     47  C   UNL A   1      40.265  31.607  33.240  1.00  0.00     0.049 A 
ATOM     48  N   UNL A   1      40.033  32.508  36.117  1.00  0.00    -0.248 NA
ATOM     49  C   UNL A   1      37.889  33.290  35.626  1.00  0.00     0.031 C 
ATOM     50  C   UNL A   1      40.415  31.134  31.866  1.00  0.00     0.029 A 
ATOM     51  N   UNL A   1      41.411  31.186  33.868  1.00  0.00    -0.354 N 
ATOM     52  C   UNL A   1      39.451  33.014  37.274  1.00  0.00     0.074 A 
ATOM     53  C   UNL A   1      38.149  33.525  36.902  1.00  0.00     0.031 C 
ATOM     54  C   UNL A   1      41.596  30.499  31.752  1.00  0.00     0.029 A 
ATOM     55  C   UNL A   1      42.305  30.561  33.029  1.00  0.00     0.049 A 
ATOM     56  H   UNL A   1      41.579  31.320  34.829  1.00  0.00     0.167 HD
ATOM     57  C   UNL A   1      39.949  33.037  38.535  1.00  0.00     0.034 A 
ATOM     58  C   UNL A   1      43.560  30.123  33.261  1.00  0.00     0.034 A 
ATOM     59  C   UNL A   1      41.257  32.544  38.888  1.00  0.00     0.049 A 
ATOM     60  C   UNL A   1      44.149  30.287  34.647  1.00  0.00     0.074 A 
ATOM     61  C   UNL A   1      41.869  32.538  40.129  1.00  0.00     0.029 A 
ATOM     62  N   UNL A   1      42.158  31.975  37.998  1.00  0.00    -0.354 N 
ATOM     63  N   UNL A   1      43.595  30.781  35.731  1.00  0.00    -0.248 NA
ATOM     64  C   UNL A   1      45.532  29.827  34.840  1.00  0.00     0.031 C 
ATOM     65  C   UNL A   1      43.166  32.039  39.976  1.00  0.00     0.029 A 
ATOM     66  C   UNL A   1      43.332  31.644  38.657  1.00  0.00     0.049 A 
ATOM     67  H   UNL A   1      41.989  31.828  37.040  1.00  0.00     0.167 HD
ATOM     68  C   UNL A   1      44.548  30.646  36.741  1.00  0.00     0.074 A 
ATOM     69  C   UNL A   1      45.702  30.014  36.140  1.00  0.00     0.031 C 
ATOM     70  C   UNL A   1      44.475  31.008  38.048  1.00  0.00     0.034 A 
BRANCH  57  71
ATOM     71  C   UNL A   1      39.089  33.658  39.609  1.00  0.00     0.023 A 
ATOM     72  C   UNL A   1      38.022  32.953  40.194  1.00  0.00     0.031 A 
ATOM     73  C   UNL A   1      39.323  34.975  40.040  1.00  0.00     0.131 A 
ATOM     74  C   UNL A   1      37.190  33.592  41.126  1.00  0.00     0.055 A 
ATOM     75  C   UNL A   1      38.544  35.575  41.030  1.00  0.00     0.041 A 
ATOM     76  F   UNL A   1      40.310  35.705  39.499  1.00  0.00    -0.206 F 
ATOM     77  C   UNL A   1      37.461  34.887  41.570  1.00  0.00     0.022 A 
BRANCH  74  78
ATOM     78  S   UNL A   1      35.665  32.754  41.639  1.00  0.00     0.124 S 
ATOM     79  O   UNL A   1      35.075  33.741  42.539  1.00  0.00    -0.237 OA
ATOM     80  O   UNL A   1      34.974  32.551  40.370  1.00  0.00    -0.237 OA
ATOM     81  O   UNL A   1      36.146  31.536  42.290  1.00  0.00    -0.744 OA
ENDBRANCH  74  78
ENDBRANCH  57  71
BRANCH  58  82
ATOM     82  C   UNL A   1      44.384  29.534  32.162  1.00  0.00     0.023 A 
ATOM     83  C   UNL A   1      44.522  28.143  32.028  1.00  0.00     0.031 A 
ATOM     84  C   UNL A   1      45.130  30.353  31.294  1.00  0.00     0.131 A 
ATOM     85  C   UNL A   1      45.437  27.614  31.103  1.00  0.00     0.055 A 
ATOM     86  C   UNL A   1      45.985  29.821  30.326  1.00  0.00     0.041 A 
ATOM     87  F   UNL A   1      45.048  31.690  31.382  1.00  0.00    -0.206 F 
ATOM     88  C   UNL A   1      46.157  28.443  30.241  1.00  0.00     0.022 A 
BRANCH  85  89
ATOM     89  S   UNL A   1      45.779  25.833  31.146  1.00  0.00     0.124 S 
ATOM     90  O   UNL A   1      46.733  25.744  32.246  1.00  0.00    -0.237 OA
ATOM     91  O   UNL A   1      44.453  25.277  31.400  1.00  0.00    -0.237 OA
ATOM     92  O   UNL A   1      46.325  25.560  29.819  1.00  0.00    -0.744 OA
ENDBRANCH  85  89
ENDBRANCH  58  82
BRANCH  70  93
ATOM     93  C   UNL A   1      45.652  30.663  38.931  1.00  0.00     0.023 A 
ATOM     94  C   UNL A   1      45.696  29.480  39.689  1.00  0.00     0.031 A 
ATOM     95  C   UNL A   1      46.751  31.540  39.013  1.00  0.00     0.131 A 
ATOM     96  C   UNL A   1      46.786  29.233  40.537  1.00  0.00     0.055 A 
ATOM     97  C   UNL A   1      47.863  31.255  39.806  1.00  0.00     0.041 A 
ATOM     98  F   UNL A   1      46.764  32.686  38.315  1.00  0.00    -0.206 F 
ATOM     99  C   UNL A   1      47.879  30.102  40.586  1.00  0.00     0.022 A 
BRANCH  96 100
ATOM    100  S   UNL A   1      46.713  27.808  41.657  1.00  0.00     0.124 S 
ATOM    101  O   UNL A   1      48.057  27.798  42.225  1.00  0.00    -0.237 OA
ATOM    102  O   UNL A   1      45.638  28.181  42.570  1.00  0.00    -0.237 OA
ATOM    103  O   UNL A   1      46.409  26.687  40.767  1.00  0.00    -0.744 OA
ENDBRANCH  96 100
ENDBRANCH  70  93
ENDBRANCH  44  45
ENDBRANCH  37  39
ENDBRANCH  36  37
ENDBRANCH  35  36
ENDBRANCH  34  35
ENDBRANCH  33  34
ENDBRANCH  32  33
ENDBRANCH  31  32
ENDBRANCH  30  31
ENDBRANCH  29  30
ENDBRANCH   1  29
TORSDOF 30
ENDMDL
