MODEL 1
REMARK VINA RESULT:      -9.4      0.000      0.000
REMARK SMILES Cc1cccc(C(=O)OCCOCCOCCOCCOC(=O)c2ccc(-c3c4nc(c(-c5cc(S(=O)(=O)[O-])ccc5F)c5ccc([nH]5)c(-c5cc(S(=O)(=O)[O-])ccc5F)c5nc(c(-c6cc(S(=O)(=O)[O-])ccc6F)c6ccc3[nH]6)C=C5)C=C4)cc2)c1OC[C@@H]1C[C@H]2CC[C@@H]1C2
REMARK SMILES IDX 15 1 14 2 13 3 12 4 11 5 10 6 9 7 7 8 8 9 6 10 1 11 2 12
REMARK SMILES IDX 3 13 87 14 4 15 5 16 88 17 89 18 90 19 91 20 95 21 92 22
REMARK SMILES IDX 94 23 96 24 93 25 16 26 17 27 18 28 19 29 20 30 21 31 22 32
REMARK SMILES IDX 23 33 24 34 25 35 86 36 26 37 85 38 27 39 28 40 29 41 79 42
REMARK SMILES IDX 30 43 84 44 78 45 80 46 31 47 83 48 77 49 76 50 32 52 64 53
REMARK SMILES IDX 44 54 63 55 45 56 48 57 62 58 81 59 46 60 47 61 61 63 82 64
REMARK SMILES IDX 49 65 33 66 34 67 42 68 35 69 41 70 43 71 40 72 36 73 37 74
REMARK SMILES IDX 38 75 39 76 65 77 66 78 74 79 67 80 73 81 75 82 72 83 68 84
REMARK SMILES IDX 69 85 70 86 71 87 50 88 51 89 59 90 52 91 58 92 60 93 57 94
REMARK SMILES IDX 53 95 54 96 55 97 56 98
REMARK H PARENT 80 51 48 62
REMARK Flexibility Score: inf
ROOT
ATOM      1  O   UNL A   1      42.000  21.229  26.361  1.00  0.00    -0.377 OA
ENDROOT
BRANCH   1   2
ATOM      2  C   UNL A   1      40.608  21.001  26.474  1.00  0.00     0.188 C 
BRANCH   2   3
ATOM      3  C   UNL A   1      39.750  22.281  26.359  1.00  0.00     0.188 C 
BRANCH   3   4
ATOM      4  O   UNL A   1      38.330  22.172  26.427  1.00  0.00    -0.376 OA
BRANCH   4   5
ATOM      5  C   UNL A   1      37.700  21.720  25.220  1.00  0.00     0.202 C 
BRANCH   5   6
ATOM      6  C   UNL A   1      36.983  22.786  24.401  1.00  0.00     0.261 C 
BRANCH   6   7
ATOM      7  O   UNL A   1      35.729  22.247  23.966  1.00  0.00    -0.460 OA
BRANCH   7   8
ATOM      8  C   UNL A   1      34.910  23.106  23.331  1.00  0.00     0.342 C 
ATOM      9  O   UNL A   1      34.526  23.073  22.183  1.00  0.00    -0.246 OA
BRANCH   8  10
ATOM     10  C   UNL A   1      34.100  23.737  24.384  1.00  0.00     0.102 A 
ATOM     11  C   UNL A   1      31.574  23.414  27.247  1.00  0.00     0.048 C 
ATOM     12  C   UNL A   1      32.569  23.855  26.216  1.00  0.00    -0.008 A 
ATOM     13  C   UNL A   1      32.556  25.270  26.030  1.00  0.00     0.007 A 
ATOM     14  C   UNL A   1      33.390  23.055  25.402  1.00  0.00     0.136 A 
ATOM     15  C   UNL A   1      33.242  25.902  25.007  1.00  0.00     0.001 A 
ATOM     16  C   UNL A   1      34.009  25.128  24.173  1.00  0.00     0.019 A 
BRANCH  14  17
ATOM     17  O   UNL A   1      33.533  21.702  25.370  1.00  0.00    -0.492 OA
BRANCH  17  18
ATOM     18  C   UNL A   1      32.646  20.713  24.822  1.00  0.00     0.233 C 
BRANCH  18  19
ATOM     19  C   UNL A   1      33.191  19.303  25.050  1.00  0.00     0.030 C 
ATOM     20  C   UNL A   1      34.605  18.989  24.509  1.00  0.00     0.011 C 
ATOM     21  C   UNL A   1      32.364  18.166  24.396  1.00  0.00    -0.004 C 
ATOM     22  C   UNL A   1      34.452  17.535  24.011  1.00  0.00    -0.010 C 
ATOM     23  C   UNL A   1      32.493  16.962  25.326  1.00  0.00     0.004 C 
ATOM     24  C   UNL A   1      33.183  17.694  23.190  1.00  0.00     0.007 C 
ATOM     25  C   UNL A   1      33.976  16.597  25.151  1.00  0.00     0.004 C 
ENDBRANCH  18  19
ENDBRANCH  17  18
ENDBRANCH  14  17
ENDBRANCH   8  10
ENDBRANCH   7   8
ENDBRANCH   6   7
ENDBRANCH   5   6
ENDBRANCH   4   5
ENDBRANCH   3   4
ENDBRANCH   2   3
ENDBRANCH   1   2
BRANCH   1  26
ATOM     26  C   UNL A   1      42.530  22.340  27.073  1.00  0.00     0.188 C 
BRANCH  26  27
ATOM     27  C   UNL A   1      42.660  22.240  28.571  1.00  0.00     0.188 C 
BRANCH  27  28
ATOM     28  O   UNL A   1      43.336  23.389  29.074  1.00  0.00    -0.376 OA
BRANCH  28  29
ATOM     29  C   UNL A   1      44.390  23.849  28.247  1.00  0.00     0.202 C 
BRANCH  29  30
ATOM     30  C   UNL A   1      45.650  24.169  29.056  1.00  0.00     0.261 C 
BRANCH  30  31
ATOM     31  O   UNL A   1      45.706  25.589  29.329  1.00  0.00    -0.460 OA
BRANCH  31  32
ATOM     32  C   UNL A   1      46.268  25.937  30.525  1.00  0.00     0.338 C 
ATOM     33  O   UNL A   1      47.350  25.534  30.917  1.00  0.00    -0.246 OA
BRANCH  32  34
ATOM     34  C   UNL A   1      45.314  26.752  31.343  1.00  0.00     0.060 A 
ATOM     35  C   UNL A   1      44.056  26.247  31.717  1.00  0.00     0.016 A 
ATOM     36  C   UNL A   1      45.548  28.111  31.467  1.00  0.00     0.016 A 
ATOM     37  C   UNL A   1      42.985  27.127  31.998  1.00  0.00     0.010 A 
ATOM     38  C   UNL A   1      44.466  28.955  31.637  1.00  0.00     0.010 A 
ATOM     39  C   UNL A   1      43.150  28.499  31.840  1.00  0.00    -0.014 A 
BRANCH  39  40
ATOM     40  C   UNL A   1      42.080  29.541  31.768  1.00  0.00     0.031 A 
ATOM     41  C   UNL A   1      41.889  30.403  32.999  1.00  0.00     0.074 A 
ATOM     42  C   UNL A   1      41.581  29.979  30.569  1.00  0.00     0.049 A 
ATOM     43  N   UNL A   1      41.241  31.513  33.030  1.00  0.00    -0.248 NA
ATOM     44  C   UNL A   1      42.501  30.135  34.306  1.00  0.00     0.031 C 
ATOM     45  C   UNL A   1      41.015  31.299  30.273  1.00  0.00     0.029 A 
ATOM     46  N   UNL A   1      41.496  29.373  29.305  1.00  0.00    -0.354 N 
ATOM     47  C   UNL A   1      41.626  32.248  34.130  1.00  0.00     0.074 A 
ATOM     48  C   UNL A   1      42.372  31.315  34.930  1.00  0.00     0.031 C 
ATOM     49  C   UNL A   1      40.534  31.381  29.024  1.00  0.00     0.029 A 
ATOM     50  C   UNL A   1      40.464  30.021  28.577  1.00  0.00     0.049 A 
ATOM     51  H   UNL A   1      42.052  28.628  28.981  1.00  0.00     0.167 HD
ATOM     52  C   UNL A   1      41.345  33.587  34.144  1.00  0.00     0.034 A 
ATOM     53  C   UNL A   1      39.307  29.382  28.259  1.00  0.00     0.034 A 
ATOM     54  C   UNL A   1      40.387  33.929  33.080  1.00  0.00     0.049 A 
ATOM     55  C   UNL A   1      38.193  30.072  29.045  1.00  0.00     0.074 A 
ATOM     56  C   UNL A   1      40.354  34.851  32.053  1.00  0.00     0.029 A 
ATOM     57  N   UNL A   1      39.276  33.104  32.880  1.00  0.00    -0.354 N 
ATOM     58  N   UNL A   1      38.362  30.620  30.233  1.00  0.00    -0.248 NA
ATOM     59  C   UNL A   1      36.942  30.496  28.417  1.00  0.00     0.031 C 
ATOM     60  C   UNL A   1      39.345  34.432  31.128  1.00  0.00     0.029 A 
ATOM     61  C   UNL A   1      38.697  33.318  31.648  1.00  0.00     0.049 A 
ATOM     62  H   UNL A   1      38.948  32.451  33.538  1.00  0.00     0.167 HD
ATOM     63  C   UNL A   1      37.418  31.603  30.413  1.00  0.00     0.074 A 
ATOM     64  C   UNL A   1      36.506  31.426  29.287  1.00  0.00     0.031 C 
ATOM     65  C   UNL A   1      37.456  32.651  31.301  1.00  0.00     0.034 A 
BRANCH  52  66
ATOM     66  C   UNL A   1      42.012  34.664  35.000  1.00  0.00     0.023 A 
ATOM     67  C   UNL A   1      41.504  34.936  36.298  1.00  0.00     0.031 A 
ATOM     68  C   UNL A   1      43.044  35.532  34.580  1.00  0.00     0.131 A 
ATOM     69  C   UNL A   1      41.993  35.998  37.090  1.00  0.00     0.055 A 
ATOM     70  C   UNL A   1      43.569  36.553  35.392  1.00  0.00     0.041 A 
ATOM     71  F   UNL A   1      43.564  35.474  33.349  1.00  0.00    -0.206 F 
ATOM     72  C   UNL A   1      43.043  36.797  36.651  1.00  0.00     0.022 A 
BRANCH  69  73
ATOM     73  S   UNL A   1      41.222  36.357  38.699  1.00  0.00     0.124 S 
ATOM     74  O   UNL A   1      40.863  35.025  39.173  1.00  0.00    -0.237 OA
ATOM     75  O   UNL A   1      42.292  37.038  39.418  1.00  0.00    -0.237 OA
ATOM     76  O   UNL A   1      40.084  37.208  38.348  1.00  0.00    -0.744 OA
ENDBRANCH  69  73
ENDBRANCH  52  66
BRANCH  53  77
ATOM     77  C   UNL A   1      39.634  27.964  27.884  1.00  0.00     0.023 A 
ATOM     78  C   UNL A   1      40.488  27.848  26.744  1.00  0.00     0.031 A 
ATOM     79  C   UNL A   1      39.758  26.978  28.874  1.00  0.00     0.131 A 
ATOM     80  C   UNL A   1      41.597  26.979  26.767  1.00  0.00     0.055 A 
ATOM     81  C   UNL A   1      40.823  26.061  28.849  1.00  0.00     0.041 A 
ATOM     82  F   UNL A   1      38.992  27.017  29.973  1.00  0.00    -0.206 F 
ATOM     83  C   UNL A   1      41.794  26.117  27.845  1.00  0.00     0.022 A 
BRANCH  80  84
ATOM     84  S   UNL A   1      42.933  27.197  25.539  1.00  0.00     0.124 S 
ATOM     85  O   UNL A   1      44.035  27.673  26.368  1.00  0.00    -0.237 OA
ATOM     86  O   UNL A   1      43.097  25.857  24.983  1.00  0.00    -0.237 OA
ATOM     87  O   UNL A   1      42.381  28.174  24.601  1.00  0.00    -0.744 OA
ENDBRANCH  80  84
ENDBRANCH  53  77
BRANCH  65  88
ATOM     88  C   UNL A   1      36.205  33.177  31.960  1.00  0.00     0.023 A 
ATOM     89  C   UNL A   1      35.341  34.023  31.270  1.00  0.00     0.031 A 
ATOM     90  C   UNL A   1      35.747  32.715  33.222  1.00  0.00     0.131 A 
ATOM     91  C   UNL A   1      34.145  34.457  31.843  1.00  0.00     0.055 A 
ATOM     92  C   UNL A   1      34.506  33.067  33.750  1.00  0.00     0.041 A 
ATOM     93  F   UNL A   1      36.456  31.871  33.984  1.00  0.00    -0.206 F 
ATOM     94  C   UNL A   1      33.700  33.962  33.066  1.00  0.00     0.022 A 
BRANCH  91  95
ATOM     95  S   UNL A   1      33.253  35.750  30.963  1.00  0.00     0.124 S 
ATOM     96  O   UNL A   1      31.916  35.625  31.538  1.00  0.00    -0.237 OA
ATOM     97  O   UNL A   1      33.991  36.953  31.337  1.00  0.00    -0.237 OA
ATOM     98  O   UNL A   1      33.371  35.355  29.563  1.00  0.00    -0.744 OA
ENDBRANCH  91  95
ENDBRANCH  65  88
ENDBRANCH  39  40
ENDBRANCH  32  34
ENDBRANCH  31  32
ENDBRANCH  30  31
ENDBRANCH  29  30
ENDBRANCH  28  29
ENDBRANCH  27  28
ENDBRANCH  26  27
ENDBRANCH   1  26
TORSDOF 26
ENDMDL
MODEL 2
REMARK VINA RESULT:      -9.3      2.700      6.908
REMARK SMILES Cc1cccc(C(=O)OCCOCCOCCOCCOC(=O)c2ccc(-c3c4nc(c(-c5cc(S(=O)(=O)[O-])ccc5F)c5ccc([nH]5)c(-c5cc(S(=O)(=O)[O-])ccc5F)c5nc(c(-c6cc(S(=O)(=O)[O-])ccc6F)c6ccc3[nH]6)C=C5)C=C4)cc2)c1OC[C@@H]1C[C@H]2CC[C@@H]1C2
REMARK SMILES IDX 15 1 14 2 13 3 12 4 11 5 10 6 9 7 7 8 8 9 6 10 1 11 2 12
REMARK SMILES IDX 3 13 87 14 4 15 5 16 88 17 89 18 90 19 91 20 95 21 92 22
REMARK SMILES IDX 94 23 96 24 93 25 16 26 17 27 18 28 19 29 20 30 21 31 22 32
REMARK SMILES IDX 23 33 24 34 25 35 86 36 26 37 85 38 27 39 28 40 29 41 79 42
REMARK SMILES IDX 30 43 84 44 78 45 80 46 31 47 83 48 77 49 76 50 32 52 64 53
REMARK SMILES IDX 44 54 63 55 45 56 48 57 62 58 81 59 46 60 47 61 61 63 82 64
REMARK SMILES IDX 49 65 33 66 34 67 42 68 35 69 41 70 43 71 40 72 36 73 37 74
REMARK SMILES IDX 38 75 39 76 65 77 66 78 74 79 67 80 73 81 75 82 72 83 68 84
REMARK SMILES IDX 69 85 70 86 71 87 50 88 51 89 59 90 52 91 58 92 60 93 57 94
REMARK SMILES IDX 53 95 54 96 55 97 56 98
REMARK H PARENT 80 51 48 62
REMARK Flexibility Score: inf
ROOT
ATOM      1  O   UNL A   1      40.184  20.759  25.763  1.00  0.00    -0.377 OA
ENDROOT
BRANCH   1   2
ATOM      2  C   UNL A   1      39.388  21.866  26.142  1.00  0.00     0.188 C 
BRANCH   2   3
ATOM      3  C   UNL A   1      37.951  21.831  25.575  1.00  0.00     0.188 C 
BRANCH   3   4
ATOM      4  O   UNL A   1      37.367  23.039  25.091  1.00  0.00    -0.376 OA
BRANCH   4   5
ATOM      5  C   UNL A   1      36.558  23.743  26.044  1.00  0.00     0.202 C 
BRANCH   5   6
ATOM      6  C   UNL A   1      35.338  22.995  26.567  1.00  0.00     0.261 C 
BRANCH   6   7
ATOM      7  O   UNL A   1      34.206  23.869  26.474  1.00  0.00    -0.460 OA
BRANCH   7   8
ATOM      8  C   UNL A   1      33.008  23.304  26.719  1.00  0.00     0.342 C 
ATOM      9  O   UNL A   1      32.358  23.331  27.740  1.00  0.00    -0.246 OA
BRANCH   8  10
ATOM     10  C   UNL A   1      32.357  23.164  25.408  1.00  0.00     0.102 A 
ATOM     11  C   UNL A   1      31.894  21.216  22.141  1.00  0.00     0.048 C 
ATOM     12  C   UNL A   1      31.836  22.166  23.299  1.00  0.00    -0.008 A 
ATOM     13  C   UNL A   1      31.170  23.382  22.961  1.00  0.00     0.007 A 
ATOM     14  C   UNL A   1      32.418  22.023  24.571  1.00  0.00     0.136 A 
ATOM     15  C   UNL A   1      31.153  24.488  23.794  1.00  0.00     0.001 A 
ATOM     16  C   UNL A   1      31.760  24.381  25.019  1.00  0.00     0.019 A 
BRANCH  14  17
ATOM     17  O   UNL A   1      33.129  20.987  25.093  1.00  0.00    -0.492 OA
BRANCH  17  18
ATOM     18  C   UNL A   1      34.135  20.174  24.466  1.00  0.00     0.233 C 
BRANCH  18  19
ATOM     19  C   UNL A   1      33.916  18.695  24.777  1.00  0.00     0.030 C 
ATOM     20  C   UNL A   1      35.078  17.721  24.471  1.00  0.00     0.011 C 
ATOM     21  C   UNL A   1      32.755  18.025  23.998  1.00  0.00    -0.004 C 
ATOM     22  C   UNL A   1      34.333  16.471  23.953  1.00  0.00    -0.010 C 
ATOM     23  C   UNL A   1      32.169  16.971  24.937  1.00  0.00     0.004 C 
ATOM     24  C   UNL A   1      33.419  17.138  22.939  1.00  0.00     0.007 C 
ATOM     25  C   UNL A   1      33.315  15.949  25.002  1.00  0.00     0.004 C 
ENDBRANCH  18  19
ENDBRANCH  17  18
ENDBRANCH  14  17
ENDBRANCH   8  10
ENDBRANCH   7   8
ENDBRANCH   6   7
ENDBRANCH   5   6
ENDBRANCH   4   5
ENDBRANCH   3   4
ENDBRANCH   2   3
ENDBRANCH   1   2
BRANCH   1  26
ATOM     26  C   UNL A   1      41.095  20.260  26.735  1.00  0.00     0.188 C 
BRANCH  26  27
ATOM     27  C   UNL A   1      42.510  20.777  26.729  1.00  0.00     0.188 C 
BRANCH  27  28
ATOM     28  O   UNL A   1      43.060  20.662  25.421  1.00  0.00    -0.376 OA
BRANCH  28  29
ATOM     29  C   UNL A   1      43.871  21.758  25.035  1.00  0.00     0.202 C 
BRANCH  29  30
ATOM     30  C   UNL A   1      45.222  21.749  25.755  1.00  0.00     0.261 C 
BRANCH  30  31
ATOM     31  O   UNL A   1      45.842  23.051  25.644  1.00  0.00    -0.460 OA
BRANCH  31  32
ATOM     32  C   UNL A   1      44.988  24.116  25.690  1.00  0.00     0.338 C 
ATOM     33  O   UNL A   1      44.566  24.700  24.706  1.00  0.00    -0.246 OA
BRANCH  32  34
ATOM     34  C   UNL A   1      44.765  24.558  27.104  1.00  0.00     0.060 A 
ATOM     35  C   UNL A   1      43.599  24.200  27.805  1.00  0.00     0.016 A 
ATOM     36  C   UNL A   1      45.561  25.570  27.611  1.00  0.00     0.016 A 
ATOM     37  C   UNL A   1      43.132  25.001  28.874  1.00  0.00     0.010 A 
ATOM     38  C   UNL A   1      45.035  26.401  28.584  1.00  0.00     0.010 A 
ATOM     39  C   UNL A   1      43.786  26.186  29.195  1.00  0.00    -0.014 A 
BRANCH  39  40
ATOM     40  C   UNL A   1      43.275  27.304  30.046  1.00  0.00     0.031 A 
ATOM     41  C   UNL A   1      42.388  28.326  29.365  1.00  0.00     0.074 A 
ATOM     42  C   UNL A   1      43.253  27.215  31.414  1.00  0.00     0.049 A 
ATOM     43  N   UNL A   1      41.634  29.171  29.972  1.00  0.00    -0.248 NA
ATOM     44  C   UNL A   1      42.196  28.424  27.913  1.00  0.00     0.031 C 
ATOM     45  C   UNL A   1      42.324  27.884  32.331  1.00  0.00     0.029 A 
ATOM     46  N   UNL A   1      44.023  26.472  32.323  1.00  0.00    -0.354 N 
ATOM     47  C   UNL A   1      40.654  29.621  29.116  1.00  0.00     0.074 A 
ATOM     48  C   UNL A   1      41.085  29.170  27.820  1.00  0.00     0.031 C 
ATOM     49  C   UNL A   1      42.625  27.658  33.618  1.00  0.00     0.029 A 
ATOM     50  C   UNL A   1      43.951  27.116  33.586  1.00  0.00     0.049 A 
ATOM     51  H   UNL A   1      44.525  25.650  32.121  1.00  0.00     0.167 HD
ATOM     52  C   UNL A   1      39.548  30.222  29.656  1.00  0.00     0.034 A 
ATOM     53  C   UNL A   1      45.035  27.721  34.140  1.00  0.00     0.034 A 
ATOM     54  C   UNL A   1      39.774  30.550  31.072  1.00  0.00     0.049 A 
ATOM     55  C   UNL A   1      44.734  29.219  34.171  1.00  0.00     0.074 A 
ATOM     56  C   UNL A   1      39.104  30.301  32.253  1.00  0.00     0.029 A 
ATOM     57  N   UNL A   1      40.992  31.127  31.446  1.00  0.00    -0.354 N 
ATOM     58  N   UNL A   1      43.996  29.839  33.271  1.00  0.00    -0.248 NA
ATOM     59  C   UNL A   1      44.938  30.032  35.370  1.00  0.00     0.031 C 
ATOM     60  C   UNL A   1      40.020  30.535  33.328  1.00  0.00     0.029 A 
ATOM     61  C   UNL A   1      41.209  31.026  32.804  1.00  0.00     0.049 A 
ATOM     62  H   UNL A   1      41.617  31.554  30.818  1.00  0.00     0.167 HD
ATOM     63  C   UNL A   1      43.452  30.968  33.836  1.00  0.00     0.074 A 
ATOM     64  C   UNL A   1      44.140  31.085  35.119  1.00  0.00     0.031 C 
ATOM     65  C   UNL A   1      42.356  31.678  33.408  1.00  0.00     0.034 A 
BRANCH  52  66
ATOM     66  C   UNL A   1      38.182  30.411  28.996  1.00  0.00     0.023 A 
ATOM     67  C   UNL A   1      37.524  31.664  29.102  1.00  0.00     0.031 A 
ATOM     68  C   UNL A   1      37.422  29.400  28.368  1.00  0.00     0.131 A 
ATOM     69  C   UNL A   1      36.210  31.867  28.625  1.00  0.00     0.055 A 
ATOM     70  C   UNL A   1      36.135  29.618  27.842  1.00  0.00     0.041 A 
ATOM     71  F   UNL A   1      37.856  28.137  28.276  1.00  0.00    -0.206 F 
ATOM     72  C   UNL A   1      35.519  30.852  27.972  1.00  0.00     0.022 A 
BRANCH  69  73
ATOM     73  S   UNL A   1      35.387  33.468  28.892  1.00  0.00     0.124 S 
ATOM     74  O   UNL A   1      34.964  33.825  27.542  1.00  0.00    -0.237 OA
ATOM     75  O   UNL A   1      34.330  33.127  29.837  1.00  0.00    -0.237 OA
ATOM     76  O   UNL A   1      36.451  34.309  29.442  1.00  0.00    -0.744 OA
ENDBRANCH  69  73
ENDBRANCH  52  66
BRANCH  53  77
ATOM     77  C   UNL A   1      46.246  26.876  33.860  1.00  0.00     0.023 A 
ATOM     78  C   UNL A   1      47.308  27.580  33.213  1.00  0.00     0.031 A 
ATOM     79  C   UNL A   1      46.610  25.844  34.738  1.00  0.00     0.131 A 
ATOM     80  C   UNL A   1      48.634  27.453  33.671  1.00  0.00     0.055 A 
ATOM     81  C   UNL A   1      47.949  25.670  35.131  1.00  0.00     0.041 A 
ATOM     82  F   UNL A   1      45.672  25.136  35.383  1.00  0.00    -0.206 F 
ATOM     83  C   UNL A   1      48.949  26.530  34.668  1.00  0.00     0.022 A 
BRANCH  80  84
ATOM     84  S   UNL A   1      49.877  28.700  33.181  1.00  0.00     0.124 S 
ATOM     85  O   UNL A   1      49.522  29.834  34.026  1.00  0.00    -0.237 OA
ATOM     86  O   UNL A   1      51.145  28.051  33.500  1.00  0.00    -0.237 OA
ATOM     87  O   UNL A   1      49.637  28.880  31.749  1.00  0.00    -0.744 OA
ENDBRANCH  80  84
ENDBRANCH  53  77
BRANCH  65  88
ATOM     88  C   UNL A   1      42.277  33.177  33.551  1.00  0.00     0.023 A 
ATOM     89  C   UNL A   1      41.714  33.753  34.688  1.00  0.00     0.031 A 
ATOM     90  C   UNL A   1      42.914  34.071  32.651  1.00  0.00     0.131 A 
ATOM     91  C   UNL A   1      41.701  35.137  34.864  1.00  0.00     0.055 A 
ATOM     92  C   UNL A   1      42.991  35.444  32.879  1.00  0.00     0.041 A 
ATOM     93  F   UNL A   1      43.527  33.658  31.533  1.00  0.00    -0.206 F 
ATOM     94  C   UNL A   1      42.364  35.991  33.987  1.00  0.00     0.022 A 
BRANCH  91  95
ATOM     95  S   UNL A   1      40.715  35.765  36.233  1.00  0.00     0.124 S 
ATOM     96  O   UNL A   1      40.204  34.527  36.816  1.00  0.00    -0.237 OA
ATOM     97  O   UNL A   1      41.704  36.479  37.034  1.00  0.00    -0.237 OA
ATOM     98  O   UNL A   1      39.717  36.605  35.579  1.00  0.00    -0.744 OA
ENDBRANCH  91  95
ENDBRANCH  65  88
ENDBRANCH  39  40
ENDBRANCH  32  34
ENDBRANCH  31  32
ENDBRANCH  30  31
ENDBRANCH  29  30
ENDBRANCH  28  29
ENDBRANCH  27  28
ENDBRANCH  26  27
ENDBRANCH   1  26
TORSDOF 26
ENDMDL
MODEL 3
REMARK VINA RESULT:      -9.1      2.415      6.871
REMARK SMILES Cc1cccc(C(=O)OCCOCCOCCOCCOC(=O)c2ccc(-c3c4nc(c(-c5cc(S(=O)(=O)[O-])ccc5F)c5ccc([nH]5)c(-c5cc(S(=O)(=O)[O-])ccc5F)c5nc(c(-c6cc(S(=O)(=O)[O-])ccc6F)c6ccc3[nH]6)C=C5)C=C4)cc2)c1OC[C@@H]1C[C@H]2CC[C@@H]1C2
REMARK SMILES IDX 15 1 14 2 13 3 12 4 11 5 10 6 9 7 7 8 8 9 6 10 1 11 2 12
REMARK SMILES IDX 3 13 87 14 4 15 5 16 88 17 89 18 90 19 91 20 95 21 92 22
REMARK SMILES IDX 94 23 96 24 93 25 16 26 17 27 18 28 19 29 20 30 21 31 22 32
REMARK SMILES IDX 23 33 24 34 25 35 86 36 26 37 85 38 27 39 28 40 29 41 79 42
REMARK SMILES IDX 30 43 84 44 78 45 80 46 31 47 83 48 77 49 76 50 32 52 64 53
REMARK SMILES IDX 44 54 63 55 45 56 48 57 62 58 81 59 46 60 47 61 61 63 82 64
REMARK SMILES IDX 49 65 33 66 34 67 42 68 35 69 41 70 43 71 40 72 36 73 37 74
REMARK SMILES IDX 38 75 39 76 65 77 66 78 74 79 67 80 73 81 75 82 72 83 68 84
REMARK SMILES IDX 69 85 70 86 71 87 50 88 51 89 59 90 52 91 58 92 60 93 57 94
REMARK SMILES IDX 53 95 54 96 55 97 56 98
REMARK H PARENT 80 51 48 62
REMARK Flexibility Score: inf
ROOT
ATOM      1  O   UNL A   1      39.418  21.933  25.510  1.00  0.00    -0.377 OA
ENDROOT
BRANCH   1   2
ATOM      2  C   UNL A   1      38.028  22.135  25.683  1.00  0.00     0.188 C 
BRANCH   2   3
ATOM      3  C   UNL A   1      37.148  21.053  25.018  1.00  0.00     0.188 C 
BRANCH   3   4
ATOM      4  O   UNL A   1      35.783  21.350  24.730  1.00  0.00    -0.376 OA
BRANCH   4   5
ATOM      5  C   UNL A   1      34.881  20.243  24.866  1.00  0.00     0.202 C 
BRANCH   5   6
ATOM      6  C   UNL A   1      33.412  20.540  24.592  1.00  0.00     0.261 C 
BRANCH   6   7
ATOM      7  O   UNL A   1      33.148  21.891  24.989  1.00  0.00    -0.460 OA
BRANCH   7   8
ATOM      8  C   UNL A   1      32.862  22.074  26.292  1.00  0.00     0.342 C 
ATOM      9  O   UNL A   1      33.533  21.788  27.258  1.00  0.00    -0.246 OA
BRANCH   8  10
ATOM     10  C   UNL A   1      31.903  23.187  26.337  1.00  0.00     0.102 A 
ATOM     11  C   UNL A   1      31.219  26.954  26.503  1.00  0.00     0.048 C 
ATOM     12  C   UNL A   1      31.161  25.459  26.410  1.00  0.00    -0.008 A 
ATOM     13  C   UNL A   1      29.853  24.957  26.680  1.00  0.00     0.007 A 
ATOM     14  C   UNL A   1      32.220  24.560  26.191  1.00  0.00     0.136 A 
ATOM     15  C   UNL A   1      29.583  23.608  26.843  1.00  0.00     0.001 A 
ATOM     16  C   UNL A   1      30.617  22.721  26.681  1.00  0.00     0.019 A 
BRANCH  14  17
ATOM     17  O   UNL A   1      33.538  24.805  25.961  1.00  0.00    -0.492 OA
BRANCH  17  18
ATOM     18  C   UNL A   1      34.174  25.276  24.760  1.00  0.00     0.233 C 
BRANCH  18  19
ATOM     19  C   UNL A   1      33.148  25.502  23.651  1.00  0.00     0.030 C 
ATOM     20  C   UNL A   1      33.458  24.905  22.259  1.00  0.00     0.011 C 
ATOM     21  C   UNL A   1      32.893  26.987  23.285  1.00  0.00    -0.004 C 
ATOM     22  C   UNL A   1      32.926  25.996  21.305  1.00  0.00    -0.010 C 
ATOM     23  C   UNL A   1      31.423  27.076  22.878  1.00  0.00     0.004 C 
ATOM     24  C   UNL A   1      33.585  27.211  21.936  1.00  0.00     0.007 C 
ATOM     25  C   UNL A   1      31.423  26.283  21.562  1.00  0.00     0.004 C 
ENDBRANCH  18  19
ENDBRANCH  17  18
ENDBRANCH  14  17
ENDBRANCH   8  10
ENDBRANCH   7   8
ENDBRANCH   6   7
ENDBRANCH   5   6
ENDBRANCH   4   5
ENDBRANCH   3   4
ENDBRANCH   2   3
ENDBRANCH   1   2
BRANCH   1  26
ATOM     26  C   UNL A   1      40.179  21.662  26.680  1.00  0.00     0.188 C 
BRANCH  26  27
ATOM     27  C   UNL A   1      41.124  22.721  27.187  1.00  0.00     0.188 C 
BRANCH  27  28
ATOM     28  O   UNL A   1      42.361  22.638  26.487  1.00  0.00    -0.376 OA
BRANCH  28  29
ATOM     29  C   UNL A   1      42.737  23.835  25.829  1.00  0.00     0.202 C 
BRANCH  29  30
ATOM     30  C   UNL A   1      43.539  24.762  26.746  1.00  0.00     0.261 C 
BRANCH  30  31
ATOM     31  O   UNL A   1      43.434  26.125  26.272  1.00  0.00    -0.460 OA
BRANCH  31  32
ATOM     32  C   UNL A   1      42.227  26.729  26.478  1.00  0.00     0.338 C 
ATOM     33  O   UNL A   1      41.527  27.183  25.589  1.00  0.00    -0.246 OA
BRANCH  32  34
ATOM     34  C   UNL A   1      41.956  26.891  27.943  1.00  0.00     0.060 A 
ATOM     35  C   UNL A   1      40.647  26.835  28.454  1.00  0.00     0.016 A 
ATOM     36  C   UNL A   1      42.961  27.402  28.745  1.00  0.00     0.016 A 
ATOM     37  C   UNL A   1      40.323  27.488  29.667  1.00  0.00     0.010 A 
ATOM     38  C   UNL A   1      42.607  28.126  29.869  1.00  0.00     0.010 A 
ATOM     39  C   UNL A   1      41.282  28.248  30.327  1.00  0.00    -0.014 A 
BRANCH  39  40
ATOM     40  C   UNL A   1      41.057  29.254  31.411  1.00  0.00     0.031 A 
ATOM     41  C   UNL A   1      40.328  30.523  31.019  1.00  0.00     0.074 A 
ATOM     42  C   UNL A   1      41.122  28.910  32.736  1.00  0.00     0.049 A 
ATOM     43  N   UNL A   1      39.795  31.353  31.844  1.00  0.00    -0.248 NA
ATOM     44  C   UNL A   1      40.048  30.929  29.637  1.00  0.00     0.031 C 
ATOM     45  C   UNL A   1      40.408  29.539  33.852  1.00  0.00     0.029 A 
ATOM     46  N   UNL A   1      41.805  27.886  33.412  1.00  0.00    -0.354 N 
ATOM     47  C   UNL A   1      38.854  32.119  31.192  1.00  0.00     0.074 A 
ATOM     48  C   UNL A   1      39.093  31.857  29.798  1.00  0.00     0.031 C 
ATOM     49  C   UNL A   1      40.758  29.023  35.039  1.00  0.00     0.029 A 
ATOM     50  C   UNL A   1      41.952  28.279  34.768  1.00  0.00     0.049 A 
ATOM     51  H   UNL A   1      42.127  27.044  33.016  1.00  0.00     0.167 HD
ATOM     52  C   UNL A   1      37.926  32.785  31.946  1.00  0.00     0.034 A 
ATOM     53  C   UNL A   1      43.169  28.573  35.297  1.00  0.00     0.034 A 
ATOM     54  C   UNL A   1      38.316  32.792  33.364  1.00  0.00     0.049 A 
ATOM     55  C   UNL A   1      43.159  30.066  35.621  1.00  0.00     0.074 A 
ATOM     56  C   UNL A   1      37.703  32.440  34.550  1.00  0.00     0.029 A 
ATOM     57  N   UNL A   1      39.646  33.070  33.698  1.00  0.00    -0.354 N 
ATOM     58  N   UNL A   1      42.483  30.964  34.930  1.00  0.00    -0.248 NA
ATOM     59  C   UNL A   1      43.602  30.587  36.915  1.00  0.00     0.031 C 
ATOM     60  C   UNL A   1      38.725  32.304  35.543  1.00  0.00     0.029 A 
ATOM     61  C   UNL A   1      39.942  32.676  34.985  1.00  0.00     0.049 A 
ATOM     62  H   UNL A   1      40.290  33.497  33.090  1.00  0.00     0.167 HD
ATOM     63  C   UNL A   1      42.206  32.039  35.740  1.00  0.00     0.074 A 
ATOM     64  C   UNL A   1      42.999  31.789  36.941  1.00  0.00     0.031 C 
ATOM     65  C   UNL A   1      41.234  32.994  35.564  1.00  0.00     0.034 A 
BRANCH  52  66
ATOM     66  C   UNL A   1      36.573  33.326  31.482  1.00  0.00     0.023 A 
ATOM     67  C   UNL A   1      35.982  34.414  32.178  1.00  0.00     0.031 A 
ATOM     68  C   UNL A   1      35.761  32.766  30.473  1.00  0.00     0.131 A 
ATOM     69  C   UNL A   1      34.683  34.880  31.882  1.00  0.00     0.055 A 
ATOM     70  C   UNL A   1      34.490  33.267  30.139  1.00  0.00     0.041 A 
ATOM     71  F   UNL A   1      36.127  31.675  29.790  1.00  0.00    -0.206 F 
ATOM     72  C   UNL A   1      33.940  34.324  30.846  1.00  0.00     0.022 A 
BRANCH  69  73
ATOM     73  S   UNL A   1      33.945  36.207  32.886  1.00  0.00     0.124 S 
ATOM     74  O   UNL A   1      32.525  35.875  32.840  1.00  0.00    -0.237 OA
ATOM     75  O   UNL A   1      34.612  36.039  34.172  1.00  0.00    -0.237 OA
ATOM     76  O   UNL A   1      34.313  37.424  32.162  1.00  0.00    -0.744 OA
ENDBRANCH  69  73
ENDBRANCH  52  66
BRANCH  53  77
ATOM     77  C   UNL A   1      44.175  27.603  34.744  1.00  0.00     0.023 A 
ATOM     78  C   UNL A   1      44.033  26.271  35.242  1.00  0.00     0.031 A 
ATOM     79  C   UNL A   1      44.649  27.743  33.431  1.00  0.00     0.131 A 
ATOM     80  C   UNL A   1      44.064  25.171  34.361  1.00  0.00     0.055 A 
ATOM     81  C   UNL A   1      44.756  26.629  32.579  1.00  0.00     0.041 A 
ATOM     82  F   UNL A   1      44.811  28.960  32.892  1.00  0.00    -0.206 F 
ATOM     83  C   UNL A   1      44.379  25.356  33.015  1.00  0.00     0.022 A 
BRANCH  80  84
ATOM     84  S   UNL A   1      43.401  23.560  34.913  1.00  0.00     0.124 S 
ATOM     85  O   UNL A   1      44.297  23.222  36.012  1.00  0.00    -0.237 OA
ATOM     86  O   UNL A   1      42.027  23.878  35.295  1.00  0.00    -0.237 OA
ATOM     87  O   UNL A   1      43.513  22.717  33.723  1.00  0.00    -0.744 OA
ENDBRANCH  80  84
ENDBRANCH  53  77
BRANCH  65  88
ATOM     88  C   UNL A   1      41.449  34.430  35.975  1.00  0.00     0.023 A 
ATOM     89  C   UNL A   1      41.004  34.888  37.213  1.00  0.00     0.031 A 
ATOM     90  C   UNL A   1      42.254  35.331  35.230  1.00  0.00     0.131 A 
ATOM     91  C   UNL A   1      41.262  36.194  37.633  1.00  0.00     0.055 A 
ATOM     92  C   UNL A   1      42.597  36.599  35.697  1.00  0.00     0.041 A 
ATOM     93  F   UNL A   1      42.779  35.016  34.038  1.00  0.00    -0.206 F 
ATOM     94  C   UNL A   1      42.083  37.047  36.902  1.00  0.00     0.022 A 
BRANCH  91  95
ATOM     95  S   UNL A   1      40.410  36.742  39.121  1.00  0.00     0.124 S 
ATOM     96  O   UNL A   1      40.467  35.541  39.950  1.00  0.00    -0.237 OA
ATOM     97  O   UNL A   1      41.240  37.857  39.568  1.00  0.00    -0.237 OA
ATOM     98  O   UNL A   1      39.081  37.108  38.640  1.00  0.00    -0.744 OA
ENDBRANCH  91  95
ENDBRANCH  65  88
ENDBRANCH  39  40
ENDBRANCH  32  34
ENDBRANCH  31  32
ENDBRANCH  30  31
ENDBRANCH  29  30
ENDBRANCH  28  29
ENDBRANCH  27  28
ENDBRANCH  26  27
ENDBRANCH   1  26
TORSDOF 26
ENDMDL
