MODEL 1
REMARK VINA RESULT:      -9.5      0.000      0.000
REMARK SMILES C[C@@H](Sc1nc2ccccc2c(=O)n1N)C(=O)OCCOCCOCCOCCOC(=O)c1ccc(-c2c3nc(c(-c4cc(S(=O)(=O)[O-])ccc4F)c4ccc([nH]4)c(-c4cc(S(=O)(=O)[O-])ccc4F)c4nc(c(-c5cc(S(=O)(=O)[O-])ccc5F)c5ccc2[nH]5)C=C4)C=C3)cc1
REMARK SMILES IDX 24 1 23 2 22 3 21 4 20 5 19 6 18 7 16 8 17 9 2 10 1 11 3 12
REMARK SMILES IDX 4 13 5 14 14 15 6 16 12 17 7 18 11 19 13 20 8 21 10 22 9 23
REMARK SMILES IDX 15 24 25 27 26 28 27 29 28 30 29 31 30 32 31 33 32 34 33 35
REMARK SMILES IDX 34 36 95 37 35 38 94 39 36 40 37 41 38 42 88 43 39 44 93 45
REMARK SMILES IDX 87 46 89 47 40 48 92 49 86 50 85 51 41 53 73 54 53 55 72 56
REMARK SMILES IDX 54 57 57 58 71 59 90 60 55 61 56 62 70 64 91 65 58 66 42 67
REMARK SMILES IDX 43 68 51 69 44 70 50 71 52 72 49 73 45 74 46 75 47 76 48 77
REMARK SMILES IDX 74 78 75 79 83 80 76 81 82 82 84 83 81 84 77 85 78 86 79 87
REMARK SMILES IDX 80 88 59 89 60 90 68 91 61 92 67 93 69 94 66 95 62 96 63 97
REMARK SMILES IDX 64 98 65 99
REMARK H PARENT 15 25 15 26 89 52 57 63
REMARK Flexibility Score: inf
ROOT
ATOM      1  O   UNL A   1      37.965  23.681  25.821  1.00  0.00    -0.377 OA
ENDROOT
BRANCH   1   2
ATOM      2  C   UNL A   1      36.650  24.103  25.535  1.00  0.00     0.188 C 
BRANCH   2   3
ATOM      3  C   UNL A   1      35.823  23.120  24.689  1.00  0.00     0.188 C 
BRANCH   3   4
ATOM      4  O   UNL A   1      34.624  22.528  25.165  1.00  0.00    -0.376 OA
BRANCH   4   5
ATOM      5  C   UNL A   1      33.977  22.951  26.356  1.00  0.00     0.202 C 
BRANCH   5   6
ATOM      6  C   UNL A   1      32.807  23.943  26.363  1.00  0.00     0.261 C 
BRANCH   6   7
ATOM      7  O   UNL A   1      32.491  24.558  25.111  1.00  0.00    -0.462 OA
BRANCH   7   8
ATOM      8  C   UNL A   1      31.435  24.034  24.453  1.00  0.00     0.319 C 
ATOM      9  O   UNL A   1      31.205  22.828  24.370  1.00  0.00    -0.251 OA
BRANCH   8  10
ATOM     10  C   UNL A   1      30.519  25.083  23.824  1.00  0.00     0.161 C 
ATOM     11  C   UNL A   1      29.706  26.000  24.745  1.00  0.00     0.032 C 
BRANCH  10  12
ATOM     12  S   UNL A   1      31.599  26.028  22.694  1.00  0.00    -0.071 SA
BRANCH  12  13
ATOM     13  C   UNL A   1      31.047  27.641  23.029  1.00  0.00     0.191 A 
ATOM     14  N   UNL A   1      30.057  28.064  22.317  1.00  0.00    -0.222 NA
ATOM     15  N   UNL A   1      31.624  28.358  24.072  1.00  0.00    -0.202 N 
ATOM     16  C   UNL A   1      29.502  29.304  22.631  1.00  0.00     0.079 A 
ATOM     17  C   UNL A   1      31.082  29.570  24.499  1.00  0.00     0.280 A 
ATOM     18  C   UNL A   1      28.437  29.762  21.857  1.00  0.00     0.029 A 
ATOM     19  C   UNL A   1      29.925  30.059  23.725  1.00  0.00     0.068 A 
ATOM     20  O   UNL A   1      31.503  30.201  25.468  1.00  0.00    -0.267 OA
ATOM     21  C   UNL A   1      27.773  30.941  22.197  1.00  0.00     0.002 A 
ATOM     22  C   UNL A   1      29.261  31.237  24.079  1.00  0.00     0.016 A 
ATOM     23  C   UNL A   1      28.175  31.670  23.317  1.00  0.00     0.001 A 
BRANCH  15  24
ATOM     24  N   UNL A   1      32.795  27.894  24.759  1.00  0.00    -0.334 N 
ATOM     25  H   UNL A   1      33.555  28.503  24.903  1.00  0.00     0.178 HD
ATOM     26  H   UNL A   1      32.839  26.967  25.086  1.00  0.00     0.178 HD
ENDBRANCH  15  24
ENDBRANCH  12  13
ENDBRANCH  10  12
ENDBRANCH   8  10
ENDBRANCH   7   8
ENDBRANCH   6   7
ENDBRANCH   5   6
ENDBRANCH   4   5
ENDBRANCH   3   4
ENDBRANCH   2   3
ENDBRANCH   1   2
BRANCH   1  27
ATOM     27  C   UNL A   1      38.224  22.281  25.770  1.00  0.00     0.188 C 
BRANCH  27  28
ATOM     28  C   UNL A   1      39.468  21.739  26.507  1.00  0.00     0.188 C 
BRANCH  28  29
ATOM     29  O   UNL A   1      39.897  20.461  26.052  1.00  0.00    -0.376 OA
BRANCH  29  30
ATOM     30  C   UNL A   1      41.052  19.890  26.651  1.00  0.00     0.202 C 
BRANCH  30  31
ATOM     31  C   UNL A   1      42.421  20.361  26.129  1.00  0.00     0.261 C 
BRANCH  31  32
ATOM     32  O   UNL A   1      42.878  21.641  26.593  1.00  0.00    -0.460 OA
BRANCH  32  33
ATOM     33  C   UNL A   1      42.919  22.646  25.694  1.00  0.00     0.338 C 
ATOM     34  O   UNL A   1      43.092  22.535  24.489  1.00  0.00    -0.246 OA
BRANCH  33  35
ATOM     35  C   UNL A   1      42.505  23.896  26.363  1.00  0.00     0.060 A 
ATOM     36  C   UNL A   1      42.271  25.028  25.574  1.00  0.00     0.016 A 
ATOM     37  C   UNL A   1      42.392  23.968  27.755  1.00  0.00     0.016 A 
ATOM     38  C   UNL A   1      42.008  26.256  26.176  1.00  0.00     0.010 A 
ATOM     39  C   UNL A   1      42.145  25.205  28.359  1.00  0.00     0.010 A 
ATOM     40  C   UNL A   1      42.016  26.364  27.572  1.00  0.00    -0.014 A 
BRANCH  40  41
ATOM     41  C   UNL A   1      42.184  27.710  28.176  1.00  0.00     0.031 A 
ATOM     42  C   UNL A   1      43.579  28.282  28.238  1.00  0.00     0.074 A 
ATOM     43  C   UNL A   1      41.133  28.443  28.581  1.00  0.00     0.049 A 
ATOM     44  N   UNL A   1      43.990  29.437  28.691  1.00  0.00    -0.248 NA
ATOM     45  C   UNL A   1      44.656  27.425  27.717  1.00  0.00     0.031 C 
ATOM     46  C   UNL A   1      39.734  28.024  28.512  1.00  0.00     0.029 A 
ATOM     47  N   UNL A   1      41.080  29.705  29.120  1.00  0.00    -0.354 N 
ATOM     48  C   UNL A   1      45.372  29.440  28.520  1.00  0.00     0.074 A 
ATOM     49  C   UNL A   1      45.730  28.154  27.965  1.00  0.00     0.031 C 
ATOM     50  C   UNL A   1      38.960  29.017  28.985  1.00  0.00     0.029 A 
ATOM     51  C   UNL A   1      39.807  30.125  29.423  1.00  0.00     0.049 A 
ATOM     52  H   UNL A   1      41.881  30.256  29.276  1.00  0.00     0.167 HD
ATOM     53  C   UNL A   1      46.259  30.430  28.789  1.00  0.00     0.034 A 
ATOM     54  C   UNL A   1      39.381  31.269  29.998  1.00  0.00     0.034 A 
ATOM     55  C   UNL A   1      45.886  31.705  29.348  1.00  0.00     0.049 A 
ATOM     56  C   UNL A   1      40.398  32.324  30.371  1.00  0.00     0.074 A 
ATOM     57  C   UNL A   1      46.697  32.783  29.653  1.00  0.00     0.029 A 
ATOM     58  N   UNL A   1      44.591  32.071  29.700  1.00  0.00    -0.354 N 
ATOM     59  N   UNL A   1      41.702  32.318  30.202  1.00  0.00    -0.248 NA
ATOM     60  C   UNL A   1      39.881  33.547  31.000  1.00  0.00     0.031 C 
ATOM     61  C   UNL A   1      45.912  33.762  30.270  1.00  0.00     0.029 A 
ATOM     62  C   UNL A   1      44.591  33.343  30.253  1.00  0.00     0.049 A 
ATOM     63  H   UNL A   1      43.793  31.509  29.576  1.00  0.00     0.167 HD
ATOM     64  C   UNL A   1      42.150  33.558  30.656  1.00  0.00     0.074 A 
ATOM     65  C   UNL A   1      40.977  34.283  31.098  1.00  0.00     0.031 C 
ATOM     66  C   UNL A   1      43.413  34.057  30.693  1.00  0.00     0.034 A 
BRANCH  53  67
ATOM     67  C   UNL A   1      47.723  30.133  28.548  1.00  0.00     0.023 A 
ATOM     68  C   UNL A   1      48.503  29.412  29.470  1.00  0.00     0.031 A 
ATOM     69  C   UNL A   1      48.359  30.626  27.394  1.00  0.00     0.131 A 
ATOM     70  C   UNL A   1      49.885  29.277  29.264  1.00  0.00     0.055 A 
ATOM     71  C   UNL A   1      49.716  30.406  27.150  1.00  0.00     0.041 A 
ATOM     72  F   UNL A   1      47.677  31.346  26.492  1.00  0.00    -0.206 F 
ATOM     73  C   UNL A   1      50.491  29.744  28.096  1.00  0.00     0.022 A 
BRANCH  70  74
ATOM     74  S   UNL A   1      50.906  28.636  30.620  1.00  0.00     0.124 S 
ATOM     75  O   UNL A   1      52.217  28.543  29.982  1.00  0.00    -0.237 OA
ATOM     76  O   UNL A   1      50.762  29.667  31.639  1.00  0.00    -0.237 OA
ATOM     77  O   UNL A   1      50.286  27.350  30.938  1.00  0.00    -0.744 OA
ENDBRANCH  70  74
ENDBRANCH  53  67
BRANCH  54  78
ATOM     78  C   UNL A   1      37.930  31.485  30.280  1.00  0.00     0.023 A 
ATOM     79  C   UNL A   1      37.051  31.918  29.275  1.00  0.00     0.031 A 
ATOM     80  C   UNL A   1      37.416  31.328  31.580  1.00  0.00     0.131 A 
ATOM     81  C   UNL A   1      35.720  32.231  29.595  1.00  0.00     0.055 A 
ATOM     82  C   UNL A   1      36.077  31.582  31.880  1.00  0.00     0.041 A 
ATOM     83  F   UNL A   1      38.214  30.923  32.582  1.00  0.00    -0.206 F 
ATOM     84  C   UNL A   1      35.223  32.052  30.888  1.00  0.00     0.022 A 
BRANCH  81  85
ATOM     85  S   UNL A   1      34.669  32.975  28.316  1.00  0.00     0.124 S 
ATOM     86  O   UNL A   1      35.653  33.663  27.489  1.00  0.00    -0.237 OA
ATOM     87  O   UNL A   1      34.039  31.801  27.722  1.00  0.00    -0.237 OA
ATOM     88  O   UNL A   1      33.773  33.845  29.075  1.00  0.00    -0.744 OA
ENDBRANCH  81  85
ENDBRANCH  54  78
BRANCH  66  89
ATOM     89  C   UNL A   1      43.581  35.489  31.155  1.00  0.00     0.023 A 
ATOM     90  C   UNL A   1      43.597  35.842  32.516  1.00  0.00     0.031 A 
ATOM     91  C   UNL A   1      43.701  36.522  30.208  1.00  0.00     0.131 A 
ATOM     92  C   UNL A   1      43.651  37.194  32.888  1.00  0.00     0.055 A 
ATOM     93  C   UNL A   1      43.835  37.859  30.585  1.00  0.00     0.041 A 
ATOM     94  F   UNL A   1      43.689  36.251  28.892  1.00  0.00    -0.206 F 
ATOM     95  C   UNL A   1      43.791  38.204  31.932  1.00  0.00     0.022 A 
BRANCH  92  96
ATOM     96  S   UNL A   1      43.398  37.629  34.631  1.00  0.00     0.124 S 
ATOM     97  O   UNL A   1      43.801  39.031  34.654  1.00  0.00    -0.237 OA
ATOM     98  O   UNL A   1      41.973  37.373  34.812  1.00  0.00    -0.237 OA
ATOM     99  O   UNL A   1      44.287  36.716  35.345  1.00  0.00    -0.744 OA
ENDBRANCH  92  96
ENDBRANCH  66  89
ENDBRANCH  40  41
ENDBRANCH  33  35
ENDBRANCH  32  33
ENDBRANCH  31  32
ENDBRANCH  30  31
ENDBRANCH  29  30
ENDBRANCH  28  29
ENDBRANCH  27  28
ENDBRANCH   1  27
TORSDOF 26
ENDMDL
MODEL 2
REMARK VINA RESULT:      -9.3      1.871      2.453
REMARK SMILES C[C@@H](Sc1nc2ccccc2c(=O)n1N)C(=O)OCCOCCOCCOCCOC(=O)c1ccc(-c2c3nc(c(-c4cc(S(=O)(=O)[O-])ccc4F)c4ccc([nH]4)c(-c4cc(S(=O)(=O)[O-])ccc4F)c4nc(c(-c5cc(S(=O)(=O)[O-])ccc5F)c5ccc2[nH]5)C=C4)C=C3)cc1
REMARK SMILES IDX 24 1 23 2 22 3 21 4 20 5 19 6 18 7 16 8 17 9 2 10 1 11 3 12
REMARK SMILES IDX 4 13 5 14 14 15 6 16 12 17 7 18 11 19 13 20 8 21 10 22 9 23
REMARK SMILES IDX 15 24 25 27 26 28 27 29 28 30 29 31 30 32 31 33 32 34 33 35
REMARK SMILES IDX 34 36 95 37 35 38 94 39 36 40 37 41 38 42 88 43 39 44 93 45
REMARK SMILES IDX 87 46 89 47 40 48 92 49 86 50 85 51 41 53 73 54 53 55 72 56
REMARK SMILES IDX 54 57 57 58 71 59 90 60 55 61 56 62 70 64 91 65 58 66 42 67
REMARK SMILES IDX 43 68 51 69 44 70 50 71 52 72 49 73 45 74 46 75 47 76 48 77
REMARK SMILES IDX 74 78 75 79 83 80 76 81 82 82 84 83 81 84 77 85 78 86 79 87
REMARK SMILES IDX 80 88 59 89 60 90 68 91 61 92 67 93 69 94 66 95 62 96 63 97
REMARK SMILES IDX 64 98 65 99
REMARK H PARENT 15 25 15 26 89 52 57 63
REMARK Flexibility Score: inf
ROOT
ATOM      1  O   UNL A   1      38.623  23.687  26.581  1.00  0.00    -0.377 OA
ENDROOT
BRANCH   1   2
ATOM      2  C   UNL A   1      37.287  23.655  26.127  1.00  0.00     0.188 C 
BRANCH   2   3
ATOM      3  C   UNL A   1      37.117  23.315  24.637  1.00  0.00     0.188 C 
BRANCH   3   4
ATOM      4  O   UNL A   1      36.507  22.111  24.196  1.00  0.00    -0.376 OA
BRANCH   4   5
ATOM      5  C   UNL A   1      36.282  21.003  25.055  1.00  0.00     0.202 C 
BRANCH   5   6
ATOM      6  C   UNL A   1      34.890  20.623  25.578  1.00  0.00     0.261 C 
BRANCH   6   7
ATOM      7  O   UNL A   1      33.975  21.703  25.785  1.00  0.00    -0.462 OA
BRANCH   7   8
ATOM      8  C   UNL A   1      32.915  21.737  24.949  1.00  0.00     0.319 C 
ATOM      9  O   UNL A   1      32.160  20.785  24.755  1.00  0.00    -0.251 OA
BRANCH   8  10
ATOM     10  C   UNL A   1      32.714  23.088  24.265  1.00  0.00     0.161 C 
ATOM     11  C   UNL A   1      33.021  23.212  22.769  1.00  0.00     0.032 C 
BRANCH  10  12
ATOM     12  S   UNL A   1      30.991  23.556  24.653  1.00  0.00    -0.071 SA
BRANCH  12  13
ATOM     13  C   UNL A   1      31.187  25.268  24.874  1.00  0.00     0.191 A 
ATOM     14  N   UNL A   1      32.234  25.642  25.530  1.00  0.00    -0.222 NA
ATOM     15  N   UNL A   1      30.278  26.142  24.286  1.00  0.00    -0.202 N 
ATOM     16  C   UNL A   1      32.497  27.007  25.628  1.00  0.00     0.079 A 
ATOM     17  C   UNL A   1      30.507  27.517  24.273  1.00  0.00     0.280 A 
ATOM     18  C   UNL A   1      33.625  27.410  26.343  1.00  0.00     0.029 A 
ATOM     19  C   UNL A   1      31.719  27.970  24.984  1.00  0.00     0.068 A 
ATOM     20  O   UNL A   1      29.780  28.324  23.694  1.00  0.00    -0.267 OA
ATOM     21  C   UNL A   1      33.996  28.754  26.376  1.00  0.00     0.002 A 
ATOM     22  C   UNL A   1      32.087  29.318  25.006  1.00  0.00     0.016 A 
ATOM     23  C   UNL A   1      33.236  29.705  25.695  1.00  0.00     0.001 A 
BRANCH  15  24
ATOM     24  N   UNL A   1      29.070  25.680  23.666  1.00  0.00    -0.334 N 
ATOM     25  H   UNL A   1      28.714  24.789  23.884  1.00  0.00     0.178 HD
ATOM     26  H   UNL A   1      28.597  26.254  23.022  1.00  0.00     0.178 HD
ENDBRANCH  15  24
ENDBRANCH  12  13
ENDBRANCH  10  12
ENDBRANCH   8  10
ENDBRANCH   7   8
ENDBRANCH   6   7
ENDBRANCH   5   6
ENDBRANCH   4   5
ENDBRANCH   3   4
ENDBRANCH   2   3
ENDBRANCH   1   2
BRANCH   1  27
ATOM     27  C   UNL A   1      39.435  22.553  26.288  1.00  0.00     0.188 C 
BRANCH  27  28
ATOM     28  C   UNL A   1      40.233  21.907  27.440  1.00  0.00     0.188 C 
BRANCH  28  29
ATOM     29  O   UNL A   1      40.523  20.528  27.240  1.00  0.00    -0.376 OA
BRANCH  29  30
ATOM     30  C   UNL A   1      41.885  20.123  27.233  1.00  0.00     0.202 C 
BRANCH  30  31
ATOM     31  C   UNL A   1      42.764  20.636  26.080  1.00  0.00     0.261 C 
BRANCH  31  32
ATOM     32  O   UNL A   1      43.502  21.844  26.323  1.00  0.00    -0.460 OA
BRANCH  32  33
ATOM     33  C   UNL A   1      43.341  22.854  25.444  1.00  0.00     0.338 C 
ATOM     34  O   UNL A   1      43.370  22.767  24.225  1.00  0.00    -0.246 OA
BRANCH  33  35
ATOM     35  C   UNL A   1      42.905  24.058  26.182  1.00  0.00     0.060 A 
ATOM     36  C   UNL A   1      42.506  25.181  25.447  1.00  0.00     0.016 A 
ATOM     37  C   UNL A   1      42.931  24.099  27.578  1.00  0.00     0.016 A 
ATOM     38  C   UNL A   1      42.215  26.375  26.101  1.00  0.00     0.010 A 
ATOM     39  C   UNL A   1      42.655  25.303  28.234  1.00  0.00     0.010 A 
ATOM     40  C   UNL A   1      42.359  26.462  27.492  1.00  0.00    -0.014 A 
BRANCH  40  41
ATOM     41  C   UNL A   1      42.487  27.807  28.108  1.00  0.00     0.031 A 
ATOM     42  C   UNL A   1      43.861  28.429  28.155  1.00  0.00     0.074 A 
ATOM     43  C   UNL A   1      41.416  28.497  28.536  1.00  0.00     0.049 A 
ATOM     44  N   UNL A   1      44.236  29.593  28.615  1.00  0.00    -0.248 NA
ATOM     45  C   UNL A   1      44.961  27.616  27.610  1.00  0.00     0.031 C 
ATOM     46  C   UNL A   1      40.032  28.028  28.482  1.00  0.00     0.029 A 
ATOM     47  N   UNL A   1      41.325  29.750  29.088  1.00  0.00    -0.354 N 
ATOM     48  C   UNL A   1      45.614  29.649  28.424  1.00  0.00     0.074 A 
ATOM     49  C   UNL A   1      46.011  28.382  27.850  1.00  0.00     0.031 C 
ATOM     50  C   UNL A   1      39.229  28.986  28.977  1.00  0.00     0.029 A 
ATOM     51  C   UNL A   1      40.042  30.121  29.413  1.00  0.00     0.049 A 
ATOM     52  H   UNL A   1      42.107  30.328  29.238  1.00  0.00     0.167 HD
ATOM     53  C   UNL A   1      46.469  30.667  28.690  1.00  0.00     0.034 A 
ATOM     54  C   UNL A   1      39.583  31.242  30.007  1.00  0.00     0.034 A 
ATOM     55  C   UNL A   1      46.057  31.923  29.268  1.00  0.00     0.049 A 
ATOM     56  C   UNL A   1      40.567  32.330  30.377  1.00  0.00     0.074 A 
ATOM     57  C   UNL A   1      46.833  33.027  29.573  1.00  0.00     0.029 A 
ATOM     58  N   UNL A   1      44.756  32.237  29.643  1.00  0.00    -0.354 N 
ATOM     59  N   UNL A   1      41.867  32.374  30.188  1.00  0.00    -0.248 NA
ATOM     60  C   UNL A   1      40.015  33.527  31.025  1.00  0.00     0.031 C 
ATOM     61  C   UNL A   1      46.022  33.970  30.210  1.00  0.00     0.029 A 
ATOM     62  C   UNL A   1      44.717  33.503  30.209  1.00  0.00     0.049 A 
ATOM     63  H   UNL A   1      43.976  31.648  29.523  1.00  0.00     0.167 HD
ATOM     64  C   UNL A   1      42.276  33.625  30.649  1.00  0.00     0.074 A 
ATOM     65  C   UNL A   1      41.084  34.302  31.115  1.00  0.00     0.031 C 
ATOM     66  C   UNL A   1      43.521  34.169  30.672  1.00  0.00     0.034 A 
BRANCH  53  67
ATOM     67  C   UNL A   1      47.938  30.427  28.425  1.00  0.00     0.023 A 
ATOM     68  C   UNL A   1      48.742  29.665  29.293  1.00  0.00     0.031 A 
ATOM     69  C   UNL A   1      48.556  31.014  27.305  1.00  0.00     0.131 A 
ATOM     70  C   UNL A   1      50.126  29.582  29.074  1.00  0.00     0.055 A 
ATOM     71  C   UNL A   1      49.917  30.847  27.043  1.00  0.00     0.041 A 
ATOM     72  F   UNL A   1      47.850  31.776  26.456  1.00  0.00    -0.206 F 
ATOM     73  C   UNL A   1      50.714  30.144  27.939  1.00  0.00     0.022 A 
BRANCH  70  74
ATOM     74  S   UNL A   1      51.170  28.877  30.380  1.00  0.00     0.124 S 
ATOM     75  O   UNL A   1      52.105  28.067  29.603  1.00  0.00    -0.237 OA
ATOM     76  O   UNL A   1      51.727  30.065  31.015  1.00  0.00    -0.237 OA
ATOM     77  O   UNL A   1      50.229  28.114  31.197  1.00  0.00    -0.744 OA
ENDBRANCH  70  74
ENDBRANCH  53  67
BRANCH  54  78
ATOM     78  C   UNL A   1      38.130  31.403  30.312  1.00  0.00     0.023 A 
ATOM     79  C   UNL A   1      37.243  31.937  29.364  1.00  0.00     0.031 A 
ATOM     80  C   UNL A   1      37.620  31.087  31.585  1.00  0.00     0.131 A 
ATOM     81  C   UNL A   1      35.908  32.191  29.719  1.00  0.00     0.055 A 
ATOM     82  C   UNL A   1      36.278  31.284  31.912  1.00  0.00     0.041 A 
ATOM     83  F   UNL A   1      38.425  30.580  32.533  1.00  0.00    -0.206 F 
ATOM     84  C   UNL A   1      35.416  31.854  30.982  1.00  0.00     0.022 A 
BRANCH  81  85
ATOM     85  S   UNL A   1      34.844  33.063  28.535  1.00  0.00     0.124 S 
ATOM     86  O   UNL A   1      35.811  33.504  27.537  1.00  0.00    -0.237 OA
ATOM     87  O   UNL A   1      33.926  32.008  28.119  1.00  0.00    -0.237 OA
ATOM     88  O   UNL A   1      34.244  34.127  29.337  1.00  0.00    -0.744 OA
ENDBRANCH  81  85
ENDBRANCH  54  78
BRANCH  66  89
ATOM     89  C   UNL A   1      43.643  35.601  31.148  1.00  0.00     0.023 A 
ATOM     90  C   UNL A   1      43.576  36.694  30.266  1.00  0.00     0.031 A 
ATOM     91  C   UNL A   1      43.856  35.871  32.513  1.00  0.00     0.131 A 
ATOM     92  C   UNL A   1      43.799  37.995  30.745  1.00  0.00     0.055 A 
ATOM     93  C   UNL A   1      43.996  37.172  32.995  1.00  0.00     0.041 A 
ATOM     94  F   UNL A   1      43.932  34.870  33.405  1.00  0.00    -0.206 F 
ATOM     95  C   UNL A   1      43.988  38.243  32.107  1.00  0.00     0.022 A 
BRANCH  92  96
ATOM     96  S   UNL A   1      43.975  39.346  29.547  1.00  0.00     0.124 S 
ATOM     97  O   UNL A   1      43.451  38.739  28.327  1.00  0.00    -0.237 OA
ATOM     98  O   UNL A   1      43.154  40.396  30.140  1.00  0.00    -0.237 OA
ATOM     99  O   UNL A   1      45.412  39.612  29.539  1.00  0.00    -0.744 OA
ENDBRANCH  92  96
ENDBRANCH  66  89
ENDBRANCH  40  41
ENDBRANCH  33  35
ENDBRANCH  32  33
ENDBRANCH  31  32
ENDBRANCH  30  31
ENDBRANCH  29  30
ENDBRANCH  28  29
ENDBRANCH  27  28
ENDBRANCH   1  27
TORSDOF 26
ENDMDL
MODEL 3
REMARK VINA RESULT:      -8.8      4.719      6.604
REMARK SMILES C[C@@H](Sc1nc2ccccc2c(=O)n1N)C(=O)OCCOCCOCCOCCOC(=O)c1ccc(-c2c3nc(c(-c4cc(S(=O)(=O)[O-])ccc4F)c4ccc([nH]4)c(-c4cc(S(=O)(=O)[O-])ccc4F)c4nc(c(-c5cc(S(=O)(=O)[O-])ccc5F)c5ccc2[nH]5)C=C4)C=C3)cc1
REMARK SMILES IDX 24 1 23 2 22 3 21 4 20 5 19 6 18 7 16 8 17 9 2 10 1 11 3 12
REMARK SMILES IDX 4 13 5 14 14 15 6 16 12 17 7 18 11 19 13 20 8 21 10 22 9 23
REMARK SMILES IDX 15 24 25 27 26 28 27 29 28 30 29 31 30 32 31 33 32 34 33 35
REMARK SMILES IDX 34 36 95 37 35 38 94 39 36 40 37 41 38 42 88 43 39 44 93 45
REMARK SMILES IDX 87 46 89 47 40 48 92 49 86 50 85 51 41 53 73 54 53 55 72 56
REMARK SMILES IDX 54 57 57 58 71 59 90 60 55 61 56 62 70 64 91 65 58 66 42 67
REMARK SMILES IDX 43 68 51 69 44 70 50 71 52 72 49 73 45 74 46 75 47 76 48 77
REMARK SMILES IDX 74 78 75 79 83 80 76 81 82 82 84 83 81 84 77 85 78 86 79 87
REMARK SMILES IDX 80 88 59 89 60 90 68 91 61 92 67 93 69 94 66 95 62 96 63 97
REMARK SMILES IDX 64 98 65 99
REMARK H PARENT 15 25 15 26 89 52 57 63
REMARK Flexibility Score: inf
ROOT
ATOM      1  O   UNL A   1      42.311  18.567  26.373  1.00  0.00    -0.377 OA
ENDROOT
BRANCH   1   2
ATOM      2  C   UNL A   1      42.182  19.953  26.599  1.00  0.00     0.188 C 
BRANCH   2   3
ATOM      3  C   UNL A   1      40.744  20.492  26.519  1.00  0.00     0.188 C 
BRANCH   3   4
ATOM      4  O   UNL A   1      40.270  21.523  27.373  1.00  0.00    -0.376 OA
BRANCH   4   5
ATOM      5  C   UNL A   1      39.482  22.608  26.906  1.00  0.00     0.202 C 
BRANCH   5   6
ATOM      6  C   UNL A   1      38.376  22.444  25.854  1.00  0.00     0.261 C 
BRANCH   6   7
ATOM      7  O   UNL A   1      37.103  23.011  26.180  1.00  0.00    -0.462 OA
BRANCH   7   8
ATOM      8  C   UNL A   1      36.029  22.335  25.720  1.00  0.00     0.319 C 
ATOM      9  O   UNL A   1      35.501  21.395  26.314  1.00  0.00    -0.251 OA
BRANCH   8  10
ATOM     10  C   UNL A   1      35.499  22.856  24.386  1.00  0.00     0.161 C 
ATOM     11  C   UNL A   1      36.411  22.798  23.156  1.00  0.00     0.032 C 
BRANCH  10  12
ATOM     12  S   UNL A   1      33.932  21.954  24.121  1.00  0.00    -0.071 SA
BRANCH  12  13
ATOM     13  C   UNL A   1      32.795  23.192  24.562  1.00  0.00     0.191 A 
ATOM     14  N   UNL A   1      32.572  24.102  23.675  1.00  0.00    -0.222 NA
ATOM     15  N   UNL A   1      32.135  23.109  25.783  1.00  0.00    -0.202 N 
ATOM     16  C   UNL A   1      31.580  25.046  23.935  1.00  0.00     0.079 A 
ATOM     17  C   UNL A   1      31.078  23.967  26.089  1.00  0.00     0.280 A 
ATOM     18  C   UNL A   1      31.344  26.033  22.978  1.00  0.00     0.029 A 
ATOM     19  C   UNL A   1      30.776  24.995  25.074  1.00  0.00     0.068 A 
ATOM     20  O   UNL A   1      30.407  23.883  27.117  1.00  0.00    -0.267 OA
ATOM     21  C   UNL A   1      30.289  26.931  23.137  1.00  0.00     0.002 A 
ATOM     22  C   UNL A   1      29.712  25.886  25.238  1.00  0.00     0.016 A 
ATOM     23  C   UNL A   1      29.464  26.848  24.258  1.00  0.00     0.001 A 
BRANCH  15  24
ATOM     24  N   UNL A   1      32.499  22.147  26.783  1.00  0.00    -0.334 N 
ATOM     25  H   UNL A   1      32.751  22.447  27.686  1.00  0.00     0.178 HD
ATOM     26  H   UNL A   1      32.497  21.188  26.567  1.00  0.00     0.178 HD
ENDBRANCH  15  24
ENDBRANCH  12  13
ENDBRANCH  10  12
ENDBRANCH   8  10
ENDBRANCH   7   8
ENDBRANCH   6   7
ENDBRANCH   5   6
ENDBRANCH   4   5
ENDBRANCH   3   4
ENDBRANCH   2   3
ENDBRANCH   1   2
BRANCH   1  27
ATOM     27  C   UNL A   1      43.544  18.110  25.824  1.00  0.00     0.188 C 
BRANCH  27  28
ATOM     28  C   UNL A   1      44.366  19.087  24.957  1.00  0.00     0.188 C 
BRANCH  28  29
ATOM     29  O   UNL A   1      45.656  19.380  25.481  1.00  0.00    -0.376 OA
BRANCH  29  30
ATOM     30  C   UNL A   1      46.507  20.235  24.729  1.00  0.00     0.202 C 
BRANCH  30  31
ATOM     31  C   UNL A   1      45.976  21.640  24.397  1.00  0.00     0.261 C 
BRANCH  31  32
ATOM     32  O   UNL A   1      45.260  22.318  25.441  1.00  0.00    -0.460 OA
BRANCH  32  33
ATOM     33  C   UNL A   1      44.102  22.922  25.104  1.00  0.00     0.338 C 
ATOM     34  O   UNL A   1      43.260  22.496  24.326  1.00  0.00    -0.246 OA
BRANCH  33  35
ATOM     35  C   UNL A   1      43.900  24.085  25.992  1.00  0.00     0.060 A 
ATOM     36  C   UNL A   1      45.004  24.892  26.295  1.00  0.00     0.016 A 
ATOM     37  C   UNL A   1      42.651  24.355  26.558  1.00  0.00     0.016 A 
ATOM     38  C   UNL A   1      44.885  25.917  27.229  1.00  0.00     0.010 A 
ATOM     39  C   UNL A   1      42.535  25.374  27.510  1.00  0.00     0.010 A 
ATOM     40  C   UNL A   1      43.668  26.115  27.894  1.00  0.00    -0.014 A 
BRANCH  40  41
ATOM     41  C   UNL A   1      43.675  26.878  29.168  1.00  0.00     0.031 A 
ATOM     42  C   UNL A   1      44.093  26.149  30.421  1.00  0.00     0.074 A 
ATOM     43  C   UNL A   1      43.404  28.194  29.209  1.00  0.00     0.049 A 
ATOM     44  N   UNL A   1      44.206  26.588  31.647  1.00  0.00    -0.248 NA
ATOM     45  C   UNL A   1      44.425  24.723  30.262  1.00  0.00     0.031 C 
ATOM     46  C   UNL A   1      43.052  29.021  28.056  1.00  0.00     0.029 A 
ATOM     47  N   UNL A   1      43.397  29.071  30.266  1.00  0.00    -0.354 N 
ATOM     48  C   UNL A   1      44.611  25.493  32.405  1.00  0.00     0.074 A 
ATOM     49  C   UNL A   1      44.678  24.361  31.508  1.00  0.00     0.031 C 
ATOM     50  C   UNL A   1      42.870  30.288  28.469  1.00  0.00     0.029 A 
ATOM     51  C   UNL A   1      43.057  30.356  29.918  1.00  0.00     0.049 A 
ATOM     52  H   UNL A   1      43.614  28.802  31.188  1.00  0.00     0.167 HD
ATOM     53  C   UNL A   1      44.912  25.438  33.726  1.00  0.00     0.034 A 
ATOM     54  C   UNL A   1      42.904  31.456  30.685  1.00  0.00     0.034 A 
ATOM     55  C   UNL A   1      44.834  26.576  34.609  1.00  0.00     0.049 A 
ATOM     56  C   UNL A   1      43.160  31.351  32.172  1.00  0.00     0.074 A 
ATOM     57  C   UNL A   1      45.124  26.640  35.960  1.00  0.00     0.029 A 
ATOM     58  N   UNL A   1      44.425  27.850  34.231  1.00  0.00    -0.354 N 
ATOM     59  N   UNL A   1      43.546  30.312  32.879  1.00  0.00    -0.248 NA
ATOM     60  C   UNL A   1      42.974  32.576  32.961  1.00  0.00     0.031 C 
ATOM     61  C   UNL A   1      44.805  27.923  36.416  1.00  0.00     0.029 A 
ATOM     62  C   UNL A   1      44.419  28.694  35.331  1.00  0.00     0.049 A 
ATOM     63  H   UNL A   1      44.175  28.114  33.315  1.00  0.00     0.167 HD
ATOM     64  C   UNL A   1      43.698  30.775  34.185  1.00  0.00     0.074 A 
ATOM     65  C   UNL A   1      43.369  32.185  34.163  1.00  0.00     0.031 C 
ATOM     66  C   UNL A   1      44.087  30.100  35.299  1.00  0.00     0.034 A 
BRANCH  53  67
ATOM     67  C   UNL A   1      45.279  24.088  34.299  1.00  0.00     0.023 A 
ATOM     68  C   UNL A   1      46.609  23.737  34.598  1.00  0.00     0.031 A 
ATOM     69  C   UNL A   1      44.283  23.116  34.504  1.00  0.00     0.131 A 
ATOM     70  C   UNL A   1      46.914  22.428  35.001  1.00  0.00     0.055 A 
ATOM     71  C   UNL A   1      44.583  21.845  34.996  1.00  0.00     0.041 A 
ATOM     72  F   UNL A   1      43.001  23.379  34.210  1.00  0.00    -0.206 F 
ATOM     73  C   UNL A   1      45.907  21.488  35.231  1.00  0.00     0.022 A 
BRANCH  70  74
ATOM     74  S   UNL A   1      48.655  21.921  35.058  1.00  0.00     0.124 S 
ATOM     75  O   UNL A   1      49.196  22.595  33.880  1.00  0.00    -0.237 OA
ATOM     76  O   UNL A   1      49.093  22.438  36.348  1.00  0.00    -0.237 OA
ATOM     77  O   UNL A   1      48.592  20.464  34.956  1.00  0.00    -0.744 OA
ENDBRANCH  70  74
ENDBRANCH  53  67
BRANCH  54  78
ATOM     78  C   UNL A   1      42.472  32.751  30.082  1.00  0.00     0.023 A 
ATOM     79  C   UNL A   1      43.399  33.621  29.487  1.00  0.00     0.031 A 
ATOM     80  C   UNL A   1      41.131  33.170  30.156  1.00  0.00     0.131 A 
ATOM     81  C   UNL A   1      42.985  34.886  29.038  1.00  0.00     0.055 A 
ATOM     82  C   UNL A   1      40.714  34.403  29.653  1.00  0.00     0.041 A 
ATOM     83  F   UNL A   1      40.203  32.381  30.721  1.00  0.00    -0.206 F 
ATOM     84  C   UNL A   1      41.646  35.277  29.103  1.00  0.00     0.022 A 
BRANCH  81  85
ATOM     85  S   UNL A   1      44.244  36.057  28.457  1.00  0.00     0.124 S 
ATOM     86  O   UNL A   1      44.162  35.887  27.012  1.00  0.00    -0.237 OA
ATOM     87  O   UNL A   1      43.744  37.323  28.984  1.00  0.00    -0.237 OA
ATOM     88  O   UNL A   1      45.475  35.570  29.076  1.00  0.00    -0.744 OA
ENDBRANCH  81  85
ENDBRANCH  54  78
BRANCH  66  89
ATOM     89  C   UNL A   1      44.254  30.901  36.572  1.00  0.00     0.023 A 
ATOM     90  C   UNL A   1      45.502  31.396  36.990  1.00  0.00     0.031 A 
ATOM     91  C   UNL A   1      43.140  31.149  37.395  1.00  0.00     0.131 A 
ATOM     92  C   UNL A   1      45.619  32.043  38.230  1.00  0.00     0.055 A 
ATOM     93  C   UNL A   1      43.248  31.863  38.589  1.00  0.00     0.041 A 
ATOM     94  F   UNL A   1      41.921  30.700  37.053  1.00  0.00    -0.206 F 
ATOM     95  C   UNL A   1      44.497  32.298  39.023  1.00  0.00     0.022 A 
BRANCH  92  96
ATOM     96  S   UNL A   1      47.277  32.426  38.860  1.00  0.00     0.124 S 
ATOM     97  O   UNL A   1      47.397  31.497  39.979  1.00  0.00    -0.237 OA
ATOM     98  O   UNL A   1      48.121  32.143  37.704  1.00  0.00    -0.237 OA
ATOM     99  O   UNL A   1      47.185  33.836  39.231  1.00  0.00    -0.744 OA
ENDBRANCH  92  96
ENDBRANCH  66  89
ENDBRANCH  40  41
ENDBRANCH  33  35
ENDBRANCH  32  33
ENDBRANCH  31  32
ENDBRANCH  30  31
ENDBRANCH  29  30
ENDBRANCH  28  29
ENDBRANCH  27  28
ENDBRANCH   1  27
TORSDOF 26
ENDMDL
