MODEL 1
REMARK VINA RESULT:      -9.5      0.000      0.000
REMARK SMILES COc1ccccc1[C@@H]1CN(C(=O)c2cnn3ccccc23)C[C@H]1C(=O)OCCOCCOCCOCCOC(=O)c1ccc(-c2c3nc(c(-c4cc(S(=O)(=O)[O-])ccc4F)c4ccc([nH]4)c(-c4cc(S(=O)(=O)[O-])ccc4F)c4nc(c(-c5cc(S(=O)(=O)[O-])ccc5F)c5ccc2[nH]5)C=C4)C=C3)cc1
REMARK SMILES IDX 34 1 33 2 32 3 31 4 30 5 29 6 28 7 27 8 25 9 26 10 24 11
REMARK SMILES IDX 9 12 10 13 11 14 23 15 8 16 3 17 4 18 5 19 7 20 6 21 2 22
REMARK SMILES IDX 1 23 12 24 13 25 14 26 15 27 22 28 16 29 17 30 21 31 18 32
REMARK SMILES IDX 20 33 19 34 35 35 36 36 37 37 38 38 39 39 40 40 41 41 42 42
REMARK SMILES IDX 43 43 104 44 44 45 103 46 45 47 46 48 47 49 97 50 48 51
REMARK SMILES IDX 102 52 96 53 98 54 49 55 101 56 95 57 94 58 50 60 82 61
REMARK SMILES IDX 62 62 81 63 63 64 66 65 80 66 99 67 64 68 65 69 79 71 100 72
REMARK SMILES IDX 67 73 51 74 52 75 60 76 53 77 59 78 61 79 58 80 54 81 55 82
REMARK SMILES IDX 56 83 57 84 83 85 84 86 92 87 85 88 91 89 93 90 90 91 86 92
REMARK SMILES IDX 87 93 88 94 89 95 68 96 69 97 77 98 70 99 76 100 78 101
REMARK SMILES IDX 75 102 71 103 72 104 73 105 74 106
REMARK H PARENT 98 59 66 70
REMARK Flexibility Score: inf
ROOT
ATOM      1  C   UNL A   1      34.533  21.326  25.878  1.00  0.00     0.188 C 
ENDROOT
BRANCH   1   2
ATOM      2  O   UNL A   1      34.692  21.689  27.240  1.00  0.00    -0.377 OA
BRANCH   2   3
ATOM      3  C   UNL A   1      33.582  22.308  27.860  1.00  0.00     0.188 C 
BRANCH   3   4
ATOM      4  C   UNL A   1      32.426  22.761  26.947  1.00  0.00     0.188 C 
BRANCH   4   5
ATOM      5  O   UNL A   1      31.401  23.630  27.414  1.00  0.00    -0.376 OA
BRANCH   5   6
ATOM      6  C   UNL A   1      30.649  24.403  26.496  1.00  0.00     0.202 C 
BRANCH   6   7
ATOM      7  C   UNL A   1      31.277  25.673  25.890  1.00  0.00     0.261 C 
BRANCH   7   8
ATOM      8  O   UNL A   1      31.950  26.574  26.802  1.00  0.00    -0.463 OA
BRANCH   8   9
ATOM      9  C   UNL A   1      33.145  27.030  26.374  1.00  0.00     0.311 C 
ATOM     10  O   UNL A   1      34.166  26.343  26.354  1.00  0.00    -0.252 OA
BRANCH   9  11
ATOM     11  C   UNL A   1      33.227  28.494  25.980  1.00  0.00     0.128 C 
ATOM     12  C   UNL A   1      32.188  29.636  26.183  1.00  0.00     0.058 C 
ATOM     13  C   UNL A   1      33.057  30.873  26.409  1.00  0.00     0.129 C 
ATOM     14  N   UNL A   1      34.222  30.353  27.089  1.00  0.00    -0.337 N 
ATOM     15  C   UNL A   1      34.494  28.998  26.670  1.00  0.00     0.135 C 
BRANCH  12  16
ATOM     16  C   UNL A   1      31.129  29.995  25.131  1.00  0.00    -0.000 A 
ATOM     17  C   UNL A   1      30.713  29.236  24.018  1.00  0.00     0.122 A 
ATOM     18  C   UNL A   1      29.664  29.695  23.194  1.00  0.00     0.047 A 
ATOM     19  C   UNL A   1      29.103  30.959  23.370  1.00  0.00     0.004 A 
ATOM     20  C   UNL A   1      30.601  31.310  25.220  1.00  0.00     0.008 A 
ATOM     21  C   UNL A   1      29.620  31.792  24.348  1.00  0.00     0.001 A 
BRANCH  17  22
ATOM     22  O   UNL A   1      31.489  28.289  23.396  1.00  0.00    -0.496 OA
ATOM     23  C   UNL A   1      30.854  27.338  22.568  1.00  0.00     0.278 C 
ENDBRANCH  17  22
ENDBRANCH  12  16
BRANCH  14  24
ATOM     24  C   UNL A   1      35.123  31.032  27.880  1.00  0.00     0.257 C 
ATOM     25  O   UNL A   1      35.215  32.258  27.847  1.00  0.00    -0.269 OA
BRANCH  24  26
ATOM     26  C   UNL A   1      35.927  30.254  28.794  1.00  0.00     0.085 A 
ATOM     27  C   UNL A   1      35.638  30.003  30.147  1.00  0.00     0.150 A 
ATOM     28  C   UNL A   1      37.154  29.652  28.593  1.00  0.00     0.079 A 
ATOM     29  N   UNL A   1      36.547  29.235  30.745  1.00  0.00    -0.176 NA
ATOM     30  N   UNL A   1      37.482  29.001  29.787  1.00  0.00    -0.240 N 
ATOM     31  C   UNL A   1      38.077  29.548  27.505  1.00  0.00     0.029 A 
ATOM     32  C   UNL A   1      38.632  28.221  29.912  1.00  0.00     0.113 A 
ATOM     33  C   UNL A   1      39.178  28.786  27.638  1.00  0.00     0.004 A 
ATOM     34  C   UNL A   1      39.474  28.085  28.876  1.00  0.00     0.020 A 
ENDBRANCH  24  26
ENDBRANCH  14  24
ENDBRANCH   9  11
ENDBRANCH   8   9
ENDBRANCH   7   8
ENDBRANCH   6   7
ENDBRANCH   5   6
ENDBRANCH   4   5
ENDBRANCH   3   4
ENDBRANCH   2   3
ENDBRANCH   1   2
BRANCH   1  35
ATOM     35  C   UNL A   1      35.816  21.237  25.025  1.00  0.00     0.188 C 
BRANCH  35  36
ATOM     36  O   UNL A   1      36.886  22.063  25.476  1.00  0.00    -0.376 OA
BRANCH  36  37
ATOM     37  C   UNL A   1      38.194  21.539  25.654  1.00  0.00     0.202 C 
BRANCH  37  38
ATOM     38  C   UNL A   1      39.247  22.431  26.310  1.00  0.00     0.261 C 
BRANCH  38  39
ATOM     39  O   UNL A   1      38.885  23.792  26.414  1.00  0.00    -0.460 OA
BRANCH  39  40
ATOM     40  C   UNL A   1      39.547  24.478  27.358  1.00  0.00     0.338 C 
ATOM     41  O   UNL A   1      39.093  24.900  28.418  1.00  0.00    -0.246 OA
BRANCH  40  42
ATOM     42  C   UNL A   1      40.900  24.743  26.877  1.00  0.00     0.060 A 
ATOM     43  C   UNL A   1      41.923  24.363  27.740  1.00  0.00     0.016 A 
ATOM     44  C   UNL A   1      41.068  25.699  25.862  1.00  0.00     0.016 A 
ATOM     45  C   UNL A   1      43.008  25.193  27.817  1.00  0.00     0.010 A 
ATOM     46  C   UNL A   1      42.145  26.537  25.952  1.00  0.00     0.010 A 
ATOM     47  C   UNL A   1      43.028  26.333  27.007  1.00  0.00    -0.014 A 
BRANCH  47  48
ATOM     48  C   UNL A   1      44.078  27.289  27.235  1.00  0.00     0.031 A 
ATOM     49  C   UNL A   1      45.336  26.855  26.606  1.00  0.00     0.074 A 
ATOM     50  C   UNL A   1      43.872  28.450  27.879  1.00  0.00     0.049 A 
ATOM     51  N   UNL A   1      46.369  26.365  27.201  1.00  0.00    -0.248 NA
ATOM     52  C   UNL A   1      45.343  26.686  25.144  1.00  0.00     0.031 C 
ATOM     53  C   UNL A   1      42.609  29.053  28.306  1.00  0.00     0.029 A 
ATOM     54  N   UNL A   1      44.781  29.402  28.195  1.00  0.00    -0.354 N 
ATOM     55  C   UNL A   1      47.267  26.092  26.181  1.00  0.00     0.074 A 
ATOM     56  C   UNL A   1      46.493  26.037  24.974  1.00  0.00     0.031 C 
ATOM     57  C   UNL A   1      42.819  30.362  28.583  1.00  0.00     0.029 A 
ATOM     58  C   UNL A   1      44.239  30.653  28.458  1.00  0.00     0.049 A 
ATOM     59  H   UNL A   1      45.748  29.222  28.234  1.00  0.00     0.167 HD
ATOM     60  C   UNL A   1      48.600  26.262  26.377  1.00  0.00     0.034 A 
ATOM     61  C   UNL A   1      44.920  31.832  28.441  1.00  0.00     0.034 A 
ATOM     62  C   UNL A   1      48.914  26.294  27.792  1.00  0.00     0.049 A 
ATOM     63  C   UNL A   1      46.362  31.489  28.629  1.00  0.00     0.074 A 
ATOM     64  C   UNL A   1      48.669  25.427  28.843  1.00  0.00     0.029 A 
ATOM     65  N   UNL A   1      49.191  27.512  28.379  1.00  0.00    -0.354 N 
ATOM     66  N   UNL A   1      46.829  30.960  29.731  1.00  0.00    -0.248 NA
ATOM     67  C   UNL A   1      47.161  31.219  27.438  1.00  0.00     0.031 C 
ATOM     68  C   UNL A   1      48.297  26.268  29.932  1.00  0.00     0.029 A 
ATOM     69  C   UNL A   1      48.435  27.596  29.526  1.00  0.00     0.049 A 
ATOM     70  H   UNL A   1      49.814  28.195  28.039  1.00  0.00     0.167 HD
ATOM     71  C   UNL A   1      47.703  29.962  29.320  1.00  0.00     0.074 A 
ATOM     72  C   UNL A   1      47.925  30.221  27.896  1.00  0.00     0.031 C 
ATOM     73  C   UNL A   1      47.926  28.843  30.075  1.00  0.00     0.034 A 
BRANCH  60  74
ATOM     74  C   UNL A   1      49.531  26.805  25.317  1.00  0.00     0.023 A 
ATOM     75  C   UNL A   1      48.936  27.218  24.114  1.00  0.00     0.031 A 
ATOM     76  C   UNL A   1      50.941  26.677  25.293  1.00  0.00     0.131 A 
ATOM     77  C   UNL A   1      49.703  27.366  22.948  1.00  0.00     0.055 A 
ATOM     78  C   UNL A   1      51.707  26.899  24.148  1.00  0.00     0.041 A 
ATOM     79  F   UNL A   1      51.661  26.245  26.334  1.00  0.00    -0.206 F 
ATOM     80  C   UNL A   1      51.086  27.210  22.955  1.00  0.00     0.022 A 
BRANCH  77  81
ATOM     81  S   UNL A   1      48.826  27.577  21.383  1.00  0.00     0.124 S 
ATOM     82  O   UNL A   1      48.737  26.199  20.912  1.00  0.00    -0.237 OA
ATOM     83  O   UNL A   1      47.578  28.191  21.823  1.00  0.00    -0.237 OA
ATOM     84  O   UNL A   1      49.714  28.446  20.615  1.00  0.00    -0.744 OA
ENDBRANCH  77  81
ENDBRANCH  60  74
BRANCH  61  85
ATOM     85  C   UNL A   1      44.424  33.127  27.877  1.00  0.00     0.023 A 
ATOM     86  C   UNL A   1      44.356  34.323  28.625  1.00  0.00     0.031 A 
ATOM     87  C   UNL A   1      44.199  33.252  26.484  1.00  0.00     0.131 A 
ATOM     88  C   UNL A   1      44.059  35.554  27.984  1.00  0.00     0.055 A 
ATOM     89  C   UNL A   1      43.898  34.464  25.861  1.00  0.00     0.041 A 
ATOM     90  F   UNL A   1      44.347  32.208  25.653  1.00  0.00    -0.206 F 
ATOM     91  C   UNL A   1      43.834  35.625  26.608  1.00  0.00     0.022 A 
BRANCH  88  92
ATOM     92  S   UNL A   1      44.048  37.120  28.923  1.00  0.00     0.124 S 
ATOM     93  O   UNL A   1      43.451  36.716  30.189  1.00  0.00    -0.237 OA
ATOM     94  O   UNL A   1      45.461  37.478  28.953  1.00  0.00    -0.237 OA
ATOM     95  O   UNL A   1      43.213  38.001  28.104  1.00  0.00    -0.744 OA
ENDBRANCH  88  92
ENDBRANCH  61  85
BRANCH  73  96
ATOM     96  C   UNL A   1      47.425  28.801  31.509  1.00  0.00     0.023 A 
ATOM     97  C   UNL A   1      46.109  28.465  31.906  1.00  0.00     0.031 A 
ATOM     98  C   UNL A   1      48.380  28.979  32.528  1.00  0.00     0.131 A 
ATOM     99  C   UNL A   1      45.797  28.328  33.275  1.00  0.00     0.055 A 
ATOM    100  C   UNL A   1      48.074  28.819  33.878  1.00  0.00     0.041 A 
ATOM    101  F   UNL A   1      49.655  29.275  32.222  1.00  0.00    -0.206 F 
ATOM    102  C   UNL A   1      46.777  28.498  34.257  1.00  0.00     0.022 A 
BRANCH  99 103
ATOM    103  S   UNL A   1      44.097  27.945  33.813  1.00  0.00     0.124 S 
ATOM    104  O   UNL A   1      44.031  26.491  33.732  1.00  0.00    -0.237 OA
ATOM    105  O   UNL A   1      44.058  28.514  35.158  1.00  0.00    -0.237 OA
ATOM    106  O   UNL A   1      43.266  28.647  32.832  1.00  0.00    -0.744 OA
ENDBRANCH  99 103
ENDBRANCH  73  96
ENDBRANCH  47  48
ENDBRANCH  40  42
ENDBRANCH  39  40
ENDBRANCH  38  39
ENDBRANCH  37  38
ENDBRANCH  36  37
ENDBRANCH  35  36
ENDBRANCH   1  35
TORSDOF 27
ENDMDL
MODEL 2
REMARK VINA RESULT:      -9.3      3.399      7.239
REMARK SMILES COc1ccccc1[C@@H]1CN(C(=O)c2cnn3ccccc23)C[C@H]1C(=O)OCCOCCOCCOCCOC(=O)c1ccc(-c2c3nc(c(-c4cc(S(=O)(=O)[O-])ccc4F)c4ccc([nH]4)c(-c4cc(S(=O)(=O)[O-])ccc4F)c4nc(c(-c5cc(S(=O)(=O)[O-])ccc5F)c5ccc2[nH]5)C=C4)C=C3)cc1
REMARK SMILES IDX 34 1 33 2 32 3 31 4 30 5 29 6 28 7 27 8 25 9 26 10 24 11
REMARK SMILES IDX 9 12 10 13 11 14 23 15 8 16 3 17 4 18 5 19 7 20 6 21 2 22
REMARK SMILES IDX 1 23 12 24 13 25 14 26 15 27 22 28 16 29 17 30 21 31 18 32
REMARK SMILES IDX 20 33 19 34 35 35 36 36 37 37 38 38 39 39 40 40 41 41 42 42
REMARK SMILES IDX 43 43 104 44 44 45 103 46 45 47 46 48 47 49 97 50 48 51
REMARK SMILES IDX 102 52 96 53 98 54 49 55 101 56 95 57 94 58 50 60 82 61
REMARK SMILES IDX 62 62 81 63 63 64 66 65 80 66 99 67 64 68 65 69 79 71 100 72
REMARK SMILES IDX 67 73 51 74 52 75 60 76 53 77 59 78 61 79 58 80 54 81 55 82
REMARK SMILES IDX 56 83 57 84 83 85 84 86 92 87 85 88 91 89 93 90 90 91 86 92
REMARK SMILES IDX 87 93 88 94 89 95 68 96 69 97 77 98 70 99 76 100 78 101
REMARK SMILES IDX 75 102 71 103 72 104 73 105 74 106
REMARK H PARENT 98 59 66 70
REMARK Flexibility Score: inf
ROOT
ATOM      1  C   UNL A   1      41.734  23.943  26.959  1.00  0.00     0.188 C 
ENDROOT
BRANCH   1   2
ATOM      2  O   UNL A   1      41.299  24.631  28.120  1.00  0.00    -0.377 OA
BRANCH   2   3
ATOM      3  C   UNL A   1      39.970  25.115  28.104  1.00  0.00     0.188 C 
BRANCH   3   4
ATOM      4  C   UNL A   1      39.138  24.848  26.835  1.00  0.00     0.188 C 
BRANCH   4   5
ATOM      5  O   UNL A   1      38.356  23.669  26.688  1.00  0.00    -0.376 OA
BRANCH   5   6
ATOM      6  C   UNL A   1      37.121  23.714  25.996  1.00  0.00     0.202 C 
BRANCH   6   7
ATOM      7  C   UNL A   1      36.836  22.672  24.897  1.00  0.00     0.261 C 
BRANCH   7   8
ATOM      8  O   UNL A   1      35.455  22.502  24.493  1.00  0.00    -0.463 OA
BRANCH   8   9
ATOM      9  C   UNL A   1      35.077  23.243  23.433  1.00  0.00     0.311 C 
ATOM     10  O   UNL A   1      35.769  23.391  22.426  1.00  0.00    -0.252 OA
BRANCH   9  11
ATOM     11  C   UNL A   1      33.761  23.992  23.546  1.00  0.00     0.128 C 
ATOM     12  C   UNL A   1      32.995  24.466  24.816  1.00  0.00     0.058 C 
ATOM     13  C   UNL A   1      32.337  25.771  24.370  1.00  0.00     0.129 C 
ATOM     14  N   UNL A   1      33.278  26.322  23.421  1.00  0.00    -0.337 N 
ATOM     15  C   UNL A   1      33.983  25.266  22.732  1.00  0.00     0.135 C 
BRANCH  12  16
ATOM     16  C   UNL A   1      31.920  23.613  25.506  1.00  0.00    -0.000 A 
ATOM     17  C   UNL A   1      31.782  22.210  25.500  1.00  0.00     0.122 A 
ATOM     18  C   UNL A   1      30.768  21.590  26.259  1.00  0.00     0.047 A 
ATOM     19  C   UNL A   1      29.798  22.339  26.923  1.00  0.00     0.004 A 
ATOM     20  C   UNL A   1      30.862  24.339  26.115  1.00  0.00     0.008 A 
ATOM     21  C   UNL A   1      29.812  23.718  26.796  1.00  0.00     0.001 A 
BRANCH  17  22
ATOM     22  O   UNL A   1      32.268  21.392  24.510  1.00  0.00    -0.496 OA
ATOM     23  C   UNL A   1      32.303  19.999  24.746  1.00  0.00     0.278 C 
ENDBRANCH  17  22
ENDBRANCH  12  16
BRANCH  14  24
ATOM     24  C   UNL A   1      33.414  27.632  23.014  1.00  0.00     0.257 C 
ATOM     25  O   UNL A   1      34.110  27.937  22.048  1.00  0.00    -0.269 OA
BRANCH  24  26
ATOM     26  C   UNL A   1      32.666  28.635  23.735  1.00  0.00     0.085 A 
ATOM     27  C   UNL A   1      31.488  29.266  23.297  1.00  0.00     0.150 A 
ATOM     28  C   UNL A   1      32.947  29.244  24.943  1.00  0.00     0.079 A 
ATOM     29  N   UNL A   1      31.000  30.138  24.178  1.00  0.00    -0.176 NA
ATOM     30  N   UNL A   1      31.889  30.121  25.206  1.00  0.00    -0.240 N 
ATOM     31  C   UNL A   1      33.997  29.162  25.910  1.00  0.00     0.029 A 
ATOM     32  C   UNL A   1      31.811  30.850  26.393  1.00  0.00     0.113 A 
ATOM     33  C   UNL A   1      33.905  29.865  27.054  1.00  0.00     0.004 A 
ATOM     34  C   UNL A   1      32.774  30.737  27.322  1.00  0.00     0.020 A 
ENDBRANCH  24  26
ENDBRANCH  14  24
ENDBRANCH   9  11
ENDBRANCH   8   9
ENDBRANCH   7   8
ENDBRANCH   6   7
ENDBRANCH   5   6
ENDBRANCH   4   5
ENDBRANCH   3   4
ENDBRANCH   2   3
ENDBRANCH   1   2
BRANCH   1  35
ATOM     35  C   UNL A   1      42.798  22.842  27.158  1.00  0.00     0.188 C 
BRANCH  35  36
ATOM     36  O   UNL A   1      43.610  22.590  26.014  1.00  0.00    -0.376 OA
BRANCH  36  37
ATOM     37  C   UNL A   1      45.024  22.702  26.078  1.00  0.00     0.202 C 
BRANCH  37  38
ATOM     38  C   UNL A   1      45.698  23.803  25.260  1.00  0.00     0.261 C 
BRANCH  38  39
ATOM     39  O   UNL A   1      44.815  24.771  24.732  1.00  0.00    -0.460 OA
BRANCH  39  40
ATOM     40  C   UNL A   1      45.060  26.029  25.129  1.00  0.00     0.338 C 
ATOM     41  O   UNL A   1      45.992  26.747  24.773  1.00  0.00    -0.246 OA
BRANCH  40  42
ATOM     42  C   UNL A   1      44.086  26.391  26.154  1.00  0.00     0.060 A 
ATOM     43  C   UNL A   1      42.996  27.130  25.703  1.00  0.00     0.016 A 
ATOM     44  C   UNL A   1      44.495  26.371  27.497  1.00  0.00     0.016 A 
ATOM     45  C   UNL A   1      42.536  28.121  26.526  1.00  0.00     0.010 A 
ATOM     46  C   UNL A   1      44.048  27.373  28.311  1.00  0.00     0.010 A 
ATOM     47  C   UNL A   1      43.165  28.298  27.763  1.00  0.00    -0.014 A 
BRANCH  47  48
ATOM     48  C   UNL A   1      42.800  29.458  28.532  1.00  0.00     0.031 A 
ATOM     49  C   UNL A   1      43.755  30.557  28.321  1.00  0.00     0.074 A 
ATOM     50  C   UNL A   1      41.679  29.511  29.272  1.00  0.00     0.049 A 
ATOM     51  N   UNL A   1      44.670  30.953  29.138  1.00  0.00    -0.248 NA
ATOM     52  C   UNL A   1      43.894  31.085  26.954  1.00  0.00     0.031 C 
ATOM     53  C   UNL A   1      40.569  28.559  29.329  1.00  0.00     0.029 A 
ATOM     54  N   UNL A   1      41.253  30.519  30.069  1.00  0.00    -0.354 N 
ATOM     55  C   UNL A   1      45.314  31.984  28.473  1.00  0.00     0.074 A 
ATOM     56  C   UNL A   1      44.996  31.821  27.083  1.00  0.00     0.031 C 
ATOM     57  C   UNL A   1      39.504  29.163  29.911  1.00  0.00     0.029 A 
ATOM     58  C   UNL A   1      39.896  30.490  30.359  1.00  0.00     0.049 A 
ATOM     59  H   UNL A   1      41.856  31.215  30.415  1.00  0.00     0.167 HD
ATOM     60  C   UNL A   1      45.776  33.061  29.160  1.00  0.00     0.034 A 
ATOM     61  C   UNL A   1      39.159  31.541  30.815  1.00  0.00     0.034 A 
ATOM     62  C   UNL A   1      45.906  32.756  30.571  1.00  0.00     0.049 A 
ATOM     63  C   UNL A   1      40.127  32.497  31.434  1.00  0.00     0.074 A 
ATOM     64  C   UNL A   1      46.574  31.770  31.276  1.00  0.00     0.029 A 
ATOM     65  N   UNL A   1      44.956  33.249  31.442  1.00  0.00    -0.354 N 
ATOM     66  N   UNL A   1      40.822  32.210  32.505  1.00  0.00    -0.248 NA
ATOM     67  C   UNL A   1      40.722  33.518  30.578  1.00  0.00     0.031 C 
ATOM     68  C   UNL A   1      45.667  31.375  32.302  1.00  0.00     0.029 A 
ATOM     69  C   UNL A   1      44.546  32.204  32.238  1.00  0.00     0.049 A 
ATOM     70  H   UNL A   1      44.631  34.178  31.486  1.00  0.00     0.167 HD
ATOM     71  C   UNL A   1      42.106  32.674  32.247  1.00  0.00     0.074 A 
ATOM     72  C   UNL A   1      41.963  33.540  31.076  1.00  0.00     0.031 C 
ATOM     73  C   UNL A   1      43.210  32.084  32.800  1.00  0.00     0.034 A 
BRANCH  60  74
ATOM     74  C   UNL A   1      45.709  34.474  28.628  1.00  0.00     0.023 A 
ATOM     75  C   UNL A   1      44.426  35.001  28.409  1.00  0.00     0.031 A 
ATOM     76  C   UNL A   1      46.780  35.209  28.063  1.00  0.00     0.131 A 
ATOM     77  C   UNL A   1      44.241  36.116  27.576  1.00  0.00     0.055 A 
ATOM     78  C   UNL A   1      46.594  36.361  27.296  1.00  0.00     0.041 A 
ATOM     79  F   UNL A   1      48.058  34.822  28.130  1.00  0.00    -0.206 F 
ATOM     80  C   UNL A   1      45.315  36.801  27.018  1.00  0.00     0.022 A 
BRANCH  77  81
ATOM     81  S   UNL A   1      42.552  36.529  27.085  1.00  0.00     0.124 S 
ATOM     82  O   UNL A   1      42.717  37.893  26.595  1.00  0.00    -0.237 OA
ATOM     83  O   UNL A   1      42.279  35.510  26.077  1.00  0.00    -0.237 OA
ATOM     84  O   UNL A   1      41.798  36.396  28.329  1.00  0.00    -0.744 OA
ENDBRANCH  77  81
ENDBRANCH  60  74
BRANCH  61  85
ATOM     85  C   UNL A   1      37.776  31.903  30.374  1.00  0.00     0.023 A 
ATOM     86  C   UNL A   1      36.839  32.549  31.211  1.00  0.00     0.031 A 
ATOM     87  C   UNL A   1      37.420  31.800  29.006  1.00  0.00     0.131 A 
ATOM     88  C   UNL A   1      35.617  33.036  30.678  1.00  0.00     0.055 A 
ATOM     89  C   UNL A   1      36.211  32.272  28.490  1.00  0.00     0.041 A 
ATOM     90  F   UNL A   1      38.273  31.309  28.095  1.00  0.00    -0.206 F 
ATOM     91  C   UNL A   1      35.305  32.900  29.324  1.00  0.00     0.022 A 
BRANCH  88  92
ATOM     92  S   UNL A   1      34.432  33.944  31.729  1.00  0.00     0.124 S 
ATOM     93  O   UNL A   1      35.308  34.826  32.490  1.00  0.00    -0.237 OA
ATOM     94  O   UNL A   1      33.563  34.578  30.746  1.00  0.00    -0.237 OA
ATOM     95  O   UNL A   1      33.794  32.886  32.515  1.00  0.00    -0.744 OA
ENDBRANCH  88  92
ENDBRANCH  61  85
BRANCH  73  96
ATOM     96  C   UNL A   1      43.031  31.077  33.925  1.00  0.00     0.023 A 
ATOM     97  C   UNL A   1      42.920  29.677  33.757  1.00  0.00     0.031 A 
ATOM     98  C   UNL A   1      43.120  31.565  35.242  1.00  0.00     0.131 A 
ATOM     99  C   UNL A   1      42.894  28.830  34.885  1.00  0.00     0.055 A 
ATOM    100  C   UNL A   1      43.120  30.723  36.353  1.00  0.00     0.041 A 
ATOM    101  F   UNL A   1      43.253  32.882  35.473  1.00  0.00    -0.206 F 
ATOM    102  C   UNL A   1      43.000  29.351  36.179  1.00  0.00     0.022 A 
BRANCH  99 103
ATOM    103  S   UNL A   1      42.700  27.027  34.697  1.00  0.00     0.124 S 
ATOM    104  O   UNL A   1      42.686  26.833  33.253  1.00  0.00    -0.237 OA
ATOM    105  O   UNL A   1      43.870  26.510  35.402  1.00  0.00    -0.237 OA
ATOM    106  O   UNL A   1      41.422  26.754  35.360  1.00  0.00    -0.744 OA
ENDBRANCH  99 103
ENDBRANCH  73  96
ENDBRANCH  47  48
ENDBRANCH  40  42
ENDBRANCH  39  40
ENDBRANCH  38  39
ENDBRANCH  37  38
ENDBRANCH  36  37
ENDBRANCH  35  36
ENDBRANCH   1  35
TORSDOF 27
ENDMDL
MODEL 3
REMARK VINA RESULT:      -8.9      3.445      8.878
REMARK SMILES COc1ccccc1[C@@H]1CN(C(=O)c2cnn3ccccc23)C[C@H]1C(=O)OCCOCCOCCOCCOC(=O)c1ccc(-c2c3nc(c(-c4cc(S(=O)(=O)[O-])ccc4F)c4ccc([nH]4)c(-c4cc(S(=O)(=O)[O-])ccc4F)c4nc(c(-c5cc(S(=O)(=O)[O-])ccc5F)c5ccc2[nH]5)C=C4)C=C3)cc1
REMARK SMILES IDX 34 1 33 2 32 3 31 4 30 5 29 6 28 7 27 8 25 9 26 10 24 11
REMARK SMILES IDX 9 12 10 13 11 14 23 15 8 16 3 17 4 18 5 19 7 20 6 21 2 22
REMARK SMILES IDX 1 23 12 24 13 25 14 26 15 27 22 28 16 29 17 30 21 31 18 32
REMARK SMILES IDX 20 33 19 34 35 35 36 36 37 37 38 38 39 39 40 40 41 41 42 42
REMARK SMILES IDX 43 43 104 44 44 45 103 46 45 47 46 48 47 49 97 50 48 51
REMARK SMILES IDX 102 52 96 53 98 54 49 55 101 56 95 57 94 58 50 60 82 61
REMARK SMILES IDX 62 62 81 63 63 64 66 65 80 66 99 67 64 68 65 69 79 71 100 72
REMARK SMILES IDX 67 73 51 74 52 75 60 76 53 77 59 78 61 79 58 80 54 81 55 82
REMARK SMILES IDX 56 83 57 84 83 85 84 86 92 87 85 88 91 89 93 90 90 91 86 92
REMARK SMILES IDX 87 93 88 94 89 95 68 96 69 97 77 98 70 99 76 100 78 101
REMARK SMILES IDX 75 102 71 103 72 104 73 105 74 106
REMARK H PARENT 98 59 66 70
REMARK Flexibility Score: inf
ROOT
ATOM      1  C   UNL A   1      33.562  22.058  23.600  1.00  0.00     0.188 C 
ENDROOT
BRANCH   1   2
ATOM      2  O   UNL A   1      33.134  21.075  24.529  1.00  0.00    -0.377 OA
BRANCH   2   3
ATOM      3  C   UNL A   1      31.856  21.267  25.104  1.00  0.00     0.188 C 
BRANCH   3   4
ATOM      4  C   UNL A   1      31.352  22.717  25.236  1.00  0.00     0.188 C 
BRANCH   4   5
ATOM      5  O   UNL A   1      32.006  23.661  26.075  1.00  0.00    -0.376 OA
BRANCH   5   6
ATOM      6  C   UNL A   1      32.188  24.996  25.639  1.00  0.00     0.202 C 
BRANCH   6   7
ATOM      7  C   UNL A   1      33.334  25.834  26.239  1.00  0.00     0.261 C 
BRANCH   7   8
ATOM      8  O   UNL A   1      34.211  26.513  25.308  1.00  0.00    -0.463 OA
BRANCH   8   9
ATOM      9  C   UNL A   1      33.720  27.660  24.798  1.00  0.00     0.311 C 
ATOM     10  O   UNL A   1      33.757  27.943  23.600  1.00  0.00    -0.252 OA
BRANCH   9  11
ATOM     11  C   UNL A   1      33.174  28.678  25.783  1.00  0.00     0.128 C 
ATOM     12  C   UNL A   1      33.751  30.063  26.201  1.00  0.00     0.058 C 
ATOM     13  C   UNL A   1      32.503  30.907  26.456  1.00  0.00     0.129 C 
ATOM     14  N   UNL A   1      31.540  30.391  25.509  1.00  0.00    -0.337 N 
ATOM     15  C   UNL A   1      31.769  28.986  25.265  1.00  0.00     0.135 C 
BRANCH  12  16
ATOM     16  C   UNL A   1      34.691  30.245  27.401  1.00  0.00    -0.000 A 
ATOM     17  C   UNL A   1      34.734  31.311  28.323  1.00  0.00     0.122 A 
ATOM     18  C   UNL A   1      35.624  31.271  29.417  1.00  0.00     0.047 A 
ATOM     19  C   UNL A   1      36.571  30.257  29.546  1.00  0.00     0.004 A 
ATOM     20  C   UNL A   1      35.729  29.282  27.514  1.00  0.00     0.008 A 
ATOM     21  C   UNL A   1      36.663  29.295  28.555  1.00  0.00     0.001 A 
BRANCH  17  22
ATOM     22  O   UNL A   1      34.296  32.583  28.051  1.00  0.00    -0.496 OA
ATOM     23  C   UNL A   1      34.609  33.612  28.967  1.00  0.00     0.278 C 
ENDBRANCH  17  22
ENDBRANCH  12  16
BRANCH  14  24
ATOM     24  C   UNL A   1      30.414  31.010  25.012  1.00  0.00     0.257 C 
ATOM     25  O   UNL A   1      29.918  31.989  25.567  1.00  0.00    -0.269 OA
BRANCH  24  26
ATOM     26  C   UNL A   1      29.861  30.499  23.780  1.00  0.00     0.085 A 
ATOM     27  C   UNL A   1      29.938  29.171  23.323  1.00  0.00     0.150 A 
ATOM     28  C   UNL A   1      29.211  31.170  22.762  1.00  0.00     0.079 A 
ATOM     29  N   UNL A   1      29.319  28.978  22.160  1.00  0.00    -0.176 NA
ATOM     30  N   UNL A   1      28.854  30.207  21.811  1.00  0.00    -0.240 N 
ATOM     31  C   UNL A   1      28.842  32.527  22.503  1.00  0.00     0.029 A 
ATOM     32  C   UNL A   1      28.108  30.530  20.677  1.00  0.00     0.113 A 
ATOM     33  C   UNL A   1      28.116  32.822  21.408  1.00  0.00     0.004 A 
ATOM     34  C   UNL A   1      27.722  31.797  20.458  1.00  0.00     0.020 A 
ENDBRANCH  24  26
ENDBRANCH  14  24
ENDBRANCH   9  11
ENDBRANCH   8   9
ENDBRANCH   7   8
ENDBRANCH   6   7
ENDBRANCH   5   6
ENDBRANCH   4   5
ENDBRANCH   3   4
ENDBRANCH   2   3
ENDBRANCH   1   2
BRANCH   1  35
ATOM     35  C   UNL A   1      34.915  22.745  23.883  1.00  0.00     0.188 C 
BRANCH  35  36
ATOM     36  O   UNL A   1      35.243  22.860  25.265  1.00  0.00    -0.376 OA
BRANCH  36  37
ATOM     37  C   UNL A   1      35.784  21.763  25.986  1.00  0.00     0.202 C 
BRANCH  37  38
ATOM     38  C   UNL A   1      36.735  20.817  25.255  1.00  0.00     0.261 C 
BRANCH  38  39
ATOM     39  O   UNL A   1      37.972  21.390  24.887  1.00  0.00    -0.460 OA
BRANCH  39  40
ATOM     40  C   UNL A   1      38.934  21.291  25.818  1.00  0.00     0.338 C 
ATOM     41  O   UNL A   1      39.174  20.319  26.530  1.00  0.00    -0.246 OA
BRANCH  40  42
ATOM     42  C   UNL A   1      39.606  22.582  25.930  1.00  0.00     0.060 A 
ATOM     43  C   UNL A   1      40.995  22.538  25.855  1.00  0.00     0.016 A 
ATOM     44  C   UNL A   1      38.903  23.648  26.517  1.00  0.00     0.016 A 
ATOM     45  C   UNL A   1      41.687  23.384  26.678  1.00  0.00     0.010 A 
ATOM     46  C   UNL A   1      39.595  24.480  27.351  1.00  0.00     0.010 A 
ATOM     47  C   UNL A   1      40.958  24.248  27.502  1.00  0.00    -0.014 A 
BRANCH  47  48
ATOM     48  C   UNL A   1      41.689  24.992  28.492  1.00  0.00     0.031 A 
ATOM     49  C   UNL A   1      41.055  26.294  28.754  1.00  0.00     0.074 A 
ATOM     50  C   UNL A   1      42.763  24.492  29.126  1.00  0.00     0.049 A 
ATOM     51  N   UNL A   1      41.461  27.447  28.346  1.00  0.00    -0.248 NA
ATOM     52  C   UNL A   1      39.681  26.288  29.281  1.00  0.00     0.031 C 
ATOM     53  C   UNL A   1      43.294  23.128  29.099  1.00  0.00     0.029 A 
ATOM     54  N   UNL A   1      43.558  25.105  30.035  1.00  0.00    -0.354 N 
ATOM     55  C   UNL A   1      40.518  28.343  28.825  1.00  0.00     0.074 A 
ATOM     56  C   UNL A   1      39.347  27.567  29.120  1.00  0.00     0.031 C 
ATOM     57  C   UNL A   1      44.147  22.969  30.139  1.00  0.00     0.029 A 
ATOM     58  C   UNL A   1      44.302  24.241  30.826  1.00  0.00     0.049 A 
ATOM     59  H   UNL A   1      43.604  26.084  30.126  1.00  0.00     0.167 HD
ATOM     60  C   UNL A   1      40.895  29.580  29.241  1.00  0.00     0.034 A 
ATOM     61  C   UNL A   1      44.881  24.558  32.018  1.00  0.00     0.034 A 
ATOM     62  C   UNL A   1      42.196  29.931  28.706  1.00  0.00     0.049 A 
ATOM     63  C   UNL A   1      45.030  26.044  32.032  1.00  0.00     0.074 A 
ATOM     64  C   UNL A   1      42.716  29.985  27.425  1.00  0.00     0.029 A 
ATOM     65  N   UNL A   1      43.290  29.873  29.544  1.00  0.00    -0.354 N 
ATOM     66  N   UNL A   1      45.816  26.687  31.207  1.00  0.00    -0.248 NA
ATOM     67  C   UNL A   1      43.927  26.837  32.564  1.00  0.00     0.031 C 
ATOM     68  C   UNL A   1      44.027  29.435  27.538  1.00  0.00     0.029 A 
ATOM     69  C   UNL A   1      44.275  29.173  28.887  1.00  0.00     0.049 A 
ATOM     70  H   UNL A   1      43.353  30.262  30.447  1.00  0.00     0.167 HD
ATOM     71  C   UNL A   1      45.085  27.791  30.787  1.00  0.00     0.074 A 
ATOM     72  C   UNL A   1      43.958  27.871  31.717  1.00  0.00     0.031 C 
ATOM     73  C   UNL A   1      45.275  28.354  29.554  1.00  0.00     0.034 A 
BRANCH  60  74
ATOM     74  C   UNL A   1      40.285  30.273  30.438  1.00  0.00     0.023 A 
ATOM     75  C   UNL A   1      39.836  31.588  30.238  1.00  0.00     0.031 A 
ATOM     76  C   UNL A   1      40.377  29.852  31.787  1.00  0.00     0.131 A 
ATOM     77  C   UNL A   1      39.620  32.445  31.328  1.00  0.00     0.055 A 
ATOM     78  C   UNL A   1      40.088  30.689  32.867  1.00  0.00     0.041 A 
ATOM     79  F   UNL A   1      40.835  28.652  32.157  1.00  0.00    -0.206 F 
ATOM     80  C   UNL A   1      39.742  32.006  32.643  1.00  0.00     0.022 A 
BRANCH  77  81
ATOM     81  S   UNL A   1      39.365  34.201  30.983  1.00  0.00     0.124 S 
ATOM     82  O   UNL A   1      37.911  34.269  30.881  1.00  0.00    -0.237 OA
ATOM     83  O   UNL A   1      39.960  34.824  32.160  1.00  0.00    -0.237 OA
ATOM     84  O   UNL A   1      40.091  34.405  29.732  1.00  0.00    -0.744 OA
ENDBRANCH  77  81
ENDBRANCH  60  74
BRANCH  61  85
ATOM     85  C   UNL A   1      44.914  23.691  33.238  1.00  0.00     0.023 A 
ATOM     86  C   UNL A   1      46.084  23.050  33.702  1.00  0.00     0.031 A 
ATOM     87  C   UNL A   1      43.797  23.652  34.109  1.00  0.00     0.131 A 
ATOM     88  C   UNL A   1      46.094  22.402  34.965  1.00  0.00     0.055 A 
ATOM     89  C   UNL A   1      43.810  23.004  35.345  1.00  0.00     0.041 A 
ATOM     90  F   UNL A   1      42.667  24.318  33.830  1.00  0.00    -0.206 F 
ATOM     91  C   UNL A   1      44.964  22.380  35.783  1.00  0.00     0.022 A 
BRANCH  88  92
ATOM     92  S   UNL A   1      47.621  21.639  35.614  1.00  0.00     0.124 S 
ATOM     93  O   UNL A   1      48.143  22.686  36.482  1.00  0.00    -0.237 OA
ATOM     94  O   UNL A   1      47.117  20.439  36.271  1.00  0.00    -0.237 OA
ATOM     95  O   UNL A   1      48.414  21.387  34.410  1.00  0.00    -0.744 OA
ENDBRANCH  88  92
ENDBRANCH  61  85
BRANCH  73  96
ATOM     96  C   UNL A   1      46.483  27.946  28.727  1.00  0.00     0.023 A 
ATOM     97  C   UNL A   1      46.482  26.966  27.706  1.00  0.00     0.031 A 
ATOM     98  C   UNL A   1      47.662  28.696  28.899  1.00  0.00     0.131 A 
ATOM     99  C   UNL A   1      47.632  26.768  26.914  1.00  0.00     0.055 A 
ATOM    100  C   UNL A   1      48.788  28.515  28.098  1.00  0.00     0.041 A 
ATOM    101  F   UNL A   1      47.724  29.660  29.833  1.00  0.00    -0.206 F 
ATOM    102  C   UNL A   1      48.779  27.544  27.106  1.00  0.00     0.022 A 
BRANCH  99 103
ATOM    103  S   UNL A   1      47.671  25.477  25.627  1.00  0.00     0.124 S 
ATOM    104  O   UNL A   1      47.530  24.238  26.381  1.00  0.00    -0.237 OA
ATOM    105  O   UNL A   1      46.540  25.844  24.780  1.00  0.00    -0.237 OA
ATOM    106  O   UNL A   1      48.983  25.663  25.002  1.00  0.00    -0.744 OA
ENDBRANCH  99 103
ENDBRANCH  73  96
ENDBRANCH  47  48
ENDBRANCH  40  42
ENDBRANCH  39  40
ENDBRANCH  38  39
ENDBRANCH  37  38
ENDBRANCH  36  37
ENDBRANCH  35  36
ENDBRANCH   1  35
TORSDOF 27
ENDMDL
