MODEL 1
REMARK VINA RESULT:      -9.7      0.000      0.000
REMARK SMILES Cn1nc(C(=O)N2C[C@@H](O)C[C@H]2C(=O)OCCOCCOCCOCCOC(=O)c2ccc(-c3c4nc(c(-c5cc(S(=O)(=O)[O-])ccc5F)c5ccc([nH]5)c(-c5cc(S(=O)(=O)[O-])ccc5F)c5nc(c(-c6cc(S(=O)(=O)[O-])ccc6F)c6ccc3[nH]6)C=C5)C=C4)cc2)ccc1=O
REMARK SMILES IDX 22 1 21 2 20 3 19 4 18 5 17 6 16 7 15 8 13 9 14 10 12 11
REMARK SMILES IDX 7 12 8 13 9 14 11 15 5 16 6 17 4 18 1 19 2 20 3 21 95 22
REMARK SMILES IDX 94 23 96 24 93 25 10 26 23 28 24 29 25 30 26 31 27 32 28 33
REMARK SMILES IDX 29 34 30 35 31 36 92 37 32 38 91 39 33 40 34 41 35 42 85 43
REMARK SMILES IDX 36 44 90 45 84 46 86 47 37 48 89 49 83 50 82 51 38 53 70 54
REMARK SMILES IDX 50 55 69 56 51 57 54 58 68 59 87 60 52 61 53 62 67 64 88 65
REMARK SMILES IDX 55 66 39 67 40 68 48 69 41 70 47 71 49 72 46 73 42 74 43 75
REMARK SMILES IDX 44 76 45 77 71 78 72 79 80 80 73 81 79 82 81 83 78 84 74 85
REMARK SMILES IDX 75 86 76 87 77 88 56 89 57 90 65 91 58 92 64 93 66 94 63 95
REMARK SMILES IDX 59 96 60 97 61 98 62 99
REMARK H PARENT 10 27 86 52 54 63
REMARK Flexibility Score: inf
ROOT
ATOM      1  C   UNL A   1      38.356  21.666  25.420  1.00  0.00     0.188 C 
ENDROOT
BRANCH   1   2
ATOM      2  O   UNL A   1      37.284  21.693  24.502  1.00  0.00    -0.377 OA
BRANCH   2   3
ATOM      3  C   UNL A   1      36.744  22.945  24.162  1.00  0.00     0.188 C 
BRANCH   3   4
ATOM      4  C   UNL A   1      35.445  22.854  23.374  1.00  0.00     0.188 C 
BRANCH   4   5
ATOM      5  O   UNL A   1      34.684  24.017  23.087  1.00  0.00    -0.376 OA
BRANCH   5   6
ATOM      6  C   UNL A   1      33.980  24.708  24.116  1.00  0.00     0.202 C 
BRANCH   6   7
ATOM      7  C   UNL A   1      32.499  25.086  23.903  1.00  0.00     0.261 C 
BRANCH   7   8
ATOM      8  O   UNL A   1      32.106  25.486  22.563  1.00  0.00    -0.462 OA
BRANCH   8   9
ATOM      9  C   UNL A   1      32.713  26.583  22.054  1.00  0.00     0.329 C 
ATOM     10  O   UNL A   1      33.622  26.534  21.224  1.00  0.00    -0.250 OA
BRANCH   9  11
ATOM     11  C   UNL A   1      32.276  27.948  22.654  1.00  0.00     0.198 C 
ATOM     12  N   UNL A   1      31.177  28.236  23.608  1.00  0.00    -0.321 N 
ATOM     13  C   UNL A   1      31.674  28.842  24.823  1.00  0.00     0.152 C 
ATOM     14  C   UNL A   1      33.041  29.395  24.453  1.00  0.00     0.136 C 
ATOM     15  C   UNL A   1      33.538  28.421  23.399  1.00  0.00     0.071 C 
BRANCH  12  16
ATOM     16  C   UNL A   1      29.849  28.394  23.237  1.00  0.00     0.275 C 
ATOM     17  O   UNL A   1      29.039  27.477  23.252  1.00  0.00    -0.267 OA
BRANCH  16  18
ATOM     18  C   UNL A   1      29.296  29.761  22.795  1.00  0.00     0.149 A 
ATOM     19  C   UNL A   1      27.935  31.499  19.949  1.00  0.00     0.178 C 
ATOM     20  N   UNL A   1      28.414  31.258  21.294  1.00  0.00    -0.232 N 
ATOM     21  N   UNL A   1      28.860  29.969  21.588  1.00  0.00    -0.165 NA
ATOM     22  C   UNL A   1      28.385  32.317  22.198  1.00  0.00     0.266 A 
ATOM     23  C   UNL A   1      28.831  32.010  23.566  1.00  0.00     0.076 A 
ATOM     24  O   UNL A   1      28.002  33.457  21.943  1.00  0.00    -0.268 OA
ATOM     25  C   UNL A   1      29.266  30.790  23.871  1.00  0.00     0.042 A 
ENDBRANCH  16  18
ENDBRANCH  12  16
BRANCH  14  26
ATOM     26  O   UNL A   1      33.937  29.442  25.549  1.00  0.00    -0.391 OA
ATOM     27  H   UNL A   1      34.804  29.754  25.244  1.00  0.00     0.211 HD
ENDBRANCH  14  26
ENDBRANCH   9  11
ENDBRANCH   8   9
ENDBRANCH   7   8
ENDBRANCH   6   7
ENDBRANCH   5   6
ENDBRANCH   4   5
ENDBRANCH   3   4
ENDBRANCH   2   3
ENDBRANCH   1   2
BRANCH   1  28
ATOM     28  C   UNL A   1      38.958  20.283  25.670  1.00  0.00     0.188 C 
BRANCH  28  29
ATOM     29  O   UNL A   1      40.062  20.149  26.557  1.00  0.00    -0.376 OA
BRANCH  29  30
ATOM     30  C   UNL A   1      41.318  19.634  26.149  1.00  0.00     0.202 C 
BRANCH  30  31
ATOM     31  C   UNL A   1      42.625  20.441  26.081  1.00  0.00     0.261 C 
BRANCH  31  32
ATOM     32  O   UNL A   1      42.613  21.761  26.612  1.00  0.00    -0.460 OA
BRANCH  32  33
ATOM     33  C   UNL A   1      42.766  22.747  25.696  1.00  0.00     0.338 C 
ATOM     34  O   UNL A   1      43.007  22.619  24.512  1.00  0.00    -0.246 OA
BRANCH  33  35
ATOM     35  C   UNL A   1      42.439  24.030  26.341  1.00  0.00     0.060 A 
ATOM     36  C   UNL A   1      42.215  25.152  25.535  1.00  0.00     0.016 A 
ATOM     37  C   UNL A   1      42.428  24.134  27.733  1.00  0.00     0.016 A 
ATOM     38  C   UNL A   1      42.010  26.398  26.119  1.00  0.00     0.010 A 
ATOM     39  C   UNL A   1      42.263  25.390  28.317  1.00  0.00     0.010 A 
ATOM     40  C   UNL A   1      42.097  26.527  27.509  1.00  0.00    -0.014 A 
BRANCH  40  41
ATOM     41  C   UNL A   1      42.275  27.874  28.094  1.00  0.00     0.031 A 
ATOM     42  C   UNL A   1      43.669  28.431  28.153  1.00  0.00     0.074 A 
ATOM     43  C   UNL A   1      41.228  28.581  28.548  1.00  0.00     0.049 A 
ATOM     44  N   UNL A   1      44.081  29.568  28.645  1.00  0.00    -0.248 NA
ATOM     45  C   UNL A   1      44.742  27.599  27.580  1.00  0.00     0.031 C 
ATOM     46  C   UNL A   1      39.832  28.153  28.490  1.00  0.00     0.029 A 
ATOM     47  N   UNL A   1      41.183  29.809  29.156  1.00  0.00    -0.354 N 
ATOM     48  C   UNL A   1      45.456  29.583  28.452  1.00  0.00     0.074 A 
ATOM     49  C   UNL A   1      45.816  28.339  27.814  1.00  0.00     0.031 C 
ATOM     50  C   UNL A   1      39.066  29.103  29.053  1.00  0.00     0.029 A 
ATOM     51  C   UNL A   1      39.919  30.187  29.541  1.00  0.00     0.049 A 
ATOM     52  H   UNL A   1      41.981  30.368  29.303  1.00  0.00     0.167 HD
ATOM     53  C   UNL A   1      46.336  30.554  28.778  1.00  0.00     0.034 A 
ATOM     54  C   UNL A   1      39.506  31.277  30.222  1.00  0.00     0.034 A 
ATOM     55  C   UNL A   1      45.965  31.790  29.407  1.00  0.00     0.049 A 
ATOM     56  C   UNL A   1      40.522  32.317  30.632  1.00  0.00     0.074 A 
ATOM     57  C   UNL A   1      46.784  32.854  29.741  1.00  0.00     0.029 A 
ATOM     58  N   UNL A   1      44.680  32.129  29.803  1.00  0.00    -0.354 N 
ATOM     59  N   UNL A   1      41.811  32.351  30.388  1.00  0.00    -0.248 NA
ATOM     60  C   UNL A   1      40.032  33.467  31.405  1.00  0.00     0.031 C 
ATOM     61  C   UNL A   1      46.008  33.805  30.402  1.00  0.00     0.029 A 
ATOM     62  C   UNL A   1      44.692  33.371  30.412  1.00  0.00     0.049 A 
ATOM     63  H   UNL A   1      43.881  31.570  29.671  1.00  0.00     0.167 HD
ATOM     64  C   UNL A   1      42.276  33.542  30.940  1.00  0.00     0.074 A 
ATOM     65  C   UNL A   1      41.129  34.204  31.525  1.00  0.00     0.031 C 
ATOM     66  C   UNL A   1      43.537  34.040  30.959  1.00  0.00     0.034 A 
BRANCH  53  67
ATOM     67  C   UNL A   1      47.794  30.343  28.480  1.00  0.00     0.023 A 
ATOM     68  C   UNL A   1      48.604  29.686  29.424  1.00  0.00     0.031 A 
ATOM     69  C   UNL A   1      48.407  30.926  27.357  1.00  0.00     0.131 A 
ATOM     70  C   UNL A   1      49.993  29.678  29.257  1.00  0.00     0.055 A 
ATOM     71  C   UNL A   1      49.789  30.880  27.177  1.00  0.00     0.041 A 
ATOM     72  F   UNL A   1      47.668  31.554  26.428  1.00  0.00    -0.206 F 
ATOM     73  C   UNL A   1      50.589  30.268  28.137  1.00  0.00     0.022 A 
BRANCH  70  74
ATOM     74  S   UNL A   1      51.075  28.953  30.519  1.00  0.00     0.124 S 
ATOM     75  O   UNL A   1      50.207  27.940  31.116  1.00  0.00    -0.237 OA
ATOM     76  O   UNL A   1      52.176  28.438  29.713  1.00  0.00    -0.237 OA
ATOM     77  O   UNL A   1      51.398  30.079  31.390  1.00  0.00    -0.744 OA
ENDBRANCH  70  74
ENDBRANCH  53  67
BRANCH  54  78
ATOM     78  C   UNL A   1      38.056  31.451  30.518  1.00  0.00     0.023 A 
ATOM     79  C   UNL A   1      37.196  32.083  29.601  1.00  0.00     0.031 A 
ATOM     80  C   UNL A   1      37.525  31.046  31.754  1.00  0.00     0.131 A 
ATOM     81  C   UNL A   1      35.865  32.337  29.957  1.00  0.00     0.055 A 
ATOM     82  C   UNL A   1      36.182  31.246  32.079  1.00  0.00     0.041 A 
ATOM     83  F   UNL A   1      38.309  30.445  32.662  1.00  0.00    -0.206 F 
ATOM     84  C   UNL A   1      35.348  31.906  31.182  1.00  0.00     0.022 A 
BRANCH  81  85
ATOM     85  S   UNL A   1      34.784  33.312  28.875  1.00  0.00     0.124 S 
ATOM     86  O   UNL A   1      35.629  34.455  28.544  1.00  0.00    -0.237 OA
ATOM     87  O   UNL A   1      34.535  32.374  27.783  1.00  0.00    -0.237 OA
ATOM     88  O   UNL A   1      33.628  33.607  29.715  1.00  0.00    -0.744 OA
ENDBRANCH  81  85
ENDBRANCH  54  78
BRANCH  66  89
ATOM     89  C   UNL A   1      43.787  35.384  31.598  1.00  0.00     0.023 A 
ATOM     90  C   UNL A   1      43.792  35.496  33.002  1.00  0.00     0.031 A 
ATOM     91  C   UNL A   1      43.830  36.562  30.835  1.00  0.00     0.131 A 
ATOM     92  C   UNL A   1      43.785  36.761  33.601  1.00  0.00     0.055 A 
ATOM     93  C   UNL A   1      43.872  37.820  31.436  1.00  0.00     0.041 A 
ATOM     94  F   UNL A   1      43.815  36.506  29.493  1.00  0.00    -0.206 F 
ATOM     95  C   UNL A   1      43.833  37.924  32.825  1.00  0.00     0.022 A 
BRANCH  92  96
ATOM     96  S   UNL A   1      43.629  36.943  35.398  1.00  0.00     0.124 S 
ATOM     97  O   UNL A   1      42.179  36.994  35.574  1.00  0.00    -0.237 OA
ATOM     98  O   UNL A   1      44.275  35.728  35.887  1.00  0.00    -0.237 OA
ATOM     99  O   UNL A   1      44.331  38.189  35.689  1.00  0.00    -0.744 OA
ENDBRANCH  92  96
ENDBRANCH  66  89
ENDBRANCH  40  41
ENDBRANCH  33  35
ENDBRANCH  32  33
ENDBRANCH  31  32
ENDBRANCH  30  31
ENDBRANCH  29  30
ENDBRANCH  28  29
ENDBRANCH   1  28
TORSDOF 26
ENDMDL
MODEL 2
REMARK VINA RESULT:      -9.3      2.442      3.976
REMARK SMILES Cn1nc(C(=O)N2C[C@@H](O)C[C@H]2C(=O)OCCOCCOCCOCCOC(=O)c2ccc(-c3c4nc(c(-c5cc(S(=O)(=O)[O-])ccc5F)c5ccc([nH]5)c(-c5cc(S(=O)(=O)[O-])ccc5F)c5nc(c(-c6cc(S(=O)(=O)[O-])ccc6F)c6ccc3[nH]6)C=C5)C=C4)cc2)ccc1=O
REMARK SMILES IDX 22 1 21 2 20 3 19 4 18 5 17 6 16 7 15 8 13 9 14 10 12 11
REMARK SMILES IDX 7 12 8 13 9 14 11 15 5 16 6 17 4 18 1 19 2 20 3 21 95 22
REMARK SMILES IDX 94 23 96 24 93 25 10 26 23 28 24 29 25 30 26 31 27 32 28 33
REMARK SMILES IDX 29 34 30 35 31 36 92 37 32 38 91 39 33 40 34 41 35 42 85 43
REMARK SMILES IDX 36 44 90 45 84 46 86 47 37 48 89 49 83 50 82 51 38 53 70 54
REMARK SMILES IDX 50 55 69 56 51 57 54 58 68 59 87 60 52 61 53 62 67 64 88 65
REMARK SMILES IDX 55 66 39 67 40 68 48 69 41 70 47 71 49 72 46 73 42 74 43 75
REMARK SMILES IDX 44 76 45 77 71 78 72 79 80 80 73 81 79 82 81 83 78 84 74 85
REMARK SMILES IDX 75 86 76 87 77 88 56 89 57 90 65 91 58 92 64 93 66 94 63 95
REMARK SMILES IDX 59 96 60 97 61 98 62 99
REMARK H PARENT 10 27 86 52 54 63
REMARK Flexibility Score: inf
ROOT
ATOM      1  C   UNL A   1      39.551  21.548  26.002  1.00  0.00     0.188 C 
ENDROOT
BRANCH   1   2
ATOM      2  O   UNL A   1      38.175  21.853  26.072  1.00  0.00    -0.377 OA
BRANCH   2   3
ATOM      3  C   UNL A   1      37.361  21.452  24.999  1.00  0.00     0.188 C 
BRANCH   3   4
ATOM      4  C   UNL A   1      37.035  22.578  24.028  1.00  0.00     0.188 C 
BRANCH   4   5
ATOM      5  O   UNL A   1      35.785  23.248  24.082  1.00  0.00    -0.376 OA
BRANCH   5   6
ATOM      6  C   UNL A   1      34.780  23.010  23.100  1.00  0.00     0.202 C 
BRANCH   6   7
ATOM      7  C   UNL A   1      34.065  24.207  22.437  1.00  0.00     0.261 C 
BRANCH   7   8
ATOM      8  O   UNL A   1      33.508  25.216  23.322  1.00  0.00    -0.462 OA
BRANCH   8   9
ATOM      9  C   UNL A   1      32.186  25.472  23.194  1.00  0.00     0.329 C 
ATOM     10  O   UNL A   1      31.611  25.562  22.108  1.00  0.00    -0.250 OA
BRANCH   9  11
ATOM     11  C   UNL A   1      31.414  25.758  24.512  1.00  0.00     0.198 C 
ATOM     12  N   UNL A   1      31.742  25.331  25.894  1.00  0.00    -0.321 N 
ATOM     13  C   UNL A   1      31.925  26.467  26.771  1.00  0.00     0.152 C 
ATOM     14  C   UNL A   1      31.232  27.620  26.065  1.00  0.00     0.136 C 
ATOM     15  C   UNL A   1      31.423  27.295  24.594  1.00  0.00     0.071 C 
BRANCH  12  16
ATOM     16  C   UNL A   1      31.429  24.084  26.417  1.00  0.00     0.275 C 
ATOM     17  O   UNL A   1      30.532  23.908  27.230  1.00  0.00    -0.267 OA
BRANCH  16  18
ATOM     18  C   UNL A   1      32.190  22.818  25.984  1.00  0.00     0.149 A 
ATOM     19  C   UNL A   1      32.248  20.250  23.459  1.00  0.00     0.178 C 
ATOM     20  N   UNL A   1      32.608  21.002  24.643  1.00  0.00    -0.232 N 
ATOM     21  N   UNL A   1      31.867  22.152  24.915  1.00  0.00    -0.165 NA
ATOM     22  C   UNL A   1      33.669  20.535  25.416  1.00  0.00     0.266 A 
ATOM     23  C   UNL A   1      34.033  21.361  26.578  1.00  0.00     0.076 A 
ATOM     24  O   UNL A   1      34.320  19.518  25.186  1.00  0.00    -0.268 OA
ATOM     25  C   UNL A   1      33.339  22.460  26.862  1.00  0.00     0.042 A 
ENDBRANCH  16  18
ENDBRANCH  12  16
BRANCH  14  26
ATOM     26  O   UNL A   1      31.798  28.882  26.373  1.00  0.00    -0.391 OA
ATOM     27  H   UNL A   1      32.121  28.876  27.288  1.00  0.00     0.211 HD
ENDBRANCH  14  26
ENDBRANCH   9  11
ENDBRANCH   8   9
ENDBRANCH   7   8
ENDBRANCH   6   7
ENDBRANCH   5   6
ENDBRANCH   4   5
ENDBRANCH   3   4
ENDBRANCH   2   3
ENDBRANCH   1   2
BRANCH   1  28
ATOM     28  C   UNL A   1      39.879  20.056  25.928  1.00  0.00     0.188 C 
BRANCH  28  29
ATOM     29  O   UNL A   1      40.996  19.546  26.647  1.00  0.00    -0.376 OA
BRANCH  29  30
ATOM     30  C   UNL A   1      42.278  19.389  26.064  1.00  0.00     0.202 C 
BRANCH  30  31
ATOM     31  C   UNL A   1      43.342  20.494  25.953  1.00  0.00     0.261 C 
BRANCH  31  32
ATOM     32  O   UNL A   1      43.004  21.786  26.444  1.00  0.00    -0.460 OA
BRANCH  32  33
ATOM     33  C   UNL A   1      43.001  22.769  25.513  1.00  0.00     0.338 C 
ATOM     34  O   UNL A   1      43.148  22.645  24.313  1.00  0.00    -0.246 OA
BRANCH  33  35
ATOM     35  C   UNL A   1      42.633  24.031  26.177  1.00  0.00     0.060 A 
ATOM     36  C   UNL A   1      42.314  25.141  25.385  1.00  0.00     0.016 A 
ATOM     37  C   UNL A   1      42.676  24.132  27.569  1.00  0.00     0.016 A 
ATOM     38  C   UNL A   1      42.068  26.373  25.983  1.00  0.00     0.010 A 
ATOM     39  C   UNL A   1      42.469  25.376  28.165  1.00  0.00     0.010 A 
ATOM     40  C   UNL A   1      42.207  26.504  27.368  1.00  0.00    -0.014 A 
BRANCH  40  41
ATOM     41  C   UNL A   1      42.337  27.857  27.951  1.00  0.00     0.031 A 
ATOM     42  C   UNL A   1      43.716  28.448  28.045  1.00  0.00     0.074 A 
ATOM     43  C   UNL A   1      41.262  28.541  28.373  1.00  0.00     0.049 A 
ATOM     44  N   UNL A   1      44.087  29.597  28.541  1.00  0.00    -0.248 NA
ATOM     45  C   UNL A   1      44.823  27.639  27.505  1.00  0.00     0.031 C 
ATOM     46  C   UNL A   1      39.879  28.080  28.280  1.00  0.00     0.029 A 
ATOM     47  N   UNL A   1      41.171  29.771  28.973  1.00  0.00    -0.354 N 
ATOM     48  C   UNL A   1      45.466  29.643  28.385  1.00  0.00     0.074 A 
ATOM     49  C   UNL A   1      45.872  28.406  27.764  1.00  0.00     0.031 C 
ATOM     50  C   UNL A   1      39.075  29.014  28.818  1.00  0.00     0.029 A 
ATOM     51  C   UNL A   1      39.889  30.120  29.322  1.00  0.00     0.049 A 
ATOM     52  H   UNL A   1      41.951  30.349  29.139  1.00  0.00     0.167 HD
ATOM     53  C   UNL A   1      46.313  30.637  28.730  1.00  0.00     0.034 A 
ATOM     54  C   UNL A   1      39.431  31.203  29.986  1.00  0.00     0.034 A 
ATOM     55  C   UNL A   1      45.896  31.867  29.342  1.00  0.00     0.049 A 
ATOM     56  C   UNL A   1      40.412  32.269  30.418  1.00  0.00     0.074 A 
ATOM     57  C   UNL A   1      46.680  32.952  29.692  1.00  0.00     0.029 A 
ATOM     58  N   UNL A   1      44.594  32.177  29.701  1.00  0.00    -0.354 N 
ATOM     59  N   UNL A   1      41.705  32.333  30.208  1.00  0.00    -0.248 NA
ATOM     60  C   UNL A   1      39.873  33.410  31.171  1.00  0.00     0.031 C 
ATOM     61  C   UNL A   1      45.864  33.887  30.327  1.00  0.00     0.029 A 
ATOM     62  C   UNL A   1      44.559  33.422  30.304  1.00  0.00     0.049 A 
ATOM     63  H   UNL A   1      43.812  31.598  29.551  1.00  0.00     0.167 HD
ATOM     64  C   UNL A   1      42.127  33.537  30.767  1.00  0.00     0.074 A 
ATOM     65  C   UNL A   1      40.949  34.174  31.317  1.00  0.00     0.031 C 
ATOM     66  C   UNL A   1      43.374  34.065  30.817  1.00  0.00     0.034 A 
BRANCH  53  67
ATOM     67  C   UNL A   1      47.784  30.460  28.471  1.00  0.00     0.023 A 
ATOM     68  C   UNL A   1      48.589  29.853  29.452  1.00  0.00     0.031 A 
ATOM     69  C   UNL A   1      48.406  31.029  27.348  1.00  0.00     0.131 A 
ATOM     70  C   UNL A   1      49.980  29.879  29.318  1.00  0.00     0.055 A 
ATOM     71  C   UNL A   1      49.794  31.017  27.201  1.00  0.00     0.041 A 
ATOM     72  F   UNL A   1      47.674  31.609  26.384  1.00  0.00    -0.206 F 
ATOM     73  C   UNL A   1      50.587  30.455  28.197  1.00  0.00     0.022 A 
BRANCH  70  74
ATOM     74  S   UNL A   1      51.051  29.221  30.625  1.00  0.00     0.124 S 
ATOM     75  O   UNL A   1      52.219  28.780  29.865  1.00  0.00    -0.237 OA
ATOM     76  O   UNL A   1      51.259  30.395  31.466  1.00  0.00    -0.237 OA
ATOM     77  O   UNL A   1      50.260  28.147  31.217  1.00  0.00    -0.744 OA
ENDBRANCH  70  74
ENDBRANCH  53  67
BRANCH  54  78
ATOM     78  C   UNL A   1      37.970  31.343  30.243  1.00  0.00     0.023 A 
ATOM     79  C   UNL A   1      37.112  31.897  29.276  1.00  0.00     0.031 A 
ATOM     80  C   UNL A   1      37.425  30.985  31.487  1.00  0.00     0.131 A 
ATOM     81  C   UNL A   1      35.765  32.125  29.590  1.00  0.00     0.055 A 
ATOM     82  C   UNL A   1      36.070  31.157  31.773  1.00  0.00     0.041 A 
ATOM     83  F   UNL A   1      38.208  30.460  32.441  1.00  0.00    -0.206 F 
ATOM     84  C   UNL A   1      35.235  31.741  30.825  1.00  0.00     0.022 A 
BRANCH  81  85
ATOM     85  S   UNL A   1      34.678  33.006  28.436  1.00  0.00     0.124 S 
ATOM     86  O   UNL A   1      33.904  31.916  27.849  1.00  0.00    -0.237 OA
ATOM     87  O   UNL A   1      33.943  33.888  29.337  1.00  0.00    -0.237 OA
ATOM     88  O   UNL A   1      35.606  33.677  27.530  1.00  0.00    -0.744 OA
ENDBRANCH  81  85
ENDBRANCH  54  78
BRANCH  66  89
ATOM     89  C   UNL A   1      43.575  35.418  31.455  1.00  0.00     0.023 A 
ATOM     90  C   UNL A   1      43.623  36.568  30.642  1.00  0.00     0.031 A 
ATOM     91  C   UNL A   1      43.899  35.547  32.814  1.00  0.00     0.131 A 
ATOM     92  C   UNL A   1      44.041  37.788  31.187  1.00  0.00     0.055 A 
ATOM     93  C   UNL A   1      44.268  36.776  33.363  1.00  0.00     0.041 A 
ATOM     94  F   UNL A   1      43.878  34.476  33.625  1.00  0.00    -0.206 F 
ATOM     95  C   UNL A   1      44.356  37.899  32.544  1.00  0.00     0.022 A 
BRANCH  92  96
ATOM     96  S   UNL A   1      44.270  39.249  30.138  1.00  0.00     0.124 S 
ATOM     97  O   UNL A   1      44.256  40.333  31.118  1.00  0.00    -0.237 OA
ATOM     98  O   UNL A   1      45.567  38.984  29.521  1.00  0.00    -0.237 OA
ATOM     99  O   UNL A   1      43.125  39.218  29.234  1.00  0.00    -0.744 OA
ENDBRANCH  92  96
ENDBRANCH  66  89
ENDBRANCH  40  41
ENDBRANCH  33  35
ENDBRANCH  32  33
ENDBRANCH  31  32
ENDBRANCH  30  31
ENDBRANCH  29  30
ENDBRANCH  28  29
ENDBRANCH   1  28
TORSDOF 26
ENDMDL
MODEL 3
REMARK VINA RESULT:      -9.1      5.446      7.854
REMARK SMILES Cn1nc(C(=O)N2C[C@@H](O)C[C@H]2C(=O)OCCOCCOCCOCCOC(=O)c2ccc(-c3c4nc(c(-c5cc(S(=O)(=O)[O-])ccc5F)c5ccc([nH]5)c(-c5cc(S(=O)(=O)[O-])ccc5F)c5nc(c(-c6cc(S(=O)(=O)[O-])ccc6F)c6ccc3[nH]6)C=C5)C=C4)cc2)ccc1=O
REMARK SMILES IDX 22 1 21 2 20 3 19 4 18 5 17 6 16 7 15 8 13 9 14 10 12 11
REMARK SMILES IDX 7 12 8 13 9 14 11 15 5 16 6 17 4 18 1 19 2 20 3 21 95 22
REMARK SMILES IDX 94 23 96 24 93 25 10 26 23 28 24 29 25 30 26 31 27 32 28 33
REMARK SMILES IDX 29 34 30 35 31 36 92 37 32 38 91 39 33 40 34 41 35 42 85 43
REMARK SMILES IDX 36 44 90 45 84 46 86 47 37 48 89 49 83 50 82 51 38 53 70 54
REMARK SMILES IDX 50 55 69 56 51 57 54 58 68 59 87 60 52 61 53 62 67 64 88 65
REMARK SMILES IDX 55 66 39 67 40 68 48 69 41 70 47 71 49 72 46 73 42 74 43 75
REMARK SMILES IDX 44 76 45 77 71 78 72 79 80 80 73 81 79 82 81 83 78 84 74 85
REMARK SMILES IDX 75 86 76 87 77 88 56 89 57 90 65 91 58 92 64 93 66 94 63 95
REMARK SMILES IDX 59 96 60 97 61 98 62 99
REMARK H PARENT 10 27 86 52 54 63
REMARK Flexibility Score: inf
ROOT
ATOM      1  C   UNL A   1      42.949  18.416  25.933  1.00  0.00     0.188 C 
ENDROOT
BRANCH   1   2
ATOM      2  O   UNL A   1      42.086  19.498  26.209  1.00  0.00    -0.377 OA
BRANCH   2   3
ATOM      3  C   UNL A   1      42.580  20.797  26.006  1.00  0.00     0.188 C 
BRANCH   3   4
ATOM      4  C   UNL A   1      41.877  21.854  26.847  1.00  0.00     0.188 C 
BRANCH   4   5
ATOM      5  O   UNL A   1      42.440  22.308  28.068  1.00  0.00    -0.376 OA
BRANCH   5   6
ATOM      6  C   UNL A   1      41.903  23.438  28.751  1.00  0.00     0.202 C 
BRANCH   6   7
ATOM      7  C   UNL A   1      41.033  24.451  27.977  1.00  0.00     0.261 C 
BRANCH   7   8
ATOM      8  O   UNL A   1      41.332  25.860  28.167  1.00  0.00    -0.462 OA
BRANCH   8   9
ATOM      9  C   UNL A   1      40.295  26.660  28.508  1.00  0.00     0.329 C 
ATOM     10  O   UNL A   1      39.196  26.235  28.868  1.00  0.00    -0.250 OA
BRANCH   9  11
ATOM     11  C   UNL A   1      40.519  28.187  28.322  1.00  0.00     0.198 C 
ATOM     12  N   UNL A   1      39.794  29.316  28.954  1.00  0.00    -0.321 N 
ATOM     13  C   UNL A   1      40.687  30.156  29.722  1.00  0.00     0.152 C 
ATOM     14  C   UNL A   1      42.074  29.845  29.183  1.00  0.00     0.136 C 
ATOM     15  C   UNL A   1      41.974  28.384  28.783  1.00  0.00     0.071 C 
BRANCH  12  16
ATOM     16  C   UNL A   1      38.582  29.814  28.498  1.00  0.00     0.275 C 
ATOM     17  O   UNL A   1      38.207  29.699  27.338  1.00  0.00    -0.267 OA
BRANCH  16  18
ATOM     18  C   UNL A   1      37.605  30.539  29.441  1.00  0.00     0.149 A 
ATOM     19  C   UNL A   1      35.831  33.644  29.870  1.00  0.00     0.178 C 
ATOM     20  N   UNL A   1      36.313  32.305  30.137  1.00  0.00    -0.232 N 
ATOM     21  N   UNL A   1      37.169  31.738  29.192  1.00  0.00    -0.165 NA
ATOM     22  C   UNL A   1      35.884  31.676  31.303  1.00  0.00     0.266 A 
ATOM     23  C   UNL A   1      36.357  30.297  31.504  1.00  0.00     0.076 A 
ATOM     24  O   UNL A   1      35.138  32.173  32.144  1.00  0.00    -0.268 OA
ATOM     25  C   UNL A   1      37.178  29.735  30.620  1.00  0.00     0.042 A 
ENDBRANCH  16  18
ENDBRANCH  12  16
BRANCH  14  26
ATOM     26  O   UNL A   1      43.098  30.029  30.145  1.00  0.00    -0.391 OA
ATOM     27  H   UNL A   1      43.224  30.977  30.307  1.00  0.00     0.211 HD
ENDBRANCH  14  26
ENDBRANCH   9  11
ENDBRANCH   8   9
ENDBRANCH   7   8
ENDBRANCH   6   7
ENDBRANCH   5   6
ENDBRANCH   4   5
ENDBRANCH   3   4
ENDBRANCH   2   3
ENDBRANCH   1   2
BRANCH   1  28
ATOM     28  C   UNL A   1      43.955  18.663  24.807  1.00  0.00     0.188 C 
BRANCH  28  29
ATOM     29  O   UNL A   1      45.334  18.397  25.028  1.00  0.00    -0.376 OA
BRANCH  29  30
ATOM     30  C   UNL A   1      46.307  19.423  25.135  1.00  0.00     0.202 C 
BRANCH  30  31
ATOM     31  C   UNL A   1      46.033  20.855  25.622  1.00  0.00     0.261 C 
BRANCH  31  32
ATOM     32  O   UNL A   1      46.403  21.926  24.760  1.00  0.00    -0.460 OA
BRANCH  32  33
ATOM     33  C   UNL A   1      45.374  22.689  24.322  1.00  0.00     0.338 C 
ATOM     34  O   UNL A   1      44.506  22.369  23.536  1.00  0.00    -0.246 OA
BRANCH  33  35
ATOM     35  C   UNL A   1      45.384  23.953  25.078  1.00  0.00     0.060 A 
ATOM     36  C   UNL A   1      46.572  24.359  25.697  1.00  0.00     0.016 A 
ATOM     37  C   UNL A   1      44.208  24.689  25.232  1.00  0.00     0.016 A 
ATOM     38  C   UNL A   1      46.583  25.491  26.504  1.00  0.00     0.010 A 
ATOM     39  C   UNL A   1      44.210  25.801  26.075  1.00  0.00     0.010 A 
ATOM     40  C   UNL A   1      45.387  26.176  26.744  1.00  0.00    -0.014 A 
BRANCH  40  41
ATOM     41  C   UNL A   1      45.314  27.113  27.885  1.00  0.00     0.031 A 
ATOM     42  C   UNL A   1      45.560  28.570  27.609  1.00  0.00     0.074 A 
ATOM     43  C   UNL A   1      45.027  26.684  29.125  1.00  0.00     0.049 A 
ATOM     44  N   UNL A   1      45.580  29.574  28.443  1.00  0.00    -0.248 NA
ATOM     45  C   UNL A   1      45.813  28.947  26.207  1.00  0.00     0.031 C 
ATOM     46  C   UNL A   1      44.721  25.302  29.488  1.00  0.00     0.029 A 
ATOM     47  N   UNL A   1      44.953  27.372  30.308  1.00  0.00    -0.354 N 
ATOM     48  C   UNL A   1      45.860  30.695  27.673  1.00  0.00     0.074 A 
ATOM     49  C   UNL A   1      46.017  30.252  26.308  1.00  0.00     0.031 C 
ATOM     50  C   UNL A   1      44.505  25.243  30.814  1.00  0.00     0.029 A 
ATOM     51  C   UNL A   1      44.690  26.573  31.395  1.00  0.00     0.049 A 
ATOM     52  H   UNL A   1      45.078  28.347  30.374  1.00  0.00     0.167 HD
ATOM     53  C   UNL A   1      45.971  31.979  28.074  1.00  0.00     0.034 A 
ATOM     54  C   UNL A   1      44.621  26.882  32.707  1.00  0.00     0.034 A 
ATOM     55  C   UNL A   1      45.805  32.408  29.435  1.00  0.00     0.049 A 
ATOM     56  C   UNL A   1      44.815  28.318  33.134  1.00  0.00     0.074 A 
ATOM     57  C   UNL A   1      45.861  33.698  29.933  1.00  0.00     0.029 A 
ATOM     58  N   UNL A   1      45.562  31.570  30.511  1.00  0.00    -0.354 N 
ATOM     59  N   UNL A   1      45.014  29.380  32.391  1.00  0.00    -0.248 NA
ATOM     60  C   UNL A   1      44.769  28.601  34.576  1.00  0.00     0.031 C 
ATOM     61  C   UNL A   1      45.722  33.632  31.318  1.00  0.00     0.029 A 
ATOM     62  C   UNL A   1      45.502  32.312  31.677  1.00  0.00     0.049 A 
ATOM     63  H   UNL A   1      45.450  30.593  30.454  1.00  0.00     0.167 HD
ATOM     64  C   UNL A   1      45.078  30.460  33.269  1.00  0.00     0.074 A 
ATOM     65  C   UNL A   1      44.887  29.923  34.600  1.00  0.00     0.031 C 
ATOM     66  C   UNL A   1      45.275  31.773  32.996  1.00  0.00     0.034 A 
BRANCH  53  67
ATOM     67  C   UNL A   1      46.293  33.035  27.053  1.00  0.00     0.023 A 
ATOM     68  C   UNL A   1      47.630  33.426  26.864  1.00  0.00     0.031 A 
ATOM     69  C   UNL A   1      45.281  33.756  26.398  1.00  0.00     0.131 A 
ATOM     70  C   UNL A   1      47.917  34.550  26.082  1.00  0.00     0.055 A 
ATOM     71  C   UNL A   1      45.577  34.853  25.587  1.00  0.00     0.041 A 
ATOM     72  F   UNL A   1      43.992  33.409  26.545  1.00  0.00    -0.206 F 
ATOM     73  C   UNL A   1      46.899  35.263  25.440  1.00  0.00     0.022 A 
BRANCH  70  74
ATOM     74  S   UNL A   1      49.618  35.158  25.921  1.00  0.00     0.124 S 
ATOM     75  O   UNL A   1      50.188  34.214  24.963  1.00  0.00    -0.237 OA
ATOM     76  O   UNL A   1      49.408  36.511  25.418  1.00  0.00    -0.237 OA
ATOM     77  O   UNL A   1      50.153  35.060  27.276  1.00  0.00    -0.744 OA
ENDBRANCH  70  74
ENDBRANCH  53  67
BRANCH  54  78
ATOM     78  C   UNL A   1      44.317  25.812  33.698  1.00  0.00     0.023 A 
ATOM     79  C   UNL A   1      45.286  24.857  34.058  1.00  0.00     0.031 A 
ATOM     80  C   UNL A   1      43.030  25.690  34.247  1.00  0.00     0.131 A 
ATOM     81  C   UNL A   1      44.935  23.794  34.901  1.00  0.00     0.055 A 
ATOM     82  C   UNL A   1      42.703  24.665  35.136  1.00  0.00     0.041 A 
ATOM     83  F   UNL A   1      42.073  26.574  33.927  1.00  0.00    -0.206 F 
ATOM     84  C   UNL A   1      43.656  23.703  35.457  1.00  0.00     0.022 A 
BRANCH  81  85
ATOM     85  S   UNL A   1      46.105  22.449  35.235  1.00  0.00     0.124 S 
ATOM     86  O   UNL A   1      47.331  23.176  35.549  1.00  0.00    -0.237 OA
ATOM     87  O   UNL A   1      45.466  21.774  36.362  1.00  0.00    -0.237 OA
ATOM     88  O   UNL A   1      46.125  21.690  33.988  1.00  0.00    -0.744 OA
ENDBRANCH  81  85
ENDBRANCH  54  78
BRANCH  66  89
ATOM     89  C   UNL A   1      45.269  32.768  34.130  1.00  0.00     0.023 A 
ATOM     90  C   UNL A   1      44.088  33.477  34.426  1.00  0.00     0.031 A 
ATOM     91  C   UNL A   1      46.455  33.145  34.781  1.00  0.00     0.131 A 
ATOM     92  C   UNL A   1      44.131  34.563  35.309  1.00  0.00     0.055 A 
ATOM     93  C   UNL A   1      46.482  34.197  35.697  1.00  0.00     0.041 A 
ATOM     94  F   UNL A   1      47.607  32.505  34.522  1.00  0.00    -0.206 F 
ATOM     95  C   UNL A   1      45.319  34.921  35.951  1.00  0.00     0.022 A 
BRANCH  92  96
ATOM     96  S   UNL A   1      42.667  35.596  35.588  1.00  0.00     0.124 S 
ATOM     97  O   UNL A   1      41.984  35.511  34.299  1.00  0.00    -0.237 OA
ATOM     98  O   UNL A   1      42.007  34.902  36.690  1.00  0.00    -0.237 OA
ATOM     99  O   UNL A   1      43.217  36.909  35.910  1.00  0.00    -0.744 OA
ENDBRANCH  92  96
ENDBRANCH  66  89
ENDBRANCH  40  41
ENDBRANCH  33  35
ENDBRANCH  32  33
ENDBRANCH  31  32
ENDBRANCH  30  31
ENDBRANCH  29  30
ENDBRANCH  28  29
ENDBRANCH   1  28
TORSDOF 26
ENDMDL
