MODEL 1
REMARK VINA RESULT:     -10.5      0.000      0.000
REMARK SMILES Cc1nn([C@H]2CCS(=O)(=O)C2)c(C)c1/C=C(\CC(=O)OCCOCCOCCOCCOC(=O)c1ccc(-c2c3nc(c(-c4cc(S(=O)(=O)[O-])ccc4F)c4ccc([nH]4)c(-c4cc(S(=O)(=O)[O-])ccc4F)c4nc(c(-c5cc(S(=O)(=O)[O-])ccc5F)c5ccc2[nH]5)C=C4)C=C3)cc1)c1nc2ccccc2s1
REMARK SMILES IDX 26 1 25 2 24 3 23 4 22 5 21 6 20 7 18 8 19 9 17 10 16 11
REMARK SMILES IDX 15 12 14 13 1 14 2 15 3 16 4 17 12 18 13 19 5 20 6 21 11 22
REMARK SMILES IDX 7 23 8 24 9 25 10 26 98 27 99 28 106 29 100 30 105 31 101 32
REMARK SMILES IDX 104 33 102 34 103 35 27 36 28 37 29 38 30 39 31 40 32 41
REMARK SMILES IDX 33 42 34 43 35 44 36 45 97 46 37 47 96 48 38 49 39 50 40 51
REMARK SMILES IDX 90 52 41 53 95 54 89 55 91 56 42 57 94 58 88 59 87 60 43 62
REMARK SMILES IDX 75 63 55 64 74 65 56 66 59 67 73 68 92 69 57 70 58 71 72 73
REMARK SMILES IDX 93 74 60 75 44 76 45 77 53 78 46 79 52 80 54 81 51 82 47 83
REMARK SMILES IDX 48 84 49 85 50 86 76 87 77 88 85 89 78 90 84 91 86 92 83 93
REMARK SMILES IDX 79 94 80 95 81 96 82 97 61 98 62 99 70 100 63 101 69 102
REMARK SMILES IDX 71 103 68 104 64 105 65 106 66 107 67 108
REMARK H PARENT 91 61 59 72
REMARK Flexibility Score: inf
ROOT
ATOM      1  O   UNL A   1      34.589  33.142  27.616  1.00  0.00    -0.377 OA
ENDROOT
BRANCH   1   2
ATOM      2  C   UNL A   1      34.488  31.749  27.870  1.00  0.00     0.188 C 
BRANCH   2   3
ATOM      3  C   UNL A   1      33.118  31.084  27.561  1.00  0.00     0.188 C 
BRANCH   3   4
ATOM      4  O   UNL A   1      33.004  29.806  26.926  1.00  0.00    -0.376 OA
BRANCH   4   5
ATOM      5  C   UNL A   1      31.840  29.024  27.125  1.00  0.00     0.202 C 
BRANCH   5   6
ATOM      6  C   UNL A   1      31.861  27.679  26.391  1.00  0.00     0.261 C 
BRANCH   6   7
ATOM      7  O   UNL A   1      33.169  27.103  26.246  1.00  0.00    -0.463 OA
BRANCH   7   8
ATOM      8  C   UNL A   1      33.651  27.031  24.970  1.00  0.00     0.310 C 
ATOM      9  O   UNL A   1      33.858  27.997  24.242  1.00  0.00    -0.252 OA
BRANCH   8  10
ATOM     10  C   UNL A   1      33.597  25.608  24.422  1.00  0.00     0.161 C 
BRANCH  10  11
ATOM     11  C   UNL A   1      32.746  24.393  24.236  1.00  0.00    -0.000 C 
ATOM     12  C   UNL A   1      31.524  24.593  23.652  1.00  0.00     0.019 C 
BRANCH  12  13
ATOM     13  C   UNL A   1      30.881  25.817  23.134  1.00  0.00     0.019 A 
ATOM     14  C   UNL A   1      32.475  26.195  21.072  1.00  0.00     0.069 C 
ATOM     15  C   UNL A   1      31.399  26.570  22.032  1.00  0.00     0.067 A 
ATOM     16  N   UNL A   1      30.765  27.738  21.884  1.00  0.00    -0.177 NA
ATOM     17  N   UNL A   1      29.855  27.758  22.872  1.00  0.00    -0.265 N 
ATOM     18  C   UNL A   1      29.709  26.525  23.470  1.00  0.00     0.043 A 
ATOM     19  C   UNL A   1      28.473  26.225  24.257  1.00  0.00     0.067 C 
BRANCH  17  20
ATOM     20  C   UNL A   1      29.339  29.059  23.278  1.00  0.00     0.123 C 
ATOM     21  C   UNL A   1      30.412  30.021  23.814  1.00  0.00     0.044 C 
ATOM     22  C   UNL A   1      28.580  29.912  22.261  1.00  0.00     0.164 C 
ATOM     23  C   UNL A   1      29.670  31.304  24.201  1.00  0.00     0.139 C 
ATOM     24  S   UNL A   1      28.287  31.442  23.080  1.00  0.00     0.152 S 
ATOM     25  O   UNL A   1      27.048  31.324  23.821  1.00  0.00    -0.229 OA
ATOM     26  O   UNL A   1      28.531  32.515  22.142  1.00  0.00    -0.229 OA
ENDBRANCH  17  20
ENDBRANCH  12  13
BRANCH  11  27
ATOM     27  C   UNL A   1      33.271  23.059  24.452  1.00  0.00     0.121 A 
ATOM     28  N   UNL A   1      32.510  21.977  24.435  1.00  0.00    -0.236 NA
ATOM     29  S   UNL A   1      34.950  22.702  24.714  1.00  0.00    -0.114 S 
ATOM     30  C   UNL A   1      33.257  20.817  24.596  1.00  0.00     0.082 A 
ATOM     31  C   UNL A   1      34.630  21.009  24.737  1.00  0.00     0.055 A 
ATOM     32  C   UNL A   1      32.754  19.495  24.567  1.00  0.00     0.030 A 
ATOM     33  C   UNL A   1      35.522  19.924  24.841  1.00  0.00     0.021 A 
ATOM     34  C   UNL A   1      33.638  18.410  24.626  1.00  0.00     0.002 A 
ATOM     35  C   UNL A   1      35.006  18.625  24.758  1.00  0.00     0.002 A 
ENDBRANCH  11  27
ENDBRANCH  10  11
ENDBRANCH   8  10
ENDBRANCH   7   8
ENDBRANCH   6   7
ENDBRANCH   5   6
ENDBRANCH   4   5
ENDBRANCH   3   4
ENDBRANCH   2   3
ENDBRANCH   1   2
BRANCH   1  36
ATOM     36  C   UNL A   1      33.396  33.878  27.842  1.00  0.00     0.188 C 
BRANCH  36  37
ATOM     37  C   UNL A   1      33.525  34.987  28.900  1.00  0.00     0.188 C 
BRANCH  37  38
ATOM     38  O   UNL A   1      33.256  34.579  30.237  1.00  0.00    -0.376 OA
BRANCH  38  39
ATOM     39  C   UNL A   1      34.306  34.185  31.107  1.00  0.00     0.202 C 
BRANCH  39  40
ATOM     40  C   UNL A   1      35.719  34.394  30.584  1.00  0.00     0.261 C 
BRANCH  40  41
ATOM     41  O   UNL A   1      36.675  33.460  31.039  1.00  0.00    -0.460 OA
BRANCH  41  42
ATOM     42  C   UNL A   1      37.534  33.038  30.097  1.00  0.00     0.338 C 
ATOM     43  O   UNL A   1      37.609  33.400  28.939  1.00  0.00    -0.246 OA
BRANCH  42  44
ATOM     44  C   UNL A   1      38.250  31.891  30.632  1.00  0.00     0.060 A 
ATOM     45  C   UNL A   1      39.504  32.197  31.148  1.00  0.00     0.016 A 
ATOM     46  C   UNL A   1      37.857  30.589  30.267  1.00  0.00     0.016 A 
ATOM     47  C   UNL A   1      40.461  31.226  31.073  1.00  0.00     0.010 A 
ATOM     48  C   UNL A   1      38.821  29.620  30.192  1.00  0.00     0.010 A 
ATOM     49  C   UNL A   1      40.119  29.980  30.529  1.00  0.00    -0.014 A 
BRANCH  49  50
ATOM     50  C   UNL A   1      41.165  28.998  30.533  1.00  0.00     0.031 A 
ATOM     51  C   UNL A   1      41.578  28.671  31.906  1.00  0.00     0.074 A 
ATOM     52  C   UNL A   1      41.693  28.448  29.435  1.00  0.00     0.049 A 
ATOM     53  N   UNL A   1      42.619  29.111  32.523  1.00  0.00    -0.248 NA
ATOM     54  C   UNL A   1      40.587  28.013  32.769  1.00  0.00     0.031 C 
ATOM     55  C   UNL A   1      41.195  28.478  28.064  1.00  0.00     0.029 A 
ATOM     56  N   UNL A   1      42.779  27.642  29.369  1.00  0.00    -0.354 N 
ATOM     57  C   UNL A   1      42.540  28.566  33.793  1.00  0.00     0.074 A 
ATOM     58  C   UNL A   1      41.180  28.136  33.955  1.00  0.00     0.031 C 
ATOM     59  C   UNL A   1      41.855  27.539  27.346  1.00  0.00     0.029 A 
ATOM     60  C   UNL A   1      42.892  26.947  28.179  1.00  0.00     0.049 A 
ATOM     61  H   UNL A   1      43.430  27.559  30.102  1.00  0.00     0.167 HD
ATOM     62  C   UNL A   1      43.670  28.252  34.477  1.00  0.00     0.034 A 
ATOM     63  C   UNL A   1      43.713  25.890  27.963  1.00  0.00     0.034 A 
ATOM     64  C   UNL A   1      44.814  28.963  33.936  1.00  0.00     0.049 A 
ATOM     65  C   UNL A   1      44.816  25.974  28.962  1.00  0.00     0.074 A 
ATOM     66  C   UNL A   1      45.102  30.301  33.731  1.00  0.00     0.029 A 
ATOM     67  N   UNL A   1      45.707  28.271  33.143  1.00  0.00    -0.354 N 
ATOM     68  N   UNL A   1      45.703  26.934  28.973  1.00  0.00    -0.248 NA
ATOM     69  C   UNL A   1      44.666  25.274  30.231  1.00  0.00     0.031 C 
ATOM     70  C   UNL A   1      45.799  30.348  32.488  1.00  0.00     0.029 A 
ATOM     71  C   UNL A   1      45.964  29.038  32.032  1.00  0.00     0.049 A 
ATOM     72  H   UNL A   1      46.090  27.385  33.338  1.00  0.00     0.167 HD
ATOM     73  C   UNL A   1      45.898  27.241  30.313  1.00  0.00     0.074 A 
ATOM     74  C   UNL A   1      45.322  26.113  31.041  1.00  0.00     0.031 C 
ATOM     75  C   UNL A   1      46.249  28.501  30.711  1.00  0.00     0.034 A 
BRANCH  62  76
ATOM     76  C   UNL A   1      43.797  27.010  35.330  1.00  0.00     0.023 A 
ATOM     77  C   UNL A   1      44.141  27.213  36.676  1.00  0.00     0.031 A 
ATOM     78  C   UNL A   1      43.897  25.675  34.868  1.00  0.00     0.131 A 
ATOM     79  C   UNL A   1      44.691  26.174  37.441  1.00  0.00     0.055 A 
ATOM     80  C   UNL A   1      44.378  24.628  35.658  1.00  0.00     0.041 A 
ATOM     81  F   UNL A   1      43.625  25.304  33.613  1.00  0.00    -0.206 F 
ATOM     82  C   UNL A   1      44.817  24.882  36.941  1.00  0.00     0.022 A 
BRANCH  79  83
ATOM     83  S   UNL A   1      45.421  26.602  39.037  1.00  0.00     0.124 S 
ATOM     84  O   UNL A   1      46.834  26.336  38.786  1.00  0.00    -0.237 OA
ATOM     85  O   UNL A   1      45.041  28.004  39.170  1.00  0.00    -0.237 OA
ATOM     86  O   UNL A   1      44.764  25.684  39.964  1.00  0.00    -0.744 OA
ENDBRANCH  79  83
ENDBRANCH  62  76
BRANCH  63  87
ATOM     87  C   UNL A   1      43.384  24.677  27.175  1.00  0.00     0.023 A 
ATOM     88  C   UNL A   1      42.265  23.877  27.468  1.00  0.00     0.031 A 
ATOM     89  C   UNL A   1      44.058  24.409  25.960  1.00  0.00     0.131 A 
ATOM     90  C   UNL A   1      41.868  22.859  26.573  1.00  0.00     0.055 A 
ATOM     91  C   UNL A   1      43.672  23.390  25.088  1.00  0.00     0.041 A 
ATOM     92  F   UNL A   1      45.067  25.183  25.533  1.00  0.00    -0.206 F 
ATOM     93  C   UNL A   1      42.567  22.615  25.387  1.00  0.00     0.022 A 
BRANCH  90  94
ATOM     94  S   UNL A   1      40.353  21.903  26.891  1.00  0.00     0.124 S 
ATOM     95  O   UNL A   1      39.354  22.952  27.045  1.00  0.00    -0.237 OA
ATOM     96  O   UNL A   1      40.249  21.075  25.694  1.00  0.00    -0.237 OA
ATOM     97  O   UNL A   1      40.668  21.167  28.116  1.00  0.00    -0.744 OA
ENDBRANCH  90  94
ENDBRANCH  63  87
BRANCH  75  98
ATOM     98  C   UNL A   1      46.760  29.473  29.663  1.00  0.00     0.023 A 
ATOM     99  C   UNL A   1      45.940  30.265  28.826  1.00  0.00     0.031 A 
ATOM    100  C   UNL A   1      48.151  29.674  29.584  1.00  0.00     0.131 A 
ATOM    101  C   UNL A   1      46.521  31.194  27.940  1.00  0.00     0.055 A 
ATOM    102  C   UNL A   1      48.721  30.610  28.721  1.00  0.00     0.041 A 
ATOM    103  F   UNL A   1      48.986  28.977  30.373  1.00  0.00    -0.206 F 
ATOM    104  C   UNL A   1      47.907  31.367  27.888  1.00  0.00     0.022 A 
BRANCH 101 105
ATOM    105  S   UNL A   1      45.481  32.178  26.814  1.00  0.00     0.124 S 
ATOM    106  O   UNL A   1      44.693  33.014  27.712  1.00  0.00    -0.237 OA
ATOM    107  O   UNL A   1      46.474  32.876  26.000  1.00  0.00    -0.237 OA
ATOM    108  O   UNL A   1      44.710  31.164  26.092  1.00  0.00    -0.744 OA
ENDBRANCH 101 105
ENDBRANCH  75  98
ENDBRANCH  49  50
ENDBRANCH  42  44
ENDBRANCH  41  42
ENDBRANCH  40  41
ENDBRANCH  39  40
ENDBRANCH  38  39
ENDBRANCH  37  38
ENDBRANCH  36  37
ENDBRANCH   1  36
TORSDOF 27
ENDMDL
MODEL 2
REMARK VINA RESULT:     -10.2      2.006      2.382
REMARK SMILES Cc1nn([C@H]2CCS(=O)(=O)C2)c(C)c1/C=C(\CC(=O)OCCOCCOCCOCCOC(=O)c1ccc(-c2c3nc(c(-c4cc(S(=O)(=O)[O-])ccc4F)c4ccc([nH]4)c(-c4cc(S(=O)(=O)[O-])ccc4F)c4nc(c(-c5cc(S(=O)(=O)[O-])ccc5F)c5ccc2[nH]5)C=C4)C=C3)cc1)c1nc2ccccc2s1
REMARK SMILES IDX 26 1 25 2 24 3 23 4 22 5 21 6 20 7 18 8 19 9 17 10 16 11
REMARK SMILES IDX 15 12 14 13 1 14 2 15 3 16 4 17 12 18 13 19 5 20 6 21 11 22
REMARK SMILES IDX 7 23 8 24 9 25 10 26 98 27 99 28 106 29 100 30 105 31 101 32
REMARK SMILES IDX 104 33 102 34 103 35 27 36 28 37 29 38 30 39 31 40 32 41
REMARK SMILES IDX 33 42 34 43 35 44 36 45 97 46 37 47 96 48 38 49 39 50 40 51
REMARK SMILES IDX 90 52 41 53 95 54 89 55 91 56 42 57 94 58 88 59 87 60 43 62
REMARK SMILES IDX 75 63 55 64 74 65 56 66 59 67 73 68 92 69 57 70 58 71 72 73
REMARK SMILES IDX 93 74 60 75 44 76 45 77 53 78 46 79 52 80 54 81 51 82 47 83
REMARK SMILES IDX 48 84 49 85 50 86 76 87 77 88 85 89 78 90 84 91 86 92 83 93
REMARK SMILES IDX 79 94 80 95 81 96 82 97 61 98 62 99 70 100 63 101 69 102
REMARK SMILES IDX 71 103 68 104 64 105 65 106 66 107 67 108
REMARK H PARENT 91 61 59 72
REMARK Flexibility Score: inf
ROOT
ATOM      1  O   UNL A   1      34.643  33.128  27.495  1.00  0.00    -0.377 OA
ENDROOT
BRANCH   1   2
ATOM      2  C   UNL A   1      35.206  31.905  27.943  1.00  0.00     0.188 C 
BRANCH   2   3
ATOM      3  C   UNL A   1      34.727  30.614  27.222  1.00  0.00     0.188 C 
BRANCH   3   4
ATOM      4  O   UNL A   1      34.511  29.378  27.911  1.00  0.00    -0.376 OA
BRANCH   4   5
ATOM      5  C   UNL A   1      33.623  28.418  27.369  1.00  0.00     0.202 C 
BRANCH   5   6
ATOM      6  C   UNL A   1      32.886  28.891  26.112  1.00  0.00     0.261 C 
BRANCH   6   7
ATOM      7  O   UNL A   1      32.671  27.867  25.129  1.00  0.00    -0.463 OA
BRANCH   7   8
ATOM      8  C   UNL A   1      33.718  27.616  24.289  1.00  0.00     0.310 C 
ATOM      9  O   UNL A   1      34.203  28.431  23.509  1.00  0.00    -0.252 OA
BRANCH   8  10
ATOM     10  C   UNL A   1      34.014  26.124  24.179  1.00  0.00     0.161 C 
BRANCH  10  11
ATOM     11  C   UNL A   1      33.421  24.760  24.019  1.00  0.00    -0.000 C 
ATOM     12  C   UNL A   1      32.153  24.708  23.505  1.00  0.00     0.019 C 
BRANCH  12  13
ATOM     13  C   UNL A   1      31.245  25.777  23.044  1.00  0.00     0.019 A 
ATOM     14  C   UNL A   1      32.268  26.080  20.637  1.00  0.00     0.069 C 
ATOM     15  C   UNL A   1      31.391  26.444  21.785  1.00  0.00     0.067 A 
ATOM     16  N   UNL A   1      30.583  27.504  21.684  1.00  0.00    -0.177 NA
ATOM     17  N   UNL A   1      29.922  27.540  22.854  1.00  0.00    -0.265 N 
ATOM     18  C   UNL A   1      30.089  26.381  23.581  1.00  0.00     0.043 A 
ATOM     19  C   UNL A   1      29.115  26.039  24.664  1.00  0.00     0.067 C 
BRANCH  17  20
ATOM     20  C   UNL A   1      29.333  28.812  23.248  1.00  0.00     0.123 C 
ATOM     21  C   UNL A   1      30.361  29.909  23.570  1.00  0.00     0.044 C 
ATOM     22  C   UNL A   1      28.360  29.512  22.298  1.00  0.00     0.164 C 
ATOM     23  C   UNL A   1      29.547  31.141  23.979  1.00  0.00     0.139 C 
ATOM     24  S   UNL A   1      28.021  31.063  23.056  1.00  0.00     0.152 S 
ATOM     25  O   UNL A   1      26.910  30.883  23.967  1.00  0.00    -0.229 OA
ATOM     26  O   UNL A   1      28.025  32.082  22.029  1.00  0.00    -0.229 OA
ENDBRANCH  17  20
ENDBRANCH  12  13
BRANCH  11  27
ATOM     27  C   UNL A   1      34.219  23.561  24.184  1.00  0.00     0.121 A 
ATOM     28  N   UNL A   1      35.542  23.576  24.191  1.00  0.00    -0.236 NA
ATOM     29  S   UNL A   1      33.557  21.976  24.436  1.00  0.00    -0.114 S 
ATOM     30  C   UNL A   1      36.072  22.315  24.435  1.00  0.00     0.082 A 
ATOM     31  C   UNL A   1      35.132  21.304  24.626  1.00  0.00     0.055 A 
ATOM     32  C   UNL A   1      37.445  22.003  24.563  1.00  0.00     0.030 A 
ATOM     33  C   UNL A   1      35.518  19.988  24.950  1.00  0.00     0.021 A 
ATOM     34  C   UNL A   1      37.836  20.707  24.926  1.00  0.00     0.002 A 
ATOM     35  C   UNL A   1      36.881  19.715  25.120  1.00  0.00     0.002 A 
ENDBRANCH  11  27
ENDBRANCH  10  11
ENDBRANCH   8  10
ENDBRANCH   7   8
ENDBRANCH   6   7
ENDBRANCH   5   6
ENDBRANCH   4   5
ENDBRANCH   3   4
ENDBRANCH   2   3
ENDBRANCH   1   2
BRANCH   1  36
ATOM     36  C   UNL A   1      33.583  33.626  28.297  1.00  0.00     0.188 C 
BRANCH  36  37
ATOM     37  C   UNL A   1      33.959  34.845  29.159  1.00  0.00     0.188 C 
BRANCH  37  38
ATOM     38  O   UNL A   1      34.280  34.549  30.514  1.00  0.00    -0.376 OA
BRANCH  38  39
ATOM     39  C   UNL A   1      35.293  33.610  30.838  1.00  0.00     0.202 C 
BRANCH  39  40
ATOM     40  C   UNL A   1      36.089  33.896  32.102  1.00  0.00     0.261 C 
BRANCH  40  41
ATOM     41  O   UNL A   1      37.362  33.289  32.164  1.00  0.00    -0.460 OA
BRANCH  41  42
ATOM     42  C   UNL A   1      37.343  31.990  32.507  1.00  0.00     0.338 C 
ATOM     43  O   UNL A   1      36.771  31.474  33.446  1.00  0.00    -0.246 OA
BRANCH  42  44
ATOM     44  C   UNL A   1      38.314  31.299  31.673  1.00  0.00     0.060 A 
ATOM     45  C   UNL A   1      38.053  29.943  31.507  1.00  0.00     0.016 A 
ATOM     46  C   UNL A   1      39.573  31.881  31.437  1.00  0.00     0.016 A 
ATOM     47  C   UNL A   1      39.128  29.120  31.332  1.00  0.00     0.010 A 
ATOM     48  C   UNL A   1      40.648  31.052  31.264  1.00  0.00     0.010 A 
ATOM     49  C   UNL A   1      40.411  29.684  31.287  1.00  0.00    -0.014 A 
BRANCH  49  50
ATOM     50  C   UNL A   1      41.483  28.760  31.049  1.00  0.00     0.031 A 
ATOM     51  C   UNL A   1      42.223  28.479  32.288  1.00  0.00     0.074 A 
ATOM     52  C   UNL A   1      41.769  28.221  29.859  1.00  0.00     0.049 A 
ATOM     53  N   UNL A   1      43.353  28.984  32.641  1.00  0.00    -0.248 NA
ATOM     54  C   UNL A   1      41.501  27.783  33.361  1.00  0.00     0.031 C 
ATOM     55  C   UNL A   1      40.962  28.202  28.643  1.00  0.00     0.029 A 
ATOM     56  N   UNL A   1      42.853  27.474  29.543  1.00  0.00    -0.354 N 
ATOM     57  C   UNL A   1      43.605  28.457  33.896  1.00  0.00     0.074 A 
ATOM     58  C   UNL A   1      42.347  27.956  34.374  1.00  0.00     0.031 C 
ATOM     59  C   UNL A   1      41.488  27.288  27.794  1.00  0.00     0.029 A 
ATOM     60  C   UNL A   1      42.724  26.766  28.362  1.00  0.00     0.049 A 
ATOM     61  H   UNL A   1      43.661  27.439  30.103  1.00  0.00     0.167 HD
ATOM     62  C   UNL A   1      44.879  28.216  34.297  1.00  0.00     0.034 A 
ATOM     63  C   UNL A   1      43.530  25.752  27.963  1.00  0.00     0.034 A 
ATOM     64  C   UNL A   1      45.823  28.978  33.500  1.00  0.00     0.049 A 
ATOM     65  C   UNL A   1      44.829  25.912  28.675  1.00  0.00     0.074 A 
ATOM     66  C   UNL A   1      45.979  30.327  33.229  1.00  0.00     0.029 A 
ATOM     67  N   UNL A   1      46.542  28.322  32.522  1.00  0.00    -0.354 N 
ATOM     68  N   UNL A   1      45.638  26.918  28.475  1.00  0.00    -0.248 NA
ATOM     69  C   UNL A   1      45.020  25.226  29.946  1.00  0.00     0.031 C 
ATOM     70  C   UNL A   1      46.362  30.390  31.856  1.00  0.00     0.029 A 
ATOM     71  C   UNL A   1      46.489  29.084  31.379  1.00  0.00     0.049 A 
ATOM     72  H   UNL A   1      47.010  27.462  32.625  1.00  0.00     0.167 HD
ATOM     73  C   UNL A   1      46.124  27.257  29.730  1.00  0.00     0.074 A 
ATOM     74  C   UNL A   1      45.799  26.112  30.576  1.00  0.00     0.031 C 
ATOM     75  C   UNL A   1      46.486  28.541  30.030  1.00  0.00     0.034 A 
BRANCH  62  76
ATOM     76  C   UNL A   1      45.272  26.997  35.101  1.00  0.00     0.023 A 
ATOM     77  C   UNL A   1      45.215  25.765  34.431  1.00  0.00     0.031 A 
ATOM     78  C   UNL A   1      45.403  26.921  36.509  1.00  0.00     0.131 A 
ATOM     79  C   UNL A   1      45.139  24.561  35.146  1.00  0.00     0.055 A 
ATOM     80  C   UNL A   1      45.400  25.715  37.212  1.00  0.00     0.041 A 
ATOM     81  F   UNL A   1      45.457  27.993  37.306  1.00  0.00    -0.206 F 
ATOM     82  C   UNL A   1      45.225  24.525  36.534  1.00  0.00     0.022 A 
BRANCH  79  83
ATOM     83  S   UNL A   1      44.721  23.062  34.227  1.00  0.00     0.124 S 
ATOM     84  O   UNL A   1      45.899  22.237  34.475  1.00  0.00    -0.237 OA
ATOM     85  O   UNL A   1      43.489  22.645  34.887  1.00  0.00    -0.237 OA
ATOM     86  O   UNL A   1      44.566  23.541  32.856  1.00  0.00    -0.744 OA
ENDBRANCH  79  83
ENDBRANCH  62  76
BRANCH  63  87
ATOM     87  C   UNL A   1      43.094  24.510  27.278  1.00  0.00     0.023 A 
ATOM     88  C   UNL A   1      43.901  23.858  26.328  1.00  0.00     0.031 A 
ATOM     89  C   UNL A   1      41.944  23.814  27.722  1.00  0.00     0.131 A 
ATOM     90  C   UNL A   1      43.545  22.574  25.857  1.00  0.00     0.055 A 
ATOM     91  C   UNL A   1      41.588  22.554  27.241  1.00  0.00     0.041 A 
ATOM     92  F   UNL A   1      41.169  24.297  28.705  1.00  0.00    -0.206 F 
ATOM     93  C   UNL A   1      42.394  21.923  26.311  1.00  0.00     0.022 A 
BRANCH  90  94
ATOM     94  S   UNL A   1      44.649  21.681  24.720  1.00  0.00     0.124 S 
ATOM     95  O   UNL A   1      44.408  22.365  23.456  1.00  0.00    -0.237 OA
ATOM     96  O   UNL A   1      45.958  21.884  25.332  1.00  0.00    -0.237 OA
ATOM     97  O   UNL A   1      44.155  20.304  24.780  1.00  0.00    -0.744 OA
ENDBRANCH  90  94
ENDBRANCH  63  87
BRANCH  75  98
ATOM     98  C   UNL A   1      46.683  29.521  28.888  1.00  0.00     0.023 A 
ATOM     99  C   UNL A   1      45.649  30.270  28.278  1.00  0.00     0.031 A 
ATOM    100  C   UNL A   1      48.002  29.778  28.470  1.00  0.00     0.131 A 
ATOM    101  C   UNL A   1      45.954  31.212  27.276  1.00  0.00     0.055 A 
ATOM    102  C   UNL A   1      48.302  30.728  27.492  1.00  0.00     0.041 A 
ATOM    103  F   UNL A   1      49.034  29.126  29.029  1.00  0.00    -0.206 F 
ATOM    104  C   UNL A   1      47.277  31.442  26.885  1.00  0.00     0.022 A 
BRANCH 101 105
ATOM    105  S   UNL A   1      44.629  32.140  26.440  1.00  0.00     0.124 S 
ATOM    106  O   UNL A   1      44.190  33.099  27.446  1.00  0.00    -0.237 OA
ATOM    107  O   UNL A   1      45.322  32.702  25.283  1.00  0.00    -0.237 OA
ATOM    108  O   UNL A   1      43.644  31.106  26.113  1.00  0.00    -0.744 OA
ENDBRANCH 101 105
ENDBRANCH  75  98
ENDBRANCH  49  50
ENDBRANCH  42  44
ENDBRANCH  41  42
ENDBRANCH  40  41
ENDBRANCH  39  40
ENDBRANCH  38  39
ENDBRANCH  37  38
ENDBRANCH  36  37
ENDBRANCH   1  36
TORSDOF 27
ENDMDL
MODEL 3
REMARK VINA RESULT:     -10.1      3.163      9.305
REMARK SMILES Cc1nn([C@H]2CCS(=O)(=O)C2)c(C)c1/C=C(\CC(=O)OCCOCCOCCOCCOC(=O)c1ccc(-c2c3nc(c(-c4cc(S(=O)(=O)[O-])ccc4F)c4ccc([nH]4)c(-c4cc(S(=O)(=O)[O-])ccc4F)c4nc(c(-c5cc(S(=O)(=O)[O-])ccc5F)c5ccc2[nH]5)C=C4)C=C3)cc1)c1nc2ccccc2s1
REMARK SMILES IDX 26 1 25 2 24 3 23 4 22 5 21 6 20 7 18 8 19 9 17 10 16 11
REMARK SMILES IDX 15 12 14 13 1 14 2 15 3 16 4 17 12 18 13 19 5 20 6 21 11 22
REMARK SMILES IDX 7 23 8 24 9 25 10 26 98 27 99 28 106 29 100 30 105 31 101 32
REMARK SMILES IDX 104 33 102 34 103 35 27 36 28 37 29 38 30 39 31 40 32 41
REMARK SMILES IDX 33 42 34 43 35 44 36 45 97 46 37 47 96 48 38 49 39 50 40 51
REMARK SMILES IDX 90 52 41 53 95 54 89 55 91 56 42 57 94 58 88 59 87 60 43 62
REMARK SMILES IDX 75 63 55 64 74 65 56 66 59 67 73 68 92 69 57 70 58 71 72 73
REMARK SMILES IDX 93 74 60 75 44 76 45 77 53 78 46 79 52 80 54 81 51 82 47 83
REMARK SMILES IDX 48 84 49 85 50 86 76 87 77 88 85 89 78 90 84 91 86 92 83 93
REMARK SMILES IDX 79 94 80 95 81 96 82 97 61 98 62 99 70 100 63 101 69 102
REMARK SMILES IDX 71 103 68 104 64 105 65 106 66 107 67 108
REMARK H PARENT 91 61 59 72
REMARK Flexibility Score: inf
ROOT
ATOM      1  O   UNL A   1      31.730  26.756  27.111  1.00  0.00    -0.377 OA
ENDROOT
BRANCH   1   2
ATOM      2  C   UNL A   1      30.927  26.157  26.105  1.00  0.00     0.188 C 
BRANCH   2   3
ATOM      3  C   UNL A   1      30.231  24.818  26.478  1.00  0.00     0.188 C 
BRANCH   3   4
ATOM      4  O   UNL A   1      30.888  23.785  27.219  1.00  0.00    -0.376 OA
BRANCH   4   5
ATOM      5  C   UNL A   1      31.892  23.004  26.597  1.00  0.00     0.202 C 
BRANCH   5   6
ATOM      6  C   UNL A   1      33.067  22.654  27.517  1.00  0.00     0.261 C 
BRANCH   6   7
ATOM      7  O   UNL A   1      33.604  21.338  27.316  1.00  0.00    -0.463 OA
BRANCH   7   8
ATOM      8  C   UNL A   1      34.316  21.152  26.166  1.00  0.00     0.310 C 
ATOM      9  O   UNL A   1      34.266  20.146  25.464  1.00  0.00    -0.252 OA
BRANCH   8  10
ATOM     10  C   UNL A   1      35.431  22.183  26.015  1.00  0.00     0.161 C 
BRANCH  10  11
ATOM     11  C   UNL A   1      35.809  23.510  25.439  1.00  0.00    -0.000 C 
ATOM     12  C   UNL A   1      37.136  23.842  25.503  1.00  0.00     0.019 C 
BRANCH  12  13
ATOM     13  C   UNL A   1      38.300  23.102  26.029  1.00  0.00     0.019 A 
ATOM     14  C   UNL A   1      39.026  24.858  27.852  1.00  0.00     0.069 C 
ATOM     15  C   UNL A   1      39.190  23.636  27.015  1.00  0.00     0.067 A 
ATOM     16  N   UNL A   1      40.275  22.870  27.177  1.00  0.00    -0.177 NA
ATOM     17  N   UNL A   1      40.107  21.857  26.310  1.00  0.00    -0.265 N 
ATOM     18  C   UNL A   1      38.826  21.812  25.804  1.00  0.00     0.043 A 
ATOM     19  C   UNL A   1      38.313  20.546  25.195  1.00  0.00     0.067 C 
BRANCH  17  20
ATOM     20  C   UNL A   1      41.298  21.125  25.901  1.00  0.00     0.123 C 
ATOM     21  C   UNL A   1      42.617  21.752  26.381  1.00  0.00     0.044 C 
ATOM     22  C   UNL A   1      41.445  19.655  26.297  1.00  0.00     0.164 C 
ATOM     23  C   UNL A   1      43.732  20.856  25.833  1.00  0.00     0.139 C 
ATOM     24  S   UNL A   1      43.061  19.202  25.771  1.00  0.00     0.152 S 
ATOM     25  O   UNL A   1      42.978  18.763  24.393  1.00  0.00    -0.229 OA
ATOM     26  O   UNL A   1      43.668  18.396  26.807  1.00  0.00    -0.229 OA
ENDBRANCH  17  20
ENDBRANCH  12  13
BRANCH  11  27
ATOM     27  C   UNL A   1      34.871  24.294  24.660  1.00  0.00     0.121 A 
ATOM     28  N   UNL A   1      34.674  25.586  24.862  1.00  0.00    -0.236 NA
ATOM     29  S   UNL A   1      33.927  23.662  23.346  1.00  0.00    -0.114 S 
ATOM     30  C   UNL A   1      33.782  26.124  23.943  1.00  0.00     0.082 A 
ATOM     31  C   UNL A   1      33.282  25.223  23.005  1.00  0.00     0.055 A 
ATOM     32  C   UNL A   1      33.404  27.483  23.851  1.00  0.00     0.030 A 
ATOM     33  C   UNL A   1      32.421  25.636  21.969  1.00  0.00     0.021 A 
ATOM     34  C   UNL A   1      32.582  27.910  22.800  1.00  0.00     0.002 A 
ATOM     35  C   UNL A   1      32.100  26.995  21.870  1.00  0.00     0.002 A 
ENDBRANCH  11  27
ENDBRANCH  10  11
ENDBRANCH   8  10
ENDBRANCH   7   8
ENDBRANCH   6   7
ENDBRANCH   5   6
ENDBRANCH   4   5
ENDBRANCH   3   4
ENDBRANCH   2   3
ENDBRANCH   1   2
BRANCH   1  36
ATOM     36  C   UNL A   1      31.729  28.175  27.109  1.00  0.00     0.188 C 
BRANCH  36  37
ATOM     37  C   UNL A   1      33.112  28.811  27.333  1.00  0.00     0.188 C 
BRANCH  37  38
ATOM     38  O   UNL A   1      33.103  30.221  27.535  1.00  0.00    -0.376 OA
BRANCH  38  39
ATOM     39  C   UNL A   1      34.305  30.973  27.499  1.00  0.00     0.202 C 
BRANCH  39  40
ATOM     40  C   UNL A   1      35.195  30.866  28.728  1.00  0.00     0.261 C 
BRANCH  40  41
ATOM     41  O   UNL A   1      36.579  30.780  28.466  1.00  0.00    -0.460 OA
BRANCH  41  42
ATOM     42  C   UNL A   1      37.037  29.529  28.298  1.00  0.00     0.338 C 
ATOM     43  O   UNL A   1      36.515  28.619  27.685  1.00  0.00    -0.246 OA
BRANCH  42  44
ATOM     44  C   UNL A   1      38.192  29.360  29.166  1.00  0.00     0.060 A 
ATOM     45  C   UNL A   1      39.181  30.320  28.985  1.00  0.00     0.016 A 
ATOM     46  C   UNL A   1      38.419  28.121  29.795  1.00  0.00     0.016 A 
ATOM     47  C   UNL A   1      40.470  29.938  29.222  1.00  0.00     0.010 A 
ATOM     48  C   UNL A   1      39.713  27.741  30.028  1.00  0.00     0.010 A 
ATOM     49  C   UNL A   1      40.716  28.632  29.670  1.00  0.00    -0.014 A 
BRANCH  49  50
ATOM     50  C   UNL A   1      42.090  28.324  29.945  1.00  0.00     0.031 A 
ATOM     51  C   UNL A   1      42.634  27.395  28.944  1.00  0.00     0.074 A 
ATOM     52  C   UNL A   1      42.786  28.818  30.974  1.00  0.00     0.049 A 
ATOM     53  N   UNL A   1      42.802  26.125  29.082  1.00  0.00    -0.248 NA
ATOM     54  C   UNL A   1      42.739  27.880  27.562  1.00  0.00     0.031 C 
ATOM     55  C   UNL A   1      42.455  29.935  31.854  1.00  0.00     0.029 A 
ATOM     56  N   UNL A   1      44.025  28.446  31.373  1.00  0.00    -0.354 N 
ATOM     57  C   UNL A   1      43.284  25.693  27.858  1.00  0.00     0.074 A 
ATOM     58  C   UNL A   1      42.979  26.738  26.921  1.00  0.00     0.031 C 
ATOM     59  C   UNL A   1      43.569  30.288  32.537  1.00  0.00     0.029 A 
ATOM     60  C   UNL A   1      44.635  29.345  32.228  1.00  0.00     0.049 A 
ATOM     61  H   UNL A   1      44.453  27.609  31.082  1.00  0.00     0.167 HD
ATOM     62  C   UNL A   1      44.150  24.650  27.791  1.00  0.00     0.034 A 
ATOM     63  C   UNL A   1      45.952  29.352  32.551  1.00  0.00     0.034 A 
ATOM     64  C   UNL A   1      44.089  23.851  29.001  1.00  0.00     0.049 A 
ATOM     65  C   UNL A   1      46.473  27.976  32.314  1.00  0.00     0.074 A 
ATOM     66  C   UNL A   1      43.070  23.187  29.661  1.00  0.00     0.029 A 
ATOM     67  N   UNL A   1      45.104  23.979  29.928  1.00  0.00    -0.354 N 
ATOM     68  N   UNL A   1      46.090  26.934  33.004  1.00  0.00    -0.248 NA
ATOM     69  C   UNL A   1      47.053  27.661  31.015  1.00  0.00     0.031 C 
ATOM     70  C   UNL A   1      43.330  23.388  31.049  1.00  0.00     0.029 A 
ATOM     71  C   UNL A   1      44.526  24.099  31.169  1.00  0.00     0.049 A 
ATOM     72  H   UNL A   1      46.069  23.983  29.734  1.00  0.00     0.167 HD
ATOM     73  C   UNL A   1      45.977  25.902  32.083  1.00  0.00     0.074 A 
ATOM     74  C   UNL A   1      46.690  26.378  30.901  1.00  0.00     0.031 C 
ATOM     75  C   UNL A   1      45.081  24.885  32.260  1.00  0.00     0.034 A 
BRANCH  62  76
ATOM     76  C   UNL A   1      45.321  24.613  26.834  1.00  0.00     0.023 A 
ATOM     77  C   UNL A   1      46.588  24.834  27.394  1.00  0.00     0.031 A 
ATOM     78  C   UNL A   1      45.257  24.674  25.420  1.00  0.00     0.131 A 
ATOM     79  C   UNL A   1      47.667  25.239  26.593  1.00  0.00     0.055 A 
ATOM     80  C   UNL A   1      46.352  25.007  24.621  1.00  0.00     0.041 A 
ATOM     81  F   UNL A   1      44.130  24.504  24.722  1.00  0.00    -0.206 F 
ATOM     82  C   UNL A   1      47.558  25.333  25.209  1.00  0.00     0.022 A 
BRANCH  79  83
ATOM     83  S   UNL A   1      49.156  25.833  27.426  1.00  0.00     0.124 S 
ATOM     84  O   UNL A   1      49.014  25.215  28.740  1.00  0.00    -0.237 OA
ATOM     85  O   UNL A   1      50.207  25.297  26.569  1.00  0.00    -0.237 OA
ATOM     86  O   UNL A   1      49.001  27.285  27.394  1.00  0.00    -0.744 OA
ENDBRANCH  79  83
ENDBRANCH  62  76
BRANCH  63  87
ATOM     87  C   UNL A   1      46.803  30.556  32.717  1.00  0.00     0.023 A 
ATOM     88  C   UNL A   1      47.411  31.197  31.623  1.00  0.00     0.031 A 
ATOM     89  C   UNL A   1      46.849  31.233  33.959  1.00  0.00     0.131 A 
ATOM     90  C   UNL A   1      48.036  32.453  31.795  1.00  0.00     0.055 A 
ATOM     91  C   UNL A   1      47.482  32.465  34.127  1.00  0.00     0.041 A 
ATOM     92  F   UNL A   1      46.205  30.763  35.038  1.00  0.00    -0.206 F 
ATOM     93  C   UNL A   1      48.072  33.086  33.041  1.00  0.00     0.022 A 
BRANCH  90  94
ATOM     94  S   UNL A   1      48.718  33.338  30.360  1.00  0.00     0.124 S 
ATOM     95  O   UNL A   1      47.625  34.234  30.003  1.00  0.00    -0.237 OA
ATOM     96  O   UNL A   1      49.915  33.959  30.916  1.00  0.00    -0.237 OA
ATOM     97  O   UNL A   1      48.978  32.269  29.394  1.00  0.00    -0.744 OA
ENDBRANCH  90  94
ENDBRANCH  63  87
BRANCH  75  98
ATOM     98  C   UNL A   1      44.456  24.704  33.631  1.00  0.00     0.023 A 
ATOM     99  C   UNL A   1      43.493  25.568  34.203  1.00  0.00     0.031 A 
ATOM    100  C   UNL A   1      44.786  23.538  34.348  1.00  0.00     0.131 A 
ATOM    101  C   UNL A   1      42.920  25.263  35.453  1.00  0.00     0.055 A 
ATOM    102  C   UNL A   1      44.200  23.228  35.576  1.00  0.00     0.041 A 
ATOM    103  F   UNL A   1      45.669  22.658  33.850  1.00  0.00    -0.206 F 
ATOM    104  C   UNL A   1      43.271  24.095  36.138  1.00  0.00     0.022 A 
BRANCH 101 105
ATOM    105  S   UNL A   1      41.724  26.396  36.228  1.00  0.00     0.124 S 
ATOM    106  O   UNL A   1      40.673  25.510  36.716  1.00  0.00    -0.237 OA
ATOM    107  O   UNL A   1      42.532  27.052  37.253  1.00  0.00    -0.237 OA
ATOM    108  O   UNL A   1      41.319  27.269  35.124  1.00  0.00    -0.744 OA
ENDBRANCH 101 105
ENDBRANCH  75  98
ENDBRANCH  49  50
ENDBRANCH  42  44
ENDBRANCH  41  42
ENDBRANCH  40  41
ENDBRANCH  39  40
ENDBRANCH  38  39
ENDBRANCH  37  38
ENDBRANCH  36  37
ENDBRANCH   1  36
TORSDOF 27
ENDMDL
