MODEL 1
REMARK VINA RESULT:      -9.2      0.000      0.000
REMARK SMILES COc1ccc2c(c1)c(CC(=O)OCCOCCOCCOCCOC(=O)c1ccc(-c3c4nc(c(-c5cc(S(=O)(=O)[O-])ccc5F)c5ccc([nH]5)c(-c5cc(S(=O)(=O)[O-])ccc5F)c5nc(c(-c6cc(S(=O)(=O)[O-])ccc6F)c6ccc3[nH]6)C=C5)C=C4)cc1)c(C)n2Cc1ccn(C(F)F)c(=O)c1
REMARK SMILES IDX 18 1 17 2 16 3 15 4 14 5 13 6 11 7 12 8 10 9 9 10 3 11 4 12
REMARK SMILES IDX 8 13 5 14 7 15 6 16 93 17 91 18 92 19 2 20 1 21 94 22 95 23
REMARK SMILES IDX 96 24 104 25 97 26 102 27 98 28 103 29 99 30 100 31 101 32
REMARK SMILES IDX 19 33 20 34 21 35 22 36 23 37 24 38 25 39 26 40 27 41 28 42
REMARK SMILES IDX 29 43 90 44 30 45 89 46 31 47 32 48 33 49 83 50 34 51 88 52
REMARK SMILES IDX 82 53 84 54 35 55 87 56 81 57 80 58 36 60 68 61 48 62 67 63
REMARK SMILES IDX 49 64 52 65 66 66 85 67 50 68 51 69 65 71 86 72 53 73 37 74
REMARK SMILES IDX 38 75 46 76 39 77 45 78 47 79 44 80 40 81 41 82 42 83 43 84
REMARK SMILES IDX 69 85 70 86 78 87 71 88 77 89 79 90 76 91 72 92 73 93 74 94
REMARK SMILES IDX 75 95 54 96 55 97 63 98 56 99 62 100 64 101 61 102 57 103
REMARK SMILES IDX 58 104 59 105 60 106
REMARK H PARENT 84 59 52 70
REMARK Flexibility Score: inf
ROOT
ATOM      1  C   UNL A   1      35.182  32.022  27.657  1.00  0.00     0.188 C 
ENDROOT
BRANCH   1   2
ATOM      2  C   UNL A   1      33.677  32.127  27.870  1.00  0.00     0.188 C 
BRANCH   2   3
ATOM      3  O   UNL A   1      33.055  30.863  27.942  1.00  0.00    -0.376 OA
BRANCH   3   4
ATOM      4  C   UNL A   1      33.348  29.880  26.963  1.00  0.00     0.202 C 
BRANCH   4   5
ATOM      5  C   UNL A   1      33.405  28.367  27.285  1.00  0.00     0.261 C 
BRANCH   5   6
ATOM      6  O   UNL A   1      32.168  27.640  27.440  1.00  0.00    -0.463 OA
BRANCH   6   7
ATOM      7  C   UNL A   1      31.722  26.840  26.449  1.00  0.00     0.310 C 
ATOM      8  O   UNL A   1      31.380  27.267  25.349  1.00  0.00    -0.252 OA
BRANCH   7   9
ATOM      9  C   UNL A   1      31.771  25.335  26.742  1.00  0.00     0.160 C 
BRANCH   9  10
ATOM     10  C   UNL A   1      32.749  24.430  26.009  1.00  0.00    -0.008 A 
ATOM     11  C   UNL A   1      32.818  24.790  22.180  1.00  0.00     0.119 A 
ATOM     12  C   UNL A   1      33.939  23.998  21.976  1.00  0.00     0.048 A 
ATOM     13  C   UNL A   1      32.272  24.896  23.467  1.00  0.00     0.057 A 
ATOM     14  C   UNL A   1      34.543  23.319  23.047  1.00  0.00     0.031 A 
ATOM     15  C   UNL A   1      32.922  24.317  24.584  1.00  0.00     0.007 A 
ATOM     16  C   UNL A   1      34.017  23.483  24.345  1.00  0.00     0.049 A 
ATOM     17  N   UNL A   1      34.365  22.916  25.566  1.00  0.00    -0.340 N 
ATOM     18  C   UNL A   1      33.527  23.416  26.557  1.00  0.00     0.020 A 
ATOM     19  C   UNL A   1      33.481  22.902  27.953  1.00  0.00     0.065 C 
BRANCH  11  20
ATOM     20  O   UNL A   1      32.173  25.532  21.228  1.00  0.00    -0.497 OA
ATOM     21  C   UNL A   1      32.547  25.331  19.869  1.00  0.00     0.278 C 
ENDBRANCH  11  20
BRANCH  17  22
ATOM     22  C   UNL A   1      35.308  21.788  25.697  1.00  0.00     0.158 C 
BRANCH  22  23
ATOM     23  C   UNL A   1      34.788  20.442  25.249  1.00  0.00    -0.021 A 
ATOM     24  C   UNL A   1      35.741  19.436  24.829  1.00  0.00     0.024 A 
ATOM     25  C   UNL A   1      33.488  20.097  25.308  1.00  0.00     0.077 A 
ATOM     26  C   UNL A   1      35.330  18.279  24.300  1.00  0.00     0.095 A 
ATOM     27  C   UNL A   1      33.023  18.752  24.843  1.00  0.00     0.255 A 
ATOM     28  N   UNL A   1      33.989  17.960  24.247  1.00  0.00    -0.258 N 
ATOM     29  O   UNL A   1      31.847  18.454  25.020  1.00  0.00    -0.269 OA
BRANCH  28  30
ATOM     30  C   UNL A   1      33.578  16.699  23.675  1.00  0.00     0.451 C 
ATOM     31  F   UNL A   1      34.568  16.195  22.897  1.00  0.00    -0.185 F 
ATOM     32  F   UNL A   1      33.295  15.786  24.633  1.00  0.00    -0.185 F 
ENDBRANCH  28  30
ENDBRANCH  22  23
ENDBRANCH  17  22
ENDBRANCH   9  10
ENDBRANCH   7   9
ENDBRANCH   6   7
ENDBRANCH   5   6
ENDBRANCH   4   5
ENDBRANCH   3   4
ENDBRANCH   2   3
ENDBRANCH   1   2
BRANCH   1  33
ATOM     33  O   UNL A   1      35.941  31.090  28.376  1.00  0.00    -0.377 OA
BRANCH  33  34
ATOM     34  C   UNL A   1      36.469  31.497  29.610  1.00  0.00     0.188 C 
BRANCH  34  35
ATOM     35  C   UNL A   1      36.524  33.022  29.715  1.00  0.00     0.188 C 
BRANCH  35  36
ATOM     36  O   UNL A   1      35.762  33.737  30.700  1.00  0.00    -0.376 OA
BRANCH  36  37
ATOM     37  C   UNL A   1      34.868  33.057  31.571  1.00  0.00     0.202 C 
BRANCH  37  38
ATOM     38  C   UNL A   1      35.350  32.844  33.017  1.00  0.00     0.261 C 
BRANCH  38  39
ATOM     39  O   UNL A   1      36.136  31.661  33.190  1.00  0.00    -0.460 OA
BRANCH  39  40
ATOM     40  C   UNL A   1      37.247  31.750  33.964  1.00  0.00     0.338 C 
ATOM     41  O   UNL A   1      37.298  31.875  35.177  1.00  0.00    -0.246 OA
BRANCH  40  42
ATOM     42  C   UNL A   1      38.376  31.343  33.097  1.00  0.00     0.060 A 
ATOM     43  C   UNL A   1      38.264  30.239  32.246  1.00  0.00     0.016 A 
ATOM     44  C   UNL A   1      39.631  31.882  33.411  1.00  0.00     0.016 A 
ATOM     45  C   UNL A   1      39.428  29.590  31.839  1.00  0.00     0.010 A 
ATOM     46  C   UNL A   1      40.793  31.223  33.005  1.00  0.00     0.010 A 
ATOM     47  C   UNL A   1      40.693  30.045  32.264  1.00  0.00    -0.014 A 
BRANCH  47  48
ATOM     48  C   UNL A   1      41.872  29.396  31.674  1.00  0.00     0.031 A 
ATOM     49  C   UNL A   1      42.451  30.204  30.566  1.00  0.00     0.074 A 
ATOM     50  C   UNL A   1      42.564  28.320  32.103  1.00  0.00     0.049 A 
ATOM     51  N   UNL A   1      42.600  29.888  29.321  1.00  0.00    -0.248 NA
ATOM     52  C   UNL A   1      42.767  31.603  30.891  1.00  0.00     0.031 C 
ATOM     53  C   UNL A   1      42.421  27.595  33.364  1.00  0.00     0.029 A 
ATOM     54  N   UNL A   1      43.649  27.718  31.516  1.00  0.00    -0.354 N 
ATOM     55  C   UNL A   1      43.173  31.010  28.728  1.00  0.00     0.074 A 
ATOM     56  C   UNL A   1      43.082  32.078  29.692  1.00  0.00     0.031 C 
ATOM     57  C   UNL A   1      43.510  26.810  33.545  1.00  0.00     0.029 A 
ATOM     58  C   UNL A   1      44.367  26.892  32.370  1.00  0.00     0.049 A 
ATOM     59  H   UNL A   1      43.896  27.861  30.574  1.00  0.00     0.167 HD
ATOM     60  C   UNL A   1      43.864  30.959  27.557  1.00  0.00     0.034 A 
ATOM     61  C   UNL A   1      45.616  26.396  32.170  1.00  0.00     0.034 A 
ATOM     62  C   UNL A   1      43.598  29.757  26.820  1.00  0.00     0.049 A 
ATOM     63  C   UNL A   1      45.968  26.507  30.735  1.00  0.00     0.074 A 
ATOM     64  C   UNL A   1      42.467  29.185  26.270  1.00  0.00     0.029 A 
ATOM     65  N   UNL A   1      44.554  28.774  26.820  1.00  0.00    -0.354 N 
ATOM     66  N   UNL A   1      45.486  25.762  29.784  1.00  0.00    -0.248 NA
ATOM     67  C   UNL A   1      46.664  27.706  30.293  1.00  0.00     0.031 C 
ATOM     68  C   UNL A   1      42.667  27.779  26.372  1.00  0.00     0.029 A 
ATOM     69  C   UNL A   1      43.910  27.572  26.973  1.00  0.00     0.049 A 
ATOM     70  H   UNL A   1      45.525  28.906  26.728  1.00  0.00     0.167 HD
ATOM     71  C   UNL A   1      45.411  26.605  28.687  1.00  0.00     0.074 A 
ATOM     72  C   UNL A   1      46.289  27.722  29.013  1.00  0.00     0.031 C 
ATOM     73  C   UNL A   1      44.426  26.462  27.751  1.00  0.00     0.034 A 
BRANCH  60  74
ATOM     74  C   UNL A   1      45.005  31.895  27.251  1.00  0.00     0.023 A 
ATOM     75  C   UNL A   1      46.344  31.584  27.570  1.00  0.00     0.031 A 
ATOM     76  C   UNL A   1      44.819  33.040  26.457  1.00  0.00     0.131 A 
ATOM     77  C   UNL A   1      47.408  32.404  27.187  1.00  0.00     0.055 A 
ATOM     78  C   UNL A   1      45.891  33.818  26.000  1.00  0.00     0.041 A 
ATOM     79  F   UNL A   1      43.592  33.406  26.055  1.00  0.00    -0.206 F 
ATOM     80  C   UNL A   1      47.195  33.510  26.376  1.00  0.00     0.022 A 
BRANCH  77  81
ATOM     81  S   UNL A   1      49.088  32.040  27.768  1.00  0.00     0.124 S 
ATOM     82  O   UNL A   1      48.847  30.953  28.710  1.00  0.00    -0.237 OA
ATOM     83  O   UNL A   1      49.761  31.669  26.526  1.00  0.00    -0.237 OA
ATOM     84  O   UNL A   1      49.527  33.304  28.353  1.00  0.00    -0.744 OA
ENDBRANCH  77  81
ENDBRANCH  60  74
BRANCH  61  85
ATOM     85  C   UNL A   1      46.665  26.146  33.188  1.00  0.00     0.023 A 
ATOM     86  C   UNL A   1      47.731  27.050  33.326  1.00  0.00     0.031 A 
ATOM     87  C   UNL A   1      46.800  24.893  33.816  1.00  0.00     0.131 A 
ATOM     88  C   UNL A   1      48.891  26.689  34.024  1.00  0.00     0.055 A 
ATOM     89  C   UNL A   1      47.957  24.537  34.522  1.00  0.00     0.041 A 
ATOM     90  F   UNL A   1      45.839  23.963  33.702  1.00  0.00    -0.206 F 
ATOM     91  C   UNL A   1      49.015  25.435  34.619  1.00  0.00     0.022 A 
BRANCH  88  92
ATOM     92  S   UNL A   1      50.280  27.850  34.111  1.00  0.00     0.124 S 
ATOM     93  O   UNL A   1      49.812  28.965  33.291  1.00  0.00    -0.237 OA
ATOM     94  O   UNL A   1      50.360  28.111  35.543  1.00  0.00    -0.237 OA
ATOM     95  O   UNL A   1      51.388  27.090  33.539  1.00  0.00    -0.744 OA
ENDBRANCH  88  92
ENDBRANCH  61  85
BRANCH  73  96
ATOM     96  C   UNL A   1      43.625  25.176  27.722  1.00  0.00     0.023 A 
ATOM     97  C   UNL A   1      44.062  24.153  26.858  1.00  0.00     0.031 A 
ATOM     98  C   UNL A   1      42.384  24.991  28.364  1.00  0.00     0.131 A 
ATOM     99  C   UNL A   1      43.273  23.013  26.651  1.00  0.00     0.055 A 
ATOM    100  C   UNL A   1      41.644  23.813  28.222  1.00  0.00     0.041 A 
ATOM    101  F   UNL A   1      41.804  25.969  29.075  1.00  0.00    -0.206 F 
ATOM    102  C   UNL A   1      42.081  22.823  27.351  1.00  0.00     0.022 A 
BRANCH  99 103
ATOM    103  S   UNL A   1      43.690  21.828  25.344  1.00  0.00     0.124 S 
ATOM    104  O   UNL A   1      43.487  22.619  24.133  1.00  0.00    -0.237 OA
ATOM    105  O   UNL A   1      45.081  21.502  25.654  1.00  0.00    -0.237 OA
ATOM    106  O   UNL A   1      42.746  20.733  25.545  1.00  0.00    -0.744 OA
ENDBRANCH  99 103
ENDBRANCH  73  96
ENDBRANCH  47  48
ENDBRANCH  40  42
ENDBRANCH  39  40
ENDBRANCH  38  39
ENDBRANCH  37  38
ENDBRANCH  36  37
ENDBRANCH  35  36
ENDBRANCH  34  35
ENDBRANCH  33  34
ENDBRANCH   1  33
TORSDOF 28
ENDMDL
MODEL 2
REMARK VINA RESULT:      -8.5      6.498     10.937
REMARK SMILES COc1ccc2c(c1)c(CC(=O)OCCOCCOCCOCCOC(=O)c1ccc(-c3c4nc(c(-c5cc(S(=O)(=O)[O-])ccc5F)c5ccc([nH]5)c(-c5cc(S(=O)(=O)[O-])ccc5F)c5nc(c(-c6cc(S(=O)(=O)[O-])ccc6F)c6ccc3[nH]6)C=C5)C=C4)cc1)c(C)n2Cc1ccn(C(F)F)c(=O)c1
REMARK SMILES IDX 18 1 17 2 16 3 15 4 14 5 13 6 11 7 12 8 10 9 9 10 3 11 4 12
REMARK SMILES IDX 8 13 5 14 7 15 6 16 93 17 91 18 92 19 2 20 1 21 94 22 95 23
REMARK SMILES IDX 96 24 104 25 97 26 102 27 98 28 103 29 99 30 100 31 101 32
REMARK SMILES IDX 19 33 20 34 21 35 22 36 23 37 24 38 25 39 26 40 27 41 28 42
REMARK SMILES IDX 29 43 90 44 30 45 89 46 31 47 32 48 33 49 83 50 34 51 88 52
REMARK SMILES IDX 82 53 84 54 35 55 87 56 81 57 80 58 36 60 68 61 48 62 67 63
REMARK SMILES IDX 49 64 52 65 66 66 85 67 50 68 51 69 65 71 86 72 53 73 37 74
REMARK SMILES IDX 38 75 46 76 39 77 45 78 47 79 44 80 40 81 41 82 42 83 43 84
REMARK SMILES IDX 69 85 70 86 78 87 71 88 77 89 79 90 76 91 72 92 73 93 74 94
REMARK SMILES IDX 75 95 54 96 55 97 63 98 56 99 62 100 64 101 61 102 57 103
REMARK SMILES IDX 58 104 59 105 60 106
REMARK H PARENT 84 59 52 70
REMARK Flexibility Score: inf
ROOT
ATOM      1  C   UNL A   1      39.605  34.153  33.267  1.00  0.00     0.188 C 
ENDROOT
BRANCH   1   2
ATOM      2  C   UNL A   1      39.782  32.847  34.031  1.00  0.00     0.188 C 
BRANCH   2   3
ATOM      3  O   UNL A   1      39.175  31.754  33.376  1.00  0.00    -0.376 OA
BRANCH   3   4
ATOM      4  C   UNL A   1      39.923  30.571  33.145  1.00  0.00     0.202 C 
BRANCH   4   5
ATOM      5  C   UNL A   1      40.285  29.575  34.273  1.00  0.00     0.261 C 
BRANCH   5   6
ATOM      6  O   UNL A   1      41.574  28.926  34.242  1.00  0.00    -0.463 OA
BRANCH   6   7
ATOM      7  C   UNL A   1      42.252  28.709  35.389  1.00  0.00     0.310 C 
ATOM      8  O   UNL A   1      41.774  28.931  36.500  1.00  0.00    -0.252 OA
BRANCH   7   9
ATOM      9  C   UNL A   1      43.632  28.059  35.229  1.00  0.00     0.160 C 
BRANCH   9  10
ATOM     10  C   UNL A   1      43.765  26.618  34.760  1.00  0.00    -0.008 A 
ATOM     11  C   UNL A   1      44.372  26.132  30.994  1.00  0.00     0.119 A 
ATOM     12  C   UNL A   1      44.644  24.773  31.060  1.00  0.00     0.048 A 
ATOM     13  C   UNL A   1      43.951  26.810  32.145  1.00  0.00     0.057 A 
ATOM     14  C   UNL A   1      44.520  24.075  32.273  1.00  0.00     0.031 A 
ATOM     15  C   UNL A   1      43.926  26.161  33.404  1.00  0.00     0.007 A 
ATOM     16  C   UNL A   1      44.152  24.783  33.436  1.00  0.00     0.049 A 
ATOM     17  N   UNL A   1      43.911  24.364  34.739  1.00  0.00    -0.340 N 
ATOM     18  C   UNL A   1      43.576  25.468  35.518  1.00  0.00     0.020 A 
ATOM     19  C   UNL A   1      43.075  25.384  36.916  1.00  0.00     0.065 C 
BRANCH  11  20
ATOM     20  O   UNL A   1      44.500  26.924  29.885  1.00  0.00    -0.497 OA
ATOM     21  C   UNL A   1      43.327  27.558  29.386  1.00  0.00     0.278 C 
ENDBRANCH  11  20
BRANCH  17  22
ATOM     22  C   UNL A   1      43.795  22.946  35.128  1.00  0.00     0.158 C 
BRANCH  22  23
ATOM     23  C   UNL A   1      45.097  22.236  35.413  1.00  0.00    -0.021 A 
ATOM     24  C   UNL A   1      45.856  22.623  36.585  1.00  0.00     0.024 A 
ATOM     25  C   UNL A   1      45.546  21.196  34.685  1.00  0.00     0.077 A 
ATOM     26  C   UNL A   1      47.073  22.122  36.812  1.00  0.00     0.095 A 
ATOM     27  C   UNL A   1      46.848  20.533  35.005  1.00  0.00     0.255 A 
ATOM     28  N   UNL A   1      47.597  21.135  36.003  1.00  0.00    -0.258 N 
ATOM     29  O   UNL A   1      47.154  19.525  34.376  1.00  0.00    -0.269 OA
BRANCH  28  30
ATOM     30  C   UNL A   1      48.913  20.609  36.278  1.00  0.00     0.451 C 
ATOM     31  F   UNL A   1      49.747  21.612  36.650  1.00  0.00    -0.185 F 
ATOM     32  F   UNL A   1      48.886  19.697  37.277  1.00  0.00    -0.185 F 
ENDBRANCH  28  30
ENDBRANCH  22  23
ENDBRANCH  17  22
ENDBRANCH   9  10
ENDBRANCH   7   9
ENDBRANCH   6   7
ENDBRANCH   5   6
ENDBRANCH   4   5
ENDBRANCH   3   4
ENDBRANCH   2   3
ENDBRANCH   1   2
BRANCH   1  33
ATOM     33  O   UNL A   1      40.518  34.527  32.273  1.00  0.00    -0.377 OA
BRANCH  33  34
ATOM     34  C   UNL A   1      40.263  34.096  30.963  1.00  0.00     0.188 C 
BRANCH  34  35
ATOM     35  C   UNL A   1      41.559  33.950  30.163  1.00  0.00     0.188 C 
BRANCH  35  36
ATOM     36  O   UNL A   1      42.115  35.047  29.424  1.00  0.00    -0.376 OA
BRANCH  36  37
ATOM     37  C   UNL A   1      41.549  35.460  28.187  1.00  0.00     0.202 C 
BRANCH  37  38
ATOM     38  C   UNL A   1      42.496  36.173  27.205  1.00  0.00     0.261 C 
BRANCH  38  39
ATOM     39  O   UNL A   1      43.430  35.295  26.570  1.00  0.00    -0.460 OA
BRANCH  39  40
ATOM     40  C   UNL A   1      44.651  35.150  27.144  1.00  0.00     0.338 C 
ATOM     41  O   UNL A   1      45.189  35.903  27.941  1.00  0.00    -0.246 OA
BRANCH  40  42
ATOM     42  C   UNL A   1      45.064  33.756  26.870  1.00  0.00     0.060 A 
ATOM     43  C   UNL A   1      44.205  32.688  27.146  1.00  0.00     0.016 A 
ATOM     44  C   UNL A   1      46.432  33.540  26.656  1.00  0.00     0.016 A 
ATOM     45  C   UNL A   1      44.757  31.425  27.356  1.00  0.00     0.010 A 
ATOM     46  C   UNL A   1      46.979  32.274  26.875  1.00  0.00     0.010 A 
ATOM     47  C   UNL A   1      46.150  31.226  27.278  1.00  0.00    -0.014 A 
BRANCH  47  48
ATOM     48  C   UNL A   1      46.636  29.841  27.367  1.00  0.00     0.031 A 
ATOM     49  C   UNL A   1      47.199  29.539  28.711  1.00  0.00     0.074 A 
ATOM     50  C   UNL A   1      46.479  28.819  26.501  1.00  0.00     0.049 A 
ATOM     51  N   UNL A   1      48.399  29.176  29.028  1.00  0.00    -0.248 NA
ATOM     52  C   UNL A   1      46.319  29.830  29.854  1.00  0.00     0.031 C 
ATOM     53  C   UNL A   1      45.644  28.768  25.302  1.00  0.00     0.029 A 
ATOM     54  N   UNL A   1      46.967  27.541  26.597  1.00  0.00    -0.354 N 
ATOM     55  C   UNL A   1      48.385  29.045  30.414  1.00  0.00     0.074 A 
ATOM     56  C   UNL A   1      47.149  29.629  30.871  1.00  0.00     0.031 C 
ATOM     57  C   UNL A   1      45.508  27.477  24.916  1.00  0.00     0.029 A 
ATOM     58  C   UNL A   1      46.331  26.628  25.768  1.00  0.00     0.049 A 
ATOM     59  H   UNL A   1      47.704  27.293  27.203  1.00  0.00     0.167 HD
ATOM     60  C   UNL A   1      49.291  28.296  31.098  1.00  0.00     0.034 A 
ATOM     61  C   UNL A   1      46.394  25.273  25.841  1.00  0.00     0.034 A 
ATOM     62  C   UNL A   1      50.458  28.005  30.315  1.00  0.00     0.049 A 
ATOM     63  C   UNL A   1      47.559  24.876  26.665  1.00  0.00     0.074 A 
ATOM     64  C   UNL A   1      51.432  28.768  29.701  1.00  0.00     0.029 A 
ATOM     65  N   UNL A   1      50.589  26.741  29.796  1.00  0.00    -0.354 N 
ATOM     66  N   UNL A   1      48.803  24.945  26.288  1.00  0.00    -0.248 NA
ATOM     67  C   UNL A   1      47.352  24.675  28.091  1.00  0.00     0.031 C 
ATOM     68  C   UNL A   1      51.807  28.039  28.537  1.00  0.00     0.029 A 
ATOM     69  C   UNL A   1      51.045  26.869  28.508  1.00  0.00     0.049 A 
ATOM     70  H   UNL A   1      50.392  25.898  30.263  1.00  0.00     0.167 HD
ATOM     71  C   UNL A   1      49.499  25.255  27.445  1.00  0.00     0.074 A 
ATOM     72  C   UNL A   1      48.587  24.920  28.532  1.00  0.00     0.031 C 
ATOM     73  C   UNL A   1      50.628  26.023  27.407  1.00  0.00     0.034 A 
BRANCH  60  74
ATOM     74  C   UNL A   1      48.952  27.596  32.389  1.00  0.00     0.023 A 
ATOM     75  C   UNL A   1      49.334  28.107  33.647  1.00  0.00     0.031 A 
ATOM     76  C   UNL A   1      48.070  26.501  32.418  1.00  0.00     0.131 A 
ATOM     77  C   UNL A   1      48.925  27.514  34.845  1.00  0.00     0.055 A 
ATOM     78  C   UNL A   1      47.590  25.957  33.617  1.00  0.00     0.041 A 
ATOM     79  F   UNL A   1      47.605  25.962  31.280  1.00  0.00    -0.206 F 
ATOM     80  C   UNL A   1      48.028  26.454  34.841  1.00  0.00     0.022 A 
BRANCH  77  81
ATOM     81  S   UNL A   1      49.583  28.114  36.425  1.00  0.00     0.124 S 
ATOM     82  O   UNL A   1      51.018  28.124  36.165  1.00  0.00    -0.237 OA
ATOM     83  O   UNL A   1      48.947  29.424  36.536  1.00  0.00    -0.237 OA
ATOM     84  O   UNL A   1      49.116  27.120  37.388  1.00  0.00    -0.744 OA
ENDBRANCH  77  81
ENDBRANCH  60  74
BRANCH  61  85
ATOM     85  C   UNL A   1      45.319  24.298  25.534  1.00  0.00     0.023 A 
ATOM     86  C   UNL A   1      44.171  24.249  26.342  1.00  0.00     0.031 A 
ATOM     87  C   UNL A   1      45.529  23.221  24.653  1.00  0.00     0.131 A 
ATOM     88  C   UNL A   1      43.306  23.149  26.294  1.00  0.00     0.055 A 
ATOM     89  C   UNL A   1      44.659  22.125  24.598  1.00  0.00     0.041 A 
ATOM     90  F   UNL A   1      46.620  23.178  23.872  1.00  0.00    -0.206 F 
ATOM     91  C   UNL A   1      43.545  22.080  25.431  1.00  0.00     0.022 A 
BRANCH  88  92
ATOM     92  S   UNL A   1      41.881  23.080  27.412  1.00  0.00     0.124 S 
ATOM     93  O   UNL A   1      42.148  24.183  28.333  1.00  0.00    -0.237 OA
ATOM     94  O   UNL A   1      40.771  23.286  26.489  1.00  0.00    -0.237 OA
ATOM     95  O   UNL A   1      41.981  21.749  28.002  1.00  0.00    -0.744 OA
ENDBRANCH  88  92
ENDBRANCH  61  85
BRANCH  73  96
ATOM     96  C   UNL A   1      51.316  26.247  26.075  1.00  0.00     0.023 A 
ATOM     97  C   UNL A   1      50.625  26.991  25.100  1.00  0.00     0.031 A 
ATOM     98  C   UNL A   1      52.518  25.625  25.680  1.00  0.00     0.131 A 
ATOM     99  C   UNL A   1      51.123  27.086  23.793  1.00  0.00     0.055 A 
ATOM    100  C   UNL A   1      53.055  25.796  24.400  1.00  0.00     0.041 A 
ATOM    101  F   UNL A   1      53.165  24.765  26.480  1.00  0.00    -0.206 F 
ATOM    102  C   UNL A   1      52.350  26.518  23.445  1.00  0.00     0.022 A 
BRANCH  99 103
ATOM    103  S   UNL A   1      50.113  27.803  22.471  1.00  0.00     0.124 S 
ATOM    104  O   UNL A   1      50.155  26.762  21.448  1.00  0.00    -0.237 OA
ATOM    105  O   UNL A   1      48.820  27.981  23.131  1.00  0.00    -0.237 OA
ATOM    106  O   UNL A   1      50.802  29.045  22.133  1.00  0.00    -0.744 OA
ENDBRANCH  99 103
ENDBRANCH  73  96
ENDBRANCH  47  48
ENDBRANCH  40  42
ENDBRANCH  39  40
ENDBRANCH  38  39
ENDBRANCH  37  38
ENDBRANCH  36  37
ENDBRANCH  35  36
ENDBRANCH  34  35
ENDBRANCH  33  34
ENDBRANCH   1  33
TORSDOF 28
ENDMDL
MODEL 3
REMARK VINA RESULT:      -8.1      6.548     12.463
REMARK SMILES COc1ccc2c(c1)c(CC(=O)OCCOCCOCCOCCOC(=O)c1ccc(-c3c4nc(c(-c5cc(S(=O)(=O)[O-])ccc5F)c5ccc([nH]5)c(-c5cc(S(=O)(=O)[O-])ccc5F)c5nc(c(-c6cc(S(=O)(=O)[O-])ccc6F)c6ccc3[nH]6)C=C5)C=C4)cc1)c(C)n2Cc1ccn(C(F)F)c(=O)c1
REMARK SMILES IDX 18 1 17 2 16 3 15 4 14 5 13 6 11 7 12 8 10 9 9 10 3 11 4 12
REMARK SMILES IDX 8 13 5 14 7 15 6 16 93 17 91 18 92 19 2 20 1 21 94 22 95 23
REMARK SMILES IDX 96 24 104 25 97 26 102 27 98 28 103 29 99 30 100 31 101 32
REMARK SMILES IDX 19 33 20 34 21 35 22 36 23 37 24 38 25 39 26 40 27 41 28 42
REMARK SMILES IDX 29 43 90 44 30 45 89 46 31 47 32 48 33 49 83 50 34 51 88 52
REMARK SMILES IDX 82 53 84 54 35 55 87 56 81 57 80 58 36 60 68 61 48 62 67 63
REMARK SMILES IDX 49 64 52 65 66 66 85 67 50 68 51 69 65 71 86 72 53 73 37 74
REMARK SMILES IDX 38 75 46 76 39 77 45 78 47 79 44 80 40 81 41 82 42 83 43 84
REMARK SMILES IDX 69 85 70 86 78 87 71 88 77 89 79 90 76 91 72 92 73 93 74 94
REMARK SMILES IDX 75 95 54 96 55 97 63 98 56 99 62 100 64 101 61 102 57 103
REMARK SMILES IDX 58 104 59 105 60 106
REMARK H PARENT 84 59 52 70
REMARK Flexibility Score: inf
ROOT
ATOM      1  C   UNL A   1      37.171  31.627  28.950  1.00  0.00     0.188 C 
ENDROOT
BRANCH   1   2
ATOM      2  C   UNL A   1      37.035  30.519  29.988  1.00  0.00     0.188 C 
BRANCH   2   3
ATOM      3  O   UNL A   1      37.258  29.238  29.440  1.00  0.00    -0.376 OA
BRANCH   3   4
ATOM      4  C   UNL A   1      38.468  28.971  28.750  1.00  0.00     0.202 C 
BRANCH   4   5
ATOM      5  C   UNL A   1      39.263  27.655  28.931  1.00  0.00     0.261 C 
BRANCH   5   6
ATOM      6  O   UNL A   1      39.003  26.555  28.033  1.00  0.00    -0.463 OA
BRANCH   6   7
ATOM      7  C   UNL A   1      39.997  26.055  27.269  1.00  0.00     0.310 C 
ATOM      8  O   UNL A   1      39.818  25.169  26.435  1.00  0.00    -0.252 OA
BRANCH   7   9
ATOM      9  C   UNL A   1      41.360  26.739  27.426  1.00  0.00     0.160 C 
BRANCH   9  10
ATOM     10  C   UNL A   1      42.617  25.923  27.689  1.00  0.00    -0.008 A 
ATOM     11  C   UNL A   1      44.076  26.192  31.237  1.00  0.00     0.119 A 
ATOM     12  C   UNL A   1      45.006  25.172  31.094  1.00  0.00     0.048 A 
ATOM     13  C   UNL A   1      43.320  26.599  30.130  1.00  0.00     0.057 A 
ATOM     14  C   UNL A   1      45.184  24.532  29.857  1.00  0.00     0.031 A 
ATOM     15  C   UNL A   1      43.395  25.900  28.900  1.00  0.00     0.007 A 
ATOM     16  C   UNL A   1      44.375  24.913  28.766  1.00  0.00     0.049 A 
ATOM     17  N   UNL A   1      44.354  24.501  27.439  1.00  0.00    -0.340 N 
ATOM     18  C   UNL A   1      43.352  25.191  26.764  1.00  0.00     0.020 A 
ATOM     19  C   UNL A   1      43.153  25.148  25.289  1.00  0.00     0.065 C 
BRANCH  11  20
ATOM     20  O   UNL A   1      43.783  26.856  32.398  1.00  0.00    -0.497 OA
ATOM     21  C   UNL A   1      43.221  28.160  32.290  1.00  0.00     0.278 C 
ENDBRANCH  11  20
BRANCH  17  22
ATOM     22  C   UNL A   1      45.401  23.657  26.834  1.00  0.00     0.158 C 
BRANCH  22  23
ATOM     23  C   UNL A   1      46.589  24.394  26.261  1.00  0.00    -0.021 A 
ATOM     24  C   UNL A   1      47.689  24.727  27.143  1.00  0.00     0.024 A 
ATOM     25  C   UNL A   1      46.720  24.678  24.952  1.00  0.00     0.077 A 
ATOM     26  C   UNL A   1      48.701  25.492  26.721  1.00  0.00     0.095 A 
ATOM     27  C   UNL A   1      47.914  25.419  24.437  1.00  0.00     0.255 A 
ATOM     28  N   UNL A   1      48.788  25.889  25.402  1.00  0.00    -0.258 N 
ATOM     29  O   UNL A   1      48.031  25.554  23.223  1.00  0.00    -0.269 OA
BRANCH  28  30
ATOM     30  C   UNL A   1      49.896  26.709  24.976  1.00  0.00     0.451 C 
ATOM     31  F   UNL A   1      49.879  27.896  25.633  1.00  0.00    -0.185 F 
ATOM     32  F   UNL A   1      51.084  26.111  25.227  1.00  0.00    -0.185 F 
ENDBRANCH  28  30
ENDBRANCH  22  23
ENDBRANCH  17  22
ENDBRANCH   9  10
ENDBRANCH   7   9
ENDBRANCH   6   7
ENDBRANCH   5   6
ENDBRANCH   4   5
ENDBRANCH   3   4
ENDBRANCH   2   3
ENDBRANCH   1   2
BRANCH   1  33
ATOM     33  O   UNL A   1      36.034  32.210  28.377  1.00  0.00    -0.377 OA
BRANCH  33  34
ATOM     34  C   UNL A   1      35.918  33.606  28.444  1.00  0.00     0.188 C 
BRANCH  34  35
ATOM     35  C   UNL A   1      34.551  34.076  27.943  1.00  0.00     0.188 C 
BRANCH  35  36
ATOM     36  O   UNL A   1      33.432  34.217  28.830  1.00  0.00    -0.376 OA
BRANCH  36  37
ATOM     37  C   UNL A   1      33.262  35.389  29.615  1.00  0.00     0.202 C 
BRANCH  37  38
ATOM     38  C   UNL A   1      33.416  35.221  31.137  1.00  0.00     0.261 C 
BRANCH  38  39
ATOM     39  O   UNL A   1      34.658  34.627  31.526  1.00  0.00    -0.460 OA
BRANCH  39  40
ATOM     40  C   UNL A   1      34.635  33.342  31.957  1.00  0.00     0.338 C 
ATOM     41  O   UNL A   1      34.144  32.378  31.391  1.00  0.00    -0.246 OA
BRANCH  40  42
ATOM     42  C   UNL A   1      35.594  33.275  33.082  1.00  0.00     0.060 A 
ATOM     43  C   UNL A   1      36.053  34.443  33.701  1.00  0.00     0.016 A 
ATOM     44  C   UNL A   1      36.262  32.057  33.264  1.00  0.00     0.016 A 
ATOM     45  C   UNL A   1      37.272  34.404  34.376  1.00  0.00     0.010 A 
ATOM     46  C   UNL A   1      37.485  32.027  33.936  1.00  0.00     0.010 A 
ATOM     47  C   UNL A   1      38.020  33.211  34.446  1.00  0.00    -0.014 A 
BRANCH  47  48
ATOM     48  C   UNL A   1      39.218  33.219  35.298  1.00  0.00     0.031 A 
ATOM     49  C   UNL A   1      38.869  33.307  36.742  1.00  0.00     0.074 A 
ATOM     50  C   UNL A   1      40.505  32.984  34.969  1.00  0.00     0.049 A 
ATOM     51  N   UNL A   1      39.184  34.221  37.600  1.00  0.00    -0.248 NA
ATOM     52  C   UNL A   1      37.919  32.298  37.234  1.00  0.00     0.031 C 
ATOM     53  C   UNL A   1      41.043  32.503  33.698  1.00  0.00     0.029 A 
ATOM     54  N   UNL A   1      41.611  33.024  35.781  1.00  0.00    -0.354 N 
ATOM     55  C   UNL A   1      38.588  33.821  38.793  1.00  0.00     0.074 A 
ATOM     56  C   UNL A   1      37.687  32.744  38.463  1.00  0.00     0.031 C 
ATOM     57  C   UNL A   1      42.317  32.086  33.889  1.00  0.00     0.029 A 
ATOM     58  C   UNL A   1      42.720  32.372  35.260  1.00  0.00     0.049 A 
ATOM     59  H   UNL A   1      41.616  33.474  36.657  1.00  0.00     0.167 HD
ATOM     60  C   UNL A   1      39.003  34.256  40.013  1.00  0.00     0.034 A 
ATOM     61  C   UNL A   1      43.842  32.004  35.930  1.00  0.00     0.034 A 
ATOM     62  C   UNL A   1      39.811  35.439  39.923  1.00  0.00     0.049 A 
ATOM     63  C   UNL A   1      43.922  32.749  37.208  1.00  0.00     0.074 A 
ATOM     64  C   UNL A   1      39.610  36.719  39.445  1.00  0.00     0.029 A 
ATOM     65  N   UNL A   1      41.166  35.309  40.091  1.00  0.00    -0.354 N 
ATOM     66  N   UNL A   1      44.229  34.008  37.325  1.00  0.00    -0.248 NA
ATOM     67  C   UNL A   1      43.339  32.139  38.393  1.00  0.00     0.031 C 
ATOM     68  C   UNL A   1      40.874  37.137  38.940  1.00  0.00     0.029 A 
ATOM     69  C   UNL A   1      41.776  36.091  39.143  1.00  0.00     0.049 A 
ATOM     70  H   UNL A   1      41.618  34.756  40.768  1.00  0.00     0.167 HD
ATOM     71  C   UNL A   1      43.473  34.450  38.398  1.00  0.00     0.074 A 
ATOM     72  C   UNL A   1      43.078  33.237  39.103  1.00  0.00     0.031 C 
ATOM     73  C   UNL A   1      42.998  35.730  38.449  1.00  0.00     0.034 A 
BRANCH  60  74
ATOM     74  C   UNL A   1      38.894  33.408  41.255  1.00  0.00     0.023 A 
ATOM     75  C   UNL A   1      39.993  32.700  41.784  1.00  0.00     0.031 A 
ATOM     76  C   UNL A   1      37.741  33.435  42.059  1.00  0.00     0.131 A 
ATOM     77  C   UNL A   1      39.915  32.003  42.993  1.00  0.00     0.055 A 
ATOM     78  C   UNL A   1      37.688  32.808  43.312  1.00  0.00     0.041 A 
ATOM     79  F   UNL A   1      36.650  34.116  41.676  1.00  0.00    -0.206 F 
ATOM     80  C   UNL A   1      38.773  32.074  43.780  1.00  0.00     0.022 A 
BRANCH  77  81
ATOM     81  S   UNL A   1      41.306  30.975  43.539  1.00  0.00     0.124 S 
ATOM     82  O   UNL A   1      42.144  31.950  44.226  1.00  0.00    -0.237 OA
ATOM     83  O   UNL A   1      40.638  29.996  44.392  1.00  0.00    -0.237 OA
ATOM     84  O   UNL A   1      41.844  30.439  42.291  1.00  0.00    -0.744 OA
ENDBRANCH  77  81
ENDBRANCH  60  74
BRANCH  61  85
ATOM     85  C   UNL A   1      44.677  30.799  35.704  1.00  0.00     0.023 A 
ATOM     86  C   UNL A   1      44.226  29.545  36.149  1.00  0.00     0.031 A 
ATOM     87  C   UNL A   1      46.031  30.898  35.333  1.00  0.00     0.131 A 
ATOM     88  C   UNL A   1      45.107  28.462  36.255  1.00  0.00     0.055 A 
ATOM     89  C   UNL A   1      46.910  29.812  35.431  1.00  0.00     0.041 A 
ATOM     90  F   UNL A   1      46.546  32.070  34.929  1.00  0.00    -0.206 F 
ATOM     91  C   UNL A   1      46.451  28.587  35.905  1.00  0.00     0.022 A 
BRANCH  88  92
ATOM     92  S   UNL A   1      44.509  26.882  36.913  1.00  0.00     0.124 S 
ATOM     93  O   UNL A   1      43.440  27.300  37.817  1.00  0.00    -0.237 OA
ATOM     94  O   UNL A   1      44.075  26.201  35.699  1.00  0.00    -0.237 OA
ATOM     95  O   UNL A   1      45.687  26.325  37.570  1.00  0.00    -0.744 OA
ENDBRANCH  88  92
ENDBRANCH  61  85
BRANCH  73  96
ATOM     96  C   UNL A   1      43.581  36.765  37.508  1.00  0.00     0.023 A 
ATOM     97  C   UNL A   1      44.411  37.758  38.063  1.00  0.00     0.031 A 
ATOM     98  C   UNL A   1      43.219  36.910  36.154  1.00  0.00     0.131 A 
ATOM     99  C   UNL A   1      44.839  38.844  37.286  1.00  0.00     0.055 A 
ATOM    100  C   UNL A   1      43.720  37.947  35.360  1.00  0.00     0.041 A 
ATOM    101  F   UNL A   1      42.307  36.115  35.577  1.00  0.00    -0.206 F 
ATOM    102  C   UNL A   1      44.523  38.927  35.928  1.00  0.00     0.022 A 
BRANCH  99 103
ATOM    103  S   UNL A   1      45.672  40.257  38.054  1.00  0.00     0.124 S 
ATOM    104  O   UNL A   1      47.051  40.086  37.605  1.00  0.00    -0.237 OA
ATOM    105  O   UNL A   1      44.959  41.392  37.469  1.00  0.00    -0.237 OA
ATOM    106  O   UNL A   1      45.448  40.066  39.484  1.00  0.00    -0.744 OA
ENDBRANCH  99 103
ENDBRANCH  73  96
ENDBRANCH  47  48
ENDBRANCH  40  42
ENDBRANCH  39  40
ENDBRANCH  38  39
ENDBRANCH  37  38
ENDBRANCH  36  37
ENDBRANCH  35  36
ENDBRANCH  34  35
ENDBRANCH  33  34
ENDBRANCH   1  33
TORSDOF 28
ENDMDL
