MODEL 1
REMARK VINA RESULT:      -8.6      0.000      0.000
REMARK SMILES O=C(OCCOCCOCCOCCOC(=O)c1ccccc1-c1ccccc1C(=O)N1CC[NH+](Cc2ccc3c(c2)OCO3)CC1)c1ccc(-c2c3nc(c(-c4cc(S(=O)(=O)[O-])ccc4F)c4ccc([nH]4)c(-c4cc(S(=O)(=O)[O-])ccc4F)c4nc(c(-c5cc(S(=O)(=O)[O-])ccc5F)c5ccc2[nH]5)C=C4)C=C3)cc1
REMARK SMILES IDX 10 1 9 2 8 3 7 4 6 5 5 6 4 7 3 8 2 9 1 10 48 11 49 12 110 13
REMARK SMILES IDX 50 14 109 15 51 16 52 17 53 18 103 19 54 20 108 21 102 22
REMARK SMILES IDX 104 23 55 24 107 25 101 26 100 27 56 29 88 30 68 31 87 32
REMARK SMILES IDX 69 33 72 34 86 35 105 36 70 37 71 38 85 40 106 41 73 42
REMARK SMILES IDX 57 43 58 44 66 45 59 46 65 47 67 48 64 49 60 50 61 51 62 52
REMARK SMILES IDX 63 53 89 54 90 55 98 56 91 57 97 58 99 59 96 60 92 61 93 62
REMARK SMILES IDX 94 63 95 64 74 65 75 66 83 67 76 68 82 69 84 70 81 71 77 72
REMARK SMILES IDX 78 73 79 74 80 75 11 76 12 77 13 78 14 79 15 80 16 81 17 82
REMARK SMILES IDX 18 83 19 84 23 85 20 86 22 87 21 88 24 89 25 90 29 91 26 92
REMARK SMILES IDX 28 93 27 94 30 95 31 96 32 97 33 98 47 99 34 100 46 101
REMARK SMILES IDX 35 102 36 104 37 105 38 106 42 107 39 108 41 109 40 110
REMARK SMILES IDX 43 111 45 112 44 113
REMARK H PARENT 104 28 72 39 35 103
REMARK Flexibility Score: inf
ROOT
ATOM      1  C   UNL A   1      46.070  27.443  24.598  1.00  0.00     0.188 C 
ENDROOT
BRANCH   1   2
ATOM      2  O   UNL A   1      45.693  26.064  24.687  1.00  0.00    -0.377 OA
BRANCH   2   3
ATOM      3  C   UNL A   1      46.688  25.135  25.098  1.00  0.00     0.188 C 
BRANCH   3   4
ATOM      4  C   UNL A   1      46.228  23.688  25.130  1.00  0.00     0.188 C 
BRANCH   4   5
ATOM      5  O   UNL A   1      45.766  23.275  23.849  1.00  0.00    -0.376 OA
BRANCH   5   6
ATOM      6  C   UNL A   1      44.908  22.138  23.884  1.00  0.00     0.202 C 
BRANCH   6   7
ATOM      7  C   UNL A   1      45.187  21.271  25.110  1.00  0.00     0.261 C 
BRANCH   7   8
ATOM      8  O   UNL A   1      44.027  20.537  25.534  1.00  0.00    -0.460 OA
BRANCH   8   9
ATOM      9  C   UNL A   1      42.800  21.000  25.887  1.00  0.00     0.338 C 
ATOM     10  O   UNL A   1      41.841  20.260  25.654  1.00  0.00    -0.246 OA
BRANCH   9  11
ATOM     11  C   UNL A   1      42.503  22.338  26.525  1.00  0.00     0.060 A 
ATOM     12  C   UNL A   1      42.472  23.588  25.893  1.00  0.00     0.016 A 
ATOM     13  C   UNL A   1      42.230  22.315  27.909  1.00  0.00     0.016 A 
ATOM     14  C   UNL A   1      42.237  24.768  26.597  1.00  0.00     0.010 A 
ATOM     15  C   UNL A   1      42.037  23.494  28.637  1.00  0.00     0.010 A 
ATOM     16  C   UNL A   1      42.104  24.726  27.982  1.00  0.00    -0.014 A 
BRANCH  16  17
ATOM     17  C   UNL A   1      42.446  25.950  28.734  1.00  0.00     0.031 A 
ATOM     18  C   UNL A   1      43.905  26.148  29.048  1.00  0.00     0.074 A 
ATOM     19  C   UNL A   1      41.525  26.880  29.028  1.00  0.00     0.049 A 
ATOM     20  N   UNL A   1      44.496  27.091  29.728  1.00  0.00    -0.248 NA
ATOM     21  C   UNL A   1      44.826  25.138  28.496  1.00  0.00     0.031 C 
ATOM     22  C   UNL A   1      40.117  26.825  28.640  1.00  0.00     0.029 A 
ATOM     23  N   UNL A   1      41.644  28.057  29.717  1.00  0.00    -0.354 N 
ATOM     24  C   UNL A   1      45.854  26.786  29.684  1.00  0.00     0.074 A 
ATOM     25  C   UNL A   1      45.998  25.570  28.921  1.00  0.00     0.031 C 
ATOM     26  C   UNL A   1      39.494  27.918  29.117  1.00  0.00     0.029 A 
ATOM     27  C   UNL A   1      40.450  28.717  29.884  1.00  0.00     0.049 A 
ATOM     28  H   UNL A   1      42.501  28.397  30.061  1.00  0.00     0.167 HD
ATOM     29  C   UNL A   1      46.887  27.454  30.248  1.00  0.00     0.034 A 
ATOM     30  C   UNL A   1      40.171  29.815  30.616  1.00  0.00     0.034 A 
ATOM     31  C   UNL A   1      46.690  28.610  31.081  1.00  0.00     0.049 A 
ATOM     32  C   UNL A   1      41.310  30.470  31.363  1.00  0.00     0.074 A 
ATOM     33  C   UNL A   1      47.608  29.307  31.841  1.00  0.00     0.029 A 
ATOM     34  N   UNL A   1      45.456  29.223  31.281  1.00  0.00    -0.354 N 
ATOM     35  N   UNL A   1      42.583  30.133  31.388  1.00  0.00    -0.248 NA
ATOM     36  C   UNL A   1      40.982  31.639  32.184  1.00  0.00     0.031 C 
ATOM     37  C   UNL A   1      46.918  30.304  32.544  1.00  0.00     0.029 A 
ATOM     38  C   UNL A   1      45.583  30.275  32.167  1.00  0.00     0.049 A 
ATOM     39  H   UNL A   1      44.614  28.945  30.851  1.00  0.00     0.167 HD
ATOM     40  C   UNL A   1      43.208  31.061  32.214  1.00  0.00     0.074 A 
ATOM     41  C   UNL A   1      42.175  31.977  32.658  1.00  0.00     0.031 C 
ATOM     42  C   UNL A   1      44.514  31.157  32.580  1.00  0.00     0.034 A 
BRANCH  29  43
ATOM     43  C   UNL A   1      48.254  26.839  30.071  1.00  0.00     0.023 A 
ATOM     44  C   UNL A   1      49.013  27.057  28.904  1.00  0.00     0.031 A 
ATOM     45  C   UNL A   1      48.725  25.889  30.993  1.00  0.00     0.131 A 
ATOM     46  C   UNL A   1      50.138  26.258  28.642  1.00  0.00     0.055 A 
ATOM     47  C   UNL A   1      49.895  25.160  30.767  1.00  0.00     0.041 A 
ATOM     48  F   UNL A   1      48.026  25.611  32.104  1.00  0.00    -0.206 F 
ATOM     49  C   UNL A   1      50.595  25.325  29.575  1.00  0.00     0.022 A 
BRANCH  46  50
ATOM     50  S   UNL A   1      50.871  26.307  26.979  1.00  0.00     0.124 S 
ATOM     51  O   UNL A   1      51.567  25.022  26.924  1.00  0.00    -0.237 OA
ATOM     52  O   UNL A   1      49.699  26.436  26.121  1.00  0.00    -0.237 OA
ATOM     53  O   UNL A   1      51.744  27.477  27.023  1.00  0.00    -0.744 OA
ENDBRANCH  46  50
ENDBRANCH  29  43
BRANCH  30  54
ATOM     54  C   UNL A   1      38.765  30.301  30.745  1.00  0.00     0.023 A 
ATOM     55  C   UNL A   1      38.283  31.384  29.993  1.00  0.00     0.031 A 
ATOM     56  C   UNL A   1      37.880  29.690  31.655  1.00  0.00     0.131 A 
ATOM     57  C   UNL A   1      36.963  31.833  30.176  1.00  0.00     0.055 A 
ATOM     58  C   UNL A   1      36.557  30.110  31.800  1.00  0.00     0.041 A 
ATOM     59  F   UNL A   1      38.287  28.654  32.407  1.00  0.00    -0.206 F 
ATOM     60  C   UNL A   1      36.094  31.195  31.064  1.00  0.00     0.022 A 
BRANCH  57  61
ATOM     61  S   UNL A   1      36.404  33.306  29.275  1.00  0.00     0.124 S 
ATOM     62  O   UNL A   1      36.070  32.748  27.968  1.00  0.00    -0.237 OA
ATOM     63  O   UNL A   1      35.279  33.752  30.091  1.00  0.00    -0.237 OA
ATOM     64  O   UNL A   1      37.572  34.184  29.297  1.00  0.00    -0.744 OA
ENDBRANCH  57  61
ENDBRANCH  30  54
BRANCH  42  65
ATOM     65  C   UNL A   1      44.889  32.315  33.462  1.00  0.00     0.023 A 
ATOM     66  C   UNL A   1      44.781  32.242  34.860  1.00  0.00     0.031 A 
ATOM     67  C   UNL A   1      45.393  33.495  32.889  1.00  0.00     0.131 A 
ATOM     68  C   UNL A   1      45.139  33.350  35.641  1.00  0.00     0.055 A 
ATOM     69  C   UNL A   1      45.793  34.576  33.672  1.00  0.00     0.041 A 
ATOM     70  F   UNL A   1      45.519  33.607  31.557  1.00  0.00    -0.206 F 
ATOM     71  C   UNL A   1      45.658  34.509  35.058  1.00  0.00     0.022 A 
BRANCH  68  72
ATOM     72  S   UNL A   1      44.868  33.277  37.431  1.00  0.00     0.124 S 
ATOM     73  O   UNL A   1      45.990  32.454  37.875  1.00  0.00    -0.237 OA
ATOM     74  O   UNL A   1      44.918  34.683  37.814  1.00  0.00    -0.237 OA
ATOM     75  O   UNL A   1      43.554  32.649  37.553  1.00  0.00    -0.744 OA
ENDBRANCH  68  72
ENDBRANCH  42  65
ENDBRANCH  16  17
ENDBRANCH   9  11
ENDBRANCH   8   9
ENDBRANCH   7   8
ENDBRANCH   6   7
ENDBRANCH   5   6
ENDBRANCH   4   5
ENDBRANCH   3   4
ENDBRANCH   2   3
ENDBRANCH   1   2
BRANCH   1  76
ATOM     76  C   UNL A   1      45.962  28.342  25.838  1.00  0.00     0.188 C 
BRANCH  76  77
ATOM     77  O   UNL A   1      46.428  29.682  25.696  1.00  0.00    -0.376 OA
BRANCH  77  78
ATOM     78  C   UNL A   1      46.256  30.539  26.816  1.00  0.00     0.202 C 
BRANCH  78  79
ATOM     79  C   UNL A   1      46.441  32.044  26.474  1.00  0.00     0.261 C 
BRANCH  79  80
ATOM     80  O   UNL A   1      45.408  32.811  25.795  1.00  0.00    -0.460 OA
BRANCH  80  81
ATOM     81  C   UNL A   1      45.470  34.139  25.955  1.00  0.00     0.338 C 
ATOM     82  O   UNL A   1      44.783  34.939  25.336  1.00  0.00    -0.246 OA
BRANCH  81  83
ATOM     83  C   UNL A   1      46.517  34.664  26.845  1.00  0.00     0.067 A 
ATOM     84  C   UNL A   1      47.840  34.757  26.402  1.00  0.00     0.016 A 
ATOM     85  C   UNL A   1      46.209  34.791  28.215  1.00  0.00    -0.003 A 
ATOM     86  C   UNL A   1      48.864  35.002  27.317  1.00  0.00     0.001 A 
ATOM     87  C   UNL A   1      47.249  35.064  29.117  1.00  0.00     0.009 A 
ATOM     88  C   UNL A   1      48.570  35.157  28.672  1.00  0.00     0.001 A 
BRANCH  85  89
ATOM     89  C   UNL A   1      44.806  34.805  28.639  1.00  0.00    -0.005 A 
ATOM     90  C   UNL A   1      44.210  33.514  28.685  1.00  0.00     0.009 A 
ATOM     91  C   UNL A   1      44.107  35.907  29.178  1.00  0.00     0.047 A 
ATOM     92  C   UNL A   1      42.996  33.284  29.319  1.00  0.00     0.001 A 
ATOM     93  C   UNL A   1      42.874  35.637  29.822  1.00  0.00     0.014 A 
ATOM     94  C   UNL A   1      42.336  34.347  29.910  1.00  0.00     0.001 A 
BRANCH  91  95
ATOM     95  C   UNL A   1      44.542  37.361  29.243  1.00  0.00     0.254 C 
ATOM     96  O   UNL A   1      45.281  37.716  30.164  1.00  0.00    -0.269 OA
ATOM     97  N   UNL A   1      44.178  38.265  28.247  1.00  0.00    -0.327 N 
ATOM     98  C   UNL A   1      45.284  39.010  27.642  1.00  0.00     0.181 C 
ATOM     99  C   UNL A   1      43.033  39.140  28.453  1.00  0.00     0.181 C 
ATOM    100  C   UNL A   1      44.863  39.552  26.260  1.00  0.00     0.284 C 
ATOM    101  C   UNL A   1      42.650  39.977  27.195  1.00  0.00     0.284 C 
ATOM    102  N   UNL A   1      43.710  40.467  26.297  1.00  0.00    -0.328 N 
ATOM    103  H   UNL A   1      43.274  40.438  25.375  1.00  0.00     0.348 HD
BRANCH 102 104
ATOM    104  C   UNL A   1      44.043  41.899  26.339  1.00  0.00     0.299 C 
BRANCH 104 105
ATOM    105  C   UNL A   1      43.621  42.681  25.115  1.00  0.00     0.010 A 
ATOM    106  C   UNL A   1      44.315  43.856  24.755  1.00  0.00     0.013 A 
ATOM    107  C   UNL A   1      42.716  42.092  24.211  1.00  0.00     0.060 A 
ATOM    108  C   UNL A   1      44.238  44.351  23.449  1.00  0.00     0.051 A 
ATOM    109  C   UNL A   1      42.728  42.553  22.916  1.00  0.00     0.166 A 
ATOM    110  C   UNL A   1      43.487  43.637  22.540  1.00  0.00     0.165 A 
ATOM    111  O   UNL A   1      42.158  41.923  21.854  1.00  0.00    -0.454 OA
ATOM    112  O   UNL A   1      43.482  43.816  21.191  1.00  0.00    -0.454 OA
ATOM    113  C   UNL A   1      42.845  42.587  20.772  1.00  0.00     0.468 C 
ENDBRANCH 104 105
ENDBRANCH 102 104
ENDBRANCH  91  95
ENDBRANCH  85  89
ENDBRANCH  81  83
ENDBRANCH  80  81
ENDBRANCH  79  80
ENDBRANCH  78  79
ENDBRANCH  77  78
ENDBRANCH  76  77
ENDBRANCH   1  76
TORSDOF 27
ENDMDL
MODEL 2
REMARK VINA RESULT:      -8.1      5.421     12.611
REMARK SMILES O=C(OCCOCCOCCOCCOC(=O)c1ccccc1-c1ccccc1C(=O)N1CC[NH+](Cc2ccc3c(c2)OCO3)CC1)c1ccc(-c2c3nc(c(-c4cc(S(=O)(=O)[O-])ccc4F)c4ccc([nH]4)c(-c4cc(S(=O)(=O)[O-])ccc4F)c4nc(c(-c5cc(S(=O)(=O)[O-])ccc5F)c5ccc2[nH]5)C=C4)C=C3)cc1
REMARK SMILES IDX 10 1 9 2 8 3 7 4 6 5 5 6 4 7 3 8 2 9 1 10 48 11 49 12 110 13
REMARK SMILES IDX 50 14 109 15 51 16 52 17 53 18 103 19 54 20 108 21 102 22
REMARK SMILES IDX 104 23 55 24 107 25 101 26 100 27 56 29 88 30 68 31 87 32
REMARK SMILES IDX 69 33 72 34 86 35 105 36 70 37 71 38 85 40 106 41 73 42
REMARK SMILES IDX 57 43 58 44 66 45 59 46 65 47 67 48 64 49 60 50 61 51 62 52
REMARK SMILES IDX 63 53 89 54 90 55 98 56 91 57 97 58 99 59 96 60 92 61 93 62
REMARK SMILES IDX 94 63 95 64 74 65 75 66 83 67 76 68 82 69 84 70 81 71 77 72
REMARK SMILES IDX 78 73 79 74 80 75 11 76 12 77 13 78 14 79 15 80 16 81 17 82
REMARK SMILES IDX 18 83 19 84 23 85 20 86 22 87 21 88 24 89 25 90 29 91 26 92
REMARK SMILES IDX 28 93 27 94 30 95 31 96 32 97 33 98 47 99 34 100 46 101
REMARK SMILES IDX 35 102 36 104 37 105 38 106 42 107 39 108 41 109 40 110
REMARK SMILES IDX 43 111 45 112 44 113
REMARK H PARENT 104 28 72 39 35 103
REMARK Flexibility Score: inf
ROOT
ATOM      1  C   UNL A   1      36.188  30.036  27.288  1.00  0.00     0.188 C 
ENDROOT
BRANCH   1   2
ATOM      2  O   UNL A   1      36.976  29.087  28.015  1.00  0.00    -0.377 OA
BRANCH   2   3
ATOM      3  C   UNL A   1      37.396  29.446  29.325  1.00  0.00     0.188 C 
BRANCH   3   4
ATOM      4  C   UNL A   1      38.789  28.970  29.696  1.00  0.00     0.188 C 
BRANCH   4   5
ATOM      5  O   UNL A   1      39.371  28.229  28.629  1.00  0.00    -0.376 OA
BRANCH   5   6
ATOM      6  C   UNL A   1      39.397  26.821  28.852  1.00  0.00     0.202 C 
BRANCH   6   7
ATOM      7  C   UNL A   1      40.823  26.323  29.076  1.00  0.00     0.261 C 
BRANCH   7   8
ATOM      8  O   UNL A   1      41.503  26.041  27.842  1.00  0.00    -0.460 OA
BRANCH   8   9
ATOM      9  C   UNL A   1      42.500  26.733  27.234  1.00  0.00     0.338 C 
ATOM     10  O   UNL A   1      43.027  26.200  26.254  1.00  0.00    -0.246 OA
BRANCH   9  11
ATOM     11  C   UNL A   1      43.030  28.085  27.655  1.00  0.00     0.060 A 
ATOM     12  C   UNL A   1      44.059  28.342  28.569  1.00  0.00     0.016 A 
ATOM     13  C   UNL A   1      42.413  29.203  27.056  1.00  0.00     0.016 A 
ATOM     14  C   UNL A   1      44.430  29.640  28.921  1.00  0.00     0.010 A 
ATOM     15  C   UNL A   1      42.742  30.510  27.431  1.00  0.00     0.010 A 
ATOM     16  C   UNL A   1      43.712  30.720  28.414  1.00  0.00    -0.014 A 
BRANCH  16  17
ATOM     17  C   UNL A   1      43.709  31.965  29.207  1.00  0.00     0.031 A 
ATOM     18  C   UNL A   1      44.670  33.036  28.762  1.00  0.00     0.074 A 
ATOM     19  C   UNL A   1      42.832  32.169  30.200  1.00  0.00     0.049 A 
ATOM     20  N   UNL A   1      44.925  34.203  29.284  1.00  0.00    -0.248 NA
ATOM     21  C   UNL A   1      45.438  32.743  27.539  1.00  0.00     0.031 C 
ATOM     22  C   UNL A   1      41.782  31.236  30.605  1.00  0.00     0.029 A 
ATOM     23  N   UNL A   1      42.683  33.236  31.046  1.00  0.00    -0.354 N 
ATOM     24  C   UNL A   1      45.881  34.781  28.453  1.00  0.00     0.074 A 
ATOM     25  C   UNL A   1      46.166  33.835  27.401  1.00  0.00     0.031 C 
ATOM     26  C   UNL A   1      41.104  31.767  31.638  1.00  0.00     0.029 A 
ATOM     27  C   UNL A   1      41.709  33.050  31.997  1.00  0.00     0.049 A 
ATOM     28  H   UNL A   1      43.222  34.057  30.978  1.00  0.00     0.167 HD
ATOM     29  C   UNL A   1      46.482  35.988  28.570  1.00  0.00     0.034 A 
ATOM     30  C   UNL A   1      41.387  33.817  33.059  1.00  0.00     0.034 A 
ATOM     31  C   UNL A   1      46.239  36.861  29.687  1.00  0.00     0.049 A 
ATOM     32  C   UNL A   1      42.167  35.097  33.263  1.00  0.00     0.074 A 
ATOM     33  C   UNL A   1      46.870  38.041  30.029  1.00  0.00     0.029 A 
ATOM     34  N   UNL A   1      45.285  36.616  30.671  1.00  0.00    -0.354 N 
ATOM     35  N   UNL A   1      43.128  35.604  32.521  1.00  0.00    -0.248 NA
ATOM     36  C   UNL A   1      41.830  35.899  34.443  1.00  0.00     0.031 C 
ATOM     37  C   UNL A   1      46.337  38.476  31.249  1.00  0.00     0.029 A 
ATOM     38  C   UNL A   1      45.324  37.608  31.632  1.00  0.00     0.049 A 
ATOM     39  H   UNL A   1      44.671  35.846  30.681  1.00  0.00     0.167 HD
ATOM     40  C   UNL A   1      43.500  36.795  33.138  1.00  0.00     0.074 A 
ATOM     41  C   UNL A   1      42.649  36.934  34.305  1.00  0.00     0.031 C 
ATOM     42  C   UNL A   1      44.453  37.697  32.782  1.00  0.00     0.034 A 
BRANCH  29  43
ATOM     43  C   UNL A   1      47.530  36.314  27.534  1.00  0.00     0.023 A 
ATOM     44  C   UNL A   1      48.881  35.960  27.718  1.00  0.00     0.031 A 
ATOM     45  C   UNL A   1      47.210  37.138  26.441  1.00  0.00     0.131 A 
ATOM     46  C   UNL A   1      49.869  36.516  26.889  1.00  0.00     0.055 A 
ATOM     47  C   UNL A   1      48.190  37.616  25.568  1.00  0.00     0.041 A 
ATOM     48  F   UNL A   1      45.946  37.541  26.237  1.00  0.00    -0.206 F 
ATOM     49  C   UNL A   1      49.530  37.325  25.803  1.00  0.00     0.022 A 
BRANCH  46  50
ATOM     50  S   UNL A   1      51.612  36.338  27.375  1.00  0.00     0.124 S 
ATOM     51  O   UNL A   1      51.569  35.129  28.197  1.00  0.00    -0.237 OA
ATOM     52  O   UNL A   1      52.287  36.211  26.088  1.00  0.00    -0.237 OA
ATOM     53  O   UNL A   1      51.893  37.569  28.108  1.00  0.00    -0.744 OA
ENDBRANCH  46  50
ENDBRANCH  29  43
BRANCH  30  54
ATOM     54  C   UNL A   1      40.356  33.363  34.037  1.00  0.00     0.023 A 
ATOM     55  C   UNL A   1      38.992  33.648  33.864  1.00  0.00     0.031 A 
ATOM     56  C   UNL A   1      40.733  32.642  35.188  1.00  0.00     0.131 A 
ATOM     57  C   UNL A   1      38.060  33.232  34.832  1.00  0.00     0.055 A 
ATOM     58  C   UNL A   1      39.800  32.193  36.123  1.00  0.00     0.041 A 
ATOM     59  F   UNL A   1      42.024  32.346  35.411  1.00  0.00    -0.206 F 
ATOM     60  C   UNL A   1      38.453  32.496  35.952  1.00  0.00     0.022 A 
BRANCH  57  61
ATOM     61  S   UNL A   1      36.321  33.715  34.641  1.00  0.00     0.124 S 
ATOM     62  O   UNL A   1      36.439  34.977  33.919  1.00  0.00    -0.237 OA
ATOM     63  O   UNL A   1      35.776  32.591  33.887  1.00  0.00    -0.237 OA
ATOM     64  O   UNL A   1      35.844  33.827  36.018  1.00  0.00    -0.744 OA
ENDBRANCH  57  61
ENDBRANCH  30  54
BRANCH  42  65
ATOM     65  C   UNL A   1      44.582  38.922  33.643  1.00  0.00     0.023 A 
ATOM     66  C   UNL A   1      43.675  39.989  33.549  1.00  0.00     0.031 A 
ATOM     67  C   UNL A   1      45.613  39.000  34.595  1.00  0.00     0.131 A 
ATOM     68  C   UNL A   1      43.838  41.112  34.371  1.00  0.00     0.055 A 
ATOM     69  C   UNL A   1      45.742  40.099  35.443  1.00  0.00     0.041 A 
ATOM     70  F   UNL A   1      46.500  38.001  34.725  1.00  0.00    -0.206 F 
ATOM     71  C   UNL A   1      44.856  41.167  35.328  1.00  0.00     0.022 A 
BRANCH  68  72
ATOM     72  S   UNL A   1      42.732  42.529  34.139  1.00  0.00     0.124 S 
ATOM     73  O   UNL A   1      43.606  43.489  33.469  1.00  0.00    -0.237 OA
ATOM     74  O   UNL A   1      41.664  41.963  33.323  1.00  0.00    -0.237 OA
ATOM     75  O   UNL A   1      42.346  42.889  35.502  1.00  0.00    -0.744 OA
ENDBRANCH  68  72
ENDBRANCH  42  65
ENDBRANCH  16  17
ENDBRANCH   9  11
ENDBRANCH   8   9
ENDBRANCH   7   8
ENDBRANCH   6   7
ENDBRANCH   5   6
ENDBRANCH   4   5
ENDBRANCH   3   4
ENDBRANCH   2   3
ENDBRANCH   1   2
BRANCH   1  76
ATOM     76  C   UNL A   1      34.761  30.358  27.756  1.00  0.00     0.188 C 
BRANCH  76  77
ATOM     77  O   UNL A   1      33.800  29.312  27.636  1.00  0.00    -0.376 OA
BRANCH  77  78
ATOM     78  C   UNL A   1      34.089  28.285  26.697  1.00  0.00     0.202 C 
BRANCH  78  79
ATOM     79  C   UNL A   1      32.821  27.548  26.183  1.00  0.00     0.261 C 
BRANCH  79  80
ATOM     80  O   UNL A   1      32.907  26.402  25.290  1.00  0.00    -0.460 OA
BRANCH  80  81
ATOM     81  C   UNL A   1      31.764  26.044  24.691  1.00  0.00     0.338 C 
ATOM     82  O   UNL A   1      31.282  26.623  23.728  1.00  0.00    -0.246 OA
BRANCH  81  83
ATOM     83  C   UNL A   1      30.987  24.961  25.312  1.00  0.00     0.067 A 
ATOM     84  C   UNL A   1      30.018  25.250  26.278  1.00  0.00     0.016 A 
ATOM     85  C   UNL A   1      31.439  23.640  25.124  1.00  0.00    -0.003 A 
ATOM     86  C   UNL A   1      29.475  24.221  27.047  1.00  0.00     0.001 A 
ATOM     87  C   UNL A   1      30.861  22.614  25.888  1.00  0.00     0.009 A 
ATOM     88  C   UNL A   1      29.894  22.905  26.853  1.00  0.00     0.001 A 
BRANCH  85  89
ATOM     89  C   UNL A   1      32.369  23.346  24.029  1.00  0.00    -0.005 A 
ATOM     90  C   UNL A   1      31.831  23.607  22.737  1.00  0.00     0.009 A 
ATOM     91  C   UNL A   1      33.743  23.049  24.156  1.00  0.00     0.047 A 
ATOM     92  C   UNL A   1      32.630  23.661  21.602  1.00  0.00     0.001 A 
ATOM     93  C   UNL A   1      34.530  23.117  22.980  1.00  0.00     0.014 A 
ATOM     94  C   UNL A   1      33.989  23.437  21.729  1.00  0.00     0.001 A 
BRANCH  91  95
ATOM     95  C   UNL A   1      34.530  22.744  25.419  1.00  0.00     0.254 C 
ATOM     96  O   UNL A   1      33.912  22.404  26.432  1.00  0.00    -0.269 OA
ATOM     97  N   UNL A   1      35.923  22.774  25.423  1.00  0.00    -0.327 N 
ATOM     98  C   UNL A   1      36.574  21.565  25.934  1.00  0.00     0.181 C 
ATOM     99  C   UNL A   1      36.616  23.961  25.903  1.00  0.00     0.181 C 
ATOM    100  C   UNL A   1      38.027  21.491  25.419  1.00  0.00     0.284 C 
ATOM    101  C   UNL A   1      38.161  23.911  25.696  1.00  0.00     0.284 C 
ATOM    102  N   UNL A   1      38.870  22.627  25.826  1.00  0.00    -0.328 N 
ATOM    103  H   UNL A   1      39.624  22.700  25.144  1.00  0.00     0.348 HD
BRANCH 102 104
ATOM    104  C   UNL A   1      39.684  22.408  27.033  1.00  0.00     0.299 C 
BRANCH 104 105
ATOM    105  C   UNL A   1      41.061  21.840  26.769  1.00  0.00     0.010 A 
ATOM    106  C   UNL A   1      41.220  20.458  26.529  1.00  0.00     0.013 A 
ATOM    107  C   UNL A   1      42.124  22.727  26.513  1.00  0.00     0.060 A 
ATOM    108  C   UNL A   1      42.365  19.979  25.885  1.00  0.00     0.051 A 
ATOM    109  C   UNL A   1      43.197  22.238  25.807  1.00  0.00     0.166 A 
ATOM    110  C   UNL A   1      43.303  20.906  25.480  1.00  0.00     0.165 A 
ATOM    111  O   UNL A   1      44.158  22.997  25.215  1.00  0.00    -0.454 OA
ATOM    112  O   UNL A   1      44.348  20.671  24.641  1.00  0.00    -0.454 OA
ATOM    113  C   UNL A   1      44.712  22.029  24.300  1.00  0.00     0.468 C 
ENDBRANCH 104 105
ENDBRANCH 102 104
ENDBRANCH  91  95
ENDBRANCH  85  89
ENDBRANCH  81  83
ENDBRANCH  80  81
ENDBRANCH  79  80
ENDBRANCH  78  79
ENDBRANCH  77  78
ENDBRANCH  76  77
ENDBRANCH   1  76
TORSDOF 27
ENDMDL
MODEL 3
REMARK VINA RESULT:      -8.0      3.486      8.001
REMARK SMILES O=C(OCCOCCOCCOCCOC(=O)c1ccccc1-c1ccccc1C(=O)N1CC[NH+](Cc2ccc3c(c2)OCO3)CC1)c1ccc(-c2c3nc(c(-c4cc(S(=O)(=O)[O-])ccc4F)c4ccc([nH]4)c(-c4cc(S(=O)(=O)[O-])ccc4F)c4nc(c(-c5cc(S(=O)(=O)[O-])ccc5F)c5ccc2[nH]5)C=C4)C=C3)cc1
REMARK SMILES IDX 10 1 9 2 8 3 7 4 6 5 5 6 4 7 3 8 2 9 1 10 48 11 49 12 110 13
REMARK SMILES IDX 50 14 109 15 51 16 52 17 53 18 103 19 54 20 108 21 102 22
REMARK SMILES IDX 104 23 55 24 107 25 101 26 100 27 56 29 88 30 68 31 87 32
REMARK SMILES IDX 69 33 72 34 86 35 105 36 70 37 71 38 85 40 106 41 73 42
REMARK SMILES IDX 57 43 58 44 66 45 59 46 65 47 67 48 64 49 60 50 61 51 62 52
REMARK SMILES IDX 63 53 89 54 90 55 98 56 91 57 97 58 99 59 96 60 92 61 93 62
REMARK SMILES IDX 94 63 95 64 74 65 75 66 83 67 76 68 82 69 84 70 81 71 77 72
REMARK SMILES IDX 78 73 79 74 80 75 11 76 12 77 13 78 14 79 15 80 16 81 17 82
REMARK SMILES IDX 18 83 19 84 23 85 20 86 22 87 21 88 24 89 25 90 29 91 26 92
REMARK SMILES IDX 28 93 27 94 30 95 31 96 32 97 33 98 47 99 34 100 46 101
REMARK SMILES IDX 35 102 36 104 37 105 38 106 42 107 39 108 41 109 40 110
REMARK SMILES IDX 43 111 45 112 44 113
REMARK H PARENT 104 28 72 39 35 103
REMARK Flexibility Score: inf
ROOT
ATOM      1  C   UNL A   1      49.026  33.850  32.856  1.00  0.00     0.188 C 
ENDROOT
BRANCH   1   2
ATOM      2  O   UNL A   1      48.045  33.241  33.702  1.00  0.00    -0.377 OA
BRANCH   2   3
ATOM      3  C   UNL A   1      48.496  32.273  34.641  1.00  0.00     0.188 C 
BRANCH   3   4
ATOM      4  C   UNL A   1      49.780  32.642  35.362  1.00  0.00     0.188 C 
BRANCH   4   5
ATOM      5  O   UNL A   1      50.199  31.589  36.222  1.00  0.00    -0.376 OA
BRANCH   5   6
ATOM      6  C   UNL A   1      49.195  30.606  36.463  1.00  0.00     0.202 C 
BRANCH   6   7
ATOM      7  C   UNL A   1      49.811  29.285  36.917  1.00  0.00     0.261 C 
BRANCH   7   8
ATOM      8  O   UNL A   1      49.039  28.150  36.496  1.00  0.00    -0.460 OA
BRANCH   8   9
ATOM      9  C   UNL A   1      47.701  27.938  36.595  1.00  0.00     0.338 C 
ATOM     10  O   UNL A   1      47.272  27.620  37.707  1.00  0.00    -0.246 OA
BRANCH   9  11
ATOM     11  C   UNL A   1      46.696  28.043  35.470  1.00  0.00     0.060 A 
ATOM     12  C   UNL A   1      46.675  28.994  34.442  1.00  0.00     0.016 A 
ATOM     13  C   UNL A   1      45.672  27.073  35.465  1.00  0.00     0.016 A 
ATOM     14  C   UNL A   1      45.663  29.026  33.484  1.00  0.00     0.010 A 
ATOM     15  C   UNL A   1      44.626  27.118  34.537  1.00  0.00     0.010 A 
ATOM     16  C   UNL A   1      44.595  28.139  33.584  1.00  0.00    -0.014 A 
BRANCH  16  17
ATOM     17  C   UNL A   1      43.314  28.547  32.974  1.00  0.00     0.031 A 
ATOM     18  C   UNL A   1      43.080  28.093  31.558  1.00  0.00     0.074 A 
ATOM     19  C   UNL A   1      42.372  29.195  33.675  1.00  0.00     0.049 A 
ATOM     20  N   UNL A   1      42.083  28.334  30.753  1.00  0.00    -0.248 NA
ATOM     21  C   UNL A   1      44.122  27.226  30.979  1.00  0.00     0.031 C 
ATOM     22  C   UNL A   1      42.468  29.553  35.089  1.00  0.00     0.029 A 
ATOM     23  N   UNL A   1      41.144  29.663  33.288  1.00  0.00    -0.354 N 
ATOM     24  C   UNL A   1      42.379  27.650  29.578  1.00  0.00     0.074 A 
ATOM     25  C   UNL A   1      43.650  26.993  29.770  1.00  0.00     0.031 C 
ATOM     26  C   UNL A   1      41.346  30.203  35.448  1.00  0.00     0.029 A 
ATOM     27  C   UNL A   1      40.483  30.351  34.276  1.00  0.00     0.049 A 
ATOM     28  H   UNL A   1      40.772  29.520  32.388  1.00  0.00     0.167 HD
ATOM     29  C   UNL A   1      41.661  27.592  28.431  1.00  0.00     0.034 A 
ATOM     30  C   UNL A   1      39.334  31.055  34.212  1.00  0.00     0.034 A 
ATOM     31  C   UNL A   1      40.446  28.340  28.248  1.00  0.00     0.049 A 
ATOM     32  C   UNL A   1      38.614  31.104  32.883  1.00  0.00     0.074 A 
ATOM     33  C   UNL A   1      39.685  28.506  27.108  1.00  0.00     0.029 A 
ATOM     34  N   UNL A   1      39.830  29.079  29.254  1.00  0.00    -0.354 N 
ATOM     35  N   UNL A   1      38.937  30.523  31.747  1.00  0.00    -0.248 NA
ATOM     36  C   UNL A   1      37.388  31.905  32.821  1.00  0.00     0.031 C 
ATOM     37  C   UNL A   1      38.643  29.392  27.411  1.00  0.00     0.029 A 
ATOM     38  C   UNL A   1      38.712  29.721  28.758  1.00  0.00     0.049 A 
ATOM     39  H   UNL A   1      40.147  29.136  30.185  1.00  0.00     0.167 HD
ATOM     40  C   UNL A   1      37.944  30.877  30.840  1.00  0.00     0.074 A 
ATOM     41  C   UNL A   1      37.005  31.711  31.566  1.00  0.00     0.031 C 
ATOM     42  C   UNL A   1      37.810  30.548  29.527  1.00  0.00     0.034 A 
BRANCH  29  43
ATOM     43  C   UNL A   1      42.277  26.807  27.299  1.00  0.00     0.023 A 
ATOM     44  C   UNL A   1      42.146  25.406  27.218  1.00  0.00     0.031 A 
ATOM     45  C   UNL A   1      43.147  27.438  26.394  1.00  0.00     0.131 A 
ATOM     46  C   UNL A   1      42.954  24.678  26.330  1.00  0.00     0.055 A 
ATOM     47  C   UNL A   1      43.882  26.714  25.452  1.00  0.00     0.041 A 
ATOM     48  F   UNL A   1      43.343  28.765  26.447  1.00  0.00    -0.206 F 
ATOM     49  C   UNL A   1      43.806  25.325  25.432  1.00  0.00     0.022 A 
BRANCH  46  50
ATOM     50  S   UNL A   1      43.030  22.871  26.506  1.00  0.00     0.124 S 
ATOM     51  O   UNL A   1      42.505  22.424  25.217  1.00  0.00    -0.237 OA
ATOM     52  O   UNL A   1      44.451  22.635  26.733  1.00  0.00    -0.237 OA
ATOM     53  O   UNL A   1      42.162  22.600  27.649  1.00  0.00    -0.744 OA
ENDBRANCH  46  50
ENDBRANCH  29  43
BRANCH  30  54
ATOM     54  C   UNL A   1      38.851  31.825  35.395  1.00  0.00     0.023 A 
ATOM     55  C   UNL A   1      38.245  31.195  36.493  1.00  0.00     0.031 A 
ATOM     56  C   UNL A   1      38.973  33.229  35.431  1.00  0.00     0.131 A 
ATOM     57  C   UNL A   1      37.770  31.965  37.570  1.00  0.00     0.055 A 
ATOM     58  C   UNL A   1      38.540  33.984  36.522  1.00  0.00     0.041 A 
ATOM     59  F   UNL A   1      39.537  33.888  34.406  1.00  0.00    -0.206 F 
ATOM     60  C   UNL A   1      37.925  33.353  37.597  1.00  0.00     0.022 A 
BRANCH  57  61
ATOM     61  S   UNL A   1      36.888  31.134  38.922  1.00  0.00     0.124 S 
ATOM     62  O   UNL A   1      35.681  31.946  39.036  1.00  0.00    -0.237 OA
ATOM     63  O   UNL A   1      36.710  29.788  38.386  1.00  0.00    -0.237 OA
ATOM     64  O   UNL A   1      37.815  31.235  40.047  1.00  0.00    -0.744 OA
ENDBRANCH  57  61
ENDBRANCH  30  54
BRANCH  42  65
ATOM     65  C   UNL A   1      36.584  31.058  28.822  1.00  0.00     0.023 A 
ATOM     66  C   UNL A   1      35.612  30.186  28.308  1.00  0.00     0.031 A 
ATOM     67  C   UNL A   1      36.375  32.443  28.699  1.00  0.00     0.131 A 
ATOM     68  C   UNL A   1      34.487  30.709  27.656  1.00  0.00     0.055 A 
ATOM     69  C   UNL A   1      35.232  32.959  28.092  1.00  0.00     0.041 A 
ATOM     70  F   UNL A   1      37.275  33.315  29.182  1.00  0.00    -0.206 F 
ATOM     71  C   UNL A   1      34.283  32.089  27.558  1.00  0.00     0.022 A 
BRANCH  68  72
ATOM     72  S   UNL A   1      33.314  29.562  26.886  1.00  0.00     0.124 S 
ATOM     73  O   UNL A   1      33.045  28.627  27.976  1.00  0.00    -0.237 OA
ATOM     74  O   UNL A   1      32.212  30.441  26.515  1.00  0.00    -0.237 OA
ATOM     75  O   UNL A   1      34.067  29.004  25.764  1.00  0.00    -0.744 OA
ENDBRANCH  68  72
ENDBRANCH  42  65
ENDBRANCH  16  17
ENDBRANCH   9  11
ENDBRANCH   8   9
ENDBRANCH   7   8
ENDBRANCH   6   7
ENDBRANCH   5   6
ENDBRANCH   4   5
ENDBRANCH   3   4
ENDBRANCH   2   3
ENDBRANCH   1   2
BRANCH   1  76
ATOM     76  C   UNL A   1      49.303  33.259  31.466  1.00  0.00     0.188 C 
BRANCH  76  77
ATOM     77  O   UNL A   1      48.169  32.818  30.723  1.00  0.00    -0.376 OA
BRANCH  77  78
ATOM     78  C   UNL A   1      48.395  32.463  29.365  1.00  0.00     0.202 C 
BRANCH  78  79
ATOM     79  C   UNL A   1      47.541  33.288  28.363  1.00  0.00     0.261 C 
BRANCH  79  80
ATOM     80  O   UNL A   1      46.261  33.869  28.739  1.00  0.00    -0.460 OA
BRANCH  80  81
ATOM     81  C   UNL A   1      45.183  33.120  28.473  1.00  0.00     0.338 C 
ATOM     82  O   UNL A   1      44.922  32.066  29.035  1.00  0.00    -0.246 OA
BRANCH  81  83
ATOM     83  C   UNL A   1      44.330  33.539  27.350  1.00  0.00     0.067 A 
ATOM     84  C   UNL A   1      44.533  33.009  26.072  1.00  0.00     0.016 A 
ATOM     85  C   UNL A   1      43.516  34.675  27.535  1.00  0.00    -0.003 A 
ATOM     86  C   UNL A   1      43.908  33.593  24.970  1.00  0.00     0.001 A 
ATOM     87  C   UNL A   1      42.873  35.232  26.418  1.00  0.00     0.009 A 
ATOM     88  C   UNL A   1      43.079  34.701  25.142  1.00  0.00     0.001 A 
BRANCH  85  89
ATOM     89  C   UNL A   1      43.226  35.140  28.894  1.00  0.00    -0.005 A 
ATOM     90  C   UNL A   1      42.432  34.234  29.651  1.00  0.00     0.009 A 
ATOM     91  C   UNL A   1      43.817  36.246  29.542  1.00  0.00     0.047 A 
ATOM     92  C   UNL A   1      42.283  34.354  31.027  1.00  0.00     0.001 A 
ATOM     93  C   UNL A   1      43.651  36.336  30.946  1.00  0.00     0.014 A 
ATOM     94  C   UNL A   1      42.914  35.398  31.680  1.00  0.00     0.001 A 
BRANCH  91  95
ATOM     95  C   UNL A   1      44.698  37.330  28.945  1.00  0.00     0.254 C 
ATOM     96  O   UNL A   1      45.916  37.142  28.898  1.00  0.00    -0.269 OA
ATOM     97  N   UNL A   1      44.144  38.484  28.394  1.00  0.00    -0.327 N 
ATOM     98  C   UNL A   1      44.569  38.793  27.028  1.00  0.00     0.181 C 
ATOM     99  C   UNL A   1      44.079  39.702  29.190  1.00  0.00     0.181 C 
ATOM    100  C   UNL A   1      43.545  39.729  26.354  1.00  0.00     0.284 C 
ATOM    101  C   UNL A   1      43.290  40.858  28.502  1.00  0.00     0.284 C 
ATOM    102  N   UNL A   1      43.365  41.020  27.040  1.00  0.00    -0.328 N 
ATOM    103  H   UNL A   1      42.439  41.366  26.790  1.00  0.00     0.348 HD
BRANCH 102 104
ATOM    104  C   UNL A   1      44.168  42.133  26.509  1.00  0.00     0.299 C 
BRANCH 104 105
ATOM    105  C   UNL A   1      44.122  42.282  25.005  1.00  0.00     0.010 A 
ATOM    106  C   UNL A   1      42.896  42.551  24.360  1.00  0.00     0.013 A 
ATOM    107  C   UNL A   1      45.332  42.407  24.297  1.00  0.00     0.060 A 
ATOM    108  C   UNL A   1      42.878  43.099  23.074  1.00  0.00     0.051 A 
ATOM    109  C   UNL A   1      45.285  43.024  23.069  1.00  0.00     0.166 A 
ATOM    110  C   UNL A   1      44.092  43.383  22.485  1.00  0.00     0.165 A 
ATOM    111  O   UNL A   1      46.362  43.497  22.387  1.00  0.00    -0.454 OA
ATOM    112  O   UNL A   1      44.281  44.126  21.361  1.00  0.00    -0.454 OA
ATOM    113  C   UNL A   1      45.700  44.386  21.463  1.00  0.00     0.468 C 
ENDBRANCH 104 105
ENDBRANCH 102 104
ENDBRANCH  91  95
ENDBRANCH  85  89
ENDBRANCH  81  83
ENDBRANCH  80  81
ENDBRANCH  79  80
ENDBRANCH  78  79
ENDBRANCH  77  78
ENDBRANCH  76  77
ENDBRANCH   1  76
TORSDOF 27
ENDMDL
