MODEL 1
REMARK VINA RESULT:     -11.9      0.000      0.000
REMARK SMILES O=C(OCCOCCOCCOCCOC(=O)[C@H]1CCCN1C(=O)CN1C(=O)[C@@H]2[C@H](C1=O)[C@H]1C=C[C@@H]2C1)c1ccc(-c2c3nc(c(-c4cc(S(=O)(=O)[O-])ccc4F)c4ccc([nH]4)c(-c4cc(S(=O)(=O)[O-])ccc4F)c4nc(c(-c5cc(S(=O)(=O)[O-])ccc5F)c5ccc2[nH]5)C=C4)C=C3)cc1
REMARK SMILES IDX 9 1 8 2 7 3 6 4 5 5 4 6 3 7 2 8 1 9 38 10 39 11 100 12 40 13
REMARK SMILES IDX 99 14 41 15 42 16 43 17 93 18 44 19 98 20 92 21 94 22 45 23
REMARK SMILES IDX 97 24 91 25 90 26 46 28 78 29 58 30 77 31 59 32 62 33 76 34
REMARK SMILES IDX 95 35 60 36 61 37 75 39 96 40 63 41 47 42 48 43 56 44 49 45
REMARK SMILES IDX 55 46 57 47 54 48 50 49 51 50 52 51 53 52 79 53 80 54 88 55
REMARK SMILES IDX 81 56 87 57 89 58 86 59 82 60 83 61 84 62 85 63 64 64 65 65
REMARK SMILES IDX 73 66 66 67 72 68 74 69 71 70 67 71 68 72 69 73 70 74 10 75
REMARK SMILES IDX 11 76 12 77 13 78 14 79 15 80 16 81 17 82 18 83 19 84 22 85
REMARK SMILES IDX 20 86 21 87 23 88 24 89 25 90 26 91 27 92 31 93 29 94 28 95
REMARK SMILES IDX 30 96 32 97 36 98 33 99 35 100 37 101 34 102
REMARK H PARENT 94 27 62 38
REMARK Flexibility Score: inf
ROOT
ATOM      1  O   UNL A   1      31.374  27.340  27.419  1.00  0.00    -0.377 OA
ENDROOT
BRANCH   1   2
ATOM      2  C   UNL A   1      32.494  28.152  27.680  1.00  0.00     0.188 C 
BRANCH   2   3
ATOM      3  C   UNL A   1      33.049  28.954  26.456  1.00  0.00     0.188 C 
BRANCH   3   4
ATOM      4  O   UNL A   1      32.396  30.475  25.917  1.00  0.00    -0.376 OA
BRANCH   4   5
ATOM      5  C   UNL A   1      31.342  32.071  26.696  1.00  0.00     0.202 C 
BRANCH   5   6
ATOM      6  C   UNL A   1      32.164  33.831  27.044  1.00  0.00     0.261 C 
BRANCH   6   7
ATOM      7  O   UNL A   1      32.513  34.467  28.574  1.00  0.00    -0.460 OA
BRANCH   7   8
ATOM      8  C   UNL A   1      33.609  34.221  29.484  1.00  0.00     0.338 C 
ATOM      9  O   UNL A   1      33.596  34.659  30.631  1.00  0.00    -0.246 OA
BRANCH   8  10
ATOM     10  C   UNL A   1      35.067  33.755  28.804  1.00  0.00     0.060 A 
ATOM     11  C   UNL A   1      35.187  32.631  27.922  1.00  0.00     0.016 A 
ATOM     12  C   UNL A   1      36.302  34.203  29.218  1.00  0.00     0.016 A 
ATOM     13  C   UNL A   1      36.257  31.669  28.070  1.00  0.00     0.010 A 
ATOM     14  C   UNL A   1      37.454  33.343  29.116  1.00  0.00     0.010 A 
ATOM     15  C   UNL A   1      37.366  31.949  28.859  1.00  0.00    -0.014 A 
BRANCH  15  16
ATOM     16  C   UNL A   1      38.342  30.925  29.567  1.00  0.00     0.031 A 
ATOM     17  C   UNL A   1      38.514  31.078  31.094  1.00  0.00     0.074 A 
ATOM     18  C   UNL A   1      38.960  29.783  29.121  1.00  0.00     0.049 A 
ATOM     19  N   UNL A   1      39.546  30.849  31.870  1.00  0.00    -0.248 NA
ATOM     20  C   UNL A   1      37.347  31.588  31.832  1.00  0.00     0.031 C 
ATOM     21  C   UNL A   1      38.756  29.075  27.856  1.00  0.00     0.029 A 
ATOM     22  N   UNL A   1      39.928  28.976  29.746  1.00  0.00    -0.354 N 
ATOM     23  C   UNL A   1      39.201  31.359  33.126  1.00  0.00     0.074 A 
ATOM     24  C   UNL A   1      37.873  31.907  33.002  1.00  0.00     0.031 C 
ATOM     25  C   UNL A   1      39.572  28.002  27.786  1.00  0.00     0.029 A 
ATOM     26  C   UNL A   1      40.450  27.960  28.951  1.00  0.00     0.049 A 
ATOM     27  H   UNL A   1      40.216  29.121  30.676  1.00  0.00     0.167 HD
ATOM     28  C   UNL A   1      39.911  31.378  34.282  1.00  0.00     0.034 A 
ATOM     29  C   UNL A   1      41.530  27.136  29.085  1.00  0.00     0.034 A 
ATOM     30  C   UNL A   1      41.150  30.673  34.479  1.00  0.00     0.049 A 
ATOM     31  C   UNL A   1      42.427  27.264  30.311  1.00  0.00     0.074 A 
ATOM     32  C   UNL A   1      41.984  30.679  35.586  1.00  0.00     0.029 A 
ATOM     33  N   UNL A   1      41.698  29.777  33.577  1.00  0.00    -0.354 N 
ATOM     34  N   UNL A   1      42.258  27.992  31.391  1.00  0.00    -0.248 NA
ATOM     35  C   UNL A   1      43.676  26.479  30.324  1.00  0.00     0.031 C 
ATOM     36  C   UNL A   1      43.073  29.843  35.321  1.00  0.00     0.029 A 
ATOM     37  C   UNL A   1      42.872  29.247  34.090  1.00  0.00     0.049 A 
ATOM     38  H   UNL A   1      41.313  29.550  32.700  1.00  0.00     0.167 HD
ATOM     39  C   UNL A   1      43.360  27.728  32.209  1.00  0.00     0.074 A 
ATOM     40  C   UNL A   1      44.170  26.750  31.523  1.00  0.00     0.031 C 
ATOM     41  C   UNL A   1      43.679  28.260  33.418  1.00  0.00     0.034 A 
BRANCH  28  42
ATOM     42  C   UNL A   1      39.416  32.277  35.395  1.00  0.00     0.023 A 
ATOM     43  C   UNL A   1      39.764  33.633  35.508  1.00  0.00     0.031 A 
ATOM     44  C   UNL A   1      38.594  31.725  36.399  1.00  0.00     0.131 A 
ATOM     45  C   UNL A   1      39.361  34.364  36.638  1.00  0.00     0.055 A 
ATOM     46  C   UNL A   1      38.118  32.483  37.468  1.00  0.00     0.041 A 
ATOM     47  F   UNL A   1      38.248  30.428  36.360  1.00  0.00    -0.206 F 
ATOM     48  C   UNL A   1      38.515  33.808  37.602  1.00  0.00     0.022 A 
BRANCH  45  49
ATOM     49  S   UNL A   1      40.085  36.004  36.917  1.00  0.00     0.124 S 
ATOM     50  O   UNL A   1      39.262  36.504  38.017  1.00  0.00    -0.237 OA
ATOM     51  O   UNL A   1      41.469  35.687  37.247  1.00  0.00    -0.237 OA
ATOM     52  O   UNL A   1      39.887  36.688  35.641  1.00  0.00    -0.744 OA
ENDBRANCH  45  49
ENDBRANCH  28  42
BRANCH  29  53
ATOM     53  C   UNL A   1      41.979  26.199  27.976  1.00  0.00     0.023 A 
ATOM     54  C   UNL A   1      41.514  24.869  27.861  1.00  0.00     0.031 A 
ATOM     55  C   UNL A   1      43.028  26.575  27.113  1.00  0.00     0.131 A 
ATOM     56  C   UNL A   1      42.129  23.968  26.962  1.00  0.00     0.055 A 
ATOM     57  C   UNL A   1      43.579  25.702  26.167  1.00  0.00     0.041 A 
ATOM     58  F   UNL A   1      43.569  27.800  27.193  1.00  0.00    -0.206 F 
ATOM     59  C   UNL A   1      43.141  24.386  26.099  1.00  0.00     0.022 A 
BRANCH  56  60
ATOM     60  S   UNL A   1      41.711  22.195  27.037  1.00  0.00     0.124 S 
ATOM     61  O   UNL A   1      40.357  22.233  27.576  1.00  0.00    -0.237 OA
ATOM     62  O   UNL A   1      41.838  21.793  25.641  1.00  0.00    -0.237 OA
ATOM     63  O   UNL A   1      42.723  21.642  27.936  1.00  0.00    -0.744 OA
ENDBRANCH  56  60
ENDBRANCH  29  53
BRANCH  41  64
ATOM     64  C   UNL A   1      44.923  27.753  34.108  1.00  0.00     0.023 A 
ATOM     65  C   UNL A   1      44.904  26.611  34.929  1.00  0.00     0.031 A 
ATOM     66  C   UNL A   1      46.147  28.430  33.955  1.00  0.00     0.131 A 
ATOM     67  C   UNL A   1      46.064  26.224  35.619  1.00  0.00     0.055 A 
ATOM     68  C   UNL A   1      47.316  27.997  34.585  1.00  0.00     0.041 A 
ATOM     69  F   UNL A   1      46.230  29.527  33.184  1.00  0.00    -0.206 F 
ATOM     70  C   UNL A   1      47.274  26.897  35.437  1.00  0.00     0.022 A 
BRANCH  67  71
ATOM     71  S   UNL A   1      45.940  24.899  36.853  1.00  0.00     0.124 S 
ATOM     72  O   UNL A   1      46.278  25.602  38.086  1.00  0.00    -0.237 OA
ATOM     73  O   UNL A   1      44.549  24.478  36.720  1.00  0.00    -0.237 OA
ATOM     74  O   UNL A   1      46.928  23.920  36.406  1.00  0.00    -0.744 OA
ENDBRANCH  67  71
ENDBRANCH  41  64
ENDBRANCH  15  16
ENDBRANCH   8  10
ENDBRANCH   7   8
ENDBRANCH   6   7
ENDBRANCH   5   6
ENDBRANCH   4   5
ENDBRANCH   3   4
ENDBRANCH   2   3
ENDBRANCH   1   2
BRANCH   1  75
ATOM     75  C   UNL A   1      31.530  26.579  26.247  1.00  0.00     0.188 C 
BRANCH  75  76
ATOM     76  C   UNL A   1      30.728  25.226  26.310  1.00  0.00     0.188 C 
BRANCH  76  77
ATOM     77  O   UNL A   1      31.069  24.307  27.333  1.00  0.00    -0.376 OA
BRANCH  77  78
ATOM     78  C   UNL A   1      31.128  22.941  26.980  1.00  0.00     0.202 C 
BRANCH  78  79
ATOM     79  C   UNL A   1      32.519  22.265  27.005  1.00  0.00     0.261 C 
BRANCH  79  80
ATOM     80  O   UNL A   1      33.186  22.049  25.728  1.00  0.00    -0.462 OA
BRANCH  80  81
ATOM     81  C   UNL A   1      32.742  22.682  24.596  1.00  0.00     0.328 C 
ATOM     82  O   UNL A   1      31.816  22.270  23.914  1.00  0.00    -0.250 OA
BRANCH  81  83
ATOM     83  C   UNL A   1      33.531  24.086  24.375  1.00  0.00     0.195 C 
ATOM     84  C   UNL A   1      34.971  23.808  24.778  1.00  0.00     0.039 C 
ATOM     85  N   UNL A   1      33.692  24.471  22.960  1.00  0.00    -0.327 N 
ATOM     86  C   UNL A   1      35.433  22.951  23.602  1.00  0.00     0.024 C 
ATOM     87  C   UNL A   1      34.669  23.529  22.398  1.00  0.00     0.120 C 
BRANCH  85  88
ATOM     88  C   UNL A   1      33.151  25.425  22.106  1.00  0.00     0.243 C 
ATOM     89  O   UNL A   1      33.971  26.243  21.633  1.00  0.00    -0.273 OA
BRANCH  88  90
ATOM     90  C   UNL A   1      31.616  25.885  21.935  1.00  0.00     0.228 C 
BRANCH  90  91
ATOM     91  N   UNL A   1      30.871  27.011  22.514  1.00  0.00    -0.273 N 
ATOM     92  C   UNL A   1      29.656  26.819  23.186  1.00  0.00     0.234 C 
ATOM     93  C   UNL A   1      31.501  28.266  22.774  1.00  0.00     0.234 C 
ATOM     94  C   UNL A   1      28.880  28.087  22.961  1.00  0.00     0.099 C 
ATOM     95  O   UNL A   1      29.213  25.775  23.631  1.00  0.00    -0.274 OA
ATOM     96  C   UNL A   1      30.429  29.319  22.708  1.00  0.00     0.099 C 
ATOM     97  O   UNL A   1      32.691  28.470  22.935  1.00  0.00    -0.274 OA
ATOM     98  C   UNL A   1      27.386  29.413  23.552  1.00  0.00     0.025 C 
ATOM     99  C   UNL A   1      30.019  31.193  23.201  1.00  0.00     0.025 C 
ATOM    100  C   UNL A   1      27.184  31.206  23.516  1.00  0.00    -0.027 C 
ATOM    101  C   UNL A   1      28.562  31.074  23.610  1.00  0.00     0.017 C 
ATOM    102  C   UNL A   1      28.356  32.195  23.464  1.00  0.00    -0.027 C 
ENDBRANCH  90  91
ENDBRANCH  88  90
ENDBRANCH  85  88
ENDBRANCH  81  83
ENDBRANCH  80  81
ENDBRANCH  79  80
ENDBRANCH  78  79
ENDBRANCH  77  78
ENDBRANCH  76  77
ENDBRANCH  75  76
ENDBRANCH   1  75
TORSDOF 26
ENDMDL
MODEL 2
REMARK VINA RESULT:     -11.9      2.035      2.590
REMARK SMILES O=C(OCCOCCOCCOCCOC(=O)[C@H]1CCCN1C(=O)CN1C(=O)[C@@H]2[C@H](C1=O)[C@H]1C=C[C@@H]2C1)c1ccc(-c2c3nc(c(-c4cc(S(=O)(=O)[O-])ccc4F)c4ccc([nH]4)c(-c4cc(S(=O)(=O)[O-])ccc4F)c4nc(c(-c5cc(S(=O)(=O)[O-])ccc5F)c5ccc2[nH]5)C=C4)C=C3)cc1
REMARK SMILES IDX 9 1 8 2 7 3 6 4 5 5 4 6 3 7 2 8 1 9 38 10 39 11 100 12 40 13
REMARK SMILES IDX 99 14 41 15 42 16 43 17 93 18 44 19 98 20 92 21 94 22 45 23
REMARK SMILES IDX 97 24 91 25 90 26 46 28 78 29 58 30 77 31 59 32 62 33 76 34
REMARK SMILES IDX 95 35 60 36 61 37 75 39 96 40 63 41 47 42 48 43 56 44 49 45
REMARK SMILES IDX 55 46 57 47 54 48 50 49 51 50 52 51 53 52 79 53 80 54 88 55
REMARK SMILES IDX 81 56 87 57 89 58 86 59 82 60 83 61 84 62 85 63 64 64 65 65
REMARK SMILES IDX 73 66 66 67 72 68 74 69 71 70 67 71 68 72 69 73 70 74 10 75
REMARK SMILES IDX 11 76 12 77 13 78 14 79 15 80 16 81 17 82 18 83 19 84 22 85
REMARK SMILES IDX 20 86 21 87 23 88 24 89 25 90 26 91 27 92 31 93 29 94 28 95
REMARK SMILES IDX 30 96 32 97 36 98 33 99 35 100 37 101 34 102
REMARK H PARENT 94 27 62 38
REMARK Flexibility Score: inf
ROOT
ATOM      1  O   UNL A   1      31.190  27.012  26.753  1.00  0.00    -0.377 OA
ENDROOT
BRANCH   1   2
ATOM      2  C   UNL A   1      31.398  28.139  27.572  1.00  0.00     0.188 C 
BRANCH   2   3
ATOM      3  C   UNL A   1      32.684  28.974  27.259  1.00  0.00     0.188 C 
BRANCH   3   4
ATOM      4  O   UNL A   1      32.657  30.618  26.686  1.00  0.00    -0.376 OA
BRANCH   4   5
ATOM      5  C   UNL A   1      31.466  32.297  26.853  1.00  0.00     0.202 C 
BRANCH   5   6
ATOM      6  C   UNL A   1      32.181  34.076  27.321  1.00  0.00     0.261 C 
BRANCH   6   7
ATOM      7  O   UNL A   1      32.635  34.574  28.874  1.00  0.00    -0.460 OA
BRANCH   7   8
ATOM      8  C   UNL A   1      33.762  34.210  29.704  1.00  0.00     0.338 C 
ATOM      9  O   UNL A   1      33.827  34.558  30.880  1.00  0.00    -0.246 OA
BRANCH   8  10
ATOM     10  C   UNL A   1      35.160  33.734  28.915  1.00  0.00     0.060 A 
ATOM     11  C   UNL A   1      35.198  32.624  28.008  1.00  0.00     0.016 A 
ATOM     12  C   UNL A   1      36.429  34.155  29.248  1.00  0.00     0.016 A 
ATOM     13  C   UNL A   1      36.260  31.643  28.063  1.00  0.00     0.010 A 
ATOM     14  C   UNL A   1      37.556  33.280  29.049  1.00  0.00     0.010 A 
ATOM     15  C   UNL A   1      37.426  31.892  28.776  1.00  0.00    -0.014 A 
BRANCH  15  16
ATOM     16  C   UNL A   1      38.432  30.840  29.396  1.00  0.00     0.031 A 
ATOM     17  C   UNL A   1      38.684  30.938  30.916  1.00  0.00     0.074 A 
ATOM     18  C   UNL A   1      39.020  29.713  28.878  1.00  0.00     0.049 A 
ATOM     19  N   UNL A   1      39.754  30.678  31.629  1.00  0.00    -0.248 NA
ATOM     20  C   UNL A   1      37.559  31.425  31.732  1.00  0.00     0.031 C 
ATOM     21  C   UNL A   1      38.748  29.051  27.601  1.00  0.00     0.029 A 
ATOM     22  N   UNL A   1      40.016  28.881  29.423  1.00  0.00    -0.354 N 
ATOM     23  C   UNL A   1      39.477  31.145  32.918  1.00  0.00     0.074 A 
ATOM     24  C   UNL A   1      38.147  31.701  32.883  1.00  0.00     0.031 C 
ATOM     25  C   UNL A   1      39.553  27.978  27.451  1.00  0.00     0.029 A 
ATOM     26  C   UNL A   1      40.491  27.892  28.567  1.00  0.00     0.049 A 
ATOM     27  H   UNL A   1      40.352  28.992  30.341  1.00  0.00     0.167 HD
ATOM     28  C   UNL A   1      40.246  31.120  34.036  1.00  0.00     0.034 A 
ATOM     29  C   UNL A   1      41.572  27.060  28.615  1.00  0.00     0.034 A 
ATOM     30  C   UNL A   1      41.490  30.404  34.143  1.00  0.00     0.049 A 
ATOM     31  C   UNL A   1      42.532  27.142  29.797  1.00  0.00     0.074 A 
ATOM     32  C   UNL A   1      42.380  30.369  35.204  1.00  0.00     0.029 A 
ATOM     33  N   UNL A   1      41.986  29.540  33.182  1.00  0.00    -0.354 N 
ATOM     34  N   UNL A   1      42.422  27.832  30.909  1.00  0.00    -0.248 NA
ATOM     35  C   UNL A   1      43.776  26.352  29.717  1.00  0.00     0.031 C 
ATOM     36  C   UNL A   1      43.450  29.539  34.855  1.00  0.00     0.029 A 
ATOM     37  C   UNL A   1      43.183  28.987  33.614  1.00  0.00     0.049 A 
ATOM     38  H   UNL A   1      41.554  29.345  32.320  1.00  0.00     0.167 HD
ATOM     39  C   UNL A   1      43.564  27.535  31.659  1.00  0.00     0.074 A 
ATOM     40  C   UNL A   1      44.332  26.579  30.897  1.00  0.00     0.031 C 
ATOM     41  C   UNL A   1      43.948  28.023  32.867  1.00  0.00     0.034 A 
BRANCH  28  42
ATOM     42  C   UNL A   1      39.814  31.980  35.205  1.00  0.00     0.023 A 
ATOM     43  C   UNL A   1      39.077  31.489  36.295  1.00  0.00     0.031 A 
ATOM     44  C   UNL A   1      40.126  33.355  35.189  1.00  0.00     0.131 A 
ATOM     45  C   UNL A   1      38.611  32.379  37.278  1.00  0.00     0.055 A 
ATOM     46  C   UNL A   1      39.741  34.214  36.218  1.00  0.00     0.041 A 
ATOM     47  F   UNL A   1      40.805  33.888  34.162  1.00  0.00    -0.206 F 
ATOM     48  C   UNL A   1      38.964  33.731  37.263  1.00  0.00     0.022 A 
BRANCH  45  49
ATOM     49  S   UNL A   1      37.402  31.779  38.491  1.00  0.00     0.124 S 
ATOM     50  O   UNL A   1      37.154  30.421  38.009  1.00  0.00    -0.237 OA
ATOM     51  O   UNL A   1      38.134  31.887  39.747  1.00  0.00    -0.237 OA
ATOM     52  O   UNL A   1      36.277  32.699  38.340  1.00  0.00    -0.744 OA
ENDBRANCH  45  49
ENDBRANCH  28  42
BRANCH  29  53
ATOM     53  C   UNL A   1      41.958  26.162  27.451  1.00  0.00     0.023 A 
ATOM     54  C   UNL A   1      41.560  24.808  27.363  1.00  0.00     0.031 A 
ATOM     55  C   UNL A   1      42.890  26.607  26.493  1.00  0.00     0.131 A 
ATOM     56  C   UNL A   1      42.131  23.954  26.393  1.00  0.00     0.055 A 
ATOM     57  C   UNL A   1      43.390  25.777  25.482  1.00  0.00     0.041 A 
ATOM     58  F   UNL A   1      43.365  27.861  26.536  1.00  0.00    -0.206 F 
ATOM     59  C   UNL A   1      43.024  24.439  25.438  1.00  0.00     0.022 A 
BRANCH  56  60
ATOM     60  S   UNL A   1      41.826  22.159  26.483  1.00  0.00     0.124 S 
ATOM     61  O   UNL A   1      40.380  22.095  26.307  1.00  0.00    -0.237 OA
ATOM     62  O   UNL A   1      42.632  21.656  25.376  1.00  0.00    -0.237 OA
ATOM     63  O   UNL A   1      42.306  21.795  27.815  1.00  0.00    -0.744 OA
ENDBRANCH  56  60
ENDBRANCH  29  53
BRANCH  41  64
ATOM     64  C   UNL A   1      45.224  27.487  33.474  1.00  0.00     0.023 A 
ATOM     65  C   UNL A   1      46.474  28.077  33.213  1.00  0.00     0.031 A 
ATOM     66  C   UNL A   1      45.192  26.360  34.316  1.00  0.00     0.131 A 
ATOM     67  C   UNL A   1      47.643  27.496  33.729  1.00  0.00     0.055 A 
ATOM     68  C   UNL A   1      46.352  25.830  34.886  1.00  0.00     0.041 A 
ATOM     69  F   UNL A   1      44.029  25.752  34.602  1.00  0.00    -0.206 F 
ATOM     70  C   UNL A   1      47.589  26.389  34.579  1.00  0.00     0.022 A 
BRANCH  67  71
ATOM     71  S   UNL A   1      49.249  28.135  33.174  1.00  0.00     0.124 S 
ATOM     72  O   UNL A   1      50.067  27.982  34.373  1.00  0.00    -0.237 OA
ATOM     73  O   UNL A   1      49.572  27.245  32.063  1.00  0.00    -0.237 OA
ATOM     74  O   UNL A   1      48.956  29.516  32.795  1.00  0.00    -0.744 OA
ENDBRANCH  67  71
ENDBRANCH  41  64
ENDBRANCH  15  16
ENDBRANCH   8  10
ENDBRANCH   7   8
ENDBRANCH   6   7
ENDBRANCH   5   6
ENDBRANCH   4   5
ENDBRANCH   3   4
ENDBRANCH   2   3
ENDBRANCH   1   2
BRANCH   1  75
ATOM     75  C   UNL A   1      32.397  26.418  26.346  1.00  0.00     0.188 C 
BRANCH  75  76
ATOM     76  C   UNL A   1      32.267  24.857  26.195  1.00  0.00     0.188 C 
BRANCH  76  77
ATOM     77  O   UNL A   1      31.559  24.157  27.204  1.00  0.00    -0.376 OA
BRANCH  77  78
ATOM     78  C   UNL A   1      31.716  22.754  27.246  1.00  0.00     0.202 C 
BRANCH  78  79
ATOM     79  C   UNL A   1      32.881  22.200  28.099  1.00  0.00     0.261 C 
BRANCH  79  80
ATOM     80  O   UNL A   1      33.730  21.181  27.498  1.00  0.00    -0.462 OA
BRANCH  80  81
ATOM     81  C   UNL A   1      34.037  21.230  26.163  1.00  0.00     0.328 C 
ATOM     82  O   UNL A   1      33.800  20.318  25.385  1.00  0.00    -0.250 OA
BRANCH  81  83
ATOM     83  C   UNL A   1      34.631  22.688  25.762  1.00  0.00     0.195 C 
ATOM     84  C   UNL A   1      35.955  22.803  26.503  1.00  0.00     0.039 C 
ATOM     85  N   UNL A   1      35.072  22.795  24.358  1.00  0.00    -0.327 N 
ATOM     86  C   UNL A   1      36.815  21.833  25.695  1.00  0.00     0.024 C 
ATOM     87  C   UNL A   1      36.288  21.978  24.257  1.00  0.00     0.120 C 
BRANCH  85  88
ATOM     88  C   UNL A   1      34.615  23.419  23.202  1.00  0.00     0.243 C 
ATOM     89  O   UNL A   1      35.408  24.241  22.693  1.00  0.00    -0.273 OA
BRANCH  88  90
ATOM     90  C   UNL A   1      33.111  23.546  22.639  1.00  0.00     0.228 C 
BRANCH  90  91
ATOM     91  N   UNL A   1      32.224  24.708  22.496  1.00  0.00    -0.273 N 
ATOM     92  C   UNL A   1      32.507  25.741  21.592  1.00  0.00     0.234 C 
ATOM     93  C   UNL A   1      30.870  24.672  22.951  1.00  0.00     0.234 C 
ATOM     94  C   UNL A   1      31.909  26.975  22.208  1.00  0.00     0.099 C 
ATOM     95  O   UNL A   1      33.280  25.710  20.650  1.00  0.00    -0.274 OA
ATOM     96  C   UNL A   1      30.477  26.087  23.276  1.00  0.00     0.099 C 
ATOM     97  O   UNL A   1      30.182  23.682  23.128  1.00  0.00    -0.274 OA
ATOM     98  C   UNL A   1      31.141  28.900  22.002  1.00  0.00     0.025 C 
ATOM     99  C   UNL A   1      28.915  27.259  23.607  1.00  0.00     0.025 C 
ATOM    100  C   UNL A   1      29.822  29.840  22.798  1.00  0.00    -0.027 C 
ATOM    101  C   UNL A   1      29.360  28.537  22.919  1.00  0.00     0.017 C 
ATOM    102  C   UNL A   1      28.626  29.194  23.510  1.00  0.00    -0.027 C 
ENDBRANCH  90  91
ENDBRANCH  88  90
ENDBRANCH  85  88
ENDBRANCH  81  83
ENDBRANCH  80  81
ENDBRANCH  79  80
ENDBRANCH  78  79
ENDBRANCH  77  78
ENDBRANCH  76  77
ENDBRANCH  75  76
ENDBRANCH   1  75
TORSDOF 26
ENDMDL
MODEL 3
REMARK VINA RESULT:     -11.6      2.177      2.731
REMARK SMILES O=C(OCCOCCOCCOCCOC(=O)[C@H]1CCCN1C(=O)CN1C(=O)[C@@H]2[C@H](C1=O)[C@H]1C=C[C@@H]2C1)c1ccc(-c2c3nc(c(-c4cc(S(=O)(=O)[O-])ccc4F)c4ccc([nH]4)c(-c4cc(S(=O)(=O)[O-])ccc4F)c4nc(c(-c5cc(S(=O)(=O)[O-])ccc5F)c5ccc2[nH]5)C=C4)C=C3)cc1
REMARK SMILES IDX 9 1 8 2 7 3 6 4 5 5 4 6 3 7 2 8 1 9 38 10 39 11 100 12 40 13
REMARK SMILES IDX 99 14 41 15 42 16 43 17 93 18 44 19 98 20 92 21 94 22 45 23
REMARK SMILES IDX 97 24 91 25 90 26 46 28 78 29 58 30 77 31 59 32 62 33 76 34
REMARK SMILES IDX 95 35 60 36 61 37 75 39 96 40 63 41 47 42 48 43 56 44 49 45
REMARK SMILES IDX 55 46 57 47 54 48 50 49 51 50 52 51 53 52 79 53 80 54 88 55
REMARK SMILES IDX 81 56 87 57 89 58 86 59 82 60 83 61 84 62 85 63 64 64 65 65
REMARK SMILES IDX 73 66 66 67 72 68 74 69 71 70 67 71 68 72 69 73 70 74 10 75
REMARK SMILES IDX 11 76 12 77 13 78 14 79 15 80 16 81 17 82 18 83 19 84 22 85
REMARK SMILES IDX 20 86 21 87 23 88 24 89 25 90 26 91 27 92 31 93 29 94 28 95
REMARK SMILES IDX 30 96 32 97 36 98 33 99 35 100 37 101 34 102
REMARK H PARENT 94 27 62 38
REMARK Flexibility Score: inf
ROOT
ATOM      1  O   UNL A   1      32.253  26.872  26.786  1.00  0.00    -0.377 OA
ENDROOT
BRANCH   1   2
ATOM      2  C   UNL A   1      33.078  27.978  26.503  1.00  0.00     0.188 C 
BRANCH   2   3
ATOM      3  C   UNL A   1      32.650  28.844  25.272  1.00  0.00     0.188 C 
BRANCH   3   4
ATOM      4  O   UNL A   1      31.999  30.454  25.399  1.00  0.00    -0.376 OA
BRANCH   4   5
ATOM      5  C   UNL A   1      31.494  31.808  26.874  1.00  0.00     0.202 C 
BRANCH   5   6
ATOM      6  C   UNL A   1      32.446  33.518  27.131  1.00  0.00     0.261 C 
BRANCH   6   7
ATOM      7  O   UNL A   1      32.854  34.199  28.627  1.00  0.00    -0.460 OA
BRANCH   7   8
ATOM      8  C   UNL A   1      33.976  33.967  29.508  1.00  0.00     0.338 C 
ATOM      9  O   UNL A   1      34.039  34.500  30.613  1.00  0.00    -0.246 OA
BRANCH   8  10
ATOM     10  C   UNL A   1      35.374  33.365  28.811  1.00  0.00     0.060 A 
ATOM     11  C   UNL A   1      35.411  32.121  28.098  1.00  0.00     0.016 A 
ATOM     12  C   UNL A   1      36.644  33.831  29.073  1.00  0.00     0.016 A 
ATOM     13  C   UNL A   1      36.470  31.159  28.316  1.00  0.00     0.010 A 
ATOM     14  C   UNL A   1      37.769  32.932  29.024  1.00  0.00     0.010 A 
ATOM     15  C   UNL A   1      37.635  31.518  28.981  1.00  0.00    -0.014 A 
BRANCH  15  16
ATOM     16  C   UNL A   1      38.637  30.580  29.768  1.00  0.00     0.031 A 
ATOM     17  C   UNL A   1      38.629  30.698  31.308  1.00  0.00     0.074 A 
ATOM     18  C   UNL A   1      39.419  29.526  29.366  1.00  0.00     0.049 A 
ATOM     19  N   UNL A   1      39.593  30.553  32.186  1.00  0.00    -0.248 NA
ATOM     20  C   UNL A   1      37.342  31.055  31.927  1.00  0.00     0.031 C 
ATOM     21  C   UNL A   1      39.429  28.844  28.070  1.00  0.00     0.029 A 
ATOM     22  N   UNL A   1      40.399  28.805  30.073  1.00  0.00    -0.354 N 
ATOM     23  C   UNL A   1      39.064  30.980  33.408  1.00  0.00     0.074 A 
ATOM     24  C   UNL A   1      37.704  31.388  33.154  1.00  0.00     0.031 C 
ATOM     25  C   UNL A   1      40.359  27.866  28.065  1.00  0.00     0.029 A 
ATOM     26  C   UNL A   1      41.109  27.878  29.317  1.00  0.00     0.049 A 
ATOM     27  H   UNL A   1      40.569  28.948  31.032  1.00  0.00     0.167 HD
ATOM     28  C   UNL A   1      39.642  31.035  34.634  1.00  0.00     0.034 A 
ATOM     29  C   UNL A   1      42.252  27.169  29.548  1.00  0.00     0.034 A 
ATOM     30  C   UNL A   1      40.923  30.458  34.948  1.00  0.00     0.049 A 
ATOM     31  C   UNL A   1      42.996  27.349  30.867  1.00  0.00     0.074 A 
ATOM     32  C   UNL A   1      41.629  30.515  36.139  1.00  0.00     0.029 A 
ATOM     33  N   UNL A   1      41.657  29.658  34.091  1.00  0.00    -0.354 N 
ATOM     34  N   UNL A   1      42.635  28.018  31.939  1.00  0.00    -0.248 NA
ATOM     35  C   UNL A   1      44.315  26.701  30.998  1.00  0.00     0.031 C 
ATOM     36  C   UNL A   1      42.825  29.809  35.975  1.00  0.00     0.029 A 
ATOM     37  C   UNL A   1      42.822  29.237  34.716  1.00  0.00     0.049 A 
ATOM     38  H   UNL A   1      41.393  29.421  33.173  1.00  0.00     0.167 HD
ATOM     39  C   UNL A   1      43.667  27.844  32.865  1.00  0.00     0.074 A 
ATOM     40  C   UNL A   1      44.647  26.982  32.249  1.00  0.00     0.031 C 
ATOM     41  C   UNL A   1      43.797  28.365  34.113  1.00  0.00     0.034 A 
BRANCH  28  42
ATOM     42  C   UNL A   1      38.937  31.837  35.708  1.00  0.00     0.023 A 
ATOM     43  C   UNL A   1      38.394  31.265  36.870  1.00  0.00     0.031 A 
ATOM     44  C   UNL A   1      38.775  33.225  35.523  1.00  0.00     0.131 A 
ATOM     45  C   UNL A   1      37.649  32.061  37.756  1.00  0.00     0.055 A 
ATOM     46  C   UNL A   1      38.116  34.026  36.455  1.00  0.00     0.041 A 
ATOM     47  F   UNL A   1      39.249  33.825  34.420  1.00  0.00    -0.206 F 
ATOM     48  C   UNL A   1      37.533  33.441  37.573  1.00  0.00     0.022 A 
BRANCH  45  49
ATOM     49  S   UNL A   1      36.697  31.245  39.067  1.00  0.00     0.124 S 
ATOM     50  O   UNL A   1      35.546  32.139  39.193  1.00  0.00    -0.237 OA
ATOM     51  O   UNL A   1      36.427  29.933  38.493  1.00  0.00    -0.237 OA
ATOM     52  O   UNL A   1      37.608  31.253  40.210  1.00  0.00    -0.744 OA
ENDBRANCH  45  49
ENDBRANCH  28  42
BRANCH  29  53
ATOM     53  C   UNL A   1      42.916  26.324  28.473  1.00  0.00     0.023 A 
ATOM     54  C   UNL A   1      44.022  26.775  27.718  1.00  0.00     0.031 A 
ATOM     55  C   UNL A   1      42.328  25.110  28.064  1.00  0.00     0.131 A 
ATOM     56  C   UNL A   1      44.455  26.057  26.580  1.00  0.00     0.055 A 
ATOM     57  C   UNL A   1      42.813  24.361  26.986  1.00  0.00     0.041 A 
ATOM     58  F   UNL A   1      41.239  24.637  28.689  1.00  0.00    -0.206 F 
ATOM     59  C   UNL A   1      43.871  24.841  26.227  1.00  0.00     0.022 A 
BRANCH  56  60
ATOM     60  S   UNL A   1      45.686  26.802  25.460  1.00  0.00     0.124 S 
ATOM     61  O   UNL A   1      45.860  25.748  24.469  1.00  0.00    -0.237 OA
ATOM     62  O   UNL A   1      44.997  28.005  25.007  1.00  0.00    -0.237 OA
ATOM     63  O   UNL A   1      46.840  27.037  26.326  1.00  0.00    -0.744 OA
ENDBRANCH  56  60
ENDBRANCH  29  53
BRANCH  41  64
ATOM     64  C   UNL A   1      45.010  27.970  34.923  1.00  0.00     0.023 A 
ATOM     65  C   UNL A   1      45.074  26.747  35.615  1.00  0.00     0.031 A 
ATOM     66  C   UNL A   1      46.116  28.835  35.016  1.00  0.00     0.131 A 
ATOM     67  C   UNL A   1      46.184  26.457  36.423  1.00  0.00     0.055 A 
ATOM     68  C   UNL A   1      47.249  28.508  35.763  1.00  0.00     0.041 A 
ATOM     69  F   UNL A   1      46.114  30.017  34.378  1.00  0.00    -0.206 F 
ATOM     70  C   UNL A   1      47.280  27.320  36.487  1.00  0.00     0.022 A 
BRANCH  67  71
ATOM     71  S   UNL A   1      46.123  24.989  37.490  1.00  0.00     0.124 S 
ATOM     72  O   UNL A   1      47.492  24.493  37.400  1.00  0.00    -0.237 OA
ATOM     73  O   UNL A   1      45.731  25.555  38.777  1.00  0.00    -0.237 OA
ATOM     74  O   UNL A   1      45.114  24.144  36.853  1.00  0.00    -0.744 OA
ENDBRANCH  67  71
ENDBRANCH  41  64
ENDBRANCH  15  16
ENDBRANCH   8  10
ENDBRANCH   7   8
ENDBRANCH   6   7
ENDBRANCH   5   6
ENDBRANCH   4   5
ENDBRANCH   3   4
ENDBRANCH   2   3
ENDBRANCH   1   2
BRANCH   1  75
ATOM     75  C   UNL A   1      32.691  25.702  26.142  1.00  0.00     0.188 C 
BRANCH  75  76
ATOM     76  C   UNL A   1      31.664  24.520  26.301  1.00  0.00     0.188 C 
BRANCH  76  77
ATOM     77  O   UNL A   1      31.622  23.849  27.548  1.00  0.00    -0.376 OA
BRANCH  77  78
ATOM     78  C   UNL A   1      32.172  22.549  27.601  1.00  0.00     0.202 C 
BRANCH  78  79
ATOM     79  C   UNL A   1      33.648  22.426  28.045  1.00  0.00     0.261 C 
BRANCH  79  80
ATOM     80  O   UNL A   1      34.468  21.418  27.386  1.00  0.00    -0.462 OA
BRANCH  80  81
ATOM     81  C   UNL A   1      34.711  21.491  26.039  1.00  0.00     0.328 C 
ATOM     82  O   UNL A   1      34.469  20.580  25.262  1.00  0.00    -0.250 OA
BRANCH  81  83
ATOM     83  C   UNL A   1      35.240  22.972  25.630  1.00  0.00     0.195 C 
ATOM     84  C   UNL A   1      36.691  23.023  26.083  1.00  0.00     0.039 C 
ATOM     85  N   UNL A   1      35.380  23.182  24.176  1.00  0.00    -0.327 N 
ATOM     86  C   UNL A   1      37.342  22.112  25.044  1.00  0.00     0.024 C 
ATOM     87  C   UNL A   1      36.530  22.368  23.763  1.00  0.00     0.120 C 
BRANCH  85  88
ATOM     88  C   UNL A   1      34.705  23.893  23.190  1.00  0.00     0.243 C 
ATOM     89  O   UNL A   1      35.296  24.912  22.770  1.00  0.00    -0.273 OA
BRANCH  88  90
ATOM     90  C   UNL A   1      33.147  23.844  22.784  1.00  0.00     0.228 C 
BRANCH  90  91
ATOM     91  N   UNL A   1      32.156  24.914  22.608  1.00  0.00    -0.273 N 
ATOM     92  C   UNL A   1      32.368  25.972  21.713  1.00  0.00     0.234 C 
ATOM     93  C   UNL A   1      30.797  24.745  23.016  1.00  0.00     0.234 C 
ATOM     94  C   UNL A   1      31.632  27.140  22.307  1.00  0.00     0.099 C 
ATOM     95  O   UNL A   1      33.172  26.018  20.799  1.00  0.00    -0.274 OA
ATOM     96  C   UNL A   1      30.257  26.114  23.325  1.00  0.00     0.099 C 
ATOM     97  O   UNL A   1      30.203  23.692  23.169  1.00  0.00    -0.274 OA
ATOM     98  C   UNL A   1      30.687  28.982  22.071  1.00  0.00     0.025 C 
ATOM     99  C   UNL A   1      28.578  27.127  23.600  1.00  0.00     0.025 C 
ATOM    100  C   UNL A   1      29.255  29.786  22.820  1.00  0.00    -0.027 C 
ATOM    101  C   UNL A   1      28.919  28.444  22.926  1.00  0.00     0.017 C 
ATOM    102  C   UNL A   1      28.104  29.026  23.490  1.00  0.00    -0.027 C 
ENDBRANCH  90  91
ENDBRANCH  88  90
ENDBRANCH  85  88
ENDBRANCH  81  83
ENDBRANCH  80  81
ENDBRANCH  79  80
ENDBRANCH  78  79
ENDBRANCH  77  78
ENDBRANCH  76  77
ENDBRANCH  75  76
ENDBRANCH   1  75
TORSDOF 26
ENDMDL
