MODEL 1
REMARK VINA RESULT:      -9.6      0.000      0.000
REMARK SMILES CC(C)[C@@H](C)[N@@H+]1[C@@H](C(=O)OCCOCCOCCOCCOC(=O)c2ccc(-c3c4nc(c(-c5cc(S(=O)(=O)[O-])ccc5F)c5ccc([nH]5)c(-c5cc(S(=O)(=O)[O-])ccc5F)c5nc(c(-c6cc(S(=O)(=O)[O-])ccc6F)c6ccc3[nH]6)C=C5)C=C4)cc2)C[C@H]2CCCC[C@H]21
REMARK SMILES IDX 17 1 16 2 15 3 14 4 13 5 12 6 11 7 10 8 8 9 9 10 7 11 6 12
REMARK SMILES IDX 94 13 88 15 89 16 93 17 90 18 92 19 91 20 4 21 5 22 2 23
REMARK SMILES IDX 1 24 3 25 18 26 19 27 20 28 21 29 22 30 23 31 24 32 25 33
REMARK SMILES IDX 26 34 87 35 27 36 86 37 28 38 29 39 30 40 80 41 31 42 85 43
REMARK SMILES IDX 79 44 81 45 32 46 84 47 78 48 77 49 33 51 65 52 45 53 64 54
REMARK SMILES IDX 46 55 49 56 63 57 82 58 47 59 48 60 62 62 83 63 50 64 34 65
REMARK SMILES IDX 35 66 43 67 36 68 42 69 44 70 41 71 37 72 38 73 39 74 40 75
REMARK SMILES IDX 66 76 67 77 75 78 68 79 74 80 76 81 73 82 69 83 70 84 71 85
REMARK SMILES IDX 72 86 51 87 52 88 60 89 53 90 59 91 61 92 58 93 54 94 55 95
REMARK SMILES IDX 56 96 57 97
REMARK H PARENT 6 14 81 50 49 61
REMARK Flexibility Score: inf
ROOT
ATOM      1  C   UNL A   1      35.213  21.186  25.201  1.00  0.00     0.188 C 
ENDROOT
BRANCH   1   2
ATOM      2  O   UNL A   1      35.209  21.615  26.553  1.00  0.00    -0.377 OA
BRANCH   2   3
ATOM      3  C   UNL A   1      34.253  22.609  26.850  1.00  0.00     0.188 C 
BRANCH   3   4
ATOM      4  C   UNL A   1      33.249  22.177  27.939  1.00  0.00     0.188 C 
BRANCH   4   5
ATOM      5  O   UNL A   1      31.938  22.721  27.991  1.00  0.00    -0.376 OA
BRANCH   5   6
ATOM      6  C   UNL A   1      30.969  22.545  26.968  1.00  0.00     0.202 C 
BRANCH   6   7
ATOM      7  C   UNL A   1      30.894  23.385  25.676  1.00  0.00     0.261 C 
BRANCH   7   8
ATOM      8  O   UNL A   1      31.521  24.664  25.681  1.00  0.00    -0.459 OA
BRANCH   8   9
ATOM      9  C   UNL A   1      30.664  25.723  25.641  1.00  0.00     0.365 C 
ATOM     10  O   UNL A   1      29.788  25.924  26.470  1.00  0.00    -0.245 OA
BRANCH   9  11
ATOM     11  C   UNL A   1      31.111  26.653  24.486  1.00  0.00     0.296 C 
ATOM     12  N   UNL A   1      32.576  26.573  24.222  1.00  0.00    -0.318 N 
ATOM     13  C   UNL A   1      33.112  27.780  24.909  1.00  0.00     0.188 C 
ATOM     14  H   UNL A   1      32.949  25.690  24.571  1.00  0.00     0.349 HD
ATOM     15  C   UNL A   1      30.735  28.106  24.727  1.00  0.00     0.087 C 
ATOM     16  C   UNL A   1      32.057  28.851  24.615  1.00  0.00     0.054 C 
ATOM     17  C   UNL A   1      33.319  27.526  26.418  1.00  0.00     0.065 C 
ATOM     18  C   UNL A   1      32.146  30.081  25.505  1.00  0.00     0.010 C 
ATOM     19  C   UNL A   1      33.418  28.798  27.248  1.00  0.00     0.006 C 
ATOM     20  C   UNL A   1      32.239  29.729  26.985  1.00  0.00     0.001 C 
BRANCH  12  21
ATOM     21  C   UNL A   1      33.001  26.486  22.783  1.00  0.00     0.184 C 
ATOM     22  C   UNL A   1      31.893  26.565  21.705  1.00  0.00     0.075 C 
BRANCH  21  23
ATOM     23  C   UNL A   1      33.816  25.159  22.560  1.00  0.00     0.041 C 
ATOM     24  C   UNL A   1      34.500  24.653  23.843  1.00  0.00     0.013 C 
ATOM     25  C   UNL A   1      32.955  24.020  22.005  1.00  0.00     0.013 C 
ENDBRANCH  21  23
ENDBRANCH  12  21
ENDBRANCH   9  11
ENDBRANCH   8   9
ENDBRANCH   7   8
ENDBRANCH   6   7
ENDBRANCH   5   6
ENDBRANCH   4   5
ENDBRANCH   3   4
ENDBRANCH   2   3
ENDBRANCH   1   2
BRANCH   1  26
ATOM     26  C   UNL A   1      36.543  21.300  24.419  1.00  0.00     0.188 C 
BRANCH  26  27
ATOM     27  O   UNL A   1      37.494  20.283  24.719  1.00  0.00    -0.376 OA
BRANCH  27  28
ATOM     28  C   UNL A   1      38.529  20.541  25.652  1.00  0.00     0.202 C 
BRANCH  28  29
ATOM     29  C   UNL A   1      39.812  19.705  25.520  1.00  0.00     0.261 C 
BRANCH  29  30
ATOM     30  O   UNL A   1      41.028  20.369  25.882  1.00  0.00    -0.460 OA
BRANCH  30  31
ATOM     31  C   UNL A   1      41.317  20.402  27.205  1.00  0.00     0.338 C 
ATOM     32  O   UNL A   1      41.621  19.459  27.902  1.00  0.00    -0.246 OA
BRANCH  31  33
ATOM     33  C   UNL A   1      41.421  21.823  27.608  1.00  0.00     0.060 A 
ATOM     34  C   UNL A   1      40.769  22.783  26.823  1.00  0.00     0.016 A 
ATOM     35  C   UNL A   1      42.116  22.200  28.760  1.00  0.00     0.016 A 
ATOM     36  C   UNL A   1      40.843  24.130  27.169  1.00  0.00     0.010 A 
ATOM     37  C   UNL A   1      42.217  23.556  29.087  1.00  0.00     0.010 A 
ATOM     38  C   UNL A   1      41.612  24.527  28.270  1.00  0.00    -0.014 A 
BRANCH  38  39
ATOM     39  C   UNL A   1      41.979  25.958  28.399  1.00  0.00     0.031 A 
ATOM     40  C   UNL A   1      43.279  26.405  27.785  1.00  0.00     0.074 A 
ATOM     41  C   UNL A   1      41.154  26.849  28.977  1.00  0.00     0.049 A 
ATOM     42  N   UNL A   1      43.820  27.594  27.753  1.00  0.00    -0.248 NA
ATOM     43  C   UNL A   1      44.074  25.361  27.118  1.00  0.00     0.031 C 
ATOM     44  C   UNL A   1      39.846  26.540  29.552  1.00  0.00     0.029 A 
ATOM     45  N   UNL A   1      41.297  28.200  29.170  1.00  0.00    -0.354 N 
ATOM     46  C   UNL A   1      45.018  27.442  27.061  1.00  0.00     0.074 A 
ATOM     47  C   UNL A   1      45.143  26.039  26.735  1.00  0.00     0.031 C 
ATOM     48  C   UNL A   1      39.307  27.673  30.037  1.00  0.00     0.029 A 
ATOM     49  C   UNL A   1      40.245  28.778  29.840  1.00  0.00     0.049 A 
ATOM     50  H   UNL A   1      42.080  28.708  28.857  1.00  0.00     0.167 HD
ATOM     51  C   UNL A   1      45.923  28.390  26.718  1.00  0.00     0.034 A 
ATOM     52  C   UNL A   1      40.074  30.048  30.263  1.00  0.00     0.034 A 
ATOM     53  C   UNL A   1      45.791  29.783  27.067  1.00  0.00     0.049 A 
ATOM     54  C   UNL A   1      41.148  31.069  29.959  1.00  0.00     0.074 A 
ATOM     55  C   UNL A   1      46.644  30.829  26.770  1.00  0.00     0.029 A 
ATOM     56  N   UNL A   1      44.744  30.321  27.806  1.00  0.00    -0.354 N 
ATOM     57  N   UNL A   1      42.273  30.917  29.296  1.00  0.00    -0.248 NA
ATOM     58  C   UNL A   1      40.922  32.432  30.452  1.00  0.00     0.031 C 
ATOM     59  C   UNL A   1      46.160  31.981  27.400  1.00  0.00     0.029 A 
ATOM     60  C   UNL A   1      44.952  31.676  28.009  1.00  0.00     0.049 A 
ATOM     61  H   UNL A   1      43.968  29.814  28.137  1.00  0.00     0.167 HD
ATOM     62  C   UNL A   1      42.870  32.177  29.266  1.00  0.00     0.074 A 
ATOM     63  C   UNL A   1      41.969  33.076  29.958  1.00  0.00     0.031 C 
ATOM     64  C   UNL A   1      44.052  32.559  28.715  1.00  0.00     0.034 A 
BRANCH  51  65
ATOM     65  C   UNL A   1      47.160  27.932  25.983  1.00  0.00     0.023 A 
ATOM     66  C   UNL A   1      47.322  28.134  24.601  1.00  0.00     0.031 A 
ATOM     67  C   UNL A   1      48.179  27.247  26.671  1.00  0.00     0.131 A 
ATOM     68  C   UNL A   1      48.435  27.594  23.940  1.00  0.00     0.055 A 
ATOM     69  C   UNL A   1      49.326  26.789  26.022  1.00  0.00     0.041 A 
ATOM     70  F   UNL A   1      48.067  26.998  27.985  1.00  0.00    -0.206 F 
ATOM     71  C   UNL A   1      49.453  26.948  24.645  1.00  0.00     0.022 A 
BRANCH  68  72
ATOM     72  S   UNL A   1      48.460  27.611  22.126  1.00  0.00     0.124 S 
ATOM     73  O   UNL A   1      47.134  28.146  21.818  1.00  0.00    -0.237 OA
ATOM     74  O   UNL A   1      49.587  28.488  21.834  1.00  0.00    -0.237 OA
ATOM     75  O   UNL A   1      48.652  26.206  21.772  1.00  0.00    -0.744 OA
ENDBRANCH  68  72
ENDBRANCH  51  65
BRANCH  52  76
ATOM     76  C   UNL A   1      38.868  30.430  31.055  1.00  0.00     0.023 A 
ATOM     77  C   UNL A   1      37.772  31.070  30.455  1.00  0.00     0.031 A 
ATOM     78  C   UNL A   1      38.827  30.227  32.446  1.00  0.00     0.131 A 
ATOM     79  C   UNL A   1      36.707  31.528  31.248  1.00  0.00     0.055 A 
ATOM     80  C   UNL A   1      37.739  30.630  33.223  1.00  0.00     0.041 A 
ATOM     81  F   UNL A   1      39.852  29.630  33.077  1.00  0.00    -0.206 F 
ATOM     82  C   UNL A   1      36.677  31.299  32.625  1.00  0.00     0.022 A 
BRANCH  79  83
ATOM     83  S   UNL A   1      35.407  32.525  30.467  1.00  0.00     0.124 S 
ATOM     84  O   UNL A   1      34.340  32.446  31.457  1.00  0.00    -0.237 OA
ATOM     85  O   UNL A   1      36.061  33.822  30.330  1.00  0.00    -0.237 OA
ATOM     86  O   UNL A   1      35.149  31.823  29.211  1.00  0.00    -0.744 OA
ENDBRANCH  79  83
ENDBRANCH  52  76
BRANCH  64  87
ATOM     87  C   UNL A   1      44.412  34.026  28.803  1.00  0.00     0.023 A 
ATOM     88  C   UNL A   1      45.164  34.543  29.873  1.00  0.00     0.031 A 
ATOM     89  C   UNL A   1      43.977  34.924  27.811  1.00  0.00     0.131 A 
ATOM     90  C   UNL A   1      45.394  35.924  29.963  1.00  0.00     0.055 A 
ATOM     91  C   UNL A   1      44.275  36.285  27.867  1.00  0.00     0.041 A 
ATOM     92  F   UNL A   1      43.253  34.490  26.766  1.00  0.00    -0.206 F 
ATOM     93  C   UNL A   1      44.972  36.796  28.957  1.00  0.00     0.022 A 
BRANCH  90  94
ATOM     94  S   UNL A   1      46.142  36.582  31.479  1.00  0.00     0.124 S 
ATOM     95  O   UNL A   1      45.536  37.906  31.566  1.00  0.00    -0.237 OA
ATOM     96  O   UNL A   1      45.710  35.616  32.485  1.00  0.00    -0.237 OA
ATOM     97  O   UNL A   1      47.574  36.572  31.188  1.00  0.00    -0.744 OA
ENDBRANCH  90  94
ENDBRANCH  64  87
ENDBRANCH  38  39
ENDBRANCH  31  33
ENDBRANCH  30  31
ENDBRANCH  29  30
ENDBRANCH  28  29
ENDBRANCH  27  28
ENDBRANCH  26  27
ENDBRANCH   1  26
TORSDOF 25
ENDMDL
MODEL 2
REMARK VINA RESULT:      -8.8      4.980     10.516
REMARK SMILES CC(C)[C@@H](C)[N@@H+]1[C@@H](C(=O)OCCOCCOCCOCCOC(=O)c2ccc(-c3c4nc(c(-c5cc(S(=O)(=O)[O-])ccc5F)c5ccc([nH]5)c(-c5cc(S(=O)(=O)[O-])ccc5F)c5nc(c(-c6cc(S(=O)(=O)[O-])ccc6F)c6ccc3[nH]6)C=C5)C=C4)cc2)C[C@H]2CCCC[C@H]21
REMARK SMILES IDX 17 1 16 2 15 3 14 4 13 5 12 6 11 7 10 8 8 9 9 10 7 11 6 12
REMARK SMILES IDX 94 13 88 15 89 16 93 17 90 18 92 19 91 20 4 21 5 22 2 23
REMARK SMILES IDX 1 24 3 25 18 26 19 27 20 28 21 29 22 30 23 31 24 32 25 33
REMARK SMILES IDX 26 34 87 35 27 36 86 37 28 38 29 39 30 40 80 41 31 42 85 43
REMARK SMILES IDX 79 44 81 45 32 46 84 47 78 48 77 49 33 51 65 52 45 53 64 54
REMARK SMILES IDX 46 55 49 56 63 57 82 58 47 59 48 60 62 62 83 63 50 64 34 65
REMARK SMILES IDX 35 66 43 67 36 68 42 69 44 70 41 71 37 72 38 73 39 74 40 75
REMARK SMILES IDX 66 76 67 77 75 78 68 79 74 80 76 81 73 82 69 83 70 84 71 85
REMARK SMILES IDX 72 86 51 87 52 88 60 89 53 90 59 91 61 92 58 93 54 94 55 95
REMARK SMILES IDX 56 96 57 97
REMARK H PARENT 6 14 81 50 49 61
REMARK Flexibility Score: inf
ROOT
ATOM      1  C   UNL A   1      35.256  32.444  27.932  1.00  0.00     0.188 C 
ENDROOT
BRANCH   1   2
ATOM      2  O   UNL A   1      35.024  31.045  27.904  1.00  0.00    -0.377 OA
BRANCH   2   3
ATOM      3  C   UNL A   1      33.793  30.665  27.327  1.00  0.00     0.188 C 
BRANCH   3   4
ATOM      4  C   UNL A   1      33.745  29.176  26.928  1.00  0.00     0.188 C 
BRANCH   4   5
ATOM      5  O   UNL A   1      34.268  28.729  25.685  1.00  0.00    -0.376 OA
BRANCH   5   6
ATOM      6  C   UNL A   1      33.464  28.259  24.613  1.00  0.00     0.202 C 
BRANCH   6   7
ATOM      7  C   UNL A   1      33.884  27.155  23.619  1.00  0.00     0.261 C 
BRANCH   7   8
ATOM      8  O   UNL A   1      33.219  25.899  23.707  1.00  0.00    -0.459 OA
BRANCH   8   9
ATOM      9  C   UNL A   1      34.009  24.857  24.094  1.00  0.00     0.365 C 
ATOM     10  O   UNL A   1      35.124  24.641  23.642  1.00  0.00    -0.245 OA
BRANCH   9  11
ATOM     11  C   UNL A   1      33.307  24.142  25.275  1.00  0.00     0.296 C 
ATOM     12  N   UNL A   1      32.476  22.986  24.831  1.00  0.00    -0.318 N 
ATOM     13  C   UNL A   1      31.095  23.541  24.828  1.00  0.00     0.188 C 
ATOM     14  H   UNL A   1      32.797  22.650  23.923  1.00  0.00     0.349 HD
ATOM     15  C   UNL A   1      32.439  25.082  26.095  1.00  0.00     0.087 C 
ATOM     16  C   UNL A   1      31.067  24.425  26.078  1.00  0.00     0.054 C 
ATOM     17  C   UNL A   1      30.801  24.317  23.525  1.00  0.00     0.065 C 
ATOM     18  C   UNL A   1      29.912  25.414  26.122  1.00  0.00     0.010 C 
ATOM     19  C   UNL A   1      29.623  25.275  23.633  1.00  0.00     0.006 C 
ATOM     20  C   UNL A   1      29.770  26.209  24.830  1.00  0.00     0.001 C 
BRANCH  12  21
ATOM     21  C   UNL A   1      32.593  21.721  25.633  1.00  0.00     0.184 C 
ATOM     22  C   UNL A   1      33.356  21.795  26.978  1.00  0.00     0.075 C 
BRANCH  21  23
ATOM     23  C   UNL A   1      33.255  20.602  24.748  1.00  0.00     0.041 C 
ATOM     24  C   UNL A   1      34.778  20.498  24.953  1.00  0.00     0.013 C 
ATOM     25  C   UNL A   1      32.652  19.215  24.995  1.00  0.00     0.013 C 
ENDBRANCH  21  23
ENDBRANCH  12  21
ENDBRANCH   9  11
ENDBRANCH   8   9
ENDBRANCH   7   8
ENDBRANCH   6   7
ENDBRANCH   5   6
ENDBRANCH   4   5
ENDBRANCH   3   4
ENDBRANCH   2   3
ENDBRANCH   1   2
BRANCH   1  26
ATOM     26  C   UNL A   1      34.098  33.351  28.407  1.00  0.00     0.188 C 
BRANCH  26  27
ATOM     27  O   UNL A   1      34.401  34.743  28.413  1.00  0.00    -0.376 OA
BRANCH  27  28
ATOM     28  C   UNL A   1      33.428  35.673  28.856  1.00  0.00     0.202 C 
BRANCH  28  29
ATOM     29  C   UNL A   1      33.014  35.599  30.335  1.00  0.00     0.261 C 
BRANCH  29  30
ATOM     30  O   UNL A   1      34.087  35.498  31.277  1.00  0.00    -0.460 OA
BRANCH  30  31
ATOM     31  C   UNL A   1      34.029  34.453  32.137  1.00  0.00     0.338 C 
ATOM     32  O   UNL A   1      33.083  34.131  32.822  1.00  0.00    -0.246 OA
BRANCH  31  33
ATOM     33  C   UNL A   1      35.245  33.633  31.931  1.00  0.00     0.060 A 
ATOM     34  C   UNL A   1      35.250  32.321  32.422  1.00  0.00     0.016 A 
ATOM     35  C   UNL A   1      36.347  34.134  31.233  1.00  0.00     0.016 A 
ATOM     36  C   UNL A   1      36.374  31.517  32.249  1.00  0.00     0.010 A 
ATOM     37  C   UNL A   1      37.487  33.338  31.089  1.00  0.00     0.010 A 
ATOM     38  C   UNL A   1      37.516  32.041  31.631  1.00  0.00    -0.014 A 
BRANCH  38  39
ATOM     39  C   UNL A   1      38.802  31.317  31.786  1.00  0.00     0.031 A 
ATOM     40  C   UNL A   1      39.652  31.650  32.983  1.00  0.00     0.074 A 
ATOM     41  C   UNL A   1      39.171  30.342  30.935  1.00  0.00     0.049 A 
ATOM     42  N   UNL A   1      40.805  31.157  33.349  1.00  0.00    -0.248 NA
ATOM     43  C   UNL A   1      39.123  32.684  33.888  1.00  0.00     0.031 C 
ATOM     44  C   UNL A   1      38.399  29.896  29.777  1.00  0.00     0.029 A 
ATOM     45  N   UNL A   1      40.290  29.550  30.921  1.00  0.00    -0.354 N 
ATOM     46  C   UNL A   1      41.139  31.818  34.526  1.00  0.00     0.074 A 
ATOM     47  C   UNL A   1      40.089  32.779  34.784  1.00  0.00     0.031 C 
ATOM     48  C   UNL A   1      39.073  28.907  29.162  1.00  0.00     0.029 A 
ATOM     49  C   UNL A   1      40.337  28.677  29.859  1.00  0.00     0.049 A 
ATOM     50  H   UNL A   1      40.994  29.601  31.608  1.00  0.00     0.167 HD
ATOM     51  C   UNL A   1      42.217  31.631  35.326  1.00  0.00     0.034 A 
ATOM     52  C   UNL A   1      41.302  27.810  29.487  1.00  0.00     0.034 A 
ATOM     53  C   UNL A   1      43.264  30.680  35.044  1.00  0.00     0.049 A 
ATOM     54  C   UNL A   1      42.546  27.693  30.339  1.00  0.00     0.074 A 
ATOM     55  C   UNL A   1      44.399  30.405  35.784  1.00  0.00     0.029 A 
ATOM     56  N   UNL A   1      43.312  29.860  33.923  1.00  0.00    -0.354 N 
ATOM     57  N   UNL A   1      42.848  28.317  31.456  1.00  0.00    -0.248 NA
ATOM     58  C   UNL A   1      43.572  26.747  29.885  1.00  0.00     0.031 C 
ATOM     59  C   UNL A   1      45.174  29.484  35.070  1.00  0.00     0.029 A 
ATOM     60  C   UNL A   1      44.477  29.109  33.932  1.00  0.00     0.049 A 
ATOM     61  H   UNL A   1      42.619  29.818  33.225  1.00  0.00     0.167 HD
ATOM     62  C   UNL A   1      44.086  27.810  31.852  1.00  0.00     0.074 A 
ATOM     63  C   UNL A   1      44.459  26.818  30.866  1.00  0.00     0.031 C 
ATOM     64  C   UNL A   1      44.845  28.133  32.932  1.00  0.00     0.034 A 
BRANCH  51  65
ATOM     65  C   UNL A   1      42.340  32.519  36.541  1.00  0.00     0.023 A 
ATOM     66  C   UNL A   1      41.735  32.189  37.767  1.00  0.00     0.031 A 
ATOM     67  C   UNL A   1      43.043  33.735  36.461  1.00  0.00     0.131 A 
ATOM     68  C   UNL A   1      41.781  33.096  38.836  1.00  0.00     0.055 A 
ATOM     69  C   UNL A   1      43.159  34.592  37.556  1.00  0.00     0.041 A 
ATOM     70  F   UNL A   1      43.616  34.117  35.309  1.00  0.00    -0.206 F 
ATOM     71  C   UNL A   1      42.514  34.282  38.749  1.00  0.00     0.022 A 
BRANCH  68  72
ATOM     72  S   UNL A   1      40.743  32.778  40.290  1.00  0.00     0.124 S 
ATOM     73  O   UNL A   1      40.794  34.067  40.977  1.00  0.00    -0.237 OA
ATOM     74  O   UNL A   1      39.462  32.423  39.691  1.00  0.00    -0.237 OA
ATOM     75  O   UNL A   1      41.436  31.689  40.974  1.00  0.00    -0.744 OA
ENDBRANCH  68  72
ENDBRANCH  51  65
BRANCH  52  76
ATOM     76  C   UNL A   1      41.165  27.013  28.232  1.00  0.00     0.023 A 
ATOM     77  C   UNL A   1      40.937  25.628  28.267  1.00  0.00     0.031 A 
ATOM     78  C   UNL A   1      41.337  27.618  26.974  1.00  0.00     0.131 A 
ATOM     79  C   UNL A   1      40.938  24.888  27.074  1.00  0.00     0.055 A 
ATOM     80  C   UNL A   1      41.276  26.887  25.786  1.00  0.00     0.041 A 
ATOM     81  F   UNL A   1      41.569  28.938  26.879  1.00  0.00    -0.206 F 
ATOM     82  C   UNL A   1      41.091  25.510  25.833  1.00  0.00     0.022 A 
BRANCH  79  83
ATOM     83  S   UNL A   1      40.841  23.078  27.174  1.00  0.00     0.124 S 
ATOM     84  O   UNL A   1      39.418  22.846  26.955  1.00  0.00    -0.237 OA
ATOM     85  O   UNL A   1      41.732  22.668  26.094  1.00  0.00    -0.237 OA
ATOM     86  O   UNL A   1      41.323  22.786  28.523  1.00  0.00    -0.744 OA
ENDBRANCH  79  83
ENDBRANCH  52  76
BRANCH  64  87
ATOM     87  C   UNL A   1      46.135  27.366  33.122  1.00  0.00     0.023 A 
ATOM     88  C   UNL A   1      46.187  26.173  33.865  1.00  0.00     0.031 A 
ATOM     89  C   UNL A   1      47.335  27.848  32.568  1.00  0.00     0.131 A 
ATOM     90  C   UNL A   1      47.420  25.545  34.096  1.00  0.00     0.055 A 
ATOM     91  C   UNL A   1      48.546  27.177  32.736  1.00  0.00     0.041 A 
ATOM     92  F   UNL A   1      47.350  28.983  31.851  1.00  0.00    -0.206 F 
ATOM     93  C   UNL A   1      48.597  26.027  33.519  1.00  0.00     0.022 A 
BRANCH  90  94
ATOM     94  S   UNL A   1      47.484  24.160  35.265  1.00  0.00     0.124 S 
ATOM     95  O   UNL A   1      46.071  23.935  35.546  1.00  0.00    -0.237 OA
ATOM     96  O   UNL A   1      48.152  23.123  34.484  1.00  0.00    -0.237 OA
ATOM     97  O   UNL A   1      48.263  24.691  36.383  1.00  0.00    -0.744 OA
ENDBRANCH  90  94
ENDBRANCH  64  87
ENDBRANCH  38  39
ENDBRANCH  31  33
ENDBRANCH  30  31
ENDBRANCH  29  30
ENDBRANCH  28  29
ENDBRANCH  27  28
ENDBRANCH  26  27
ENDBRANCH   1  26
TORSDOF 25
ENDMDL
MODEL 3
REMARK VINA RESULT:      -8.6      2.915      7.877
REMARK SMILES CC(C)[C@@H](C)[N@@H+]1[C@@H](C(=O)OCCOCCOCCOCCOC(=O)c2ccc(-c3c4nc(c(-c5cc(S(=O)(=O)[O-])ccc5F)c5ccc([nH]5)c(-c5cc(S(=O)(=O)[O-])ccc5F)c5nc(c(-c6cc(S(=O)(=O)[O-])ccc6F)c6ccc3[nH]6)C=C5)C=C4)cc2)C[C@H]2CCCC[C@H]21
REMARK SMILES IDX 17 1 16 2 15 3 14 4 13 5 12 6 11 7 10 8 8 9 9 10 7 11 6 12
REMARK SMILES IDX 94 13 88 15 89 16 93 17 90 18 92 19 91 20 4 21 5 22 2 23
REMARK SMILES IDX 1 24 3 25 18 26 19 27 20 28 21 29 22 30 23 31 24 32 25 33
REMARK SMILES IDX 26 34 87 35 27 36 86 37 28 38 29 39 30 40 80 41 31 42 85 43
REMARK SMILES IDX 79 44 81 45 32 46 84 47 78 48 77 49 33 51 65 52 45 53 64 54
REMARK SMILES IDX 46 55 49 56 63 57 82 58 47 59 48 60 62 62 83 63 50 64 34 65
REMARK SMILES IDX 35 66 43 67 36 68 42 69 44 70 41 71 37 72 38 73 39 74 40 75
REMARK SMILES IDX 66 76 67 77 75 78 68 79 74 80 76 81 73 82 69 83 70 84 71 85
REMARK SMILES IDX 72 86 51 87 52 88 60 89 53 90 59 91 61 92 58 93 54 94 55 95
REMARK SMILES IDX 56 96 57 97
REMARK H PARENT 6 14 81 50 49 61
REMARK Flexibility Score: inf
ROOT
ATOM      1  C   UNL A   1      33.963  20.803  25.957  1.00  0.00     0.188 C 
ENDROOT
BRANCH   1   2
ATOM      2  O   UNL A   1      34.263  21.361  27.227  1.00  0.00    -0.377 OA
BRANCH   2   3
ATOM      3  C   UNL A   1      33.700  22.634  27.456  1.00  0.00     0.188 C 
BRANCH   3   4
ATOM      4  C   UNL A   1      32.239  22.572  27.944  1.00  0.00     0.188 C 
BRANCH   4   5
ATOM      5  O   UNL A   1      31.232  23.388  27.363  1.00  0.00    -0.376 OA
BRANCH   5   6
ATOM      6  C   UNL A   1      30.734  23.210  26.045  1.00  0.00     0.202 C 
BRANCH   6   7
ATOM      7  C   UNL A   1      30.922  24.220  24.893  1.00  0.00     0.261 C 
BRANCH   7   8
ATOM      8  O   UNL A   1      31.102  25.590  25.237  1.00  0.00    -0.459 OA
BRANCH   8   9
ATOM      9  C   UNL A   1      30.080  26.413  24.867  1.00  0.00     0.365 C 
ATOM     10  O   UNL A   1      28.897  26.127  24.981  1.00  0.00    -0.245 OA
BRANCH   9  11
ATOM     11  C   UNL A   1      30.692  27.773  24.449  1.00  0.00     0.296 C 
ATOM     12  N   UNL A   1      30.209  28.232  23.115  1.00  0.00    -0.318 N 
ATOM     13  C   UNL A   1      31.327  27.867  22.203  1.00  0.00     0.188 C 
ATOM     14  H   UNL A   1      29.320  27.786  22.891  1.00  0.00     0.349 HD
ATOM     15  C   UNL A   1      32.212  27.751  24.438  1.00  0.00     0.087 C 
ATOM     16  C   UNL A   1      32.576  28.193  23.028  1.00  0.00     0.054 C 
ATOM     17  C   UNL A   1      31.248  26.384  21.778  1.00  0.00     0.065 C 
ATOM     18  C   UNL A   1      33.858  27.567  22.500  1.00  0.00     0.010 C 
ATOM     19  C   UNL A   1      32.559  25.826  21.243  1.00  0.00     0.006 C 
ATOM     20  C   UNL A   1      33.710  26.079  22.211  1.00  0.00     0.001 C 
BRANCH  12  21
ATOM     21  C   UNL A   1      29.813  29.677  22.999  1.00  0.00     0.184 C 
ATOM     22  C   UNL A   1      30.009  30.574  24.246  1.00  0.00     0.075 C 
BRANCH  21  23
ATOM     23  C   UNL A   1      28.307  29.771  22.553  1.00  0.00     0.041 C 
ATOM     24  C   UNL A   1      27.450  28.609  23.089  1.00  0.00     0.013 C 
ATOM     25  C   UNL A   1      27.642  31.083  22.980  1.00  0.00     0.013 C 
ENDBRANCH  21  23
ENDBRANCH  12  21
ENDBRANCH   9  11
ENDBRANCH   8   9
ENDBRANCH   7   8
ENDBRANCH   6   7
ENDBRANCH   5   6
ENDBRANCH   4   5
ENDBRANCH   3   4
ENDBRANCH   2   3
ENDBRANCH   1   2
BRANCH   1  26
ATOM     26  C   UNL A   1      34.821  21.260  24.755  1.00  0.00     0.188 C 
BRANCH  26  27
ATOM     27  O   UNL A   1      35.998  20.488  24.540  1.00  0.00    -0.376 OA
BRANCH  27  28
ATOM     28  C   UNL A   1      37.040  20.511  25.500  1.00  0.00     0.202 C 
BRANCH  28  29
ATOM     29  C   UNL A   1      38.299  21.319  25.144  1.00  0.00     0.261 C 
BRANCH  29  30
ATOM     30  O   UNL A   1      38.733  22.262  26.130  1.00  0.00    -0.460 OA
BRANCH  30  31
ATOM     31  C   UNL A   1      37.985  23.384  26.251  1.00  0.00     0.338 C 
ATOM     32  O   UNL A   1      36.781  23.466  26.144  1.00  0.00    -0.246 OA
BRANCH  31  33
ATOM     33  C   UNL A   1      38.866  24.460  26.762  1.00  0.00     0.060 A 
ATOM     34  C   UNL A   1      38.811  24.769  28.127  1.00  0.00     0.016 A 
ATOM     35  C   UNL A   1      39.759  25.126  25.918  1.00  0.00     0.016 A 
ATOM     36  C   UNL A   1      39.624  25.773  28.646  1.00  0.00     0.010 A 
ATOM     37  C   UNL A   1      40.550  26.157  26.434  1.00  0.00     0.010 A 
ATOM     38  C   UNL A   1      40.456  26.508  27.792  1.00  0.00    -0.014 A 
BRANCH  38  39
ATOM     39  C   UNL A   1      41.019  27.790  28.281  1.00  0.00     0.031 A 
ATOM     40  C   UNL A   1      40.054  28.836  28.773  1.00  0.00     0.074 A 
ATOM     41  C   UNL A   1      42.346  27.995  28.357  1.00  0.00     0.049 A 
ATOM     42  N   UNL A   1      40.291  30.027  29.256  1.00  0.00    -0.248 NA
ATOM     43  C   UNL A   1      38.626  28.483  28.709  1.00  0.00     0.031 C 
ATOM     44  C   UNL A   1      43.373  27.031  27.965  1.00  0.00     0.029 A 
ATOM     45  N   UNL A   1      43.055  29.083  28.797  1.00  0.00    -0.354 N 
ATOM     46  C   UNL A   1      39.043  30.565  29.554  1.00  0.00     0.074 A 
ATOM     47  C   UNL A   1      38.055  29.589  29.153  1.00  0.00     0.031 C 
ATOM     48  C   UNL A   1      44.584  27.577  28.180  1.00  0.00     0.029 A 
ATOM     49  C   UNL A   1      44.419  28.937  28.690  1.00  0.00     0.049 A 
ATOM     50  H   UNL A   1      42.628  29.895  29.156  1.00  0.00     0.167 HD
ATOM     51  C   UNL A   1      38.751  31.760  30.122  1.00  0.00     0.034 A 
ATOM     52  C   UNL A   1      45.411  29.812  28.953  1.00  0.00     0.034 A 
ATOM     53  C   UNL A   1      39.749  32.730  30.499  1.00  0.00     0.049 A 
ATOM     54  C   UNL A   1      45.055  31.180  29.489  1.00  0.00     0.074 A 
ATOM     55  C   UNL A   1      39.568  33.969  31.083  1.00  0.00     0.029 A 
ATOM     56  N   UNL A   1      41.118  32.574  30.312  1.00  0.00    -0.354 N 
ATOM     57  N   UNL A   1      43.872  31.677  29.776  1.00  0.00    -0.248 NA
ATOM     58  C   UNL A   1      46.169  32.100  29.746  1.00  0.00     0.031 C 
ATOM     59  C   UNL A   1      40.814  34.598  31.171  1.00  0.00     0.029 A 
ATOM     60  C   UNL A   1      41.787  33.714  30.733  1.00  0.00     0.049 A 
ATOM     61  H   UNL A   1      41.549  31.773  29.937  1.00  0.00     0.167 HD
ATOM     62  C   UNL A   1      44.108  32.956  30.279  1.00  0.00     0.074 A 
ATOM     63  C   UNL A   1      45.544  33.142  30.275  1.00  0.00     0.031 C 
ATOM     64  C   UNL A   1      43.221  33.892  30.709  1.00  0.00     0.034 A 
BRANCH  51  65
ATOM     65  C   UNL A   1      37.291  32.100  30.305  1.00  0.00     0.023 A 
ATOM     66  C   UNL A   1      36.540  32.723  29.292  1.00  0.00     0.031 A 
ATOM     67  C   UNL A   1      36.650  31.832  31.528  1.00  0.00     0.131 A 
ATOM     68  C   UNL A   1      35.219  33.122  29.546  1.00  0.00     0.055 A 
ATOM     69  C   UNL A   1      35.309  32.153  31.743  1.00  0.00     0.041 A 
ATOM     70  F   UNL A   1      37.324  31.267  32.543  1.00  0.00    -0.206 F 
ATOM     71  C   UNL A   1      34.588  32.815  30.754  1.00  0.00     0.022 A 
BRANCH  68  72
ATOM     72  S   UNL A   1      34.385  34.184  28.333  1.00  0.00     0.124 S 
ATOM     73  O   UNL A   1      35.354  34.197  27.239  1.00  0.00    -0.237 OA
ATOM     74  O   UNL A   1      33.145  33.460  28.080  1.00  0.00    -0.237 OA
ATOM     75  O   UNL A   1      34.236  35.455  29.037  1.00  0.00    -0.744 OA
ENDBRANCH  68  72
ENDBRANCH  51  65
BRANCH  52  76
ATOM     76  C   UNL A   1      46.834  29.453  28.678  1.00  0.00     0.023 A 
ATOM     77  C   UNL A   1      47.637  28.846  29.657  1.00  0.00     0.031 A 
ATOM     78  C   UNL A   1      47.435  29.782  27.449  1.00  0.00     0.131 A 
ATOM     79  C   UNL A   1      49.003  28.635  29.411  1.00  0.00     0.055 A 
ATOM     80  C   UNL A   1      48.779  29.515  27.186  1.00  0.00     0.041 A 
ATOM     81  F   UNL A   1      46.718  30.374  26.479  1.00  0.00    -0.206 F 
ATOM     82  C   UNL A   1      49.576  28.951  28.177  1.00  0.00     0.022 A 
BRANCH  79  83
ATOM     83  S   UNL A   1      50.049  28.036  30.767  1.00  0.00     0.124 S 
ATOM     84  O   UNL A   1      49.872  29.087  31.763  1.00  0.00    -0.237 OA
ATOM     85  O   UNL A   1      49.437  26.749  31.076  1.00  0.00    -0.237 OA
ATOM     86  O   UNL A   1      51.379  27.964  30.165  1.00  0.00    -0.744 OA
ENDBRANCH  79  83
ENDBRANCH  52  76
BRANCH  64  87
ATOM     87  C   UNL A   1      43.790  35.184  31.252  1.00  0.00     0.023 A 
ATOM     88  C   UNL A   1      44.120  35.336  32.610  1.00  0.00     0.031 A 
ATOM     89  C   UNL A   1      43.986  36.286  30.400  1.00  0.00     0.131 A 
ATOM     90  C   UNL A   1      44.556  36.581  33.089  1.00  0.00     0.055 A 
ATOM     91  C   UNL A   1      44.493  37.499  30.868  1.00  0.00     0.041 A 
ATOM     92  F   UNL A   1      43.687  36.203  29.093  1.00  0.00    -0.206 F 
ATOM     93  C   UNL A   1      44.765  37.657  32.223  1.00  0.00     0.022 A 
BRANCH  90  94
ATOM     94  S   UNL A   1      44.726  36.811  34.880  1.00  0.00     0.124 S 
ATOM     95  O   UNL A   1      43.584  37.666  35.185  1.00  0.00    -0.237 OA
ATOM     96  O   UNL A   1      44.649  35.442  35.379  1.00  0.00    -0.237 OA
ATOM     97  O   UNL A   1      46.034  37.449  35.022  1.00  0.00    -0.744 OA
ENDBRANCH  90  94
ENDBRANCH  64  87
ENDBRANCH  38  39
ENDBRANCH  31  33
ENDBRANCH  30  31
ENDBRANCH  29  30
ENDBRANCH  28  29
ENDBRANCH  27  28
ENDBRANCH  26  27
ENDBRANCH   1  26
TORSDOF 25
ENDMDL
