MODEL 1
REMARK VINA RESULT:      -9.6      0.000      0.000
REMARK SMILES CC[C@H]1CC[C@](Cc2cccnc2)(C(=O)OCCOCCOCCOCCOC(=O)c2ccc(-c3c4nc(c(-c5cc(S(=O)(=O)[O-])ccc5F)c5ccc([nH]5)c(-c5cc(S(=O)(=O)[O-])ccc5F)c5nc(c(-c6cc(S(=O)(=O)[O-])ccc6F)c6ccc3[nH]6)C=C5)C=C4)cc2)C1
REMARK SMILES IDX 23 1 22 2 21 3 20 4 19 5 18 6 17 7 16 8 14 9 15 10 6 11 3 12
REMARK SMILES IDX 4 13 94 14 5 15 2 16 1 17 7 18 8 19 9 20 13 21 10 22 12 23
REMARK SMILES IDX 11 24 24 25 25 26 26 27 27 28 28 29 29 30 30 31 31 32 32 33
REMARK SMILES IDX 93 34 33 35 92 36 34 37 35 38 36 39 86 40 37 41 91 42 85 43
REMARK SMILES IDX 87 44 38 45 90 46 84 47 83 48 39 50 71 51 51 52 70 53 52 54
REMARK SMILES IDX 55 55 69 56 88 57 53 58 54 59 68 61 89 62 56 63 40 64 41 65
REMARK SMILES IDX 49 66 42 67 48 68 50 69 47 70 43 71 44 72 45 73 46 74 72 75
REMARK SMILES IDX 73 76 81 77 74 78 80 79 82 80 79 81 75 82 76 83 77 84 78 85
REMARK SMILES IDX 57 86 58 87 66 88 59 89 65 90 67 91 64 92 60 93 61 94 62 95
REMARK SMILES IDX 63 96
REMARK H PARENT 87 49 55 60
REMARK Flexibility Score: inf
ROOT
ATOM      1  C   UNL A   1      36.914  23.326  25.474  1.00  0.00     0.188 C 
ENDROOT
BRANCH   1   2
ATOM      2  O   UNL A   1      35.814  23.803  26.235  1.00  0.00    -0.377 OA
BRANCH   2   3
ATOM      3  C   UNL A   1      34.862  22.852  26.657  1.00  0.00     0.188 C 
BRANCH   3   4
ATOM      4  C   UNL A   1      35.046  21.460  26.024  1.00  0.00     0.188 C 
BRANCH   4   5
ATOM      5  O   UNL A   1      33.908  20.721  25.631  1.00  0.00    -0.376 OA
BRANCH   5   6
ATOM      6  C   UNL A   1      33.217  20.958  24.415  1.00  0.00     0.202 C 
BRANCH   6   7
ATOM      7  C   UNL A   1      33.361  22.183  23.488  1.00  0.00     0.261 C 
BRANCH   7   8
ATOM      8  O   UNL A   1      32.918  23.456  23.952  1.00  0.00    -0.463 OA
BRANCH   8   9
ATOM      9  C   UNL A   1      33.436  24.530  23.327  1.00  0.00     0.312 C 
ATOM     10  O   UNL A   1      34.380  24.477  22.543  1.00  0.00    -0.252 OA
BRANCH   9  11
ATOM     11  C   UNL A   1      32.730  25.851  23.686  1.00  0.00     0.072 C 
ATOM     12  C   UNL A   1      30.816  27.000  22.605  1.00  0.00    -0.010 C 
ATOM     13  C   UNL A   1      32.050  27.890  22.433  1.00  0.00     0.005 C 
ATOM     14  C   UNL A   1      31.368  25.644  23.012  1.00  0.00     0.022 C 
ATOM     15  C   UNL A   1      33.252  27.137  23.011  1.00  0.00     0.019 C 
BRANCH  12  16
ATOM     16  C   UNL A   1      29.768  27.607  23.540  1.00  0.00     0.000 C 
ATOM     17  C   UNL A   1      28.592  26.687  23.847  1.00  0.00     0.004 C 
ENDBRANCH  12  16
BRANCH  11  18
ATOM     18  C   UNL A   1      32.758  25.901  25.251  1.00  0.00     0.056 C 
BRANCH  18  19
ATOM     19  C   UNL A   1      32.830  27.196  26.012  1.00  0.00    -0.029 A 
ATOM     20  C   UNL A   1      34.054  27.827  26.231  1.00  0.00     0.007 A 
ATOM     21  C   UNL A   1      31.692  27.866  26.457  1.00  0.00     0.114 A 
ATOM     22  C   UNL A   1      34.113  28.998  26.979  1.00  0.00     0.020 A 
ATOM     23  N   UNL A   1      31.712  29.020  27.164  1.00  0.00    -0.264 NA
ATOM     24  C   UNL A   1      32.926  29.544  27.432  1.00  0.00     0.111 A 
ENDBRANCH  18  19
ENDBRANCH  11  18
ENDBRANCH   9  11
ENDBRANCH   8   9
ENDBRANCH   7   8
ENDBRANCH   6   7
ENDBRANCH   5   6
ENDBRANCH   4   5
ENDBRANCH   3   4
ENDBRANCH   2   3
ENDBRANCH   1   2
BRANCH   1  25
ATOM     25  C   UNL A   1      38.326  23.313  26.100  1.00  0.00     0.188 C 
BRANCH  25  26
ATOM     26  O   UNL A   1      38.884  22.017  26.285  1.00  0.00    -0.376 OA
BRANCH  26  27
ATOM     27  C   UNL A   1      38.581  20.989  25.357  1.00  0.00     0.202 C 
BRANCH  27  28
ATOM     28  C   UNL A   1      39.405  19.693  25.432  1.00  0.00     0.261 C 
BRANCH  28  29
ATOM     29  O   UNL A   1      40.347  19.597  26.508  1.00  0.00    -0.460 OA
BRANCH  29  30
ATOM     30  C   UNL A   1      41.658  19.491  26.181  1.00  0.00     0.338 C 
ATOM     31  O   UNL A   1      42.201  18.545  25.656  1.00  0.00    -0.246 OA
BRANCH  30  32
ATOM     32  C   UNL A   1      42.271  20.824  26.382  1.00  0.00     0.060 A 
ATOM     33  C   UNL A   1      42.469  21.289  27.689  1.00  0.00     0.016 A 
ATOM     34  C   UNL A   1      42.678  21.594  25.289  1.00  0.00     0.016 A 
ATOM     35  C   UNL A   1      43.049  22.539  27.907  1.00  0.00     0.010 A 
ATOM     36  C   UNL A   1      43.227  22.859  25.509  1.00  0.00     0.010 A 
ATOM     37  C   UNL A   1      43.387  23.350  26.818  1.00  0.00    -0.014 A 
BRANCH  37  38
ATOM     38  C   UNL A   1      43.700  24.784  27.038  1.00  0.00     0.031 A 
ATOM     39  C   UNL A   1      45.121  25.231  26.824  1.00  0.00     0.074 A 
ATOM     40  C   UNL A   1      42.753  25.667  27.403  1.00  0.00     0.049 A 
ATOM     41  N   UNL A   1      45.666  26.400  27.033  1.00  0.00    -0.248 NA
ATOM     42  C   UNL A   1      46.056  24.218  26.305  1.00  0.00     0.031 C 
ATOM     43  C   UNL A   1      41.335  25.361  27.581  1.00  0.00     0.029 A 
ATOM     44  N   UNL A   1      42.848  27.004  27.705  1.00  0.00    -0.354 N 
ATOM     45  C   UNL A   1      47.006  26.260  26.692  1.00  0.00     0.074 A 
ATOM     46  C   UNL A   1      47.198  24.889  26.275  1.00  0.00     0.031 C 
ATOM     47  C   UNL A   1      40.696  26.474  27.984  1.00  0.00     0.029 A 
ATOM     48  C   UNL A   1      41.666  27.558  28.141  1.00  0.00     0.049 A 
ATOM     49  H   UNL A   1      43.682  27.518  27.616  1.00  0.00     0.167 HD
ATOM     50  C   UNL A   1      47.987  27.193  26.729  1.00  0.00     0.034 A 
ATOM     51  C   UNL A   1      41.409  28.784  28.648  1.00  0.00     0.034 A 
ATOM     52  C   UNL A   1      47.779  28.555  27.147  1.00  0.00     0.049 A 
ATOM     53  C   UNL A   1      42.545  29.780  28.757  1.00  0.00     0.074 A 
ATOM     54  C   UNL A   1      48.697  29.589  27.187  1.00  0.00     0.029 A 
ATOM     55  N   UNL A   1      46.578  29.071  27.614  1.00  0.00    -0.354 N 
ATOM     56  N   UNL A   1      43.805  29.643  28.406  1.00  0.00    -0.248 NA
ATOM     57  C   UNL A   1      42.225  31.098  29.323  1.00  0.00     0.031 C 
ATOM     58  C   UNL A   1      48.079  30.700  27.764  1.00  0.00     0.029 A 
ATOM     59  C   UNL A   1      46.746  30.395  27.989  1.00  0.00     0.049 A 
ATOM     60  H   UNL A   1      45.732  28.571  27.671  1.00  0.00     0.167 HD
ATOM     61  C   UNL A   1      44.411  30.869  28.675  1.00  0.00     0.074 A 
ATOM     62  C   UNL A   1      43.377  31.737  29.195  1.00  0.00     0.031 C 
ATOM     63  C   UNL A   1      45.704  31.249  28.506  1.00  0.00     0.034 A 
BRANCH  50  64
ATOM     64  C   UNL A   1      49.388  26.760  26.374  1.00  0.00     0.023 A 
ATOM     65  C   UNL A   1      50.014  27.152  25.180  1.00  0.00     0.031 A 
ATOM     66  C   UNL A   1      50.116  25.957  27.272  1.00  0.00     0.131 A 
ATOM     67  C   UNL A   1      51.318  26.712  24.901  1.00  0.00     0.055 A 
ATOM     68  C   UNL A   1      51.435  25.583  27.021  1.00  0.00     0.041 A 
ATOM     69  F   UNL A   1      49.554  25.529  28.414  1.00  0.00    -0.206 F 
ATOM     70  C   UNL A   1      52.042  25.955  25.825  1.00  0.00     0.022 A 
BRANCH  67  71
ATOM     71  S   UNL A   1      52.024  27.060  23.267  1.00  0.00     0.124 S 
ATOM     72  O   UNL A   1      53.052  26.028  23.163  1.00  0.00    -0.237 OA
ATOM     73  O   UNL A   1      50.873  26.906  22.384  1.00  0.00    -0.237 OA
ATOM     74  O   UNL A   1      52.532  28.425  23.396  1.00  0.00    -0.744 OA
ENDBRANCH  67  71
ENDBRANCH  50  64
BRANCH  51  75
ATOM     75  C   UNL A   1      40.052  29.136  29.166  1.00  0.00     0.023 A 
ATOM     76  C   UNL A   1      39.747  29.052  30.534  1.00  0.00     0.031 A 
ATOM     77  C   UNL A   1      39.002  29.450  28.282  1.00  0.00     0.131 A 
ATOM     78  C   UNL A   1      38.420  29.201  30.969  1.00  0.00     0.055 A 
ATOM     79  C   UNL A   1      37.698  29.672  28.728  1.00  0.00     0.041 A 
ATOM     80  F   UNL A   1      39.226  29.533  26.961  1.00  0.00    -0.206 F 
ATOM     81  C   UNL A   1      37.396  29.526  30.078  1.00  0.00     0.022 A 
BRANCH  78  82
ATOM     82  S   UNL A   1      38.025  28.812  32.698  1.00  0.00     0.124 S 
ATOM     83  O   UNL A   1      36.675  29.350  32.820  1.00  0.00    -0.237 OA
ATOM     84  O   UNL A   1      38.142  27.358  32.714  1.00  0.00    -0.237 OA
ATOM     85  O   UNL A   1      39.055  29.528  33.450  1.00  0.00    -0.744 OA
ENDBRANCH  78  82
ENDBRANCH  51  75
BRANCH  63  86
ATOM     86  C   UNL A   1      46.056  32.683  28.828  1.00  0.00     0.023 A 
ATOM     87  C   UNL A   1      45.984  33.703  27.865  1.00  0.00     0.031 A 
ATOM     88  C   UNL A   1      46.471  33.031  30.127  1.00  0.00     0.131 A 
ATOM     89  C   UNL A   1      46.380  35.008  28.197  1.00  0.00     0.055 A 
ATOM     90  C   UNL A   1      46.793  34.343  30.472  1.00  0.00     0.041 A 
ATOM     91  F   UNL A   1      46.561  32.098  31.089  1.00  0.00    -0.206 F 
ATOM     92  C   UNL A   1      46.764  35.338  29.499  1.00  0.00     0.022 A 
BRANCH  89  93
ATOM     93  S   UNL A   1      46.489  36.248  26.879  1.00  0.00     0.124 S 
ATOM     94  O   UNL A   1      47.707  36.967  27.239  1.00  0.00    -0.237 OA
ATOM     95  O   UNL A   1      46.568  35.421  25.679  1.00  0.00    -0.237 OA
ATOM     96  O   UNL A   1      45.251  37.012  27.024  1.00  0.00    -0.744 OA
ENDBRANCH  89  93
ENDBRANCH  63  86
ENDBRANCH  37  38
ENDBRANCH  30  32
ENDBRANCH  29  30
ENDBRANCH  28  29
ENDBRANCH  27  28
ENDBRANCH  26  27
ENDBRANCH  25  26
ENDBRANCH   1  25
TORSDOF 26
ENDMDL
MODEL 2
REMARK VINA RESULT:      -9.4      0.988      7.641
REMARK SMILES CC[C@H]1CC[C@](Cc2cccnc2)(C(=O)OCCOCCOCCOCCOC(=O)c2ccc(-c3c4nc(c(-c5cc(S(=O)(=O)[O-])ccc5F)c5ccc([nH]5)c(-c5cc(S(=O)(=O)[O-])ccc5F)c5nc(c(-c6cc(S(=O)(=O)[O-])ccc6F)c6ccc3[nH]6)C=C5)C=C4)cc2)C1
REMARK SMILES IDX 23 1 22 2 21 3 20 4 19 5 18 6 17 7 16 8 14 9 15 10 6 11 3 12
REMARK SMILES IDX 4 13 94 14 5 15 2 16 1 17 7 18 8 19 9 20 13 21 10 22 12 23
REMARK SMILES IDX 11 24 24 25 25 26 26 27 27 28 28 29 29 30 30 31 31 32 32 33
REMARK SMILES IDX 93 34 33 35 92 36 34 37 35 38 36 39 86 40 37 41 91 42 85 43
REMARK SMILES IDX 87 44 38 45 90 46 84 47 83 48 39 50 71 51 51 52 70 53 52 54
REMARK SMILES IDX 55 55 69 56 88 57 53 58 54 59 68 61 89 62 56 63 40 64 41 65
REMARK SMILES IDX 49 66 42 67 48 68 50 69 47 70 43 71 44 72 45 73 46 74 72 75
REMARK SMILES IDX 73 76 81 77 74 78 80 79 82 80 79 81 75 82 76 83 77 84 78 85
REMARK SMILES IDX 57 86 58 87 66 88 59 89 65 90 67 91 64 92 60 93 61 94 62 95
REMARK SMILES IDX 63 96
REMARK H PARENT 87 49 55 60
REMARK Flexibility Score: inf
ROOT
ATOM      1  C   UNL A   1      37.181  23.278  25.473  1.00  0.00     0.188 C 
ENDROOT
BRANCH   1   2
ATOM      2  O   UNL A   1      36.031  23.255  26.307  1.00  0.00    -0.377 OA
BRANCH   2   3
ATOM      3  C   UNL A   1      35.137  22.177  26.140  1.00  0.00     0.188 C 
BRANCH   3   4
ATOM      4  C   UNL A   1      35.294  21.435  24.800  1.00  0.00     0.188 C 
BRANCH   4   5
ATOM      5  O   UNL A   1      34.704  20.162  24.638  1.00  0.00    -0.376 OA
BRANCH   5   6
ATOM      6  C   UNL A   1      33.424  19.834  25.155  1.00  0.00     0.202 C 
BRANCH   6   7
ATOM      7  C   UNL A   1      32.119  20.640  24.986  1.00  0.00     0.261 C 
BRANCH   7   8
ATOM      8  O   UNL A   1      32.178  21.932  24.386  1.00  0.00    -0.463 OA
BRANCH   8   9
ATOM      9  C   UNL A   1      31.510  22.913  25.021  1.00  0.00     0.312 C 
ATOM     10  O   UNL A   1      30.609  22.715  25.831  1.00  0.00    -0.252 OA
BRANCH   9  11
ATOM     11  C   UNL A   1      31.983  24.328  24.635  1.00  0.00     0.072 C 
ATOM     12  C   UNL A   1      31.121  25.904  22.925  1.00  0.00    -0.010 C 
ATOM     13  C   UNL A   1      32.533  25.488  22.505  1.00  0.00     0.005 C 
ATOM     14  C   UNL A   1      30.715  24.888  23.981  1.00  0.00     0.022 C 
ATOM     15  C   UNL A   1      33.028  24.439  23.505  1.00  0.00     0.019 C 
BRANCH  12  16
ATOM     16  C   UNL A   1      31.029  27.374  23.338  1.00  0.00     0.000 C 
ATOM     17  C   UNL A   1      29.612  27.937  23.347  1.00  0.00     0.004 C 
ENDBRANCH  12  16
BRANCH  11  18
ATOM     18  C   UNL A   1      32.441  24.973  25.987  1.00  0.00     0.056 C 
BRANCH  18  19
ATOM     19  C   UNL A   1      32.574  26.461  26.162  1.00  0.00    -0.029 A 
ATOM     20  C   UNL A   1      31.572  27.196  26.796  1.00  0.00     0.007 A 
ATOM     21  C   UNL A   1      33.720  27.158  25.786  1.00  0.00     0.114 A 
ATOM     22  C   UNL A   1      31.685  28.578  26.908  1.00  0.00     0.020 A 
ATOM     23  N   UNL A   1      33.873  28.498  25.905  1.00  0.00    -0.264 NA
ATOM     24  C   UNL A   1      32.838  29.180  26.438  1.00  0.00     0.111 A 
ENDBRANCH  18  19
ENDBRANCH  11  18
ENDBRANCH   9  11
ENDBRANCH   8   9
ENDBRANCH   7   8
ENDBRANCH   6   7
ENDBRANCH   5   6
ENDBRANCH   4   5
ENDBRANCH   3   4
ENDBRANCH   2   3
ENDBRANCH   1   2
BRANCH   1  25
ATOM     25  C   UNL A   1      38.586  23.298  26.114  1.00  0.00     0.188 C 
BRANCH  25  26
ATOM     26  O   UNL A   1      39.143  22.015  26.369  1.00  0.00    -0.376 OA
BRANCH  26  27
ATOM     27  C   UNL A   1      38.635  20.885  25.679  1.00  0.00     0.202 C 
BRANCH  27  28
ATOM     28  C   UNL A   1      39.558  19.665  25.529  1.00  0.00     0.261 C 
BRANCH  28  29
ATOM     29  O   UNL A   1      40.641  19.564  26.462  1.00  0.00    -0.460 OA
BRANCH  29  30
ATOM     30  C   UNL A   1      41.884  19.861  26.009  1.00  0.00     0.338 C 
ATOM     31  O   UNL A   1      42.567  19.189  25.269  1.00  0.00    -0.246 OA
BRANCH  30  32
ATOM     32  C   UNL A   1      42.175  21.259  26.404  1.00  0.00     0.060 A 
ATOM     33  C   UNL A   1      42.301  22.233  25.405  1.00  0.00     0.016 A 
ATOM     34  C   UNL A   1      42.290  21.610  27.751  1.00  0.00     0.016 A 
ATOM     35  C   UNL A   1      42.571  23.558  25.749  1.00  0.00     0.010 A 
ATOM     36  C   UNL A   1      42.593  22.930  28.092  1.00  0.00     0.010 A 
ATOM     37  C   UNL A   1      42.766  23.904  27.091  1.00  0.00    -0.014 A 
BRANCH  37  38
ATOM     38  C   UNL A   1      43.359  25.220  27.431  1.00  0.00     0.031 A 
ATOM     39  C   UNL A   1      42.443  26.280  27.983  1.00  0.00     0.074 A 
ATOM     40  C   UNL A   1      44.672  25.467  27.272  1.00  0.00     0.049 A 
ATOM     41  N   UNL A   1      42.695  27.528  28.273  1.00  0.00    -0.248 NA
ATOM     42  C   UNL A   1      41.050  25.873  28.237  1.00  0.00     0.031 C 
ATOM     43  C   UNL A   1      45.664  24.501  26.805  1.00  0.00     0.029 A 
ATOM     44  N   UNL A   1      45.395  26.618  27.474  1.00  0.00    -0.354 N 
ATOM     45  C   UNL A   1      41.493  28.062  28.725  1.00  0.00     0.074 A 
ATOM     46  C   UNL A   1      40.507  27.007  28.657  1.00  0.00     0.031 C 
ATOM     47  C   UNL A   1      46.863  25.107  26.733  1.00  0.00     0.029 A 
ATOM     48  C   UNL A   1      46.716  26.514  27.101  1.00  0.00     0.049 A 
ATOM     49  H   UNL A   1      45.005  27.439  27.851  1.00  0.00     0.167 HD
ATOM     50  C   UNL A   1      41.238  29.321  29.153  1.00  0.00     0.034 A 
ATOM     51  C   UNL A   1      47.679  27.458  27.025  1.00  0.00     0.034 A 
ATOM     52  C   UNL A   1      42.232  30.361  29.213  1.00  0.00     0.049 A 
ATOM     53  C   UNL A   1      47.342  28.879  27.430  1.00  0.00     0.074 A 
ATOM     54  C   UNL A   1      42.087  31.661  29.665  1.00  0.00     0.029 A 
ATOM     55  N   UNL A   1      43.549  30.230  28.796  1.00  0.00    -0.354 N 
ATOM     56  N   UNL A   1      46.206  29.365  27.880  1.00  0.00    -0.248 NA
ATOM     57  C   UNL A   1      48.416  29.876  27.323  1.00  0.00     0.031 C 
ATOM     58  C   UNL A   1      43.285  32.340  29.435  1.00  0.00     0.029 A 
ATOM     59  C   UNL A   1      44.212  31.439  28.936  1.00  0.00     0.049 A 
ATOM     60  H   UNL A   1      43.953  29.401  28.451  1.00  0.00     0.167 HD
ATOM     61  C   UNL A   1      46.448  30.713  28.145  1.00  0.00     0.074 A 
ATOM     62  C   UNL A   1      47.837  30.956  27.824  1.00  0.00     0.031 C 
ATOM     63  C   UNL A   1      45.600  31.666  28.612  1.00  0.00     0.034 A 
BRANCH  50  64
ATOM     64  C   UNL A   1      39.818  29.668  29.522  1.00  0.00     0.023 A 
ATOM     65  C   UNL A   1      39.402  29.807  30.856  1.00  0.00     0.031 A 
ATOM     66  C   UNL A   1      38.869  29.890  28.507  1.00  0.00     0.131 A 
ATOM     67  C   UNL A   1      38.064  30.124  31.140  1.00  0.00     0.055 A 
ATOM     68  C   UNL A   1      37.560  30.274  28.794  1.00  0.00     0.041 A 
ATOM     69  F   UNL A   1      39.204  29.740  27.216  1.00  0.00    -0.206 F 
ATOM     70  C   UNL A   1      37.149  30.387  30.118  1.00  0.00     0.022 A 
BRANCH  67  71
ATOM     71  S   UNL A   1      37.509  30.095  32.866  1.00  0.00     0.124 S 
ATOM     72  O   UNL A   1      38.586  30.820  33.536  1.00  0.00    -0.237 OA
ATOM     73  O   UNL A   1      36.223  30.780  32.798  1.00  0.00    -0.237 OA
ATOM     74  O   UNL A   1      37.440  28.668  33.180  1.00  0.00    -0.744 OA
ENDBRANCH  67  71
ENDBRANCH  50  64
BRANCH  51  75
ATOM     75  C   UNL A   1      49.034  27.135  26.482  1.00  0.00     0.023 A 
ATOM     76  C   UNL A   1      49.416  27.531  25.190  1.00  0.00     0.031 A 
ATOM     77  C   UNL A   1      49.927  26.323  27.207  1.00  0.00     0.131 A 
ATOM     78  C   UNL A   1      50.614  27.052  24.634  1.00  0.00     0.055 A 
ATOM     79  C   UNL A   1      51.151  25.912  26.677  1.00  0.00     0.041 A 
ATOM     80  F   UNL A   1      49.614  25.902  28.442  1.00  0.00    -0.206 F 
ATOM     81  C   UNL A   1      51.491  26.259  25.375  1.00  0.00     0.022 A 
BRANCH  78  82
ATOM     82  S   UNL A   1      50.936  27.358  22.874  1.00  0.00     0.124 S 
ATOM     83  O   UNL A   1      50.885  28.814  22.813  1.00  0.00    -0.237 OA
ATOM     84  O   UNL A   1      52.251  26.752  22.698  1.00  0.00    -0.237 OA
ATOM     85  O   UNL A   1      49.837  26.664  22.203  1.00  0.00    -0.744 OA
ENDBRANCH  78  82
ENDBRANCH  51  75
BRANCH  63  86
ATOM     86  C   UNL A   1      46.172  33.042  28.864  1.00  0.00     0.023 A 
ATOM     87  C   UNL A   1      46.266  34.009  27.848  1.00  0.00     0.031 A 
ATOM     88  C   UNL A   1      46.631  33.389  30.149  1.00  0.00     0.131 A 
ATOM     89  C   UNL A   1      46.860  35.251  28.118  1.00  0.00     0.055 A 
ATOM     90  C   UNL A   1      47.153  34.651  30.428  1.00  0.00     0.041 A 
ATOM     91  F   UNL A   1      46.569  32.507  31.159  1.00  0.00    -0.206 F 
ATOM     92  C   UNL A   1      47.286  35.586  29.405  1.00  0.00     0.022 A 
BRANCH  89  93
ATOM     93  S   UNL A   1      47.168  36.387  26.738  1.00  0.00     0.124 S 
ATOM     94  O   UNL A   1      48.521  36.854  27.026  1.00  0.00    -0.237 OA
ATOM     95  O   UNL A   1      47.030  35.513  25.577  1.00  0.00    -0.237 OA
ATOM     96  O   UNL A   1      46.120  37.395  26.883  1.00  0.00    -0.744 OA
ENDBRANCH  89  93
ENDBRANCH  63  86
ENDBRANCH  37  38
ENDBRANCH  30  32
ENDBRANCH  29  30
ENDBRANCH  28  29
ENDBRANCH  27  28
ENDBRANCH  26  27
ENDBRANCH  25  26
ENDBRANCH   1  25
TORSDOF 26
ENDMDL
MODEL 3
REMARK VINA RESULT:      -9.0      2.426      3.248
REMARK SMILES CC[C@H]1CC[C@](Cc2cccnc2)(C(=O)OCCOCCOCCOCCOC(=O)c2ccc(-c3c4nc(c(-c5cc(S(=O)(=O)[O-])ccc5F)c5ccc([nH]5)c(-c5cc(S(=O)(=O)[O-])ccc5F)c5nc(c(-c6cc(S(=O)(=O)[O-])ccc6F)c6ccc3[nH]6)C=C5)C=C4)cc2)C1
REMARK SMILES IDX 23 1 22 2 21 3 20 4 19 5 18 6 17 7 16 8 14 9 15 10 6 11 3 12
REMARK SMILES IDX 4 13 94 14 5 15 2 16 1 17 7 18 8 19 9 20 13 21 10 22 12 23
REMARK SMILES IDX 11 24 24 25 25 26 26 27 27 28 28 29 29 30 30 31 31 32 32 33
REMARK SMILES IDX 93 34 33 35 92 36 34 37 35 38 36 39 86 40 37 41 91 42 85 43
REMARK SMILES IDX 87 44 38 45 90 46 84 47 83 48 39 50 71 51 51 52 70 53 52 54
REMARK SMILES IDX 55 55 69 56 88 57 53 58 54 59 68 61 89 62 56 63 40 64 41 65
REMARK SMILES IDX 49 66 42 67 48 68 50 69 47 70 43 71 44 72 45 73 46 74 72 75
REMARK SMILES IDX 73 76 81 77 74 78 80 79 82 80 79 81 75 82 76 83 77 84 78 85
REMARK SMILES IDX 57 86 58 87 66 88 59 89 65 90 67 91 64 92 60 93 61 94 62 95
REMARK SMILES IDX 63 96
REMARK H PARENT 87 49 55 60
REMARK Flexibility Score: inf
ROOT
ATOM      1  C   UNL A   1      35.943  23.086  25.606  1.00  0.00     0.188 C 
ENDROOT
BRANCH   1   2
ATOM      2  O   UNL A   1      34.937  22.969  26.601  1.00  0.00    -0.377 OA
BRANCH   2   3
ATOM      3  C   UNL A   1      34.354  21.697  26.781  1.00  0.00     0.188 C 
BRANCH   3   4
ATOM      4  C   UNL A   1      34.181  20.899  25.475  1.00  0.00     0.188 C 
BRANCH   4   5
ATOM      5  O   UNL A   1      32.905  20.825  24.872  1.00  0.00    -0.376 OA
BRANCH   5   6
ATOM      6  C   UNL A   1      31.778  21.533  25.361  1.00  0.00     0.202 C 
BRANCH   6   7
ATOM      7  C   UNL A   1      31.398  22.998  25.060  1.00  0.00     0.261 C 
BRANCH   7   8
ATOM      8  O   UNL A   1      31.872  24.027  25.926  1.00  0.00    -0.463 OA
BRANCH   8   9
ATOM      9  C   UNL A   1      30.961  24.936  26.322  1.00  0.00     0.312 C 
ATOM     10  O   UNL A   1      29.900  24.650  26.869  1.00  0.00    -0.252 OA
BRANCH   9  11
ATOM     11  C   UNL A   1      31.375  26.390  26.023  1.00  0.00     0.072 C 
ATOM     12  C   UNL A   1      33.446  27.627  26.599  1.00  0.00    -0.010 C 
ATOM     13  C   UNL A   1      32.288  28.279  27.360  1.00  0.00     0.005 C 
ATOM     14  C   UNL A   1      32.900  26.287  26.135  1.00  0.00     0.022 C 
ATOM     15  C   UNL A   1      31.026  27.455  27.084  1.00  0.00     0.019 C 
BRANCH  12  16
ATOM     16  C   UNL A   1      34.027  28.529  25.508  1.00  0.00     0.000 C 
ATOM     17  C   UNL A   1      33.007  29.438  24.834  1.00  0.00     0.004 C 
ENDBRANCH  12  16
BRANCH  11  18
ATOM     18  C   UNL A   1      30.775  26.687  24.607  1.00  0.00     0.056 C 
BRANCH  18  19
ATOM     19  C   UNL A   1      31.532  26.404  23.338  1.00  0.00    -0.029 A 
ATOM     20  C   UNL A   1      32.832  25.901  23.381  1.00  0.00     0.007 A 
ATOM     21  C   UNL A   1      30.957  26.546  22.077  1.00  0.00     0.114 A 
ATOM     22  C   UNL A   1      33.538  25.690  22.202  1.00  0.00     0.020 A 
ATOM     23  N   UNL A   1      31.608  26.324  20.911  1.00  0.00    -0.264 NA
ATOM     24  C   UNL A   1      32.894  25.928  21.003  1.00  0.00     0.111 A 
ENDBRANCH  18  19
ENDBRANCH  11  18
ENDBRANCH   9  11
ENDBRANCH   8   9
ENDBRANCH   7   8
ENDBRANCH   6   7
ENDBRANCH   5   6
ENDBRANCH   4   5
ENDBRANCH   3   4
ENDBRANCH   2   3
ENDBRANCH   1   2
BRANCH   1  25
ATOM     25  C   UNL A   1      37.407  23.338  26.027  1.00  0.00     0.188 C 
BRANCH  25  26
ATOM     26  O   UNL A   1      38.312  22.294  25.690  1.00  0.00    -0.376 OA
BRANCH  26  27
ATOM     27  C   UNL A   1      37.821  21.124  25.056  1.00  0.00     0.202 C 
BRANCH  27  28
ATOM     28  C   UNL A   1      38.637  19.830  25.215  1.00  0.00     0.261 C 
BRANCH  28  29
ATOM     29  O   UNL A   1      39.451  19.728  26.390  1.00  0.00    -0.460 OA
BRANCH  29  30
ATOM     30  C   UNL A   1      40.793  19.646  26.212  1.00  0.00     0.338 C 
ATOM     31  O   UNL A   1      41.409  18.710  25.754  1.00  0.00    -0.246 OA
BRANCH  30  32
ATOM     32  C   UNL A   1      41.355  20.990  26.478  1.00  0.00     0.060 A 
ATOM     33  C   UNL A   1      41.258  21.522  27.771  1.00  0.00     0.016 A 
ATOM     34  C   UNL A   1      42.002  21.705  25.467  1.00  0.00     0.016 A 
ATOM     35  C   UNL A   1      41.783  22.784  28.050  1.00  0.00     0.010 A 
ATOM     36  C   UNL A   1      42.498  22.982  25.741  1.00  0.00     0.010 A 
ATOM     37  C   UNL A   1      42.363  23.540  27.025  1.00  0.00    -0.014 A 
BRANCH  37  38
ATOM     38  C   UNL A   1      42.630  24.984  27.238  1.00  0.00     0.031 A 
ATOM     39  C   UNL A   1      43.981  25.513  26.838  1.00  0.00     0.074 A 
ATOM     40  C   UNL A   1      41.700  25.806  27.756  1.00  0.00     0.049 A 
ATOM     41  N   UNL A   1      44.488  26.706  27.000  1.00  0.00    -0.248 NA
ATOM     42  C   UNL A   1      44.884  24.563  26.165  1.00  0.00     0.031 C 
ATOM     43  C   UNL A   1      40.339  25.419  28.124  1.00  0.00     0.029 A 
ATOM     44  N   UNL A   1      41.766  27.140  28.077  1.00  0.00    -0.354 N 
ATOM     45  C   UNL A   1      45.772  26.647  26.469  1.00  0.00     0.074 A 
ATOM     46  C   UNL A   1      45.974  25.297  25.993  1.00  0.00     0.031 C 
ATOM     47  C   UNL A   1      39.707  26.487  28.643  1.00  0.00     0.029 A 
ATOM     48  C   UNL A   1      40.631  27.620  28.690  1.00  0.00     0.049 A 
ATOM     49  H   UNL A   1      42.552  27.702  27.886  1.00  0.00     0.167 HD
ATOM     50  C   UNL A   1      46.699  27.632  26.393  1.00  0.00     0.034 A 
ATOM     51  C   UNL A   1      40.386  28.819  29.261  1.00  0.00     0.034 A 
ATOM     52  C   UNL A   1      46.482  28.972  26.873  1.00  0.00     0.049 A 
ATOM     53  C   UNL A   1      41.472  29.875  29.235  1.00  0.00     0.074 A 
ATOM     54  C   UNL A   1      47.341  30.054  26.810  1.00  0.00     0.029 A 
ATOM     55  N   UNL A   1      45.334  29.412  27.518  1.00  0.00    -0.354 N 
ATOM     56  N   UNL A   1      42.675  29.814  28.708  1.00  0.00    -0.248 NA
ATOM     57  C   UNL A   1      41.168  31.162  29.876  1.00  0.00     0.031 C 
ATOM     58  C   UNL A   1      46.754  31.118  27.499  1.00  0.00     0.029 A 
ATOM     59  C   UNL A   1      45.485  30.735  27.901  1.00  0.00     0.049 A 
ATOM     60  H   UNL A   1      44.532  28.864  27.680  1.00  0.00     0.167 HD
ATOM     61  C   UNL A   1      43.248  31.067  28.921  1.00  0.00     0.074 A 
ATOM     62  C   UNL A   1      42.256  31.866  29.605  1.00  0.00     0.031 C 
ATOM     63  C   UNL A   1      44.483  31.520  28.582  1.00  0.00     0.034 A 
BRANCH  50  64
ATOM     64  C   UNL A   1      48.055  27.284  25.833  1.00  0.00     0.023 A 
ATOM     65  C   UNL A   1      49.090  26.776  26.636  1.00  0.00     0.031 A 
ATOM     66  C   UNL A   1      48.302  27.444  24.457  1.00  0.00     0.131 A 
ATOM     67  C   UNL A   1      50.335  26.477  26.060  1.00  0.00     0.055 A 
ATOM     68  C   UNL A   1      49.517  27.078  23.880  1.00  0.00     0.041 A 
ATOM     69  F   UNL A   1      47.358  27.954  23.650  1.00  0.00    -0.206 F 
ATOM     70  C   UNL A   1      50.546  26.597  24.684  1.00  0.00     0.022 A 
BRANCH  67  71
ATOM     71  S   UNL A   1      51.711  26.019  27.149  1.00  0.00     0.124 S 
ATOM     72  O   UNL A   1      51.023  25.803  28.419  1.00  0.00    -0.237 OA
ATOM     73  O   UNL A   1      52.246  24.827  26.501  1.00  0.00    -0.237 OA
ATOM     74  O   UNL A   1      52.582  27.193  27.113  1.00  0.00    -0.744 OA
ENDBRANCH  67  71
ENDBRANCH  50  64
BRANCH  51  75
ATOM     75  C   UNL A   1      39.099  29.086  29.974  1.00  0.00     0.023 A 
ATOM     76  C   UNL A   1      38.096  29.883  29.399  1.00  0.00     0.031 A 
ATOM     77  C   UNL A   1      38.902  28.641  31.295  1.00  0.00     0.131 A 
ATOM     78  C   UNL A   1      36.985  30.275  30.164  1.00  0.00     0.055 A 
ATOM     79  C   UNL A   1      37.759  28.971  32.025  1.00  0.00     0.041 A 
ATOM     80  F   UNL A   1      39.829  27.885  31.905  1.00  0.00    -0.206 F 
ATOM     81  C   UNL A   1      36.802  29.811  31.467  1.00  0.00     0.022 A 
BRANCH  78  82
ATOM     82  S   UNL A   1      35.859  31.524  29.480  1.00  0.00     0.124 S 
ATOM     83  O   UNL A   1      35.140  31.957  30.673  1.00  0.00    -0.237 OA
ATOM     84  O   UNL A   1      36.790  32.487  28.905  1.00  0.00    -0.237 OA
ATOM     85  O   UNL A   1      35.065  30.770  28.510  1.00  0.00    -0.744 OA
ENDBRANCH  78  82
ENDBRANCH  51  75
BRANCH  63  86
ATOM     86  C   UNL A   1      44.803  32.965  28.890  1.00  0.00     0.023 A 
ATOM     87  C   UNL A   1      45.431  33.352  30.086  1.00  0.00     0.031 A 
ATOM     88  C   UNL A   1      44.471  33.972  27.964  1.00  0.00     0.131 A 
ATOM     89  C   UNL A   1      45.651  34.712  30.352  1.00  0.00     0.055 A 
ATOM     90  C   UNL A   1      44.759  35.316  28.202  1.00  0.00     0.041 A 
ATOM     91  F   UNL A   1      43.867  33.664  26.805  1.00  0.00    -0.206 F 
ATOM     92  C   UNL A   1      45.338  35.694  29.410  1.00  0.00     0.022 A 
BRANCH  89  93
ATOM     93  S   UNL A   1      46.256  35.191  31.993  1.00  0.00     0.124 S 
ATOM     94  O   UNL A   1      47.420  34.325  32.152  1.00  0.00    -0.237 OA
ATOM     95  O   UNL A   1      46.538  36.612  31.819  1.00  0.00    -0.237 OA
ATOM     96  O   UNL A   1      45.132  34.886  32.876  1.00  0.00    -0.744 OA
ENDBRANCH  89  93
ENDBRANCH  63  86
ENDBRANCH  37  38
ENDBRANCH  30  32
ENDBRANCH  29  30
ENDBRANCH  28  29
ENDBRANCH  27  28
ENDBRANCH  26  27
ENDBRANCH  25  26
ENDBRANCH   1  25
TORSDOF 26
ENDMDL
