MODEL 1
REMARK VINA RESULT:      -9.1      0.000      0.000
REMARK SMILES CCC[NH2+][C@]1(C(=O)OCCOCCOCCOCCOC(=O)c2ccc(-c3c4nc(c(-c5cc(S(=O)(=O)[O-])ccc5F)c5ccc([nH]5)c(-c5cc(S(=O)(=O)[O-])ccc5F)c5nc(c(-c6cc(S(=O)(=O)[O-])ccc6F)c6ccc3[nH]6)C=C5)C=C4)cc2)CCC[C@H](OC(C)(C)C)C1
REMARK SMILES IDX 14 1 13 2 12 3 11 4 10 5 9 6 8 7 6 8 7 9 5 10 86 11 95 12
REMARK SMILES IDX 87 13 89 14 88 15 4 16 3 19 2 20 1 21 90 22 91 23 92 24
REMARK SMILES IDX 93 25 94 26 15 27 16 28 17 29 18 30 19 31 20 32 21 33 22 34
REMARK SMILES IDX 23 35 24 36 85 37 25 38 84 39 26 40 27 41 28 42 78 43 29 44
REMARK SMILES IDX 83 45 77 46 79 47 30 48 82 49 76 50 75 51 31 53 63 54 43 55
REMARK SMILES IDX 62 56 44 57 47 58 61 59 80 60 45 61 46 62 60 64 81 65 48 66
REMARK SMILES IDX 32 67 33 68 41 69 34 70 40 71 42 72 39 73 35 74 36 75 37 76
REMARK SMILES IDX 38 77 64 78 65 79 73 80 66 81 72 82 74 83 71 84 67 85 68 86
REMARK SMILES IDX 69 87 70 88 49 89 50 90 58 91 51 92 57 93 59 94 56 95 52 96
REMARK SMILES IDX 53 97 54 98 55 99
REMARK H PARENT 4 17 4 18 79 52 47 63
REMARK Flexibility Score: inf
ROOT
ATOM      1  O   UNL A   1      39.452  21.977  25.745  1.00  0.00    -0.377 OA
ENDROOT
BRANCH   1   2
ATOM      2  C   UNL A   1      38.058  22.202  25.711  1.00  0.00     0.188 C 
BRANCH   2   3
ATOM      3  C   UNL A   1      37.377  23.540  25.279  1.00  0.00     0.188 C 
BRANCH   3   4
ATOM      4  O   UNL A   1      35.987  23.715  25.405  1.00  0.00    -0.376 OA
BRANCH   4   5
ATOM      5  C   UNL A   1      35.106  22.878  24.687  1.00  0.00     0.202 C 
BRANCH   5   6
ATOM      6  C   UNL A   1      34.758  23.080  23.198  1.00  0.00     0.261 C 
BRANCH   6   7
ATOM      7  O   UNL A   1      34.218  24.355  22.810  1.00  0.00    -0.459 OA
BRANCH   7   8
ATOM      8  C   UNL A   1      32.891  24.608  23.018  1.00  0.00     0.368 C 
ATOM      9  O   UNL A   1      32.000  23.804  22.766  1.00  0.00    -0.245 OA
BRANCH   8  10
ATOM     10  C   UNL A   1      32.642  26.011  23.752  1.00  0.00     0.196 C 
ATOM     11  C   UNL A   1      33.967  26.812  23.704  1.00  0.00     0.081 C 
ATOM     12  C   UNL A   1      31.546  26.748  22.905  1.00  0.00     0.113 C 
ATOM     13  C   UNL A   1      33.931  28.328  23.732  1.00  0.00     0.010 C 
ATOM     14  C   UNL A   1      31.461  28.293  22.956  1.00  0.00     0.125 C 
ATOM     15  C   UNL A   1      32.832  28.971  22.901  1.00  0.00     0.032 C 
BRANCH  10  16
ATOM     16  N   UNL A   1      31.976  25.706  25.041  1.00  0.00    -0.332 N 
ATOM     17  H   UNL A   1      31.114  26.251  25.021  1.00  0.00     0.347 HD
ATOM     18  H   UNL A   1      32.021  24.687  24.999  1.00  0.00     0.347 HD
BRANCH  16  19
ATOM     19  C   UNL A   1      32.491  25.890  26.377  1.00  0.00     0.261 C 
BRANCH  19  20
ATOM     20  C   UNL A   1      32.711  27.354  26.838  1.00  0.00     0.058 C 
ATOM     21  C   UNL A   1      31.453  28.203  26.975  1.00  0.00     0.010 C 
ENDBRANCH  19  20
ENDBRANCH  16  19
ENDBRANCH  10  16
BRANCH  14  22
ATOM     22  O   UNL A   1      30.449  29.018  23.689  1.00  0.00    -0.372 OA
BRANCH  22  23
ATOM     23  C   UNL A   1      29.349  29.730  23.114  1.00  0.00     0.060 C 
ATOM     24  C   UNL A   1      28.152  28.798  22.979  1.00  0.00     0.042 C 
ATOM     25  C   UNL A   1      29.150  31.103  23.766  1.00  0.00     0.042 C 
ATOM     26  C   UNL A   1      29.666  30.043  21.631  1.00  0.00     0.042 C 
ENDBRANCH  22  23
ENDBRANCH  14  22
ENDBRANCH   8  10
ENDBRANCH   7   8
ENDBRANCH   6   7
ENDBRANCH   5   6
ENDBRANCH   4   5
ENDBRANCH   3   4
ENDBRANCH   2   3
ENDBRANCH   1   2
BRANCH   1  27
ATOM     27  C   UNL A   1      40.118  22.232  26.955  1.00  0.00     0.188 C 
BRANCH  27  28
ATOM     28  C   UNL A   1      40.918  21.071  27.567  1.00  0.00     0.188 C 
BRANCH  28  29
ATOM     29  O   UNL A   1      41.189  20.051  26.627  1.00  0.00    -0.376 OA
BRANCH  29  30
ATOM     30  C   UNL A   1      42.151  19.044  26.875  1.00  0.00     0.202 C 
BRANCH  30  31
ATOM     31  C   UNL A   1      43.099  18.536  25.774  1.00  0.00     0.261 C 
BRANCH  31  32
ATOM     32  O   UNL A   1      43.356  19.416  24.688  1.00  0.00    -0.460 OA
BRANCH  32  33
ATOM     33  C   UNL A   1      44.605  19.945  24.650  1.00  0.00     0.338 C 
ATOM     34  O   UNL A   1      45.598  19.451  24.181  1.00  0.00    -0.246 OA
BRANCH  33  35
ATOM     35  C   UNL A   1      44.468  21.330  25.132  1.00  0.00     0.060 A 
ATOM     36  C   UNL A   1      44.089  22.323  24.223  1.00  0.00     0.016 A 
ATOM     37  C   UNL A   1      44.680  21.623  26.479  1.00  0.00     0.016 A 
ATOM     38  C   UNL A   1      43.867  23.620  24.671  1.00  0.00     0.010 A 
ATOM     39  C   UNL A   1      44.532  22.937  26.914  1.00  0.00     0.010 A 
ATOM     40  C   UNL A   1      44.142  23.935  26.005  1.00  0.00    -0.014 A 
BRANCH  40  41
ATOM     41  C   UNL A   1      44.346  25.349  26.371  1.00  0.00     0.031 A 
ATOM     42  C   UNL A   1      45.725  25.901  26.158  1.00  0.00     0.074 A 
ATOM     43  C   UNL A   1      43.353  26.098  26.874  1.00  0.00     0.049 A 
ATOM     44  N   UNL A   1      46.227  27.048  26.519  1.00  0.00    -0.248 NA
ATOM     45  C   UNL A   1      46.671  25.023  25.444  1.00  0.00     0.031 C 
ATOM     46  C   UNL A   1      41.964  25.668  27.035  1.00  0.00     0.029 A 
ATOM     47  N   UNL A   1      43.371  27.378  27.360  1.00  0.00    -0.354 N 
ATOM     48  C   UNL A   1      47.547  27.028  26.082  1.00  0.00     0.074 A 
ATOM     49  C   UNL A   1      47.776  25.747  25.458  1.00  0.00     0.031 C 
ATOM     50  C   UNL A   1      41.268  26.667  27.609  1.00  0.00     0.029 A 
ATOM     51  C   UNL A   1      42.172  27.777  27.901  1.00  0.00     0.049 A 
ATOM     52  H   UNL A   1      44.167  27.958  27.323  1.00  0.00     0.167 HD
ATOM     53  C   UNL A   1      48.482  27.999  26.198  1.00  0.00     0.034 A 
ATOM     54  C   UNL A   1      41.870  28.897  28.589  1.00  0.00     0.034 A 
ATOM     55  C   UNL A   1      48.232  29.246  26.867  1.00  0.00     0.049 A 
ATOM     56  C   UNL A   1      42.966  29.915  28.821  1.00  0.00     0.074 A 
ATOM     57  C   UNL A   1      49.101  30.298  27.085  1.00  0.00     0.029 A 
ATOM     58  N   UNL A   1      47.017  29.602  27.442  1.00  0.00    -0.354 N 
ATOM     59  N   UNL A   1      44.222  29.883  28.433  1.00  0.00    -0.248 NA
ATOM     60  C   UNL A   1      42.606  31.120  29.579  1.00  0.00     0.031 C 
ATOM     61  C   UNL A   1      48.437  31.254  27.858  1.00  0.00     0.029 A 
ATOM     62  C   UNL A   1      47.122  30.846  28.036  1.00  0.00     0.049 A 
ATOM     63  H   UNL A   1      46.203  29.050  27.429  1.00  0.00     0.167 HD
ATOM     64  C   UNL A   1      44.784  31.087  28.855  1.00  0.00     0.074 A 
ATOM     65  C   UNL A   1      43.732  31.817  29.532  1.00  0.00     0.031 C 
ATOM     66  C   UNL A   1      46.047  31.556  28.689  1.00  0.00     0.034 A 
BRANCH  53  67
ATOM     67  C   UNL A   1      49.855  27.698  25.657  1.00  0.00     0.023 A 
ATOM     68  C   UNL A   1      50.265  28.148  24.389  1.00  0.00     0.031 A 
ATOM     69  C   UNL A   1      50.748  26.900  26.393  1.00  0.00     0.131 A 
ATOM     70  C   UNL A   1      51.500  27.737  23.867  1.00  0.00     0.055 A 
ATOM     71  C   UNL A   1      52.012  26.567  25.904  1.00  0.00     0.041 A 
ATOM     72  F   UNL A   1      50.397  26.410  27.592  1.00  0.00    -0.206 F 
ATOM     73  C   UNL A   1      52.388  26.974  24.628  1.00  0.00     0.022 A 
BRANCH  70  74
ATOM     74  S   UNL A   1      51.859  28.082  22.122  1.00  0.00     0.124 S 
ATOM     75  O   UNL A   1      53.240  28.553  22.193  1.00  0.00    -0.237 OA
ATOM     76  O   UNL A   1      51.660  26.781  21.495  1.00  0.00    -0.237 OA
ATOM     77  O   UNL A   1      50.877  29.104  21.767  1.00  0.00    -0.744 OA
ENDBRANCH  70  74
ENDBRANCH  53  67
BRANCH  54  78
ATOM     78  C   UNL A   1      40.503  29.105  29.149  1.00  0.00     0.023 A 
ATOM     79  C   UNL A   1      40.272  29.036  30.532  1.00  0.00     0.031 A 
ATOM     80  C   UNL A   1      39.393  29.304  28.308  1.00  0.00     0.131 A 
ATOM     81  C   UNL A   1      38.960  29.104  31.029  1.00  0.00     0.055 A 
ATOM     82  C   UNL A   1      38.097  29.437  28.811  1.00  0.00     0.041 A 
ATOM     83  F   UNL A   1      39.552  29.372  26.977  1.00  0.00    -0.206 F 
ATOM     84  C   UNL A   1      37.873  29.320  30.179  1.00  0.00     0.022 A 
BRANCH  81  85
ATOM     85  S   UNL A   1      38.686  28.792  32.794  1.00  0.00     0.124 S 
ATOM     86  O   UNL A   1      39.756  27.848  33.095  1.00  0.00    -0.237 OA
ATOM     87  O   UNL A   1      38.829  30.128  33.363  1.00  0.00    -0.237 OA
ATOM     88  O   UNL A   1      37.334  28.239  32.835  1.00  0.00    -0.744 OA
ENDBRANCH  81  85
ENDBRANCH  54  78
BRANCH  66  89
ATOM     89  C   UNL A   1      46.337  32.959  29.162  1.00  0.00     0.023 A 
ATOM     90  C   UNL A   1      46.087  34.089  28.366  1.00  0.00     0.031 A 
ATOM     91  C   UNL A   1      46.840  33.159  30.462  1.00  0.00     0.131 A 
ATOM     92  C   UNL A   1      46.378  35.367  28.865  1.00  0.00     0.055 A 
ATOM     93  C   UNL A   1      47.066  34.436  30.974  1.00  0.00     0.041 A 
ATOM     94  F   UNL A   1      47.099  32.113  31.263  1.00  0.00    -0.206 F 
ATOM     95  C   UNL A   1      46.844  35.550  30.171  1.00  0.00     0.022 A 
BRANCH  92  96
ATOM     96  S   UNL A   1      46.212  36.793  27.757  1.00  0.00     0.124 S 
ATOM     97  O   UNL A   1      47.417  37.557  28.064  1.00  0.00    -0.237 OA
ATOM     98  O   UNL A   1      46.175  36.165  26.441  1.00  0.00    -0.237 OA
ATOM     99  O   UNL A   1      44.958  37.414  28.181  1.00  0.00    -0.744 OA
ENDBRANCH  92  96
ENDBRANCH  66  89
ENDBRANCH  40  41
ENDBRANCH  33  35
ENDBRANCH  32  33
ENDBRANCH  31  32
ENDBRANCH  30  31
ENDBRANCH  29  30
ENDBRANCH  28  29
ENDBRANCH  27  28
ENDBRANCH   1  27
TORSDOF 28
ENDMDL
MODEL 2
REMARK VINA RESULT:      -8.9      1.252      2.126
REMARK SMILES CCC[NH2+][C@]1(C(=O)OCCOCCOCCOCCOC(=O)c2ccc(-c3c4nc(c(-c5cc(S(=O)(=O)[O-])ccc5F)c5ccc([nH]5)c(-c5cc(S(=O)(=O)[O-])ccc5F)c5nc(c(-c6cc(S(=O)(=O)[O-])ccc6F)c6ccc3[nH]6)C=C5)C=C4)cc2)CCC[C@H](OC(C)(C)C)C1
REMARK SMILES IDX 14 1 13 2 12 3 11 4 10 5 9 6 8 7 6 8 7 9 5 10 86 11 95 12
REMARK SMILES IDX 87 13 89 14 88 15 4 16 3 19 2 20 1 21 90 22 91 23 92 24
REMARK SMILES IDX 93 25 94 26 15 27 16 28 17 29 18 30 19 31 20 32 21 33 22 34
REMARK SMILES IDX 23 35 24 36 85 37 25 38 84 39 26 40 27 41 28 42 78 43 29 44
REMARK SMILES IDX 83 45 77 46 79 47 30 48 82 49 76 50 75 51 31 53 63 54 43 55
REMARK SMILES IDX 62 56 44 57 47 58 61 59 80 60 45 61 46 62 60 64 81 65 48 66
REMARK SMILES IDX 32 67 33 68 41 69 34 70 40 71 42 72 39 73 35 74 36 75 37 76
REMARK SMILES IDX 38 77 64 78 65 79 73 80 66 81 72 82 74 83 71 84 67 85 68 86
REMARK SMILES IDX 69 87 70 88 49 89 50 90 58 91 51 92 57 93 59 94 56 95 52 96
REMARK SMILES IDX 53 97 54 98 55 99
REMARK H PARENT 4 17 4 18 79 52 47 63
REMARK Flexibility Score: inf
ROOT
ATOM      1  O   UNL A   1      39.524  21.636  25.766  1.00  0.00    -0.377 OA
ENDROOT
BRANCH   1   2
ATOM      2  C   UNL A   1      38.125  21.467  25.669  1.00  0.00     0.188 C 
BRANCH   2   3
ATOM      3  C   UNL A   1      37.109  22.596  25.305  1.00  0.00     0.188 C 
BRANCH   3   4
ATOM      4  O   UNL A   1      35.927  22.769  26.048  1.00  0.00    -0.376 OA
BRANCH   4   5
ATOM      5  C   UNL A   1      35.090  21.661  26.304  1.00  0.00     0.202 C 
BRANCH   5   6
ATOM      6  C   UNL A   1      34.402  20.836  25.197  1.00  0.00     0.261 C 
BRANCH   6   7
ATOM      7  O   UNL A   1      33.494  21.527  24.323  1.00  0.00    -0.459 OA
BRANCH   7   8
ATOM      8  C   UNL A   1      32.325  22.021  24.831  1.00  0.00     0.368 C 
ATOM      9  O   UNL A   1      31.537  21.351  25.491  1.00  0.00    -0.245 OA
BRANCH   8  10
ATOM     10  C   UNL A   1      32.167  23.597  24.588  1.00  0.00     0.196 C 
ATOM     11  C   UNL A   1      30.688  23.873  24.220  1.00  0.00     0.081 C 
ATOM     12  C   UNL A   1      32.509  24.278  25.960  1.00  0.00     0.113 C 
ATOM     13  C   UNL A   1      30.077  25.227  24.527  1.00  0.00     0.010 C 
ATOM     14  C   UNL A   1      31.934  25.681  26.272  1.00  0.00     0.125 C 
ATOM     15  C   UNL A   1      30.467  25.832  25.866  1.00  0.00     0.032 C 
BRANCH  10  16
ATOM     16  N   UNL A   1      33.270  24.001  23.684  1.00  0.00    -0.332 N 
ATOM     17  H   UNL A   1      33.776  24.721  24.201  1.00  0.00     0.347 HD
ATOM     18  H   UNL A   1      33.638  23.075  23.468  1.00  0.00     0.347 HD
BRANCH  16  19
ATOM     19  C   UNL A   1      33.178  24.518  22.339  1.00  0.00     0.261 C 
BRANCH  19  20
ATOM     20  C   UNL A   1      33.758  25.935  22.101  1.00  0.00     0.058 C 
ATOM     21  C   UNL A   1      32.946  27.090  22.674  1.00  0.00     0.010 C 
ENDBRANCH  19  20
ENDBRANCH  16  19
ENDBRANCH  10  16
BRANCH  14  22
ATOM     22  O   UNL A   1      32.712  26.897  26.221  1.00  0.00    -0.372 OA
BRANCH  22  23
ATOM     23  C   UNL A   1      32.233  28.211  26.524  1.00  0.00     0.060 C 
ATOM     24  C   UNL A   1      31.571  28.809  25.291  1.00  0.00     0.042 C 
ATOM     25  C   UNL A   1      31.486  28.256  27.862  1.00  0.00     0.042 C 
ATOM     26  C   UNL A   1      33.441  29.160  26.718  1.00  0.00     0.042 C 
ENDBRANCH  22  23
ENDBRANCH  14  22
ENDBRANCH   8  10
ENDBRANCH   7   8
ENDBRANCH   6   7
ENDBRANCH   5   6
ENDBRANCH   4   5
ENDBRANCH   3   4
ENDBRANCH   2   3
ENDBRANCH   1   2
BRANCH   1  27
ATOM     27  C   UNL A   1      40.039  22.063  27.002  1.00  0.00     0.188 C 
BRANCH  27  28
ATOM     28  C   UNL A   1      41.111  21.174  27.654  1.00  0.00     0.188 C 
BRANCH  28  29
ATOM     29  O   UNL A   1      41.175  19.891  27.064  1.00  0.00    -0.376 OA
BRANCH  29  30
ATOM     30  C   UNL A   1      42.340  19.092  27.141  1.00  0.00     0.202 C 
BRANCH  30  31
ATOM     31  C   UNL A   1      43.017  18.520  25.883  1.00  0.00     0.261 C 
BRANCH  31  32
ATOM     32  O   UNL A   1      43.246  19.420  24.808  1.00  0.00    -0.460 OA
BRANCH  32  33
ATOM     33  C   UNL A   1      44.499  19.934  24.734  1.00  0.00     0.338 C 
ATOM     34  O   UNL A   1      45.474  19.424  24.245  1.00  0.00    -0.246 OA
BRANCH  33  35
ATOM     35  C   UNL A   1      44.390  21.325  25.206  1.00  0.00     0.060 A 
ATOM     36  C   UNL A   1      43.956  22.307  24.310  1.00  0.00     0.016 A 
ATOM     37  C   UNL A   1      44.682  21.634  26.535  1.00  0.00     0.016 A 
ATOM     38  C   UNL A   1      43.760  23.609  24.754  1.00  0.00     0.010 A 
ATOM     39  C   UNL A   1      44.559  22.953  26.961  1.00  0.00     0.010 A 
ATOM     40  C   UNL A   1      44.114  23.941  26.065  1.00  0.00    -0.014 A 
BRANCH  40  41
ATOM     41  C   UNL A   1      44.339  25.358  26.402  1.00  0.00     0.031 A 
ATOM     42  C   UNL A   1      45.723  25.888  26.167  1.00  0.00     0.074 A 
ATOM     43  C   UNL A   1      43.359  26.130  26.897  1.00  0.00     0.049 A 
ATOM     44  N   UNL A   1      46.242  27.036  26.502  1.00  0.00    -0.248 NA
ATOM     45  C   UNL A   1      46.653  24.985  25.465  1.00  0.00     0.031 C 
ATOM     46  C   UNL A   1      41.966  25.721  27.076  1.00  0.00     0.029 A 
ATOM     47  N   UNL A   1      43.397  27.419  27.356  1.00  0.00    -0.354 N 
ATOM     48  C   UNL A   1      47.558  26.991  26.057  1.00  0.00     0.074 A 
ATOM     49  C   UNL A   1      47.767  25.694  25.457  1.00  0.00     0.031 C 
ATOM     50  C   UNL A   1      41.287  26.740  27.634  1.00  0.00     0.029 A 
ATOM     51  C   UNL A   1      42.207  27.844  27.897  1.00  0.00     0.049 A 
ATOM     52  H   UNL A   1      44.199  27.988  27.302  1.00  0.00     0.167 HD
ATOM     53  C   UNL A   1      48.507  27.952  26.146  1.00  0.00     0.034 A 
ATOM     54  C   UNL A   1      41.923  28.981  28.565  1.00  0.00     0.034 A 
ATOM     55  C   UNL A   1      48.277  29.215  26.791  1.00  0.00     0.049 A 
ATOM     56  C   UNL A   1      43.034  29.990  28.768  1.00  0.00     0.074 A 
ATOM     57  C   UNL A   1      49.161  30.260  26.982  1.00  0.00     0.029 A 
ATOM     58  N   UNL A   1      47.071  29.598  27.368  1.00  0.00    -0.354 N 
ATOM     59  N   UNL A   1      44.287  29.934  28.372  1.00  0.00    -0.248 NA
ATOM     60  C   UNL A   1      42.695  31.214  29.505  1.00  0.00     0.031 C 
ATOM     61  C   UNL A   1      48.514  31.239  27.741  1.00  0.00     0.029 A 
ATOM     62  C   UNL A   1      47.196  30.852  27.936  1.00  0.00     0.049 A 
ATOM     63  H   UNL A   1      46.249  29.056  27.372  1.00  0.00     0.167 HD
ATOM     64  C   UNL A   1      44.867  31.139  28.766  1.00  0.00     0.074 A 
ATOM     65  C   UNL A   1      43.829  31.896  29.435  1.00  0.00     0.031 C 
ATOM     66  C   UNL A   1      46.135  31.589  28.582  1.00  0.00     0.034 A 
BRANCH  53  67
ATOM     67  C   UNL A   1      49.872  27.623  25.602  1.00  0.00     0.023 A 
ATOM     68  C   UNL A   1      50.174  27.756  24.234  1.00  0.00     0.031 A 
ATOM     69  C   UNL A   1      50.869  27.112  26.450  1.00  0.00     0.131 A 
ATOM     70  C   UNL A   1      51.413  27.315  23.746  1.00  0.00     0.055 A 
ATOM     71  C   UNL A   1      52.131  26.758  25.972  1.00  0.00     0.041 A 
ATOM     72  F   UNL A   1      50.626  26.927  27.757  1.00  0.00    -0.206 F 
ATOM     73  C   UNL A   1      52.404  26.845  24.610  1.00  0.00     0.022 A 
BRANCH  70  74
ATOM     74  S   UNL A   1      51.651  27.219  21.951  1.00  0.00     0.124 S 
ATOM     75  O   UNL A   1      50.312  26.855  21.494  1.00  0.00    -0.237 OA
ATOM     76  O   UNL A   1      52.094  28.567  21.618  1.00  0.00    -0.237 OA
ATOM     77  O   UNL A   1      52.661  26.173  21.795  1.00  0.00    -0.744 OA
ENDBRANCH  70  74
ENDBRANCH  53  67
BRANCH  54  78
ATOM     78  C   UNL A   1      40.564  29.218  29.130  1.00  0.00     0.023 A 
ATOM     79  C   UNL A   1      40.328  29.116  30.510  1.00  0.00     0.031 A 
ATOM     80  C   UNL A   1      39.462  29.478  28.294  1.00  0.00     0.131 A 
ATOM     81  C   UNL A   1      39.019  29.213  31.008  1.00  0.00     0.055 A 
ATOM     82  C   UNL A   1      38.171  29.639  28.801  1.00  0.00     0.041 A 
ATOM     83  F   UNL A   1      39.625  29.581  26.966  1.00  0.00    -0.206 F 
ATOM     84  C   UNL A   1      37.941  29.490  30.165  1.00  0.00     0.022 A 
BRANCH  81  85
ATOM     85  S   UNL A   1      38.732  28.858  32.763  1.00  0.00     0.124 S 
ATOM     86  O   UNL A   1      37.678  27.852  32.691  1.00  0.00    -0.237 OA
ATOM     87  O   UNL A   1      40.043  28.386  33.194  1.00  0.00    -0.237 OA
ATOM     88  O   UNL A   1      38.325  30.152  33.309  1.00  0.00    -0.744 OA
ENDBRANCH  81  85
ENDBRANCH  54  78
BRANCH  66  89
ATOM     89  C   UNL A   1      46.446  32.997  29.025  1.00  0.00     0.023 A 
ATOM     90  C   UNL A   1      46.267  34.107  28.184  1.00  0.00     0.031 A 
ATOM     91  C   UNL A   1      46.895  33.224  30.340  1.00  0.00     0.131 A 
ATOM     92  C   UNL A   1      46.574  35.392  28.656  1.00  0.00     0.055 A 
ATOM     93  C   UNL A   1      47.136  34.509  30.822  1.00  0.00     0.041 A 
ATOM     94  F   UNL A   1      47.085  32.198  31.184  1.00  0.00    -0.206 F 
ATOM     95  C   UNL A   1      46.985  35.603  29.975  1.00  0.00     0.022 A 
BRANCH  92  96
ATOM     96  S   UNL A   1      46.503  36.786  27.498  1.00  0.00     0.124 S 
ATOM     97  O   UNL A   1      45.308  36.474  26.720  1.00  0.00    -0.237 OA
ATOM     98  O   UNL A   1      46.399  37.933  28.394  1.00  0.00    -0.237 OA
ATOM     99  O   UNL A   1      47.764  36.688  26.764  1.00  0.00    -0.744 OA
ENDBRANCH  92  96
ENDBRANCH  66  89
ENDBRANCH  40  41
ENDBRANCH  33  35
ENDBRANCH  32  33
ENDBRANCH  31  32
ENDBRANCH  30  31
ENDBRANCH  29  30
ENDBRANCH  28  29
ENDBRANCH  27  28
ENDBRANCH   1  27
TORSDOF 28
ENDMDL
MODEL 3
REMARK VINA RESULT:      -8.9      2.709      4.067
REMARK SMILES CCC[NH2+][C@]1(C(=O)OCCOCCOCCOCCOC(=O)c2ccc(-c3c4nc(c(-c5cc(S(=O)(=O)[O-])ccc5F)c5ccc([nH]5)c(-c5cc(S(=O)(=O)[O-])ccc5F)c5nc(c(-c6cc(S(=O)(=O)[O-])ccc6F)c6ccc3[nH]6)C=C5)C=C4)cc2)CCC[C@H](OC(C)(C)C)C1
REMARK SMILES IDX 14 1 13 2 12 3 11 4 10 5 9 6 8 7 6 8 7 9 5 10 86 11 95 12
REMARK SMILES IDX 87 13 89 14 88 15 4 16 3 19 2 20 1 21 90 22 91 23 92 24
REMARK SMILES IDX 93 25 94 26 15 27 16 28 17 29 18 30 19 31 20 32 21 33 22 34
REMARK SMILES IDX 23 35 24 36 85 37 25 38 84 39 26 40 27 41 28 42 78 43 29 44
REMARK SMILES IDX 83 45 77 46 79 47 30 48 82 49 76 50 75 51 31 53 63 54 43 55
REMARK SMILES IDX 62 56 44 57 47 58 61 59 80 60 45 61 46 62 60 64 81 65 48 66
REMARK SMILES IDX 32 67 33 68 41 69 34 70 40 71 42 72 39 73 35 74 36 75 37 76
REMARK SMILES IDX 38 77 64 78 65 79 73 80 66 81 72 82 74 83 71 84 67 85 68 86
REMARK SMILES IDX 69 87 70 88 49 89 50 90 58 91 51 92 57 93 59 94 56 95 52 96
REMARK SMILES IDX 53 97 54 98 55 99
REMARK H PARENT 4 17 4 18 79 52 47 63
REMARK Flexibility Score: inf
ROOT
ATOM      1  O   UNL A   1      35.365  23.035  22.482  1.00  0.00    -0.377 OA
ENDROOT
BRANCH   1   2
ATOM      2  C   UNL A   1      34.039  23.271  22.908  1.00  0.00     0.188 C 
BRANCH   2   3
ATOM      3  C   UNL A   1      32.926  22.180  23.016  1.00  0.00     0.188 C 
BRANCH   3   4
ATOM      4  O   UNL A   1      31.578  22.500  22.773  1.00  0.00    -0.376 OA
BRANCH   4   5
ATOM      5  C   UNL A   1      30.902  23.393  23.632  1.00  0.00     0.202 C 
BRANCH   5   6
ATOM      6  C   UNL A   1      30.481  24.819  23.222  1.00  0.00     0.261 C 
BRANCH   6   7
ATOM      7  O   UNL A   1      29.768  25.605  24.192  1.00  0.00    -0.459 OA
BRANCH   7   8
ATOM      8  C   UNL A   1      30.276  25.726  25.456  1.00  0.00     0.368 C 
ATOM      9  O   UNL A   1      29.958  24.994  26.387  1.00  0.00    -0.245 OA
BRANCH   8  10
ATOM     10  C   UNL A   1      31.428  26.836  25.550  1.00  0.00     0.196 C 
ATOM     11  C   UNL A   1      30.964  28.069  24.736  1.00  0.00     0.081 C 
ATOM     12  C   UNL A   1      31.535  27.213  27.070  1.00  0.00     0.113 C 
ATOM     13  C   UNL A   1      31.476  29.449  25.104  1.00  0.00     0.010 C 
ATOM     14  C   UNL A   1      32.099  28.598  27.468  1.00  0.00     0.125 C 
ATOM     15  C   UNL A   1      31.568  29.736  26.594  1.00  0.00     0.032 C 
BRANCH  10  16
ATOM     16  N   UNL A   1      32.706  26.151  25.244  1.00  0.00    -0.332 N 
ATOM     17  H   UNL A   1      32.471  25.483  24.509  1.00  0.00     0.347 HD
ATOM     18  H   UNL A   1      33.294  26.975  25.114  1.00  0.00     0.347 HD
BRANCH  16  19
ATOM     19  C   UNL A   1      33.562  25.415  26.144  1.00  0.00     0.261 C 
BRANCH  19  20
ATOM     20  C   UNL A   1      33.358  23.879  26.191  1.00  0.00     0.058 C 
ATOM     21  C   UNL A   1      34.117  23.141  27.287  1.00  0.00     0.010 C 
ENDBRANCH  19  20
ENDBRANCH  16  19
ENDBRANCH  10  16
BRANCH  14  22
ATOM     22  O   UNL A   1      33.428  28.801  27.997  1.00  0.00    -0.372 OA
BRANCH  22  23
ATOM     23  C   UNL A   1      34.505  29.462  27.324  1.00  0.00     0.060 C 
ATOM     24  C   UNL A   1      35.760  29.398  28.184  1.00  0.00     0.042 C 
ATOM     25  C   UNL A   1      34.595  29.058  25.849  1.00  0.00     0.042 C 
ATOM     26  C   UNL A   1      34.227  30.985  27.296  1.00  0.00     0.042 C 
ENDBRANCH  22  23
ENDBRANCH  14  22
ENDBRANCH   8  10
ENDBRANCH   7   8
ENDBRANCH   6   7
ENDBRANCH   5   6
ENDBRANCH   4   5
ENDBRANCH   3   4
ENDBRANCH   2   3
ENDBRANCH   1   2
BRANCH   1  27
ATOM     27  C   UNL A   1      36.370  23.044  23.463  1.00  0.00     0.188 C 
BRANCH  27  28
ATOM     28  C   UNL A   1      36.418  21.841  24.421  1.00  0.00     0.188 C 
BRANCH  28  29
ATOM     29  O   UNL A   1      37.741  21.436  24.708  1.00  0.00    -0.376 OA
BRANCH  29  30
ATOM     30  C   UNL A   1      38.074  20.079  24.926  1.00  0.00     0.202 C 
BRANCH  30  31
ATOM     31  C   UNL A   1      39.439  19.659  25.501  1.00  0.00     0.261 C 
BRANCH  31  32
ATOM     32  O   UNL A   1      39.758  20.121  26.806  1.00  0.00    -0.460 OA
BRANCH  32  33
ATOM     33  C   UNL A   1      41.078  20.317  27.049  1.00  0.00     0.338 C 
ATOM     34  O   UNL A   1      41.982  19.542  26.868  1.00  0.00    -0.246 OA
BRANCH  33  35
ATOM     35  C   UNL A   1      41.213  21.740  27.405  1.00  0.00     0.060 A 
ATOM     36  C   UNL A   1      40.333  22.663  26.831  1.00  0.00     0.016 A 
ATOM     37  C   UNL A   1      42.182  22.139  28.327  1.00  0.00     0.016 A 
ATOM     38  C   UNL A   1      40.382  23.997  27.219  1.00  0.00     0.010 A 
ATOM     39  C   UNL A   1      42.282  23.487  28.658  1.00  0.00     0.010 A 
ATOM     40  C   UNL A   1      41.392  24.415  28.090  1.00  0.00    -0.014 A 
BRANCH  40  41
ATOM     41  C   UNL A   1      41.730  25.849  28.147  1.00  0.00     0.031 A 
ATOM     42  C   UNL A   1      43.053  26.247  27.562  1.00  0.00     0.074 A 
ATOM     43  C   UNL A   1      40.900  26.748  28.699  1.00  0.00     0.049 A 
ATOM     44  N   UNL A   1      43.669  27.395  27.602  1.00  0.00    -0.248 NA
ATOM     45  C   UNL A   1      43.787  25.191  26.840  1.00  0.00     0.031 C 
ATOM     46  C   UNL A   1      39.561  26.462  29.214  1.00  0.00     0.029 A 
ATOM     47  N   UNL A   1      41.076  28.086  28.932  1.00  0.00    -0.354 N 
ATOM     48  C   UNL A   1      44.863  27.198  26.917  1.00  0.00     0.074 A 
ATOM     49  C   UNL A   1      44.899  25.816  26.500  1.00  0.00     0.031 C 
ATOM     50  C   UNL A   1      39.047  27.594  29.728  1.00  0.00     0.029 A 
ATOM     51  C   UNL A   1      40.039  28.663  29.626  1.00  0.00     0.049 A 
ATOM     52  H   UNL A   1      41.869  28.587  28.632  1.00  0.00     0.167 HD
ATOM     53  C   UNL A   1      45.841  28.097  26.664  1.00  0.00     0.034 A 
ATOM     54  C   UNL A   1      39.938  29.902  30.148  1.00  0.00     0.034 A 
ATOM     55  C   UNL A   1      45.793  29.454  27.134  1.00  0.00     0.049 A 
ATOM     56  C   UNL A   1      41.101  30.855  29.966  1.00  0.00     0.074 A 
ATOM     57  C   UNL A   1      46.732  30.455  26.978  1.00  0.00     0.029 A 
ATOM     58  N   UNL A   1      44.746  29.997  27.871  1.00  0.00    -0.354 N 
ATOM     59  N   UNL A   1      42.242  30.659  29.343  1.00  0.00    -0.248 NA
ATOM     60  C   UNL A   1      40.963  32.193  30.553  1.00  0.00     0.031 C 
ATOM     61  C   UNL A   1      46.291  31.576  27.686  1.00  0.00     0.029 A 
ATOM     62  C   UNL A   1      45.029  31.310  28.198  1.00  0.00     0.049 A 
ATOM     63  H   UNL A   1      43.925  29.516  28.123  1.00  0.00     0.167 HD
ATOM     64  C   UNL A   1      42.932  31.868  29.419  1.00  0.00     0.074 A 
ATOM     65  C   UNL A   1      42.081  32.782  30.153  1.00  0.00     0.031 C 
ATOM     66  C   UNL A   1      44.149  32.202  28.918  1.00  0.00     0.034 A 
BRANCH  53  67
ATOM     67  C   UNL A   1      47.053  27.603  25.918  1.00  0.00     0.023 A 
ATOM     68  C   UNL A   1      47.267  27.919  24.564  1.00  0.00     0.031 A 
ATOM     69  C   UNL A   1      47.977  26.754  26.551  1.00  0.00     0.131 A 
ATOM     70  C   UNL A   1      48.336  27.332  23.870  1.00  0.00     0.055 A 
ATOM     71  C   UNL A   1      49.088  26.244  25.877  1.00  0.00     0.041 A 
ATOM     72  F   UNL A   1      47.804  26.387  27.829  1.00  0.00    -0.206 F 
ATOM     73  C   UNL A   1      49.264  26.521  24.525  1.00  0.00     0.022 A 
BRANCH  70  74
ATOM     74  S   UNL A   1      48.403  27.520  22.067  1.00  0.00     0.124 S 
ATOM     75  O   UNL A   1      47.114  28.147  21.787  1.00  0.00    -0.237 OA
ATOM     76  O   UNL A   1      49.577  28.363  21.880  1.00  0.00    -0.237 OA
ATOM     77  O   UNL A   1      48.538  26.146  21.585  1.00  0.00    -0.744 OA
ENDBRANCH  70  74
ENDBRANCH  53  67
BRANCH  54  78
ATOM     78  C   UNL A   1      38.733  30.308  30.928  1.00  0.00     0.023 A 
ATOM     79  C   UNL A   1      37.808  31.224  30.401  1.00  0.00     0.031 A 
ATOM     80  C   UNL A   1      38.523  29.845  32.239  1.00  0.00     0.131 A 
ATOM     81  C   UNL A   1      36.753  31.692  31.199  1.00  0.00     0.055 A 
ATOM     82  C   UNL A   1      37.434  30.264  33.007  1.00  0.00     0.041 A 
ATOM     83  F   UNL A   1      39.377  28.973  32.798  1.00  0.00    -0.206 F 
ATOM     84  C   UNL A   1      36.550  31.207  32.493  1.00  0.00     0.022 A 
BRANCH  81  85
ATOM     85  S   UNL A   1      35.713  33.034  30.559  1.00  0.00     0.124 S 
ATOM     86  O   UNL A   1      34.374  32.490  30.761  1.00  0.00    -0.237 OA
ATOM     87  O   UNL A   1      36.092  34.148  31.422  1.00  0.00    -0.237 OA
ATOM     88  O   UNL A   1      36.135  33.154  29.165  1.00  0.00    -0.744 OA
ENDBRANCH  81  85
ENDBRANCH  54  78
BRANCH  66  89
ATOM     89  C   UNL A   1      44.593  33.636  29.062  1.00  0.00     0.023 A 
ATOM     90  C   UNL A   1      45.375  34.077  30.142  1.00  0.00     0.031 A 
ATOM     91  C   UNL A   1      44.252  34.569  28.064  1.00  0.00     0.131 A 
ATOM     92  C   UNL A   1      45.757  35.424  30.219  1.00  0.00     0.055 A 
ATOM     93  C   UNL A   1      44.689  35.891  28.113  1.00  0.00     0.041 A 
ATOM     94  F   UNL A   1      43.505  34.200  27.011  1.00  0.00    -0.206 F 
ATOM     95  C   UNL A   1      45.438  36.329  29.201  1.00  0.00     0.022 A 
BRANCH  92  96
ATOM     96  S   UNL A   1      46.613  36.005  31.708  1.00  0.00     0.124 S 
ATOM     97  O   UNL A   1      48.012  35.766  31.367  1.00  0.00    -0.237 OA
ATOM     98  O   UNL A   1      46.205  37.404  31.779  1.00  0.00    -0.237 OA
ATOM     99  O   UNL A   1      46.078  35.151  32.767  1.00  0.00    -0.744 OA
ENDBRANCH  92  96
ENDBRANCH  66  89
ENDBRANCH  40  41
ENDBRANCH  33  35
ENDBRANCH  32  33
ENDBRANCH  31  32
ENDBRANCH  30  31
ENDBRANCH  29  30
ENDBRANCH  28  29
ENDBRANCH  27  28
ENDBRANCH   1  27
TORSDOF 28
ENDMDL
