MODEL 1
REMARK VINA RESULT:      -8.9      0.000      0.000
REMARK SMILES O=C(OCCOCCOCCOCCOC(=O)c1ccc(-n2cc(CSc3nc4ccccc4c(=O)n3-c3ccccc3)nn2)cc1)c1ccc(-c2c3nc(c(-c4cc(S(=O)(=O)[O-])ccc4F)c4ccc([nH]4)c(-c4cc(S(=O)(=O)[O-])ccc4F)c4nc(c(-c5cc(S(=O)(=O)[O-])ccc5F)c5ccc2[nH]5)C=C4)C=C3)cc1
REMARK SMILES IDX 10 1 9 2 8 3 7 4 6 5 5 6 4 7 3 8 2 9 1 10 48 11 49 12 110 13
REMARK SMILES IDX 50 14 109 15 51 16 52 17 53 18 103 19 54 20 108 21 102 22
REMARK SMILES IDX 104 23 55 24 107 25 101 26 100 27 56 29 88 30 68 31 87 32
REMARK SMILES IDX 69 33 72 34 86 35 105 36 70 37 71 38 85 40 106 41 73 42
REMARK SMILES IDX 57 43 58 44 66 45 59 46 65 47 67 48 64 49 60 50 61 51 62 52
REMARK SMILES IDX 63 53 89 54 90 55 98 56 91 57 97 58 99 59 96 60 92 61 93 62
REMARK SMILES IDX 94 63 95 64 74 65 75 66 83 67 76 68 82 69 84 70 81 71 77 72
REMARK SMILES IDX 78 73 79 74 80 75 11 76 12 77 13 78 14 79 15 80 16 81 17 82
REMARK SMILES IDX 18 83 19 84 47 85 20 86 46 87 21 88 22 89 23 90 45 91 24 92
REMARK SMILES IDX 44 93 25 94 26 95 27 96 28 97 37 98 29 99 35 100 30 101
REMARK SMILES IDX 34 102 36 103 31 104 33 105 32 106 38 107 39 108 43 109
REMARK SMILES IDX 40 110 42 111 41 112
REMARK H PARENT 104 28 72 39
REMARK Flexibility Score: inf
ROOT
ATOM      1  C   UNL A   1      37.139  32.999  32.941  1.00  0.00     0.188 C 
ENDROOT
BRANCH   1   2
ATOM      2  O   UNL A   1      37.613  34.287  32.617  1.00  0.00    -0.377 OA
BRANCH   2   3
ATOM      3  C   UNL A   1      38.681  34.276  31.687  1.00  0.00     0.188 C 
BRANCH   3   4
ATOM      4  C   UNL A   1      40.106  34.419  32.255  1.00  0.00     0.188 C 
BRANCH   4   5
ATOM      5  O   UNL A   1      40.408  34.811  33.584  1.00  0.00    -0.376 OA
BRANCH   5   6
ATOM      6  C   UNL A   1      41.096  34.123  34.606  1.00  0.00     0.202 C 
BRANCH   6   7
ATOM      7  C   UNL A   1      41.656  34.718  35.899  1.00  0.00     0.261 C 
BRANCH   7   8
ATOM      8  O   UNL A   1      42.959  34.306  36.276  1.00  0.00    -0.460 OA
BRANCH   8   9
ATOM      9  C   UNL A   1      44.115  34.398  35.590  1.00  0.00     0.338 C 
ATOM     10  O   UNL A   1      44.759  35.441  35.704  1.00  0.00    -0.246 OA
BRANCH   9  11
ATOM     11  C   UNL A   1      44.618  33.369  34.639  1.00  0.00     0.060 A 
ATOM     12  C   UNL A   1      44.425  33.342  33.257  1.00  0.00     0.016 A 
ATOM     13  C   UNL A   1      45.331  32.313  35.242  1.00  0.00     0.016 A 
ATOM     14  C   UNL A   1      44.740  32.206  32.535  1.00  0.00     0.010 A 
ATOM     15  C   UNL A   1      45.679  31.188  34.520  1.00  0.00     0.010 A 
ATOM     16  C   UNL A   1      45.297  31.114  33.190  1.00  0.00    -0.014 A 
BRANCH  16  17
ATOM     17  C   UNL A   1      45.471  29.903  32.418  1.00  0.00     0.031 A 
ATOM     18  C   UNL A   1      46.340  30.041  31.232  1.00  0.00     0.074 A 
ATOM     19  C   UNL A   1      44.885  28.746  32.774  1.00  0.00     0.049 A 
ATOM     20  N   UNL A   1      45.982  30.017  29.991  1.00  0.00    -0.248 NA
ATOM     21  C   UNL A   1      47.745  30.410  31.445  1.00  0.00     0.031 C 
ATOM     22  C   UNL A   1      44.194  28.433  34.027  1.00  0.00     0.029 A 
ATOM     23  N   UNL A   1      44.875  27.561  32.109  1.00  0.00    -0.354 N 
ATOM     24  C   UNL A   1      47.156  30.127  29.257  1.00  0.00     0.074 A 
ATOM     25  C   UNL A   1      48.167  30.554  30.188  1.00  0.00     0.031 C 
ATOM     26  C   UNL A   1      44.046  27.093  34.126  1.00  0.00     0.029 A 
ATOM     27  C   UNL A   1      44.504  26.475  32.892  1.00  0.00     0.049 A 
ATOM     28  H   UNL A   1      45.108  27.479  31.156  1.00  0.00     0.167 HD
ATOM     29  C   UNL A   1      47.243  29.630  27.993  1.00  0.00     0.034 A 
ATOM     30  C   UNL A   1      44.643  25.161  32.575  1.00  0.00     0.034 A 
ATOM     31  C   UNL A   1      45.930  29.400  27.432  1.00  0.00     0.049 A 
ATOM     32  C   UNL A   1      44.708  25.078  31.092  1.00  0.00     0.074 A 
ATOM     33  C   UNL A   1      44.833  30.203  27.180  1.00  0.00     0.029 A 
ATOM     34  N   UNL A   1      45.460  28.106  27.379  1.00  0.00    -0.354 N 
ATOM     35  N   UNL A   1      43.702  25.379  30.316  1.00  0.00    -0.248 NA
ATOM     36  C   UNL A   1      46.014  25.136  30.452  1.00  0.00     0.031 C 
ATOM     37  C   UNL A   1      43.704  29.393  27.494  1.00  0.00     0.029 A 
ATOM     38  C   UNL A   1      44.167  28.121  27.844  1.00  0.00     0.049 A 
ATOM     39  H   UNL A   1      45.958  27.317  27.067  1.00  0.00     0.167 HD
ATOM     40  C   UNL A   1      44.260  26.078  29.256  1.00  0.00     0.074 A 
ATOM     41  C   UNL A   1      45.694  25.804  29.339  1.00  0.00     0.031 C 
ATOM     42  C   UNL A   1      43.553  27.035  28.583  1.00  0.00     0.034 A 
BRANCH  29  43
ATOM     43  C   UNL A   1      48.486  29.008  27.399  1.00  0.00     0.023 A 
ATOM     44  C   UNL A   1      48.681  27.630  27.613  1.00  0.00     0.031 A 
ATOM     45  C   UNL A   1      49.608  29.720  26.917  1.00  0.00     0.131 A 
ATOM     46  C   UNL A   1      49.951  27.049  27.466  1.00  0.00     0.055 A 
ATOM     47  C   UNL A   1      50.852  29.121  26.701  1.00  0.00     0.041 A 
ATOM     48  F   UNL A   1      49.600  31.043  26.722  1.00  0.00    -0.206 F 
ATOM     49  C   UNL A   1      51.040  27.786  27.010  1.00  0.00     0.022 A 
BRANCH  46  50
ATOM     50  S   UNL A   1      50.195  25.361  28.074  1.00  0.00     0.124 S 
ATOM     51  O   UNL A   1      51.649  25.258  28.071  1.00  0.00    -0.237 OA
ATOM     52  O   UNL A   1      49.553  25.420  29.384  1.00  0.00    -0.237 OA
ATOM     53  O   UNL A   1      49.507  24.542  27.079  1.00  0.00    -0.744 OA
ENDBRANCH  46  50
ENDBRANCH  29  43
BRANCH  30  54
ATOM     54  C   UNL A   1      45.056  24.069  33.497  1.00  0.00     0.023 A 
ATOM     55  C   UNL A   1      46.140  24.195  34.388  1.00  0.00     0.031 A 
ATOM     56  C   UNL A   1      44.222  22.940  33.671  1.00  0.00     0.131 A 
ATOM     57  C   UNL A   1      46.354  23.219  35.392  1.00  0.00     0.055 A 
ATOM     58  C   UNL A   1      44.444  21.975  34.654  1.00  0.00     0.041 A 
ATOM     59  F   UNL A   1      43.105  22.777  32.944  1.00  0.00    -0.206 F 
ATOM     60  C   UNL A   1      45.509  22.115  35.527  1.00  0.00     0.022 A 
BRANCH  57  61
ATOM     61  S   UNL A   1      47.691  23.427  36.611  1.00  0.00     0.124 S 
ATOM     62  O   UNL A   1      48.856  23.643  35.762  1.00  0.00    -0.237 OA
ATOM     63  O   UNL A   1      47.231  24.573  37.388  1.00  0.00    -0.237 OA
ATOM     64  O   UNL A   1      47.688  22.157  37.340  1.00  0.00    -0.744 OA
ENDBRANCH  57  61
ENDBRANCH  30  54
BRANCH  42  65
ATOM     65  C   UNL A   1      42.054  27.113  28.790  1.00  0.00     0.023 A 
ATOM     66  C   UNL A   1      41.407  27.964  29.715  1.00  0.00     0.031 A 
ATOM     67  C   UNL A   1      41.244  26.373  27.910  1.00  0.00     0.131 A 
ATOM     68  C   UNL A   1      39.999  28.040  29.737  1.00  0.00     0.055 A 
ATOM     69  C   UNL A   1      39.852  26.465  27.921  1.00  0.00     0.041 A 
ATOM     70  F   UNL A   1      41.798  25.568  26.986  1.00  0.00    -0.206 F 
ATOM     71  C   UNL A   1      39.225  27.295  28.841  1.00  0.00     0.022 A 
BRANCH  68  72
ATOM     72  S   UNL A   1      39.144  29.102  30.945  1.00  0.00     0.124 S 
ATOM     73  O   UNL A   1      37.814  28.514  31.039  1.00  0.00    -0.237 OA
ATOM     74  O   UNL A   1      39.987  28.972  32.131  1.00  0.00    -0.237 OA
ATOM     75  O   UNL A   1      39.181  30.425  30.318  1.00  0.00    -0.744 OA
ENDBRANCH  68  72
ENDBRANCH  42  65
ENDBRANCH  16  17
ENDBRANCH   9  11
ENDBRANCH   8   9
ENDBRANCH   7   8
ENDBRANCH   6   7
ENDBRANCH   5   6
ENDBRANCH   4   5
ENDBRANCH   3   4
ENDBRANCH   2   3
ENDBRANCH   1   2
BRANCH   1  76
ATOM     76  C   UNL A   1      36.074  32.474  31.958  1.00  0.00     0.188 C 
BRANCH  76  77
ATOM     77  O   UNL A   1      35.955  32.994  30.643  1.00  0.00    -0.376 OA
BRANCH  77  78
ATOM     78  C   UNL A   1      34.957  32.496  29.769  1.00  0.00     0.202 C 
BRANCH  78  79
ATOM     79  C   UNL A   1      35.320  32.017  28.350  1.00  0.00     0.261 C 
BRANCH  79  80
ATOM     80  O   UNL A   1      34.574  30.900  27.840  1.00  0.00    -0.460 OA
BRANCH  80  81
ATOM     81  C   UNL A   1      33.339  31.160  27.364  1.00  0.00     0.338 C 
ATOM     82  O   UNL A   1      32.664  32.172  27.540  1.00  0.00    -0.246 OA
BRANCH  81  83
ATOM     83  C   UNL A   1      32.946  30.080  26.441  1.00  0.00     0.060 A 
ATOM     84  C   UNL A   1      31.830  30.271  25.610  1.00  0.00     0.018 A 
ATOM     85  C   UNL A   1      33.668  28.886  26.392  1.00  0.00     0.018 A 
ATOM     86  C   UNL A   1      31.452  29.302  24.689  1.00  0.00     0.029 A 
ATOM     87  C   UNL A   1      33.216  27.858  25.561  1.00  0.00     0.029 A 
ATOM     88  C   UNL A   1      32.107  28.073  24.720  1.00  0.00     0.066 A 
BRANCH  88  89
ATOM     89  N   UNL A   1      31.443  26.984  24.130  1.00  0.00    -0.220 N 
ATOM     90  C   UNL A   1      31.959  25.717  24.098  1.00  0.00     0.141 A 
ATOM     91  N   UNL A   1      30.126  26.944  23.837  1.00  0.00    -0.062 NA
ATOM     92  C   UNL A   1      30.895  24.892  23.821  1.00  0.00     0.093 A 
ATOM     93  N   UNL A   1      29.799  25.679  23.578  1.00  0.00    -0.134 NA
BRANCH  92  94
ATOM     94  C   UNL A   1      30.909  23.438  23.566  1.00  0.00     0.138 C 
BRANCH  94  95
ATOM     95  S   UNL A   1      32.252  22.572  22.757  1.00  0.00    -0.081 SA
BRANCH  95  96
ATOM     96  C   UNL A   1      32.845  21.186  23.633  1.00  0.00     0.176 A 
ATOM     97  N   UNL A   1      32.478  20.068  23.072  1.00  0.00    -0.223 NA
ATOM     98  N   UNL A   1      33.640  21.200  24.769  1.00  0.00    -0.255 N 
ATOM     99  C   UNL A   1      32.806  18.861  23.700  1.00  0.00     0.079 A 
ATOM    100  C   UNL A   1      33.373  20.155  25.665  1.00  0.00     0.266 A 
ATOM    101  C   UNL A   1      32.741  17.648  23.013  1.00  0.00     0.029 A 
ATOM    102  C   UNL A   1      33.115  18.845  25.051  1.00  0.00     0.066 A 
ATOM    103  O   UNL A   1      33.331  20.240  26.890  1.00  0.00    -0.268 OA
ATOM    104  C   UNL A   1      32.927  16.439  23.696  1.00  0.00     0.002 A 
ATOM    105  C   UNL A   1      33.253  17.647  25.759  1.00  0.00     0.016 A 
ATOM    106  C   UNL A   1      33.150  16.438  25.075  1.00  0.00     0.001 A 
BRANCH  98 107
ATOM    107  C   UNL A   1      34.688  22.145  25.109  1.00  0.00     0.051 A 
ATOM    108  C   UNL A   1      34.358  23.394  25.676  1.00  0.00     0.027 A 
ATOM    109  C   UNL A   1      36.058  21.900  24.954  1.00  0.00     0.027 A 
ATOM    110  C   UNL A   1      35.303  24.407  25.866  1.00  0.00     0.002 A 
ATOM    111  C   UNL A   1      37.008  22.926  25.088  1.00  0.00     0.002 A 
ATOM    112  C   UNL A   1      36.623  24.191  25.511  1.00  0.00     0.000 A 
ENDBRANCH  98 107
ENDBRANCH  95  96
ENDBRANCH  94  95
ENDBRANCH  92  94
ENDBRANCH  88  89
ENDBRANCH  81  83
ENDBRANCH  80  81
ENDBRANCH  79  80
ENDBRANCH  78  79
ENDBRANCH  77  78
ENDBRANCH  76  77
ENDBRANCH   1  76
TORSDOF 28
ENDMDL
MODEL 2
REMARK VINA RESULT:      -8.6      5.656     12.584
REMARK SMILES O=C(OCCOCCOCCOCCOC(=O)c1ccc(-n2cc(CSc3nc4ccccc4c(=O)n3-c3ccccc3)nn2)cc1)c1ccc(-c2c3nc(c(-c4cc(S(=O)(=O)[O-])ccc4F)c4ccc([nH]4)c(-c4cc(S(=O)(=O)[O-])ccc4F)c4nc(c(-c5cc(S(=O)(=O)[O-])ccc5F)c5ccc2[nH]5)C=C4)C=C3)cc1
REMARK SMILES IDX 10 1 9 2 8 3 7 4 6 5 5 6 4 7 3 8 2 9 1 10 48 11 49 12 110 13
REMARK SMILES IDX 50 14 109 15 51 16 52 17 53 18 103 19 54 20 108 21 102 22
REMARK SMILES IDX 104 23 55 24 107 25 101 26 100 27 56 29 88 30 68 31 87 32
REMARK SMILES IDX 69 33 72 34 86 35 105 36 70 37 71 38 85 40 106 41 73 42
REMARK SMILES IDX 57 43 58 44 66 45 59 46 65 47 67 48 64 49 60 50 61 51 62 52
REMARK SMILES IDX 63 53 89 54 90 55 98 56 91 57 97 58 99 59 96 60 92 61 93 62
REMARK SMILES IDX 94 63 95 64 74 65 75 66 83 67 76 68 82 69 84 70 81 71 77 72
REMARK SMILES IDX 78 73 79 74 80 75 11 76 12 77 13 78 14 79 15 80 16 81 17 82
REMARK SMILES IDX 18 83 19 84 47 85 20 86 46 87 21 88 22 89 23 90 45 91 24 92
REMARK SMILES IDX 44 93 25 94 26 95 27 96 28 97 37 98 29 99 35 100 30 101
REMARK SMILES IDX 34 102 36 103 31 104 33 105 32 106 38 107 39 108 43 109
REMARK SMILES IDX 40 110 42 111 41 112
REMARK H PARENT 104 28 72 39
REMARK Flexibility Score: inf
ROOT
ATOM      1  C   UNL A   1      41.982  34.273  30.043  1.00  0.00     0.188 C 
ENDROOT
BRANCH   1   2
ATOM      2  O   UNL A   1      41.330  34.019  31.267  1.00  0.00    -0.377 OA
BRANCH   2   3
ATOM      3  C   UNL A   1      40.030  34.577  31.338  1.00  0.00     0.188 C 
BRANCH   3   4
ATOM      4  C   UNL A   1      39.295  34.472  32.688  1.00  0.00     0.188 C 
BRANCH   4   5
ATOM      5  O   UNL A   1      38.006  33.909  32.862  1.00  0.00    -0.376 OA
BRANCH   5   6
ATOM      6  C   UNL A   1      36.878  33.929  32.013  1.00  0.00     0.202 C 
BRANCH   6   7
ATOM      7  C   UNL A   1      35.839  32.820  31.841  1.00  0.00     0.261 C 
BRANCH   7   8
ATOM      8  O   UNL A   1      35.829  32.149  30.591  1.00  0.00    -0.460 OA
BRANCH   8   9
ATOM      9  C   UNL A   1      36.769  32.128  29.626  1.00  0.00     0.338 C 
ATOM     10  O   UNL A   1      36.674  32.962  28.725  1.00  0.00    -0.246 OA
BRANCH   9  11
ATOM     11  C   UNL A   1      37.854  31.114  29.526  1.00  0.00     0.060 A 
ATOM     12  C   UNL A   1      37.709  29.761  29.218  1.00  0.00     0.016 A 
ATOM     13  C   UNL A   1      39.144  31.607  29.808  1.00  0.00     0.016 A 
ATOM     14  C   UNL A   1      38.768  28.892  29.397  1.00  0.00     0.010 A 
ATOM     15  C   UNL A   1      40.216  30.749  29.956  1.00  0.00     0.010 A 
ATOM     16  C   UNL A   1      39.992  29.387  29.833  1.00  0.00    -0.014 A 
BRANCH  16  17
ATOM     17  C   UNL A   1      41.021  28.419  30.144  1.00  0.00     0.031 A 
ATOM     18  C   UNL A   1      41.308  28.259  31.584  1.00  0.00     0.074 A 
ATOM     19  C   UNL A   1      41.650  27.721  29.182  1.00  0.00     0.049 A 
ATOM     20  N   UNL A   1      42.369  28.634  32.218  1.00  0.00    -0.248 NA
ATOM     21  C   UNL A   1      40.230  27.770  32.452  1.00  0.00     0.031 C 
ATOM     22  C   UNL A   1      41.306  27.630  27.762  1.00  0.00     0.029 A 
ATOM     23  N   UNL A   1      42.691  26.856  29.306  1.00  0.00    -0.354 N 
ATOM     24  C   UNL A   1      42.195  28.211  33.530  1.00  0.00     0.074 A 
ATOM     25  C   UNL A   1      40.803  27.867  33.653  1.00  0.00     0.031 C 
ATOM     26  C   UNL A   1      41.969  26.588  27.213  1.00  0.00     0.029 A 
ATOM     27  C   UNL A   1      42.876  26.031  28.204  1.00  0.00     0.049 A 
ATOM     28  H   UNL A   1      43.265  26.819  30.106  1.00  0.00     0.167 HD
ATOM     29  C   UNL A   1      43.263  27.960  34.334  1.00  0.00     0.034 A 
ATOM     30  C   UNL A   1      43.660  24.923  28.143  1.00  0.00     0.034 A 
ATOM     31  C   UNL A   1      44.465  28.570  33.810  1.00  0.00     0.049 A 
ATOM     32  C   UNL A   1      44.690  25.062  29.205  1.00  0.00     0.074 A 
ATOM     33  C   UNL A   1      44.836  29.866  33.503  1.00  0.00     0.029 A 
ATOM     34  N   UNL A   1      45.382  27.764  33.172  1.00  0.00    -0.354 N 
ATOM     35  N   UNL A   1      45.618  25.979  29.183  1.00  0.00    -0.248 NA
ATOM     36  C   UNL A   1      44.405  24.509  30.522  1.00  0.00     0.031 C 
ATOM     37  C   UNL A   1      45.617  29.755  32.317  1.00  0.00     0.029 A 
ATOM     38  C   UNL A   1      45.745  28.397  32.009  1.00  0.00     0.049 A 
ATOM     39  H   UNL A   1      45.715  26.894  33.491  1.00  0.00     0.167 HD
ATOM     40  C   UNL A   1      45.713  26.428  30.492  1.00  0.00     0.074 A 
ATOM     41  C   UNL A   1      45.021  25.416  31.287  1.00  0.00     0.031 C 
ATOM     42  C   UNL A   1      46.091  27.710  30.778  1.00  0.00     0.034 A 
BRANCH  29  43
ATOM     43  C   UNL A   1      43.310  26.873  35.384  1.00  0.00     0.023 A 
ATOM     44  C   UNL A   1      43.762  27.238  36.666  1.00  0.00     0.031 A 
ATOM     45  C   UNL A   1      43.234  25.485  35.129  1.00  0.00     0.131 A 
ATOM     46  C   UNL A   1      44.220  26.267  37.573  1.00  0.00     0.055 A 
ATOM     47  C   UNL A   1      43.621  24.520  36.064  1.00  0.00     0.041 A 
ATOM     48  F   UNL A   1      42.882  24.981  33.942  1.00  0.00    -0.206 F 
ATOM     49  C   UNL A   1      44.152  24.909  37.280  1.00  0.00     0.022 A 
BRANCH  46  50
ATOM     50  S   UNL A   1      45.089  26.828  39.059  1.00  0.00     0.124 S 
ATOM     51  O   UNL A   1      46.132  25.817  39.185  1.00  0.00    -0.237 OA
ATOM     52  O   UNL A   1      45.527  28.163  38.663  1.00  0.00    -0.237 OA
ATOM     53  O   UNL A   1      44.054  26.792  40.089  1.00  0.00    -0.744 OA
ENDBRANCH  46  50
ENDBRANCH  29  43
BRANCH  30  54
ATOM     54  C   UNL A   1      43.331  23.647  27.450  1.00  0.00     0.023 A 
ATOM     55  C   UNL A   1      44.057  23.176  26.338  1.00  0.00     0.031 A 
ATOM     56  C   UNL A   1      42.412  22.745  28.034  1.00  0.00     0.131 A 
ATOM     57  C   UNL A   1      43.847  21.862  25.856  1.00  0.00     0.055 A 
ATOM     58  C   UNL A   1      42.200  21.454  27.547  1.00  0.00     0.041 A 
ATOM     59  F   UNL A   1      41.745  23.055  29.157  1.00  0.00    -0.206 F 
ATOM     60  C   UNL A   1      42.925  21.003  26.458  1.00  0.00     0.022 A 
BRANCH  57  61
ATOM     61  S   UNL A   1      44.853  21.211  24.484  1.00  0.00     0.124 S 
ATOM     62  O   UNL A   1      44.711  22.251  23.472  1.00  0.00    -0.237 OA
ATOM     63  O   UNL A   1      46.170  21.077  25.097  1.00  0.00    -0.237 OA
ATOM     64  O   UNL A   1      44.202  19.941  24.156  1.00  0.00    -0.744 OA
ENDBRANCH  57  61
ENDBRANCH  30  54
BRANCH  42  65
ATOM     65  C   UNL A   1      46.712  28.549  29.681  1.00  0.00     0.023 A 
ATOM     66  C   UNL A   1      46.017  29.065  28.564  1.00  0.00     0.031 A 
ATOM     67  C   UNL A   1      48.051  28.945  29.853  1.00  0.00     0.131 A 
ATOM     68  C   UNL A   1      46.671  29.934  27.666  1.00  0.00     0.055 A 
ATOM     69  C   UNL A   1      48.689  29.820  28.975  1.00  0.00     0.041 A 
ATOM     70  F   UNL A   1      48.759  28.514  30.912  1.00  0.00    -0.206 F 
ATOM     71  C   UNL A   1      48.001  30.313  27.873  1.00  0.00     0.022 A 
BRANCH  68  72
ATOM     72  S   UNL A   1      45.805  30.581  26.200  1.00  0.00     0.124 S 
ATOM     73  O   UNL A   1      46.143  31.999  26.199  1.00  0.00    -0.237 OA
ATOM     74  O   UNL A   1      46.380  29.785  25.119  1.00  0.00    -0.237 OA
ATOM     75  O   UNL A   1      44.397  30.292  26.482  1.00  0.00    -0.744 OA
ENDBRANCH  68  72
ENDBRANCH  42  65
ENDBRANCH  16  17
ENDBRANCH   9  11
ENDBRANCH   8   9
ENDBRANCH   7   8
ENDBRANCH   6   7
ENDBRANCH   5   6
ENDBRANCH   4   5
ENDBRANCH   3   4
ENDBRANCH   2   3
ENDBRANCH   1   2
BRANCH   1  76
ATOM     76  C   UNL A   1      43.094  35.335  30.152  1.00  0.00     0.188 C 
BRANCH  76  77
ATOM     77  O   UNL A   1      43.611  35.993  29.005  1.00  0.00    -0.376 OA
BRANCH  77  78
ATOM     78  C   UNL A   1      42.860  37.016  28.373  1.00  0.00     0.202 C 
BRANCH  78  79
ATOM     79  C   UNL A   1      43.442  38.434  28.215  1.00  0.00     0.261 C 
BRANCH  79  80
ATOM     80  O   UNL A   1      44.848  38.582  28.468  1.00  0.00    -0.460 OA
BRANCH  80  81
ATOM     81  C   UNL A   1      45.578  39.186  27.507  1.00  0.00     0.338 C 
ATOM     82  O   UNL A   1      45.539  40.366  27.165  1.00  0.00    -0.246 OA
BRANCH  81  83
ATOM     83  C   UNL A   1      46.581  38.232  26.999  1.00  0.00     0.060 A 
ATOM     84  C   UNL A   1      46.160  36.948  26.614  1.00  0.00     0.018 A 
ATOM     85  C   UNL A   1      47.926  38.594  26.902  1.00  0.00     0.018 A 
ATOM     86  C   UNL A   1      47.060  36.033  26.082  1.00  0.00     0.029 A 
ATOM     87  C   UNL A   1      48.854  37.635  26.491  1.00  0.00     0.029 A 
ATOM     88  C   UNL A   1      48.414  36.359  26.089  1.00  0.00     0.066 A 
BRANCH  88  89
ATOM     89  N   UNL A   1      49.325  35.294  25.986  1.00  0.00    -0.220 N 
ATOM     90  C   UNL A   1      49.690  34.513  27.047  1.00  0.00     0.141 A 
ATOM     91  N   UNL A   1      49.686  34.691  24.834  1.00  0.00    -0.062 NA
ATOM     92  C   UNL A   1      50.247  33.382  26.500  1.00  0.00     0.093 A 
ATOM     93  N   UNL A   1      50.313  33.557  25.141  1.00  0.00    -0.134 NA
BRANCH  92  94
ATOM     94  C   UNL A   1      50.907  32.259  27.196  1.00  0.00     0.138 C 
BRANCH  94  95
ATOM     95  S   UNL A   1      51.496  30.778  26.380  1.00  0.00    -0.081 SA
BRANCH  95  96
ATOM     96  C   UNL A   1      51.791  29.435  27.452  1.00  0.00     0.176 A 
ATOM     97  N   UNL A   1      52.202  29.835  28.622  1.00  0.00    -0.223 NA
ATOM     98  N   UNL A   1      51.600  28.091  27.170  1.00  0.00    -0.255 N 
ATOM     99  C   UNL A   1      52.561  28.872  29.573  1.00  0.00     0.079 A 
ATOM    100  C   UNL A   1      52.530  27.241  27.784  1.00  0.00     0.266 A 
ATOM    101  C   UNL A   1      52.691  29.201  30.923  1.00  0.00     0.029 A 
ATOM    102  C   UNL A   1      52.885  27.586  29.169  1.00  0.00     0.066 A 
ATOM    103  O   UNL A   1      53.068  26.260  27.275  1.00  0.00    -0.268 OA
ATOM    104  C   UNL A   1      53.195  28.264  31.834  1.00  0.00     0.002 A 
ATOM    105  C   UNL A   1      53.437  26.654  30.053  1.00  0.00     0.016 A 
ATOM    106  C   UNL A   1      53.598  27.002  31.393  1.00  0.00     0.001 A 
BRANCH  98 107
ATOM    107  C   UNL A   1      50.568  27.495  26.341  1.00  0.00     0.051 A 
ATOM    108  C   UNL A   1      49.482  26.820  26.939  1.00  0.00     0.027 A 
ATOM    109  C   UNL A   1      50.532  27.569  24.943  1.00  0.00     0.027 A 
ATOM    110  C   UNL A   1      48.553  26.085  26.197  1.00  0.00     0.002 A 
ATOM    111  C   UNL A   1      49.638  26.791  24.189  1.00  0.00     0.002 A 
ATOM    112  C   UNL A   1      48.670  26.020  24.819  1.00  0.00     0.000 A 
ENDBRANCH  98 107
ENDBRANCH  95  96
ENDBRANCH  94  95
ENDBRANCH  92  94
ENDBRANCH  88  89
ENDBRANCH  81  83
ENDBRANCH  80  81
ENDBRANCH  79  80
ENDBRANCH  78  79
ENDBRANCH  77  78
ENDBRANCH  76  77
ENDBRANCH   1  76
TORSDOF 28
ENDMDL
MODEL 3
REMARK VINA RESULT:      -8.3      3.144      5.155
REMARK SMILES O=C(OCCOCCOCCOCCOC(=O)c1ccc(-n2cc(CSc3nc4ccccc4c(=O)n3-c3ccccc3)nn2)cc1)c1ccc(-c2c3nc(c(-c4cc(S(=O)(=O)[O-])ccc4F)c4ccc([nH]4)c(-c4cc(S(=O)(=O)[O-])ccc4F)c4nc(c(-c5cc(S(=O)(=O)[O-])ccc5F)c5ccc2[nH]5)C=C4)C=C3)cc1
REMARK SMILES IDX 10 1 9 2 8 3 7 4 6 5 5 6 4 7 3 8 2 9 1 10 48 11 49 12 110 13
REMARK SMILES IDX 50 14 109 15 51 16 52 17 53 18 103 19 54 20 108 21 102 22
REMARK SMILES IDX 104 23 55 24 107 25 101 26 100 27 56 29 88 30 68 31 87 32
REMARK SMILES IDX 69 33 72 34 86 35 105 36 70 37 71 38 85 40 106 41 73 42
REMARK SMILES IDX 57 43 58 44 66 45 59 46 65 47 67 48 64 49 60 50 61 51 62 52
REMARK SMILES IDX 63 53 89 54 90 55 98 56 91 57 97 58 99 59 96 60 92 61 93 62
REMARK SMILES IDX 94 63 95 64 74 65 75 66 83 67 76 68 82 69 84 70 81 71 77 72
REMARK SMILES IDX 78 73 79 74 80 75 11 76 12 77 13 78 14 79 15 80 16 81 17 82
REMARK SMILES IDX 18 83 19 84 47 85 20 86 46 87 21 88 22 89 23 90 45 91 24 92
REMARK SMILES IDX 44 93 25 94 26 95 27 96 28 97 37 98 29 99 35 100 30 101
REMARK SMILES IDX 34 102 36 103 31 104 33 105 32 106 38 107 39 108 43 109
REMARK SMILES IDX 40 110 42 111 41 112
REMARK H PARENT 104 28 72 39
REMARK Flexibility Score: inf
ROOT
ATOM      1  C   UNL A   1      39.217  29.808  33.249  1.00  0.00     0.188 C 
ENDROOT
BRANCH   1   2
ATOM      2  O   UNL A   1      38.055  29.924  34.039  1.00  0.00    -0.377 OA
BRANCH   2   3
ATOM      3  C   UNL A   1      38.135  30.955  35.008  1.00  0.00     0.188 C 
BRANCH   3   4
ATOM      4  C   UNL A   1      38.253  30.523  36.482  1.00  0.00     0.188 C 
BRANCH   4   5
ATOM      5  O   UNL A   1      37.856  31.316  37.588  1.00  0.00    -0.376 OA
BRANCH   5   6
ATOM      6  C   UNL A   1      37.906  32.715  37.774  1.00  0.00     0.202 C 
BRANCH   6   7
ATOM      7  C   UNL A   1      38.772  33.714  37.005  1.00  0.00     0.261 C 
BRANCH   7   8
ATOM      8  O   UNL A   1      40.165  33.676  37.263  1.00  0.00    -0.460 OA
BRANCH   8   9
ATOM      9  C   UNL A   1      41.182  34.181  36.537  1.00  0.00     0.338 C 
ATOM     10  O   UNL A   1      41.203  35.400  36.363  1.00  0.00    -0.246 OA
BRANCH   9  11
ATOM     11  C   UNL A   1      42.224  33.363  35.858  1.00  0.00     0.060 A 
ATOM     12  C   UNL A   1      42.781  33.594  34.600  1.00  0.00     0.016 A 
ATOM     13  C   UNL A   1      42.641  32.227  36.582  1.00  0.00     0.016 A 
ATOM     14  C   UNL A   1      43.558  32.624  33.996  1.00  0.00     0.010 A 
ATOM     15  C   UNL A   1      43.444  31.268  35.998  1.00  0.00     0.010 A 
ATOM     16  C   UNL A   1      43.820  31.440  34.675  1.00  0.00    -0.014 A 
BRANCH  16  17
ATOM     17  C   UNL A   1      44.512  30.401  33.943  1.00  0.00     0.031 A 
ATOM     18  C   UNL A   1      45.682  30.862  33.168  1.00  0.00     0.074 A 
ATOM     19  C   UNL A   1      44.111  29.118  33.984  1.00  0.00     0.049 A 
ATOM     20  N   UNL A   1      45.788  30.946  31.884  1.00  0.00    -0.248 NA
ATOM     21  C   UNL A   1      46.809  31.447  33.905  1.00  0.00     0.031 C 
ATOM     22  C   UNL A   1      43.119  28.511  34.874  1.00  0.00     0.029 A 
ATOM     23  N   UNL A   1      44.593  28.057  33.285  1.00  0.00    -0.354 N 
ATOM     24  C   UNL A   1      47.088  31.372  31.639  1.00  0.00     0.074 A 
ATOM     25  C   UNL A   1      47.595  31.841  32.901  1.00  0.00     0.031 C 
ATOM     26  C   UNL A   1      43.246  27.167  34.824  1.00  0.00     0.029 A 
ATOM     27  C   UNL A   1      44.225  26.822  33.806  1.00  0.00     0.049 A 
ATOM     28  H   UNL A   1      45.151  28.154  32.480  1.00  0.00     0.167 HD
ATOM     29  C   UNL A   1      47.711  31.081  30.465  1.00  0.00     0.034 A 
ATOM     30  C   UNL A   1      44.752  25.614  33.476  1.00  0.00     0.034 A 
ATOM     31  C   UNL A   1      46.757  30.696  29.449  1.00  0.00     0.049 A 
ATOM     32  C   UNL A   1      45.339  25.753  32.118  1.00  0.00     0.074 A 
ATOM     33  C   UNL A   1      45.666  31.312  28.866  1.00  0.00     0.029 A 
ATOM     34  N   UNL A   1      46.633  29.359  29.143  1.00  0.00    -0.354 N 
ATOM     35  N   UNL A   1      44.622  25.970  31.049  1.00  0.00    -0.248 NA
ATOM     36  C   UNL A   1      46.739  26.138  32.005  1.00  0.00     0.031 C 
ATOM     37  C   UNL A   1      44.706  30.273  28.691  1.00  0.00     0.029 A 
ATOM     38  C   UNL A   1      45.290  29.072  29.103  1.00  0.00     0.049 A 
ATOM     39  H   UNL A   1      47.369  28.726  28.984  1.00  0.00     0.167 HD
ATOM     40  C   UNL A   1      45.341  26.902  30.315  1.00  0.00     0.074 A 
ATOM     41  C   UNL A   1      46.681  26.886  30.899  1.00  0.00     0.031 C 
ATOM     42  C   UNL A   1      44.715  27.798  29.494  1.00  0.00     0.034 A 
BRANCH  29  43
ATOM     43  C   UNL A   1      49.188  30.787  30.328  1.00  0.00     0.023 A 
ATOM     44  C   UNL A   1      49.915  30.581  31.516  1.00  0.00     0.031 A 
ATOM     45  C   UNL A   1      49.960  30.994  29.162  1.00  0.00     0.131 A 
ATOM     46  C   UNL A   1      51.315  30.702  31.536  1.00  0.00     0.055 A 
ATOM     47  C   UNL A   1      51.357  31.039  29.175  1.00  0.00     0.041 A 
ATOM     48  F   UNL A   1      49.418  31.263  27.969  1.00  0.00    -0.206 F 
ATOM     49  C   UNL A   1      52.042  30.930  30.371  1.00  0.00     0.022 A 
BRANCH  46  50
ATOM     50  S   UNL A   1      52.145  30.755  33.143  1.00  0.00     0.124 S 
ATOM     51  O   UNL A   1      51.234  31.592  33.915  1.00  0.00    -0.237 OA
ATOM     52  O   UNL A   1      52.187  29.341  33.505  1.00  0.00    -0.237 OA
ATOM     53  O   UNL A   1      53.440  31.358  32.835  1.00  0.00    -0.744 OA
ENDBRANCH  46  50
ENDBRANCH  29  43
BRANCH  30  54
ATOM     54  C   UNL A   1      45.053  24.497  34.413  1.00  0.00     0.023 A 
ATOM     55  C   UNL A   1      45.542  24.709  35.717  1.00  0.00     0.031 A 
ATOM     56  C   UNL A   1      44.639  23.182  34.097  1.00  0.00     0.131 A 
ATOM     57  C   UNL A   1      45.602  23.634  36.637  1.00  0.00     0.055 A 
ATOM     58  C   UNL A   1      44.712  22.124  35.005  1.00  0.00     0.041 A 
ATOM     59  F   UNL A   1      44.064  22.893  32.919  1.00  0.00    -0.206 F 
ATOM     60  C   UNL A   1      45.187  22.348  36.285  1.00  0.00     0.022 A 
BRANCH  57  61
ATOM     61  S   UNL A   1      46.135  23.921  38.355  1.00  0.00     0.124 S 
ATOM     62  O   UNL A   1      45.560  22.778  39.054  1.00  0.00    -0.237 OA
ATOM     63  O   UNL A   1      47.588  23.944  38.233  1.00  0.00    -0.237 OA
ATOM     64  O   UNL A   1      45.532  25.212  38.689  1.00  0.00    -0.744 OA
ENDBRANCH  57  61
ENDBRANCH  30  54
BRANCH  42  65
ATOM     65  C   UNL A   1      43.259  27.570  29.142  1.00  0.00     0.023 A 
ATOM     66  C   UNL A   1      42.799  26.737  28.098  1.00  0.00     0.031 A 
ATOM     67  C   UNL A   1      42.295  28.135  29.997  1.00  0.00     0.131 A 
ATOM     68  C   UNL A   1      41.418  26.506  27.937  1.00  0.00     0.055 A 
ATOM     69  C   UNL A   1      40.931  27.889  29.848  1.00  0.00     0.041 A 
ATOM     70  F   UNL A   1      42.670  28.913  31.028  1.00  0.00    -0.206 F 
ATOM     71  C   UNL A   1      40.487  27.077  28.811  1.00  0.00     0.022 A 
BRANCH  68  72
ATOM     72  S   UNL A   1      40.800  25.465  26.576  1.00  0.00     0.124 S 
ATOM     73  O   UNL A   1      39.375  25.342  26.856  1.00  0.00    -0.237 OA
ATOM     74  O   UNL A   1      41.156  26.248  25.395  1.00  0.00    -0.237 OA
ATOM     75  O   UNL A   1      41.559  24.221  26.729  1.00  0.00    -0.744 OA
ENDBRANCH  68  72
ENDBRANCH  42  65
ENDBRANCH  16  17
ENDBRANCH   9  11
ENDBRANCH   8   9
ENDBRANCH   7   8
ENDBRANCH   6   7
ENDBRANCH   5   6
ENDBRANCH   4   5
ENDBRANCH   3   4
ENDBRANCH   2   3
ENDBRANCH   1   2
BRANCH   1  76
ATOM     76  C   UNL A   1      39.142  30.605  31.931  1.00  0.00     0.188 C 
BRANCH  76  77
ATOM     77  O   UNL A   1      40.181  31.485  31.533  1.00  0.00    -0.376 OA
BRANCH  77  78
ATOM     78  C   UNL A   1      40.415  32.683  32.254  1.00  0.00     0.202 C 
BRANCH  78  79
ATOM     79  C   UNL A   1      39.257  33.417  32.957  1.00  0.00     0.261 C 
BRANCH  79  80
ATOM     80  O   UNL A   1      38.587  34.434  32.194  1.00  0.00    -0.460 OA
BRANCH  80  81
ATOM     81  C   UNL A   1      37.243  34.489  32.304  1.00  0.00     0.338 C 
ATOM     82  O   UNL A   1      36.580  35.177  33.077  1.00  0.00    -0.246 OA
BRANCH  81  83
ATOM     83  C   UNL A   1      36.643  33.686  31.222  1.00  0.00     0.060 A 
ATOM     84  C   UNL A   1      35.312  33.258  31.355  1.00  0.00     0.018 A 
ATOM     85  C   UNL A   1      37.383  33.355  30.085  1.00  0.00     0.018 A 
ATOM     86  C   UNL A   1      34.689  32.542  30.340  1.00  0.00     0.029 A 
ATOM     87  C   UNL A   1      36.803  32.527  29.121  1.00  0.00     0.029 A 
ATOM     88  C   UNL A   1      35.461  32.122  29.260  1.00  0.00     0.066 A 
BRANCH  88  89
ATOM     89  N   UNL A   1      34.961  31.052  28.499  1.00  0.00    -0.220 N 
ATOM     90  C   UNL A   1      33.837  31.140  27.726  1.00  0.00     0.141 A 
ATOM     91  N   UNL A   1      35.661  29.950  28.155  1.00  0.00    -0.062 NA
ATOM     92  C   UNL A   1      33.899  30.076  26.859  1.00  0.00     0.093 A 
ATOM     93  N   UNL A   1      34.984  29.311  27.203  1.00  0.00    -0.134 NA
BRANCH  92  94
ATOM     94  C   UNL A   1      32.885  29.633  25.881  1.00  0.00     0.138 C 
BRANCH  94  95
ATOM     95  S   UNL A   1      33.232  29.290  24.158  1.00  0.00    -0.081 SA
BRANCH  95  96
ATOM     96  C   UNL A   1      32.885  27.654  23.666  1.00  0.00     0.176 A 
ATOM     97  N   UNL A   1      33.803  26.824  24.073  1.00  0.00    -0.223 NA
ATOM     98  N   UNL A   1      31.774  27.219  22.959  1.00  0.00    -0.255 N 
ATOM     99  C   UNL A   1      33.712  25.481  23.688  1.00  0.00     0.079 A 
ATOM    100  C   UNL A   1      32.038  26.160  22.079  1.00  0.00     0.266 A 
ATOM    101  C   UNL A   1      34.451  24.491  24.338  1.00  0.00     0.029 A 
ATOM    102  C   UNL A   1      32.949  25.125  22.587  1.00  0.00     0.066 A 
ATOM    103  O   UNL A   1      31.588  26.030  20.942  1.00  0.00    -0.268 OA
ATOM    104  C   UNL A   1      34.462  23.179  23.846  1.00  0.00     0.002 A 
ATOM    105  C   UNL A   1      32.988  23.835  22.051  1.00  0.00     0.016 A 
ATOM    106  C   UNL A   1      33.758  22.860  22.683  1.00  0.00     0.001 A 
BRANCH  98 107
ATOM    107  C   UNL A   1      30.415  27.722  23.041  1.00  0.00     0.051 A 
ATOM    108  C   UNL A   1      29.419  26.967  23.695  1.00  0.00     0.027 A 
ATOM    109  C   UNL A   1      29.998  28.963  22.544  1.00  0.00     0.027 A 
ATOM    110  C   UNL A   1      28.066  27.317  23.659  1.00  0.00     0.002 A 
ATOM    111  C   UNL A   1      28.637  29.298  22.454  1.00  0.00     0.002 A 
ATOM    112  C   UNL A   1      27.667  28.456  22.982  1.00  0.00     0.000 A 
ENDBRANCH  98 107
ENDBRANCH  95  96
ENDBRANCH  94  95
ENDBRANCH  92  94
ENDBRANCH  88  89
ENDBRANCH  81  83
ENDBRANCH  80  81
ENDBRANCH  79  80
ENDBRANCH  78  79
ENDBRANCH  77  78
ENDBRANCH  76  77
ENDBRANCH   1  76
TORSDOF 28
ENDMDL
