MODEL 1
REMARK VINA RESULT:     -11.0      0.000      0.000
REMARK SMILES Cc1cc(S(F)(F)(F)(F)F)cc2c1O[C@H](C(F)(F)F)C(C(=O)OCCOCCOCCOCCOC(=O)c1ccc(-c3c4nc(c(-c5cc(S(=O)(=O)[O-])ccc5F)c5ccc([nH]5)c(-c5cc(S(=O)(=O)[O-])ccc5F)c5nc(c(-c6cc(S(=O)(=O)[O-])ccc6F)c6ccc3[nH]6)C=C5)C=C4)cc1)=C2
REMARK SMILES IDX 30 1 29 2 28 3 27 4 26 5 25 6 24 7 23 8 21 9 22 10 20 11
REMARK SMILES IDX 1 12 2 13 3 14 13 15 4 16 12 17 14 18 11 19 101 20 15 21
REMARK SMILES IDX 5 22 6 23 7 24 8 25 9 26 10 27 16 28 17 29 18 30 19 31 31 32
REMARK SMILES IDX 32 33 33 34 34 35 35 36 36 37 37 38 38 39 39 40 100 41 40 42
REMARK SMILES IDX 99 43 41 44 42 45 43 46 93 47 44 48 98 49 92 50 94 51 45 52
REMARK SMILES IDX 97 53 91 54 90 55 46 57 78 58 58 59 77 60 59 61 62 62 76 63
REMARK SMILES IDX 95 64 60 65 61 66 75 68 96 69 63 70 47 71 48 72 56 73 49 74
REMARK SMILES IDX 55 75 57 76 54 77 50 78 51 79 52 80 53 81 79 82 80 83 88 84
REMARK SMILES IDX 81 85 87 86 89 87 86 88 82 89 83 90 84 91 85 92 64 93 65 94
REMARK SMILES IDX 73 95 66 96 72 97 74 98 71 99 67 100 68 101 69 102 70 103
REMARK H PARENT 94 56 62 67
REMARK Flexibility Score: inf
ROOT
ATOM      1  C   UNL A   1      43.396  19.625  25.366  1.00  0.00     0.188 C 
ENDROOT
BRANCH   1   2
ATOM      2  O   UNL A   1      42.474  18.671  25.872  1.00  0.00    -0.377 OA
BRANCH   2   3
ATOM      3  C   UNL A   1      41.202  19.281  26.028  1.00  0.00     0.188 C 
BRANCH   3   4
ATOM      4  C   UNL A   1      41.325  20.486  26.947  1.00  0.00     0.188 C 
BRANCH   4   5
ATOM      5  O   UNL A   1      40.653  21.594  26.366  1.00  0.00    -0.376 OA
BRANCH   5   6
ATOM      6  C   UNL A   1      39.317  21.227  26.053  1.00  0.00     0.202 C 
BRANCH   6   7
ATOM      7  C   UNL A   1      38.435  22.466  26.068  1.00  0.00     0.261 C 
BRANCH   7   8
ATOM      8  O   UNL A   1      37.110  22.108  25.707  1.00  0.00    -0.460 OA
BRANCH   8   9
ATOM      9  C   UNL A   1      36.587  22.500  24.447  1.00  0.00     0.338 C 
ATOM     10  O   UNL A   1      37.259  22.294  23.388  1.00  0.00    -0.246 OA
BRANCH   9  11
ATOM     11  C   UNL A   1      35.223  23.166  24.363  1.00  0.00     0.087 C 
ATOM     12  C   UNL A   1      30.284  24.248  23.456  1.00  0.00     0.048 C 
ATOM     13  C   UNL A   1      31.453  24.965  24.111  1.00  0.00    -0.007 A 
ATOM     14  C   UNL A   1      31.284  26.222  24.650  1.00  0.00     0.031 A 
ATOM     15  C   UNL A   1      32.701  24.349  24.186  1.00  0.00     0.130 A 
ATOM     16  C   UNL A   1      32.345  26.880  25.260  1.00  0.00     0.108 A 
ATOM     17  C   UNL A   1      33.776  25.020  24.812  1.00  0.00     0.019 A 
ATOM     18  O   UNL A   1      32.945  23.012  23.631  1.00  0.00    -0.475 OA
ATOM     19  C   UNL A   1      33.576  26.293  25.350  1.00  0.00     0.036 A 
ATOM     20  C   UNL A   1      35.076  24.351  24.876  1.00  0.00     0.027 C 
ATOM     21  C   UNL A   1      34.181  22.480  23.740  1.00  0.00     0.316 C 
BRANCH  16  22
ATOM     22  S   UNL A   1      32.094  28.536  25.944  1.00  0.00     0.310 S 
ATOM     23  F   UNL A   1      33.546  29.125  25.704  1.00  0.00    -0.094 F 
ATOM     24  F   UNL A   1      32.593  28.070  27.364  1.00  0.00    -0.094 F 
ATOM     25  F   UNL A   1      31.691  29.927  26.511  1.00  0.00    -0.094 F 
ATOM     26  F   UNL A   1      31.730  29.033  24.489  1.00  0.00    -0.094 F 
ATOM     27  F   UNL A   1      32.604  27.170  25.334  1.00  0.00    -0.094 F 
ENDBRANCH  16  22
BRANCH  21  28
ATOM     28  C   UNL A   1      33.948  21.315  24.689  1.00  0.00     0.430 C 
ATOM     29  F   UNL A   1      34.840  20.359  24.445  1.00  0.00    -0.167 F 
ATOM     30  F   UNL A   1      34.079  21.734  25.944  1.00  0.00    -0.167 F 
ATOM     31  F   UNL A   1      32.721  20.834  24.507  1.00  0.00    -0.167 F 
ENDBRANCH  21  28
ENDBRANCH   9  11
ENDBRANCH   8   9
ENDBRANCH   7   8
ENDBRANCH   6   7
ENDBRANCH   5   6
ENDBRANCH   4   5
ENDBRANCH   3   4
ENDBRANCH   2   3
ENDBRANCH   1   2
BRANCH   1  32
ATOM     32  C   UNL A   1      44.763  18.978  25.219  1.00  0.00     0.188 C 
BRANCH  32  33
ATOM     33  O   UNL A   1      45.695  19.940  24.748  1.00  0.00    -0.376 OA
BRANCH  33  34
ATOM     34  C   UNL A   1      45.568  21.133  25.508  1.00  0.00     0.202 C 
BRANCH  34  35
ATOM     35  C   UNL A   1      45.843  22.334  24.618  1.00  0.00     0.261 C 
BRANCH  35  36
ATOM     36  O   UNL A   1      45.302  23.501  25.217  1.00  0.00    -0.460 OA
BRANCH  36  37
ATOM     37  C   UNL A   1      43.909  23.765  25.130  1.00  0.00     0.338 C 
ATOM     38  O   UNL A   1      43.197  23.145  24.278  1.00  0.00    -0.246 OA
BRANCH  37  39
ATOM     39  C   UNL A   1      43.269  24.788  26.055  1.00  0.00     0.060 A 
ATOM     40  C   UNL A   1      42.217  24.456  26.901  1.00  0.00     0.016 A 
ATOM     41  C   UNL A   1      43.828  25.972  26.187  1.00  0.00     0.016 A 
ATOM     42  C   UNL A   1      42.150  25.153  28.128  1.00  0.00     0.010 A 
ATOM     43  C   UNL A   1      43.368  26.877  27.149  1.00  0.00     0.010 A 
ATOM     44  C   UNL A   1      42.549  26.488  28.103  1.00  0.00    -0.014 A 
BRANCH  44  45
ATOM     45  C   UNL A   1      42.051  27.470  29.150  1.00  0.00     0.031 A 
ATOM     46  C   UNL A   1      40.861  28.176  28.965  1.00  0.00     0.074 A 
ATOM     47  C   UNL A   1      42.773  27.467  30.331  1.00  0.00     0.049 A 
ATOM     48  N   UNL A   1      40.209  28.919  29.860  1.00  0.00    -0.248 NA
ATOM     49  C   UNL A   1      40.111  28.208  27.701  1.00  0.00     0.031 C 
ATOM     50  C   UNL A   1      43.970  26.751  30.529  1.00  0.00     0.029 A 
ATOM     51  N   UNL A   1      42.484  28.135  31.500  1.00  0.00    -0.354 N 
ATOM     52  C   UNL A   1      39.097  29.423  29.318  1.00  0.00     0.074 A 
ATOM     53  C   UNL A   1      39.022  28.977  27.920  1.00  0.00     0.031 C 
ATOM     54  C   UNL A   1      44.401  26.992  31.795  1.00  0.00     0.029 A 
ATOM     55  C   UNL A   1      43.483  27.863  32.409  1.00  0.00     0.049 A 
ATOM     56  H   UNL A   1      41.700  28.709  31.659  1.00  0.00     0.167 HD
ATOM     57  C   UNL A   1      38.144  30.234  29.935  1.00  0.00     0.034 A 
ATOM     58  C   UNL A   1      43.603  28.339  33.706  1.00  0.00     0.034 A 
ATOM     59  C   UNL A   1      38.242  30.674  31.245  1.00  0.00     0.049 A 
ATOM     60  C   UNL A   1      42.679  29.198  34.305  1.00  0.00     0.074 A 
ATOM     61  C   UNL A   1      37.286  31.486  31.886  1.00  0.00     0.029 A 
ATOM     62  N   UNL A   1      39.253  30.422  32.147  1.00  0.00    -0.354 N 
ATOM     63  N   UNL A   1      41.547  29.668  33.776  1.00  0.00    -0.248 NA
ATOM     64  C   UNL A   1      42.812  29.734  35.666  1.00  0.00     0.031 C 
ATOM     65  C   UNL A   1      37.718  31.728  33.152  1.00  0.00     0.029 A 
ATOM     66  C   UNL A   1      38.952  31.072  33.323  1.00  0.00     0.049 A 
ATOM     67  H   UNL A   1      40.052  29.872  31.979  1.00  0.00     0.167 HD
ATOM     68  C   UNL A   1      40.916  30.446  34.658  1.00  0.00     0.074 A 
ATOM     69  C   UNL A   1      41.724  30.505  35.885  1.00  0.00     0.031 C 
ATOM     70  C   UNL A   1      39.697  31.104  34.492  1.00  0.00     0.034 A 
BRANCH  57  71
ATOM     71  C   UNL A   1      36.929  30.657  29.126  1.00  0.00     0.023 A 
ATOM     72  C   UNL A   1      36.567  32.007  29.063  1.00  0.00     0.031 A 
ATOM     73  C   UNL A   1      36.228  29.743  28.489  1.00  0.00     0.131 A 
ATOM     74  C   UNL A   1      35.394  32.369  28.589  1.00  0.00     0.055 A 
ATOM     75  C   UNL A   1      35.117  30.152  27.755  1.00  0.00     0.041 A 
ATOM     76  F   UNL A   1      36.574  28.459  28.543  1.00  0.00    -0.206 F 
ATOM     77  C   UNL A   1      34.528  31.376  28.142  1.00  0.00     0.022 A 
BRANCH  74  78
ATOM     78  S   UNL A   1      34.920  34.114  28.519  1.00  0.00     0.124 S 
ATOM     79  O   UNL A   1      33.562  34.301  29.201  1.00  0.00    -0.237 OA
ATOM     80  O   UNL A   1      35.973  34.958  29.240  1.00  0.00    -0.237 OA
ATOM     81  O   UNL A   1      34.811  34.611  26.887  1.00  0.00    -0.744 OA
ENDBRANCH  74  78
ENDBRANCH  57  71
BRANCH  58  82
ATOM     82  C   UNL A   1      44.809  27.902  34.521  1.00  0.00     0.023 A 
ATOM     83  C   UNL A   1      44.726  26.767  35.334  1.00  0.00     0.031 A 
ATOM     84  C   UNL A   1      45.922  28.602  34.452  1.00  0.00     0.131 A 
ATOM     85  C   UNL A   1      45.654  26.512  36.231  1.00  0.00     0.055 A 
ATOM     86  C   UNL A   1      47.014  28.184  35.210  1.00  0.00     0.041 A 
ATOM     87  F   UNL A   1      46.002  29.680  33.677  1.00  0.00    -0.206 F 
ATOM     88  C   UNL A   1      46.723  27.394  36.345  1.00  0.00     0.022 A 
BRANCH  85  89
ATOM     89  S   UNL A   1      45.543  25.049  37.291  1.00  0.00     0.124 S 
ATOM     90  O   UNL A   1      46.455  25.228  38.507  1.00  0.00    -0.237 OA
ATOM     91  O   UNL A   1      44.098  24.866  37.759  1.00  0.00    -0.237 OA
ATOM     92  O   UNL A   1      46.036  23.668  36.409  1.00  0.00    -0.744 OA
ENDBRANCH  85  89
ENDBRANCH  58  82
BRANCH  70  93
ATOM     93  C   UNL A   1      39.153  31.907  35.663  1.00  0.00     0.023 A 
ATOM     94  C   UNL A   1      38.435  31.348  36.724  1.00  0.00     0.031 A 
ATOM     95  C   UNL A   1      39.503  33.177  35.680  1.00  0.00     0.131 A 
ATOM     96  C   UNL A   1      37.874  32.115  37.636  1.00  0.00     0.055 A 
ATOM     97  C   UNL A   1      39.135  33.949  36.781  1.00  0.00     0.041 A 
ATOM     98  F   UNL A   1      40.189  33.709  34.672  1.00  0.00    -0.206 F 
ATOM     99  C   UNL A   1      38.022  33.493  37.522  1.00  0.00     0.022 A 
BRANCH  96 100
ATOM    100  S   UNL A   1      36.934  31.392  39.003  1.00  0.00     0.124 S 
ATOM    101  O   UNL A   1      36.482  29.981  38.622  1.00  0.00    -0.237 OA
ATOM    102  O   UNL A   1      37.817  31.326  40.251  1.00  0.00    -0.237 OA
ATOM    103  O   UNL A   1      35.562  32.362  39.327  1.00  0.00    -0.744 OA
ENDBRANCH  96 100
ENDBRANCH  70  93
ENDBRANCH  44  45
ENDBRANCH  37  39
ENDBRANCH  36  37
ENDBRANCH  35  36
ENDBRANCH  34  35
ENDBRANCH  33  34
ENDBRANCH  32  33
ENDBRANCH   1  32
TORSDOF 25
ENDMDL
MODEL 2
REMARK VINA RESULT:     -10.8      5.030      6.568
REMARK SMILES Cc1cc(S(F)(F)(F)(F)F)cc2c1O[C@H](C(F)(F)F)C(C(=O)OCCOCCOCCOCCOC(=O)c1ccc(-c3c4nc(c(-c5cc(S(=O)(=O)[O-])ccc5F)c5ccc([nH]5)c(-c5cc(S(=O)(=O)[O-])ccc5F)c5nc(c(-c6cc(S(=O)(=O)[O-])ccc6F)c6ccc3[nH]6)C=C5)C=C4)cc1)=C2
REMARK SMILES IDX 30 1 29 2 28 3 27 4 26 5 25 6 24 7 23 8 21 9 22 10 20 11
REMARK SMILES IDX 1 12 2 13 3 14 13 15 4 16 12 17 14 18 11 19 101 20 15 21
REMARK SMILES IDX 5 22 6 23 7 24 8 25 9 26 10 27 16 28 17 29 18 30 19 31 31 32
REMARK SMILES IDX 32 33 33 34 34 35 35 36 36 37 37 38 38 39 39 40 100 41 40 42
REMARK SMILES IDX 99 43 41 44 42 45 43 46 93 47 44 48 98 49 92 50 94 51 45 52
REMARK SMILES IDX 97 53 91 54 90 55 46 57 78 58 58 59 77 60 59 61 62 62 76 63
REMARK SMILES IDX 95 64 60 65 61 66 75 68 96 69 63 70 47 71 48 72 56 73 49 74
REMARK SMILES IDX 55 75 57 76 54 77 50 78 51 79 52 80 53 81 79 82 80 83 88 84
REMARK SMILES IDX 81 85 87 86 89 87 86 88 82 89 83 90 84 91 85 92 64 93 65 94
REMARK SMILES IDX 73 95 66 96 72 97 74 98 71 99 67 100 68 101 69 102 70 103
REMARK H PARENT 94 56 62 67
REMARK Flexibility Score: inf
ROOT
ATOM      1  C   UNL A   1      44.478  18.828  25.099  1.00  0.00     0.188 C 
ENDROOT
BRANCH   1   2
ATOM      2  O   UNL A   1      43.585  18.091  25.923  1.00  0.00    -0.377 OA
BRANCH   2   3
ATOM      3  C   UNL A   1      42.332  18.755  25.975  1.00  0.00     0.188 C 
BRANCH   3   4
ATOM      4  C   UNL A   1      42.274  19.634  27.214  1.00  0.00     0.188 C 
BRANCH   4   5
ATOM      5  O   UNL A   1      40.970  20.181  27.345  1.00  0.00    -0.376 OA
BRANCH   5   6
ATOM      6  C   UNL A   1      40.665  20.958  26.195  1.00  0.00     0.202 C 
BRANCH   6   7
ATOM      7  C   UNL A   1      39.903  22.205  26.614  1.00  0.00     0.261 C 
BRANCH   7   8
ATOM      8  O   UNL A   1      38.837  22.436  25.706  1.00  0.00    -0.460 OA
BRANCH   8   9
ATOM      9  C   UNL A   1      37.672  23.124  26.138  1.00  0.00     0.338 C 
ATOM     10  O   UNL A   1      37.778  24.238  26.740  1.00  0.00    -0.246 OA
BRANCH   9  11
ATOM     11  C   UNL A   1      36.298  22.528  25.882  1.00  0.00     0.087 C 
ATOM     12  C   UNL A   1      31.245  21.773  25.345  1.00  0.00     0.048 C 
ATOM     13  C   UNL A   1      32.495  20.923  25.188  1.00  0.00    -0.007 A 
ATOM     14  C   UNL A   1      32.396  19.605  24.799  1.00  0.00     0.031 A 
ATOM     15  C   UNL A   1      33.754  21.476  25.423  1.00  0.00     0.130 A 
ATOM     16  C   UNL A   1      33.535  18.824  24.644  1.00  0.00     0.108 A 
ATOM     17  C   UNL A   1      34.909  20.679  25.260  1.00  0.00     0.019 A 
ATOM     18  O   UNL A   1      33.925  22.873  25.841  1.00  0.00    -0.475 OA
ATOM     19  C   UNL A   1      34.778  19.346  24.863  1.00  0.00     0.036 A 
ATOM     20  C   UNL A   1      36.217  21.283  25.513  1.00  0.00     0.027 C 
ATOM     21  C   UNL A   1      35.175  23.337  26.051  1.00  0.00     0.316 C 
BRANCH  16  22
ATOM     22  S   UNL A   1      33.369  17.093  24.146  1.00  0.00     0.310 S 
ATOM     23  F   UNL A   1      34.906  16.717  24.044  1.00  0.00    -0.094 F 
ATOM     24  F   UNL A   1      33.435  17.482  22.621  1.00  0.00    -0.094 F 
ATOM     25  F   UNL A   1      33.047  15.615  23.783  1.00  0.00    -0.094 F 
ATOM     26  F   UNL A   1      33.446  16.692  25.672  1.00  0.00    -0.094 F 
ATOM     27  F   UNL A   1      33.807  18.563  24.524  1.00  0.00    -0.094 F 
ENDBRANCH  16  22
BRANCH  21  28
ATOM     28  C   UNL A   1      35.335  24.351  24.929  1.00  0.00     0.430 C 
ATOM     29  F   UNL A   1      36.245  23.913  24.063  1.00  0.00    -0.167 F 
ATOM     30  F   UNL A   1      34.170  24.509  24.306  1.00  0.00    -0.167 F 
ATOM     31  F   UNL A   1      35.729  25.516  25.436  1.00  0.00    -0.167 F 
ENDBRANCH  21  28
ENDBRANCH   9  11
ENDBRANCH   8   9
ENDBRANCH   7   8
ENDBRANCH   6   7
ENDBRANCH   5   6
ENDBRANCH   4   5
ENDBRANCH   3   4
ENDBRANCH   2   3
ENDBRANCH   1   2
BRANCH   1  32
ATOM     32  C   UNL A   1      45.909  18.542  25.521  1.00  0.00     0.188 C 
BRANCH  32  33
ATOM     33  O   UNL A   1      46.693  19.715  25.363  1.00  0.00    -0.376 OA
BRANCH  33  34
ATOM     34  C   UNL A   1      45.944  20.693  24.657  1.00  0.00     0.202 C 
BRANCH  34  35
ATOM     35  C   UNL A   1      45.931  21.990  25.449  1.00  0.00     0.261 C 
BRANCH  35  36
ATOM     36  O   UNL A   1      44.630  22.213  25.972  1.00  0.00    -0.460 OA
BRANCH  36  37
ATOM     37  C   UNL A   1      43.831  23.273  25.466  1.00  0.00     0.338 C 
ATOM     38  O   UNL A   1      43.019  23.056  24.512  1.00  0.00    -0.246 OA
BRANCH  37  39
ATOM     39  C   UNL A   1      43.948  24.665  26.064  1.00  0.00     0.060 A 
ATOM     40  C   UNL A   1      43.988  25.805  25.268  1.00  0.00     0.016 A 
ATOM     41  C   UNL A   1      43.837  24.816  27.366  1.00  0.00     0.016 A 
ATOM     42  C   UNL A   1      43.416  26.977  25.813  1.00  0.00     0.010 A 
ATOM     43  C   UNL A   1      43.772  26.092  27.936  1.00  0.00     0.010 A 
ATOM     44  C   UNL A   1      43.565  27.154  27.187  1.00  0.00    -0.014 A 
BRANCH  44  45
ATOM     45  C   UNL A   1      43.490  28.540  27.806  1.00  0.00     0.031 A 
ATOM     46  C   UNL A   1      42.297  29.022  28.347  1.00  0.00     0.074 A 
ATOM     47  C   UNL A   1      44.710  29.183  27.929  1.00  0.00     0.049 A 
ATOM     48  N   UNL A   1      42.122  30.122  29.079  1.00  0.00    -0.248 NA
ATOM     49  C   UNL A   1      40.994  28.360  28.188  1.00  0.00     0.031 C 
ATOM     50  C   UNL A   1      45.920  28.699  27.393  1.00  0.00     0.029 A 
ATOM     51  N   UNL A   1      44.979  30.371  28.569  1.00  0.00    -0.354 N 
ATOM     52  C   UNL A   1      40.840  30.242  29.432  1.00  0.00     0.074 A 
ATOM     53  C   UNL A   1      40.095  29.113  28.859  1.00  0.00     0.031 C 
ATOM     54  C   UNL A   1      46.901  29.589  27.697  1.00  0.00     0.029 A 
ATOM     55  C   UNL A   1      46.322  30.643  28.427  1.00  0.00     0.049 A 
ATOM     56  H   UNL A   1      44.324  30.931  29.046  1.00  0.00     0.167 HD
ATOM     57  C   UNL A   1      40.263  31.247  30.211  1.00  0.00     0.034 A 
ATOM     58  C   UNL A   1      47.020  31.744  28.899  1.00  0.00     0.034 A 
ATOM     59  C   UNL A   1      40.970  32.325  30.720  1.00  0.00     0.049 A 
ATOM     60  C   UNL A   1      46.432  32.780  29.628  1.00  0.00     0.074 A 
ATOM     61  C   UNL A   1      40.406  33.343  31.513  1.00  0.00     0.029 A 
ATOM     62  N   UNL A   1      42.308  32.610  30.556  1.00  0.00    -0.354 N 
ATOM     63  N   UNL A   1      45.159  32.879  30.015  1.00  0.00    -0.248 NA
ATOM     64  C   UNL A   1      47.154  33.966  30.106  1.00  0.00     0.031 C 
ATOM     65  C   UNL A   1      41.388  34.234  31.816  1.00  0.00     0.029 A 
ATOM     66  C   UNL A   1      42.581  33.788  31.217  1.00  0.00     0.049 A 
ATOM     67  H   UNL A   1      42.958  32.066  30.055  1.00  0.00     0.167 HD
ATOM     68  C   UNL A   1      44.975  34.002  30.712  1.00  0.00     0.074 A 
ATOM     69  C   UNL A   1      46.256  34.721  30.775  1.00  0.00     0.031 C 
ATOM     70  C   UNL A   1      43.795  34.453  31.303  1.00  0.00     0.034 A 
BRANCH  57  71
ATOM     71  C   UNL A   1      38.778  31.154  30.519  1.00  0.00     0.023 A 
ATOM     72  C   UNL A   1      37.862  31.906  29.775  1.00  0.00     0.031 A 
ATOM     73  C   UNL A   1      38.369  30.361  31.487  1.00  0.00     0.131 A 
ATOM     74  C   UNL A   1      36.616  32.039  30.178  1.00  0.00     0.055 A 
ATOM     75  C   UNL A   1      37.003  30.293  31.755  1.00  0.00     0.041 A 
ATOM     76  F   UNL A   1      39.240  29.642  32.192  1.00  0.00    -0.206 F 
ATOM     77  C   UNL A   1      36.232  31.406  31.355  1.00  0.00     0.022 A 
BRANCH  74  78
ATOM     78  S   UNL A   1      35.434  33.022  29.224  1.00  0.00     0.124 S 
ATOM     79  O   UNL A   1      34.062  32.343  29.258  1.00  0.00    -0.237 OA
ATOM     80  O   UNL A   1      35.325  34.422  29.832  1.00  0.00    -0.237 OA
ATOM     81  O   UNL A   1      35.969  33.144  27.605  1.00  0.00    -0.744 OA
ENDBRANCH  74  78
ENDBRANCH  57  71
BRANCH  58  82
ATOM     82  C   UNL A   1      48.508  31.829  28.605  1.00  0.00     0.023 A 
ATOM     83  C   UNL A   1      48.962  32.579  27.515  1.00  0.00     0.031 A 
ATOM     84  C   UNL A   1      49.357  31.194  29.386  1.00  0.00     0.131 A 
ATOM     85  C   UNL A   1      50.203  32.468  27.091  1.00  0.00     0.055 A 
ATOM     86  C   UNL A   1      50.717  31.285  29.097  1.00  0.00     0.041 A 
ATOM     87  F   UNL A   1      48.927  30.485  30.425  1.00  0.00    -0.206 F 
ATOM     88  C   UNL A   1      51.054  31.595  27.760  1.00  0.00     0.022 A 
BRANCH  85  89
ATOM     89  S   UNL A   1      50.788  33.428  25.673  1.00  0.00     0.124 S 
ATOM     90  O   UNL A   1      49.641  34.279  25.123  1.00  0.00    -0.237 OA
ATOM     91  O   UNL A   1      51.935  34.341  26.114  1.00  0.00    -0.237 OA
ATOM     92  O   UNL A   1      51.343  32.364  24.454  1.00  0.00    -0.744 OA
ENDBRANCH  85  89
ENDBRANCH  58  82
BRANCH  70  93
ATOM     93  C   UNL A   1      43.840  35.754  32.088  1.00  0.00     0.023 A 
ATOM     94  C   UNL A   1      44.090  35.826  33.463  1.00  0.00     0.031 A 
ATOM     95  C   UNL A   1      43.740  36.849  31.363  1.00  0.00     0.131 A 
ATOM     96  C   UNL A   1      43.980  36.969  34.108  1.00  0.00     0.055 A 
ATOM     97  C   UNL A   1      43.886  38.080  32.000  1.00  0.00     0.041 A 
ATOM     98  F   UNL A   1      43.507  36.780  30.055  1.00  0.00    -0.206 F 
ATOM     99  C   UNL A   1      43.620  38.102  33.387  1.00  0.00     0.022 A 
BRANCH  96 100
ATOM    100  S   UNL A   1      44.291  37.061  35.889  1.00  0.00     0.124 S 
ATOM    101  O   UNL A   1      45.226  38.236  36.182  1.00  0.00    -0.237 OA
ATOM    102  O   UNL A   1      42.967  37.265  36.628  1.00  0.00    -0.237 OA
ATOM    103  O   UNL A   1      45.020  35.607  36.416  1.00  0.00    -0.744 OA
ENDBRANCH  96 100
ENDBRANCH  70  93
ENDBRANCH  44  45
ENDBRANCH  37  39
ENDBRANCH  36  37
ENDBRANCH  35  36
ENDBRANCH  34  35
ENDBRANCH  33  34
ENDBRANCH  32  33
ENDBRANCH   1  32
TORSDOF 25
ENDMDL
MODEL 3
REMARK VINA RESULT:     -10.6      4.804      5.870
REMARK SMILES Cc1cc(S(F)(F)(F)(F)F)cc2c1O[C@H](C(F)(F)F)C(C(=O)OCCOCCOCCOCCOC(=O)c1ccc(-c3c4nc(c(-c5cc(S(=O)(=O)[O-])ccc5F)c5ccc([nH]5)c(-c5cc(S(=O)(=O)[O-])ccc5F)c5nc(c(-c6cc(S(=O)(=O)[O-])ccc6F)c6ccc3[nH]6)C=C5)C=C4)cc1)=C2
REMARK SMILES IDX 30 1 29 2 28 3 27 4 26 5 25 6 24 7 23 8 21 9 22 10 20 11
REMARK SMILES IDX 1 12 2 13 3 14 13 15 4 16 12 17 14 18 11 19 101 20 15 21
REMARK SMILES IDX 5 22 6 23 7 24 8 25 9 26 10 27 16 28 17 29 18 30 19 31 31 32
REMARK SMILES IDX 32 33 33 34 34 35 35 36 36 37 37 38 38 39 39 40 100 41 40 42
REMARK SMILES IDX 99 43 41 44 42 45 43 46 93 47 44 48 98 49 92 50 94 51 45 52
REMARK SMILES IDX 97 53 91 54 90 55 46 57 78 58 58 59 77 60 59 61 62 62 76 63
REMARK SMILES IDX 95 64 60 65 61 66 75 68 96 69 63 70 47 71 48 72 56 73 49 74
REMARK SMILES IDX 55 75 57 76 54 77 50 78 51 79 52 80 53 81 79 82 80 83 88 84
REMARK SMILES IDX 81 85 87 86 89 87 86 88 82 89 83 90 84 91 85 92 64 93 65 94
REMARK SMILES IDX 73 95 66 96 72 97 74 98 71 99 67 100 68 101 69 102 70 103
REMARK H PARENT 94 56 62 67
REMARK Flexibility Score: inf
ROOT
ATOM      1  C   UNL A   1      43.496  19.707  25.224  1.00  0.00     0.188 C 
ENDROOT
BRANCH   1   2
ATOM      2  O   UNL A   1      42.683  19.036  26.176  1.00  0.00    -0.377 OA
BRANCH   2   3
ATOM      3  C   UNL A   1      41.370  19.573  26.139  1.00  0.00     0.188 C 
BRANCH   3   4
ATOM      4  C   UNL A   1      41.326  20.866  26.937  1.00  0.00     0.188 C 
BRANCH   4   5
ATOM      5  O   UNL A   1      40.710  21.882  26.159  1.00  0.00    -0.376 OA
BRANCH   5   6
ATOM      6  C   UNL A   1      39.329  21.588  26.005  1.00  0.00     0.202 C 
BRANCH   6   7
ATOM      7  C   UNL A   1      38.531  22.882  26.020  1.00  0.00     0.261 C 
BRANCH   7   8
ATOM      8  O   UNL A   1      37.149  22.588  25.884  1.00  0.00    -0.460 OA
BRANCH   8   9
ATOM      9  C   UNL A   1      36.497  22.800  24.641  1.00  0.00     0.338 C 
ATOM     10  O   UNL A   1      37.039  22.400  23.563  1.00  0.00    -0.246 OA
BRANCH   9  11
ATOM     11  C   UNL A   1      35.151  23.505  24.598  1.00  0.00     0.087 C 
ATOM     12  C   UNL A   1      30.262  24.799  23.702  1.00  0.00     0.048 C 
ATOM     13  C   UNL A   1      31.429  25.414  24.455  1.00  0.00    -0.007 A 
ATOM     14  C   UNL A   1      31.277  26.612  25.119  1.00  0.00     0.031 A 
ATOM     15  C   UNL A   1      32.662  24.763  24.492  1.00  0.00     0.130 A 
ATOM     16  C   UNL A   1      32.337  27.176  25.817  1.00  0.00     0.108 A 
ATOM     17  C   UNL A   1      33.736  25.338  25.208  1.00  0.00     0.019 A 
ATOM     18  O   UNL A   1      32.888  23.485  23.804  1.00  0.00    -0.475 OA
ATOM     19  C   UNL A   1      33.551  26.552  25.872  1.00  0.00     0.036 A 
ATOM     20  C   UNL A   1      35.018  24.634  25.230  1.00  0.00     0.027 C 
ATOM     21  C   UNL A   1      34.109  22.914  23.884  1.00  0.00     0.316 C 
BRANCH  16  22
ATOM     22  S   UNL A   1      32.107  28.757  26.667  1.00  0.00     0.310 S 
ATOM     23  F   UNL A   1      33.628  29.178  26.821  1.00  0.00    -0.094 F 
ATOM     24  F   UNL A   1      32.227  28.065  28.077  1.00  0.00    -0.094 F 
ATOM     25  F   UNL A   1      31.729  30.111  27.332  1.00  0.00    -0.094 F 
ATOM     26  F   UNL A   1      32.129  29.467  25.255  1.00  0.00    -0.094 F 
ATOM     27  F   UNL A   1      32.600  27.419  25.985  1.00  0.00    -0.094 F 
ENDBRANCH  16  22
BRANCH  21  28
ATOM     28  C   UNL A   1      33.827  21.663  24.699  1.00  0.00     0.430 C 
ATOM     29  F   UNL A   1      32.550  21.317  24.554  1.00  0.00    -0.167 F 
ATOM     30  F   UNL A   1      34.605  20.672  24.273  1.00  0.00    -0.167 F 
ATOM     31  F   UNL A   1      34.078  21.903  25.983  1.00  0.00    -0.167 F 
ENDBRANCH  21  28
ENDBRANCH   9  11
ENDBRANCH   8   9
ENDBRANCH   7   8
ENDBRANCH   6   7
ENDBRANCH   5   6
ENDBRANCH   4   5
ENDBRANCH   3   4
ENDBRANCH   2   3
ENDBRANCH   1   2
BRANCH   1  32
ATOM     32  C   UNL A   1      44.856  19.034  25.157  1.00  0.00     0.188 C 
BRANCH  32  33
ATOM     33  O   UNL A   1      45.831  19.975  24.732  1.00  0.00    -0.376 OA
BRANCH  33  34
ATOM     34  C   UNL A   1      45.622  21.208  25.406  1.00  0.00     0.202 C 
BRANCH  34  35
ATOM     35  C   UNL A   1      45.776  22.355  24.421  1.00  0.00     0.261 C 
BRANCH  35  36
ATOM     36  O   UNL A   1      45.487  23.582  25.075  1.00  0.00    -0.460 OA
BRANCH  36  37
ATOM     37  C   UNL A   1      44.156  24.076  25.104  1.00  0.00     0.338 C 
ATOM     38  O   UNL A   1      43.235  23.458  24.480  1.00  0.00    -0.246 OA
BRANCH  37  39
ATOM     39  C   UNL A   1      43.830  25.342  25.879  1.00  0.00     0.060 A 
ATOM     40  C   UNL A   1      43.902  25.392  27.267  1.00  0.00     0.016 A 
ATOM     41  C   UNL A   1      43.642  26.466  25.221  1.00  0.00     0.016 A 
ATOM     42  C   UNL A   1      44.271  26.631  27.836  1.00  0.00     0.010 A 
ATOM     43  C   UNL A   1      43.507  27.680  25.904  1.00  0.00     0.010 A 
ATOM     44  C   UNL A   1      43.812  27.773  27.181  1.00  0.00    -0.014 A 
BRANCH  44  45
ATOM     45  C   UNL A   1      43.669  29.091  27.922  1.00  0.00     0.031 A 
ATOM     46  C   UNL A   1      42.466  29.443  28.538  1.00  0.00     0.074 A 
ATOM     47  C   UNL A   1      44.849  29.802  28.066  1.00  0.00     0.049 A 
ATOM     48  N   UNL A   1      42.246  30.461  29.369  1.00  0.00    -0.248 NA
ATOM     49  C   UNL A   1      41.205  28.710  28.359  1.00  0.00     0.031 C 
ATOM     50  C   UNL A   1      46.068  29.450  27.455  1.00  0.00     0.029 A 
ATOM     51  N   UNL A   1      45.061  30.947  28.801  1.00  0.00    -0.354 N 
ATOM     52  C   UNL A   1      40.972  30.463  29.768  1.00  0.00     0.074 A 
ATOM     53  C   UNL A   1      40.283  29.340  29.119  1.00  0.00     0.031 C 
ATOM     54  C   UNL A   1      46.999  30.375  27.808  1.00  0.00     0.029 A 
ATOM     55  C   UNL A   1      46.378  31.320  28.645  1.00  0.00     0.049 A 
ATOM     56  H   UNL A   1      44.388  31.418  29.344  1.00  0.00     0.167 HD
ATOM     57  C   UNL A   1      40.358  31.356  30.649  1.00  0.00     0.034 A 
ATOM     58  C   UNL A   1      47.018  32.421  29.192  1.00  0.00     0.034 A 
ATOM     59  C   UNL A   1      41.011  32.431  31.231  1.00  0.00     0.049 A 
ATOM     60  C   UNL A   1      46.391  33.348  30.027  1.00  0.00     0.074 A 
ATOM     61  C   UNL A   1      40.410  33.336  32.128  1.00  0.00     0.029 A 
ATOM     62  N   UNL A   1      42.321  32.818  31.055  1.00  0.00    -0.354 N 
ATOM     63  N   UNL A   1      45.128  33.326  30.458  1.00  0.00    -0.248 NA
ATOM     64  C   UNL A   1      47.050  34.534  30.587  1.00  0.00     0.031 C 
ATOM     65  C   UNL A   1      41.341  34.262  32.480  1.00  0.00     0.029 A 
ATOM     66  C   UNL A   1      42.539  33.951  31.809  1.00  0.00     0.049 A 
ATOM     67  H   UNL A   1      42.987  32.365  30.489  1.00  0.00     0.167 HD
ATOM     68  C   UNL A   1      44.896  34.369  31.257  1.00  0.00     0.074 A 
ATOM     69  C   UNL A   1      46.128  35.166  31.346  1.00  0.00     0.031 C 
ATOM     70  C   UNL A   1      43.709  34.687  31.919  1.00  0.00     0.034 A 
BRANCH  57  71
ATOM     71  C   UNL A   1      38.894  31.135  30.991  1.00  0.00     0.023 A 
ATOM     72  C   UNL A   1      37.898  31.740  30.216  1.00  0.00     0.031 A 
ATOM     73  C   UNL A   1      38.579  30.373  32.016  1.00  0.00     0.131 A 
ATOM     74  C   UNL A   1      36.650  31.774  30.632  1.00  0.00     0.055 A 
ATOM     75  C   UNL A   1      37.230  30.186  32.313  1.00  0.00     0.041 A 
ATOM     76  F   UNL A   1      39.525  29.793  32.751  1.00  0.00    -0.206 F 
ATOM     77  C   UNL A   1      36.345  31.187  31.855  1.00  0.00     0.022 A 
BRANCH  74  78
ATOM     78  S   UNL A   1      35.363  32.568  29.637  1.00  0.00     0.124 S 
ATOM     79  O   UNL A   1      34.780  31.551  28.652  1.00  0.00    -0.237 OA
ATOM     80  O   UNL A   1      34.252  33.082  30.555  1.00  0.00    -0.237 OA
ATOM     81  O   UNL A   1      36.038  33.878  28.771  1.00  0.00    -0.744 OA
ENDBRANCH  74  78
ENDBRANCH  57  71
BRANCH  58  82
ATOM     82  C   UNL A   1      48.487  32.632  28.865  1.00  0.00     0.023 A 
ATOM     83  C   UNL A   1      48.853  33.224  27.651  1.00  0.00     0.031 A 
ATOM     84  C   UNL A   1      49.403  32.254  29.732  1.00  0.00     0.131 A 
ATOM     85  C   UNL A   1      50.101  33.190  27.234  1.00  0.00     0.055 A 
ATOM     86  C   UNL A   1      50.743  32.455  29.410  1.00  0.00     0.041 A 
ATOM     87  F   UNL A   1      49.056  31.694  30.887  1.00  0.00    -0.206 F 
ATOM     88  C   UNL A   1      51.048  32.560  28.034  1.00  0.00     0.022 A 
BRANCH  85  89
ATOM     89  S   UNL A   1      50.573  33.947  25.659  1.00  0.00     0.124 S 
ATOM     90  O   UNL A   1      51.668  34.989  25.901  1.00  0.00    -0.237 OA
ATOM     91  O   UNL A   1      51.097  32.866  24.711  1.00  0.00    -0.237 OA
ATOM     92  O   UNL A   1      49.209  34.706  24.959  1.00  0.00    -0.744 OA
ENDBRANCH  85  89
ENDBRANCH  58  82
BRANCH  70  93
ATOM     93  C   UNL A   1      43.697  35.915  32.815  1.00  0.00     0.023 A 
ATOM     94  C   UNL A   1      43.563  37.224  32.340  1.00  0.00     0.031 A 
ATOM     95  C   UNL A   1      43.706  35.665  34.107  1.00  0.00     0.131 A 
ATOM     96  C   UNL A   1      43.697  38.252  33.152  1.00  0.00     0.055 A 
ATOM     97  C   UNL A   1      43.583  36.737  34.989  1.00  0.00     0.041 A 
ATOM     98  F   UNL A   1      43.830  34.420  34.559  1.00  0.00    -0.206 F 
ATOM     99  C   UNL A   1      43.966  38.003  34.493  1.00  0.00     0.022 A 
BRANCH  96 100
ATOM    100  S   UNL A   1      43.536  39.947  32.536  1.00  0.00     0.124 S 
ATOM    101  O   UNL A   1      44.859  40.689  32.737  1.00  0.00    -0.237 OA
ATOM    102  O   UNL A   1      43.188  39.918  31.046  1.00  0.00    -0.237 OA
ATOM    103  O   UNL A   1      42.295  40.750  33.396  1.00  0.00    -0.744 OA
ENDBRANCH  96 100
ENDBRANCH  70  93
ENDBRANCH  44  45
ENDBRANCH  37  39
ENDBRANCH  36  37
ENDBRANCH  35  36
ENDBRANCH  34  35
ENDBRANCH  33  34
ENDBRANCH  32  33
ENDBRANCH   1  32
TORSDOF 25
ENDMDL
