MODEL 1
REMARK VINA RESULT:      -9.7      0.000      0.000
REMARK SMILES Cc1n[nH]c(C(=O)N[C@@H](CC(C)C)C(=O)OCCOCCOCCOCCOC(=O)c2ccc(-c3c4nc(c(-c5cc(S(=O)(=O)[O-])ccc5F)c5ccc([nH]5)c(-c5cc(S(=O)(=O)[O-])ccc5F)c5nc(c(-c6cc(S(=O)(=O)[O-])ccc6F)c6ccc3[nH]6)C=C5)C=C4)cc2)n1
REMARK SMILES IDX 23 1 22 2 21 3 20 4 19 5 18 6 17 7 16 8 14 9 15 10 9 11 8 12
REMARK SMILES IDX 6 13 7 14 5 16 1 17 2 18 3 19 94 20 4 21 10 23 11 24 12 25
REMARK SMILES IDX 13 26 24 27 25 28 26 29 27 30 28 31 29 32 30 33 31 34 32 35
REMARK SMILES IDX 93 36 33 37 92 38 34 39 35 40 36 41 86 42 37 43 91 44 85 45
REMARK SMILES IDX 87 46 38 47 90 48 84 49 83 50 39 52 71 53 51 54 70 55 52 56
REMARK SMILES IDX 55 57 69 58 88 59 53 60 54 61 68 63 89 64 56 65 40 66 41 67
REMARK SMILES IDX 49 68 42 69 48 70 50 71 47 72 43 73 44 74 45 75 46 76 72 77
REMARK SMILES IDX 73 78 81 79 74 80 80 81 82 82 79 83 75 84 76 85 77 86 78 87
REMARK SMILES IDX 57 88 58 89 66 90 59 91 65 92 67 93 64 94 60 95 61 96 62 97
REMARK SMILES IDX 63 98
REMARK H PARENT 8 15 4 22 87 51 55 62
REMARK Flexibility Score: inf
ROOT
ATOM      1  C   UNL A   1      39.088  20.412  25.739  1.00  0.00     0.188 C 
ENDROOT
BRANCH   1   2
ATOM      2  O   UNL A   1      38.292  19.483  25.009  1.00  0.00    -0.377 OA
BRANCH   2   3
ATOM      3  C   UNL A   1      36.958  19.912  24.804  1.00  0.00     0.188 C 
BRANCH   3   4
ATOM      4  C   UNL A   1      36.676  21.408  25.084  1.00  0.00     0.188 C 
BRANCH   4   5
ATOM      5  O   UNL A   1      37.160  22.442  24.230  1.00  0.00    -0.376 OA
BRANCH   5   6
ATOM      6  C   UNL A   1      36.372  23.602  24.010  1.00  0.00     0.202 C 
BRANCH   6   7
ATOM      7  C   UNL A   1      34.851  23.438  24.003  1.00  0.00     0.261 C 
BRANCH   7   8
ATOM      8  O   UNL A   1      34.125  24.652  24.276  1.00  0.00    -0.462 OA
BRANCH   8   9
ATOM      9  C   UNL A   1      33.465  25.223  23.247  1.00  0.00     0.328 C 
ATOM     10  O   UNL A   1      33.803  25.147  22.070  1.00  0.00    -0.250 OA
BRANCH   9  11
ATOM     11  C   UNL A   1      32.292  26.120  23.700  1.00  0.00     0.192 C 
BRANCH  11  12
ATOM     12  N   UNL A   1      31.859  27.251  22.882  1.00  0.00    -0.336 N 
ATOM     13  C   UNL A   1      31.645  28.591  23.148  1.00  0.00     0.289 C 
ATOM     14  O   UNL A   1      31.047  29.196  22.254  1.00  0.00    -0.266 OA
ATOM     15  H   UNL A   1      31.681  27.007  21.945  1.00  0.00     0.164 HD
BRANCH  13  16
ATOM     16  C   UNL A   1      32.131  29.258  24.346  1.00  0.00     0.214 A 
ATOM     17  C   UNL A   1      34.394  29.629  27.065  1.00  0.00     0.092 C 
ATOM     18  C   UNL A   1      33.301  29.702  26.073  1.00  0.00     0.148 A 
ATOM     19  N   UNL A   1      32.226  30.479  26.236  1.00  0.00    -0.159 NA
ATOM     20  N   UNL A   1      33.287  28.960  24.923  1.00  0.00    -0.207 NA
ATOM     21  N   UNL A   1      31.496  30.156  25.155  1.00  0.00    -0.255 N 
ATOM     22  H   UNL A   1      30.604  30.526  24.966  1.00  0.00     0.192 HD
ENDBRANCH  13  16
ENDBRANCH  11  12
BRANCH  11  23
ATOM     23  C   UNL A   1      31.095  25.211  24.020  1.00  0.00     0.040 C 
BRANCH  23  24
ATOM     24  C   UNL A   1      30.640  25.058  25.493  1.00  0.00    -0.015 C 
ATOM     25  C   UNL A   1      31.395  24.021  26.325  1.00  0.00     0.007 C 
ATOM     26  C   UNL A   1      30.781  26.427  26.166  1.00  0.00     0.007 C 
ENDBRANCH  23  24
ENDBRANCH  11  23
ENDBRANCH   9  11
ENDBRANCH   8   9
ENDBRANCH   7   8
ENDBRANCH   6   7
ENDBRANCH   5   6
ENDBRANCH   4   5
ENDBRANCH   3   4
ENDBRANCH   2   3
ENDBRANCH   1   2
BRANCH   1  27
ATOM     27  C   UNL A   1      40.440  19.875  26.277  1.00  0.00     0.188 C 
BRANCH  27  28
ATOM     28  O   UNL A   1      41.377  20.891  26.642  1.00  0.00    -0.376 OA
BRANCH  28  29
ATOM     29  C   UNL A   1      42.687  20.915  26.084  1.00  0.00     0.202 C 
BRANCH  29  30
ATOM     30  C   UNL A   1      43.300  22.293  25.811  1.00  0.00     0.261 C 
BRANCH  30  31
ATOM     31  O   UNL A   1      42.343  23.255  25.409  1.00  0.00    -0.460 OA
BRANCH  31  32
ATOM     32  C   UNL A   1      42.689  24.527  25.700  1.00  0.00     0.338 C 
ATOM     33  O   UNL A   1      43.532  25.202  25.155  1.00  0.00    -0.246 OA
BRANCH  32  34
ATOM     34  C   UNL A   1      41.864  24.981  26.820  1.00  0.00     0.060 A 
ATOM     35  C   UNL A   1      40.708  25.659  26.448  1.00  0.00     0.016 A 
ATOM     36  C   UNL A   1      42.452  25.090  28.091  1.00  0.00     0.016 A 
ATOM     37  C   UNL A   1      40.382  26.755  27.195  1.00  0.00     0.010 A 
ATOM     38  C   UNL A   1      42.121  26.183  28.837  1.00  0.00     0.010 A 
ATOM     39  C   UNL A   1      41.201  27.063  28.286  1.00  0.00    -0.014 A 
BRANCH  39  40
ATOM     40  C   UNL A   1      41.098  28.393  28.819  1.00  0.00     0.031 A 
ATOM     41  C   UNL A   1      42.189  29.250  28.341  1.00  0.00     0.074 A 
ATOM     42  C   UNL A   1      40.078  28.752  29.619  1.00  0.00     0.049 A 
ATOM     43  N   UNL A   1      43.232  29.637  28.991  1.00  0.00    -0.248 NA
ATOM     44  C   UNL A   1      42.256  29.482  26.888  1.00  0.00     0.031 C 
ATOM     45  C   UNL A   1      38.836  28.027  29.905  1.00  0.00     0.029 A 
ATOM     46  N   UNL A   1      39.906  29.919  30.282  1.00  0.00    -0.354 N 
ATOM     47  C   UNL A   1      43.948  30.400  28.083  1.00  0.00     0.074 A 
ATOM     48  C   UNL A   1      43.460  30.039  26.782  1.00  0.00     0.031 C 
ATOM     49  C   UNL A   1      37.948  28.877  30.474  1.00  0.00     0.029 A 
ATOM     50  C   UNL A   1      38.609  30.149  30.720  1.00  0.00     0.049 A 
ATOM     51  H   UNL A   1      40.641  30.554  30.440  1.00  0.00     0.167 HD
ATOM     52  C   UNL A   1      44.634  31.497  28.497  1.00  0.00     0.034 A 
ATOM     53  C   UNL A   1      38.117  31.341  31.151  1.00  0.00     0.034 A 
ATOM     54  C   UNL A   1      44.904  31.432  29.917  1.00  0.00     0.049 A 
ATOM     55  C   UNL A   1      39.295  32.164  31.543  1.00  0.00     0.074 A 
ATOM     56  C   UNL A   1      45.578  30.540  30.731  1.00  0.00     0.029 A 
ATOM     57  N   UNL A   1      44.103  32.168  30.763  1.00  0.00    -0.354 N 
ATOM     58  N   UNL A   1      40.097  31.849  32.526  1.00  0.00    -0.248 NA
ATOM     59  C   UNL A   1      39.875  33.048  30.540  1.00  0.00     0.031 C 
ATOM     60  C   UNL A   1      44.800  30.461  31.924  1.00  0.00     0.029 A 
ATOM     61  C   UNL A   1      43.735  31.358  31.812  1.00  0.00     0.049 A 
ATOM     62  H   UNL A   1      43.840  33.108  30.639  1.00  0.00     0.167 HD
ATOM     63  C   UNL A   1      41.375  32.136  32.065  1.00  0.00     0.074 A 
ATOM     64  C   UNL A   1      41.167  32.955  30.872  1.00  0.00     0.031 C 
ATOM     65  C   UNL A   1      42.468  31.452  32.522  1.00  0.00     0.034 A 
BRANCH  52  66
ATOM     66  C   UNL A   1      44.688  32.780  27.700  1.00  0.00     0.023 A 
ATOM     67  C   UNL A   1      43.912  33.851  28.170  1.00  0.00     0.031 A 
ATOM     68  C   UNL A   1      45.216  32.932  26.392  1.00  0.00     0.131 A 
ATOM     69  C   UNL A   1      43.617  34.944  27.338  1.00  0.00     0.055 A 
ATOM     70  C   UNL A   1      44.975  34.051  25.595  1.00  0.00     0.041 A 
ATOM     71  F   UNL A   1      45.915  31.981  25.764  1.00  0.00    -0.206 F 
ATOM     72  C   UNL A   1      44.144  35.052  26.055  1.00  0.00     0.022 A 
BRANCH  69  73
ATOM     73  S   UNL A   1      42.384  36.139  27.905  1.00  0.00     0.124 S 
ATOM     74  O   UNL A   1      42.391  37.109  26.816  1.00  0.00    -0.237 OA
ATOM     75  O   UNL A   1      41.194  35.304  28.019  1.00  0.00    -0.237 OA
ATOM     76  O   UNL A   1      42.937  36.616  29.170  1.00  0.00    -0.744 OA
ENDBRANCH  69  73
ENDBRANCH  52  66
BRANCH  53  77
ATOM     77  C   UNL A   1      36.798  31.922  30.761  1.00  0.00     0.023 A 
ATOM     78  C   UNL A   1      35.977  32.632  31.662  1.00  0.00     0.031 A 
ATOM     79  C   UNL A   1      36.436  31.981  29.393  1.00  0.00     0.131 A 
ATOM     80  C   UNL A   1      34.854  33.352  31.186  1.00  0.00     0.055 A 
ATOM     81  C   UNL A   1      35.326  32.690  28.932  1.00  0.00     0.041 A 
ATOM     82  F   UNL A   1      37.202  31.418  28.446  1.00  0.00    -0.206 F 
ATOM     83  C   UNL A   1      34.533  33.386  29.827  1.00  0.00     0.022 A 
BRANCH  80  84
ATOM     84  S   UNL A   1      33.825  34.325  32.334  1.00  0.00     0.124 S 
ATOM     85  O   UNL A   1      33.318  33.302  33.239  1.00  0.00    -0.237 OA
ATOM     86  O   UNL A   1      34.788  35.267  32.893  1.00  0.00    -0.237 OA
ATOM     87  O   UNL A   1      32.815  34.927  31.462  1.00  0.00    -0.744 OA
ENDBRANCH  80  84
ENDBRANCH  53  77
BRANCH  65  88
ATOM     88  C   UNL A   1      42.306  30.580  33.755  1.00  0.00     0.023 A 
ATOM     89  C   UNL A   1      42.354  29.165  33.770  1.00  0.00     0.031 A 
ATOM     90  C   UNL A   1      42.223  31.240  34.994  1.00  0.00     0.131 A 
ATOM     91  C   UNL A   1      42.314  28.472  35.000  1.00  0.00     0.055 A 
ATOM     92  C   UNL A   1      42.203  30.552  36.205  1.00  0.00     0.041 A 
ATOM     93  F   UNL A   1      42.200  32.582  35.047  1.00  0.00    -0.206 F 
ATOM     94  C   UNL A   1      42.245  29.164  36.213  1.00  0.00     0.022 A 
BRANCH  91  95
ATOM     95  S   UNL A   1      42.344  26.648  35.052  1.00  0.00     0.124 S 
ATOM     96  O   UNL A   1      43.098  26.285  33.859  1.00  0.00    -0.237 OA
ATOM     97  O   UNL A   1      42.996  26.380  36.330  1.00  0.00    -0.237 OA
ATOM     98  O   UNL A   1      40.926  26.281  35.009  1.00  0.00    -0.744 OA
ENDBRANCH  91  95
ENDBRANCH  65  88
ENDBRANCH  39  40
ENDBRANCH  32  34
ENDBRANCH  31  32
ENDBRANCH  30  31
ENDBRANCH  29  30
ENDBRANCH  28  29
ENDBRANCH  27  28
ENDBRANCH   1  27
TORSDOF 27
ENDMDL
MODEL 2
REMARK VINA RESULT:      -7.9      5.486     11.494
REMARK SMILES Cc1n[nH]c(C(=O)N[C@@H](CC(C)C)C(=O)OCCOCCOCCOCCOC(=O)c2ccc(-c3c4nc(c(-c5cc(S(=O)(=O)[O-])ccc5F)c5ccc([nH]5)c(-c5cc(S(=O)(=O)[O-])ccc5F)c5nc(c(-c6cc(S(=O)(=O)[O-])ccc6F)c6ccc3[nH]6)C=C5)C=C4)cc2)n1
REMARK SMILES IDX 23 1 22 2 21 3 20 4 19 5 18 6 17 7 16 8 14 9 15 10 9 11 8 12
REMARK SMILES IDX 6 13 7 14 5 16 1 17 2 18 3 19 94 20 4 21 10 23 11 24 12 25
REMARK SMILES IDX 13 26 24 27 25 28 26 29 27 30 28 31 29 32 30 33 31 34 32 35
REMARK SMILES IDX 93 36 33 37 92 38 34 39 35 40 36 41 86 42 37 43 91 44 85 45
REMARK SMILES IDX 87 46 38 47 90 48 84 49 83 50 39 52 71 53 51 54 70 55 52 56
REMARK SMILES IDX 55 57 69 58 88 59 53 60 54 61 68 63 89 64 56 65 40 66 41 67
REMARK SMILES IDX 49 68 42 69 48 70 50 71 47 72 43 73 44 74 45 75 46 76 72 77
REMARK SMILES IDX 73 78 81 79 74 80 80 81 82 82 79 83 75 84 76 85 77 86 78 87
REMARK SMILES IDX 57 88 58 89 66 90 59 91 65 92 67 93 64 94 60 95 61 96 62 97
REMARK SMILES IDX 63 98
REMARK H PARENT 8 15 4 22 87 51 55 62
REMARK Flexibility Score: inf
ROOT
ATOM      1  C   UNL A   1      42.759  36.446  33.790  1.00  0.00     0.188 C 
ENDROOT
BRANCH   1   2
ATOM      2  O   UNL A   1      42.474  35.562  34.871  1.00  0.00    -0.377 OA
BRANCH   2   3
ATOM      3  C   UNL A   1      41.092  35.318  35.059  1.00  0.00     0.188 C 
BRANCH   3   4
ATOM      4  C   UNL A   1      40.538  34.022  34.421  1.00  0.00     0.188 C 
BRANCH   4   5
ATOM      5  O   UNL A   1      39.145  33.831  34.182  1.00  0.00    -0.376 OA
BRANCH   5   6
ATOM      6  C   UNL A   1      38.496  34.575  33.163  1.00  0.00     0.202 C 
BRANCH   6   7
ATOM      7  C   UNL A   1      38.280  33.893  31.811  1.00  0.00     0.261 C 
BRANCH   7   8
ATOM      8  O   UNL A   1      36.963  34.084  31.258  1.00  0.00    -0.462 OA
BRANCH   8   9
ATOM      9  C   UNL A   1      36.755  33.660  29.993  1.00  0.00     0.328 C 
ATOM     10  O   UNL A   1      37.438  33.982  29.026  1.00  0.00    -0.250 OA
BRANCH   9  11
ATOM     11  C   UNL A   1      35.469  32.819  29.838  1.00  0.00     0.192 C 
BRANCH  11  12
ATOM     12  N   UNL A   1      34.476  33.157  28.821  1.00  0.00    -0.336 N 
ATOM     13  C   UNL A   1      33.452  34.085  28.761  1.00  0.00     0.289 C 
ATOM     14  O   UNL A   1      32.666  33.914  27.826  1.00  0.00    -0.266 OA
ATOM     15  H   UNL A   1      34.550  32.608  28.007  1.00  0.00     0.164 HD
BRANCH  13  16
ATOM     16  C   UNL A   1      33.334  35.209  29.678  1.00  0.00     0.214 A 
ATOM     17  C   UNL A   1      33.252  36.644  32.932  1.00  0.00     0.092 C 
ATOM     18  C   UNL A   1      33.212  36.331  31.488  1.00  0.00     0.148 A 
ATOM     19  N   UNL A   1      32.805  37.209  30.567  1.00  0.00    -0.159 NA
ATOM     20  N   UNL A   1      33.563  35.109  30.980  1.00  0.00    -0.207 NA
ATOM     21  N   UNL A   1      32.861  36.468  29.447  1.00  0.00    -0.255 N 
ATOM     22  H   UNL A   1      32.592  36.797  28.559  1.00  0.00     0.192 HD
ENDBRANCH  13  16
ENDBRANCH  11  12
BRANCH  11  23
ATOM     23  C   UNL A   1      35.878  31.344  29.705  1.00  0.00     0.040 C 
BRANCH  23  24
ATOM     24  C   UNL A   1      36.285  30.799  28.313  1.00  0.00    -0.015 C 
ATOM     25  C   UNL A   1      37.635  30.086  28.238  1.00  0.00     0.007 C 
ATOM     26  C   UNL A   1      35.190  29.830  27.856  1.00  0.00     0.007 C 
ENDBRANCH  23  24
ENDBRANCH  11  23
ENDBRANCH   9  11
ENDBRANCH   8   9
ENDBRANCH   7   8
ENDBRANCH   6   7
ENDBRANCH   5   6
ENDBRANCH   4   5
ENDBRANCH   3   4
ENDBRANCH   2   3
ENDBRANCH   1   2
BRANCH   1  27
ATOM     27  C   UNL A   1      43.072  35.778  32.427  1.00  0.00     0.188 C 
BRANCH  27  28
ATOM     28  O   UNL A   1      44.115  36.410  31.683  1.00  0.00    -0.376 OA
BRANCH  28  29
ATOM     29  C   UNL A   1      43.923  36.787  30.324  1.00  0.00     0.202 C 
BRANCH  29  30
ATOM     30  C   UNL A   1      43.539  35.672  29.342  1.00  0.00     0.261 C 
BRANCH  30  31
ATOM     31  O   UNL A   1      44.660  35.005  28.797  1.00  0.00    -0.460 OA
BRANCH  31  32
ATOM     32  C   UNL A   1      44.450  34.498  27.563  1.00  0.00     0.338 C 
ATOM     33  O   UNL A   1      43.470  34.639  26.868  1.00  0.00    -0.246 OA
BRANCH  32  34
ATOM     34  C   UNL A   1      45.629  33.719  27.181  1.00  0.00     0.060 A 
ATOM     35  C   UNL A   1      45.384  32.726  26.239  1.00  0.00     0.016 A 
ATOM     36  C   UNL A   1      46.744  33.721  28.034  1.00  0.00     0.016 A 
ATOM     37  C   UNL A   1      46.021  31.534  26.437  1.00  0.00     0.010 A 
ATOM     38  C   UNL A   1      47.382  32.531  28.227  1.00  0.00     0.010 A 
ATOM     39  C   UNL A   1      46.892  31.437  27.526  1.00  0.00    -0.014 A 
BRANCH  39  40
ATOM     40  C   UNL A   1      47.248  30.114  27.957  1.00  0.00     0.031 A 
ATOM     41  C   UNL A   1      48.562  29.715  27.440  1.00  0.00     0.074 A 
ATOM     42  C   UNL A   1      46.446  29.401  28.768  1.00  0.00     0.049 A 
ATOM     43  N   UNL A   1      48.816  28.899  26.476  1.00  0.00    -0.248 NA
ATOM     44  C   UNL A   1      49.714  30.523  27.875  1.00  0.00     0.031 C 
ATOM     45  C   UNL A   1      45.270  29.847  29.522  1.00  0.00     0.029 A 
ATOM     46  N   UNL A   1      46.588  28.115  29.164  1.00  0.00    -0.354 N 
ATOM     47  C   UNL A   1      50.198  28.892  26.378  1.00  0.00     0.074 A 
ATOM     48  C   UNL A   1      50.654  30.081  27.043  1.00  0.00     0.031 C 
ATOM     49  C   UNL A   1      44.968  28.920  30.461  1.00  0.00     0.029 A 
ATOM     50  C   UNL A   1      45.832  27.765  30.275  1.00  0.00     0.049 A 
ATOM     51  H   UNL A   1      47.180  27.479  28.702  1.00  0.00     0.167 HD
ATOM     52  C   UNL A   1      50.859  27.750  26.057  1.00  0.00     0.034 A 
ATOM     53  C   UNL A   1      46.000  26.646  31.029  1.00  0.00     0.034 A 
ATOM     54  C   UNL A   1      49.979  26.812  25.395  1.00  0.00     0.049 A 
ATOM     55  C   UNL A   1      46.743  25.675  30.178  1.00  0.00     0.074 A 
ATOM     56  C   UNL A   1      49.219  26.853  24.241  1.00  0.00     0.029 A 
ATOM     57  N   UNL A   1      49.462  25.773  26.138  1.00  0.00    -0.354 N 
ATOM     58  N   UNL A   1      46.258  25.168  29.074  1.00  0.00    -0.248 NA
ATOM     59  C   UNL A   1      48.197  25.657  30.271  1.00  0.00     0.031 C 
ATOM     60  C   UNL A   1      48.008  26.172  24.565  1.00  0.00     0.029 A 
ATOM     61  C   UNL A   1      48.115  25.688  25.871  1.00  0.00     0.049 A 
ATOM     62  H   UNL A   1      49.968  25.193  26.752  1.00  0.00     0.167 HD
ATOM     63  C   UNL A   1      47.318  25.157  28.178  1.00  0.00     0.074 A 
ATOM     64  C   UNL A   1      48.505  25.385  28.999  1.00  0.00     0.031 C 
ATOM     65  C   UNL A   1      47.111  25.250  26.829  1.00  0.00     0.034 A 
BRANCH  52  66
ATOM     66  C   UNL A   1      52.164  27.347  26.707  1.00  0.00     0.023 A 
ATOM     67  C   UNL A   1      53.049  26.584  25.930  1.00  0.00     0.031 A 
ATOM     68  C   UNL A   1      52.468  27.423  28.090  1.00  0.00     0.131 A 
ATOM     69  C   UNL A   1      54.103  25.876  26.531  1.00  0.00     0.055 A 
ATOM     70  C   UNL A   1      53.556  26.771  28.670  1.00  0.00     0.041 A 
ATOM     71  F   UNL A   1      51.692  28.046  28.983  1.00  0.00    -0.206 F 
ATOM     72  C   UNL A   1      54.364  25.964  27.895  1.00  0.00     0.022 A 
BRANCH  69  73
ATOM     73  S   UNL A   1      55.021  24.693  25.517  1.00  0.00     0.124 S 
ATOM     74  O   UNL A   1      53.942  24.007  24.814  1.00  0.00    -0.237 OA
ATOM     75  O   UNL A   1      55.856  25.577  24.713  1.00  0.00    -0.237 OA
ATOM     76  O   UNL A   1      55.734  23.886  26.506  1.00  0.00    -0.744 OA
ENDBRANCH  69  73
ENDBRANCH  52  66
BRANCH  53  77
ATOM     77  C   UNL A   1      46.000  26.603  32.521  1.00  0.00     0.023 A 
ATOM     78  C   UNL A   1      45.244  25.670  33.260  1.00  0.00     0.031 A 
ATOM     79  C   UNL A   1      46.957  27.357  33.244  1.00  0.00     0.131 A 
ATOM     80  C   UNL A   1      45.455  25.526  34.653  1.00  0.00     0.055 A 
ATOM     81  C   UNL A   1      47.157  27.212  34.617  1.00  0.00     0.041 A 
ATOM     82  F   UNL A   1      47.790  28.203  32.621  1.00  0.00    -0.206 F 
ATOM     83  C   UNL A   1      46.412  26.288  35.328  1.00  0.00     0.022 A 
BRANCH  80  84
ATOM     84  S   UNL A   1      44.528  24.277  35.605  1.00  0.00     0.124 S 
ATOM     85  O   UNL A   1      43.469  25.074  36.212  1.00  0.00    -0.237 OA
ATOM     86  O   UNL A   1      44.119  23.336  34.569  1.00  0.00    -0.237 OA
ATOM     87  O   UNL A   1      45.520  23.757  36.547  1.00  0.00    -0.744 OA
ENDBRANCH  80  84
ENDBRANCH  53  77
BRANCH  65  88
ATOM     88  C   UNL A   1      45.697  25.068  26.304  1.00  0.00     0.023 A 
ATOM     89  C   UNL A   1      44.696  26.069  26.280  1.00  0.00     0.031 A 
ATOM     90  C   UNL A   1      45.404  23.841  25.684  1.00  0.00     0.131 A 
ATOM     91  C   UNL A   1      43.457  25.811  25.653  1.00  0.00     0.055 A 
ATOM     92  C   UNL A   1      44.187  23.598  25.049  1.00  0.00     0.041 A 
ATOM     93  F   UNL A   1      46.321  22.860  25.651  1.00  0.00    -0.206 F 
ATOM     94  C   UNL A   1      43.206  24.582  25.034  1.00  0.00     0.022 A 
BRANCH  91  95
ATOM     95  S   UNL A   1      42.135  27.069  25.631  1.00  0.00     0.124 S 
ATOM     96  O   UNL A   1      40.924  26.287  25.411  1.00  0.00    -0.237 OA
ATOM     97  O   UNL A   1      42.268  27.689  26.946  1.00  0.00    -0.237 OA
ATOM     98  O   UNL A   1      42.509  27.938  24.512  1.00  0.00    -0.744 OA
ENDBRANCH  91  95
ENDBRANCH  65  88
ENDBRANCH  39  40
ENDBRANCH  32  34
ENDBRANCH  31  32
ENDBRANCH  30  31
ENDBRANCH  29  30
ENDBRANCH  28  29
ENDBRANCH  27  28
ENDBRANCH   1  27
TORSDOF 27
ENDMDL
MODEL 3
REMARK VINA RESULT:      -7.8      5.490     10.970
REMARK SMILES Cc1n[nH]c(C(=O)N[C@@H](CC(C)C)C(=O)OCCOCCOCCOCCOC(=O)c2ccc(-c3c4nc(c(-c5cc(S(=O)(=O)[O-])ccc5F)c5ccc([nH]5)c(-c5cc(S(=O)(=O)[O-])ccc5F)c5nc(c(-c6cc(S(=O)(=O)[O-])ccc6F)c6ccc3[nH]6)C=C5)C=C4)cc2)n1
REMARK SMILES IDX 23 1 22 2 21 3 20 4 19 5 18 6 17 7 16 8 14 9 15 10 9 11 8 12
REMARK SMILES IDX 6 13 7 14 5 16 1 17 2 18 3 19 94 20 4 21 10 23 11 24 12 25
REMARK SMILES IDX 13 26 24 27 25 28 26 29 27 30 28 31 29 32 30 33 31 34 32 35
REMARK SMILES IDX 93 36 33 37 92 38 34 39 35 40 36 41 86 42 37 43 91 44 85 45
REMARK SMILES IDX 87 46 38 47 90 48 84 49 83 50 39 52 71 53 51 54 70 55 52 56
REMARK SMILES IDX 55 57 69 58 88 59 53 60 54 61 68 63 89 64 56 65 40 66 41 67
REMARK SMILES IDX 49 68 42 69 48 70 50 71 47 72 43 73 44 74 45 75 46 76 72 77
REMARK SMILES IDX 73 78 81 79 74 80 80 81 82 82 79 83 75 84 76 85 77 86 78 87
REMARK SMILES IDX 57 88 58 89 66 90 59 91 65 92 67 93 64 94 60 95 61 96 62 97
REMARK SMILES IDX 63 98
REMARK H PARENT 8 15 4 22 87 51 55 62
REMARK Flexibility Score: inf
ROOT
ATOM      1  C   UNL A   1      40.526  27.579  29.899  1.00  0.00     0.188 C 
ENDROOT
BRANCH   1   2
ATOM      2  O   UNL A   1      39.923  28.817  30.267  1.00  0.00    -0.377 OA
BRANCH   2   3
ATOM      3  C   UNL A   1      40.854  29.861  30.487  1.00  0.00     0.188 C 
BRANCH   3   4
ATOM      4  C   UNL A   1      40.362  31.290  30.156  1.00  0.00     0.188 C 
BRANCH   4   5
ATOM      5  O   UNL A   1      39.981  32.214  31.173  1.00  0.00    -0.376 OA
BRANCH   5   6
ATOM      6  C   UNL A   1      38.679  32.779  31.161  1.00  0.00     0.202 C 
BRANCH   6   7
ATOM      7  C   UNL A   1      37.774  32.458  29.970  1.00  0.00     0.261 C 
BRANCH   7   8
ATOM      8  O   UNL A   1      36.554  31.780  30.322  1.00  0.00    -0.462 OA
BRANCH   8   9
ATOM      9  C   UNL A   1      36.155  30.768  29.523  1.00  0.00     0.328 C 
ATOM     10  O   UNL A   1      36.739  29.695  29.408  1.00  0.00    -0.250 OA
BRANCH   9  11
ATOM     11  C   UNL A   1      34.943  31.133  28.638  1.00  0.00     0.192 C 
BRANCH  11  12
ATOM     12  N   UNL A   1      34.903  32.404  27.918  1.00  0.00    -0.336 N 
ATOM     13  C   UNL A   1      34.358  33.643  28.203  1.00  0.00     0.289 C 
ATOM     14  O   UNL A   1      34.319  34.413  27.240  1.00  0.00    -0.266 OA
ATOM     15  H   UNL A   1      35.358  32.371  27.045  1.00  0.00     0.164 HD
BRANCH  13  16
ATOM     16  C   UNL A   1      33.923  34.040  29.533  1.00  0.00     0.214 A 
ATOM     17  C   UNL A   1      32.270  36.226  31.801  1.00  0.00     0.092 C 
ATOM     18  C   UNL A   1      33.046  35.173  31.114  1.00  0.00     0.148 A 
ATOM     19  N   UNL A   1      33.795  34.280  31.769  1.00  0.00    -0.159 NA
ATOM     20  N   UNL A   1      33.084  35.043  29.752  1.00  0.00    -0.207 NA
ATOM     21  N   UNL A   1      34.358  33.605  30.752  1.00  0.00    -0.255 N 
ATOM     22  H   UNL A   1      35.009  32.877  30.873  1.00  0.00     0.192 HD
ENDBRANCH  13  16
ENDBRANCH  11  12
BRANCH  11  23
ATOM     23  C   UNL A   1      34.695  29.969  27.666  1.00  0.00     0.040 C 
BRANCH  23  24
ATOM     24  C   UNL A   1      33.559  30.092  26.620  1.00  0.00    -0.015 C 
ATOM     25  C   UNL A   1      33.730  29.273  25.341  1.00  0.00     0.007 C 
ATOM     26  C   UNL A   1      32.254  29.671  27.303  1.00  0.00     0.007 C 
ENDBRANCH  23  24
ENDBRANCH  11  23
ENDBRANCH   9  11
ENDBRANCH   8   9
ENDBRANCH   7   8
ENDBRANCH   6   7
ENDBRANCH   5   6
ENDBRANCH   4   5
ENDBRANCH   3   4
ENDBRANCH   2   3
ENDBRANCH   1   2
BRANCH   1  27
ATOM     27  C   UNL A   1      41.252  27.555  28.530  1.00  0.00     0.188 C 
BRANCH  27  28
ATOM     28  O   UNL A   1      40.992  26.392  27.741  1.00  0.00    -0.376 OA
BRANCH  28  29
ATOM     29  C   UNL A   1      42.058  25.601  27.227  1.00  0.00     0.202 C 
BRANCH  29  30
ATOM     30  C   UNL A   1      42.022  25.278  25.728  1.00  0.00     0.261 C 
BRANCH  30  31
ATOM     31  O   UNL A   1      43.260  25.509  25.083  1.00  0.00    -0.460 OA
BRANCH  31  32
ATOM     32  C   UNL A   1      44.000  24.394  24.902  1.00  0.00     0.338 C 
ATOM     33  O   UNL A   1      43.641  23.344  24.420  1.00  0.00    -0.246 OA
BRANCH  32  34
ATOM     34  C   UNL A   1      45.351  24.656  25.401  1.00  0.00     0.060 A 
ATOM     35  C   UNL A   1      45.901  23.621  26.150  1.00  0.00     0.016 A 
ATOM     36  C   UNL A   1      45.800  25.985  25.468  1.00  0.00     0.016 A 
ATOM     37  C   UNL A   1      46.607  23.986  27.260  1.00  0.00     0.010 A 
ATOM     38  C   UNL A   1      46.509  26.346  26.575  1.00  0.00     0.010 A 
ATOM     39  C   UNL A   1      46.757  25.353  27.512  1.00  0.00    -0.014 A 
BRANCH  39  40
ATOM     40  C   UNL A   1      47.145  25.728  28.844  1.00  0.00     0.031 A 
ATOM     41  C   UNL A   1      45.980  26.072  29.666  1.00  0.00     0.074 A 
ATOM     42  C   UNL A   1      48.432  25.704  29.232  1.00  0.00     0.049 A 
ATOM     43  N   UNL A   1      45.581  27.246  30.018  1.00  0.00    -0.248 NA
ATOM     44  C   UNL A   1      44.998  25.000  29.899  1.00  0.00     0.031 C 
ATOM     45  C   UNL A   1      49.589  25.118  28.547  1.00  0.00     0.029 A 
ATOM     46  N   UNL A   1      48.961  26.131  30.403  1.00  0.00    -0.354 N 
ATOM     47  C   UNL A   1      44.434  27.018  30.761  1.00  0.00     0.074 A 
ATOM     48  C   UNL A   1      43.989  25.696  30.418  1.00  0.00     0.031 C 
ATOM     49  C   UNL A   1      50.616  25.011  29.423  1.00  0.00     0.029 A 
ATOM     50  C   UNL A   1      50.234  25.649  30.673  1.00  0.00     0.049 A 
ATOM     51  H   UNL A   1      48.480  26.735  31.014  1.00  0.00     0.167 HD
ATOM     52  C   UNL A   1      44.143  27.798  31.834  1.00  0.00     0.034 A 
ATOM     53  C   UNL A   1      50.860  25.695  31.879  1.00  0.00     0.034 A 
ATOM     54  C   UNL A   1      44.841  29.064  31.758  1.00  0.00     0.049 A 
ATOM     55  C   UNL A   1      50.183  26.765  32.663  1.00  0.00     0.074 A 
ATOM     56  C   UNL A   1      44.860  30.100  30.843  1.00  0.00     0.029 A 
ATOM     57  N   UNL A   1      45.980  29.222  32.516  1.00  0.00    -0.354 N 
ATOM     58  N   UNL A   1      50.197  28.027  32.321  1.00  0.00    -0.248 NA
ATOM     59  C   UNL A   1      49.077  26.380  33.530  1.00  0.00     0.031 C 
ATOM     60  C   UNL A   1      46.221  30.524  30.785  1.00  0.00     0.029 A 
ATOM     61  C   UNL A   1      46.950  29.779  31.716  1.00  0.00     0.049 A 
ATOM     62  H   UNL A   1      46.082  28.980  33.465  1.00  0.00     0.167 HD
ATOM     63  C   UNL A   1      48.912  28.490  32.568  1.00  0.00     0.074 A 
ATOM     64  C   UNL A   1      48.294  27.455  33.396  1.00  0.00     0.031 C 
ATOM     65  C   UNL A   1      48.377  29.522  31.849  1.00  0.00     0.034 A 
BRANCH  52  66
ATOM     66  C   UNL A   1      43.565  27.245  33.117  1.00  0.00     0.023 A 
ATOM     67  C   UNL A   1      44.238  26.160  33.699  1.00  0.00     0.031 A 
ATOM     68  C   UNL A   1      42.278  27.524  33.644  1.00  0.00     0.131 A 
ATOM     69  C   UNL A   1      43.610  25.364  34.671  1.00  0.00     0.055 A 
ATOM     70  C   UNL A   1      41.686  26.770  34.657  1.00  0.00     0.041 A 
ATOM     71  F   UNL A   1      41.473  28.475  33.158  1.00  0.00    -0.206 F 
ATOM     72  C   UNL A   1      42.340  25.662  35.156  1.00  0.00     0.022 A 
BRANCH  69  73
ATOM     73  S   UNL A   1      44.419  23.824  35.164  1.00  0.00     0.124 S 
ATOM     74  O   UNL A   1      43.384  22.839  34.865  1.00  0.00    -0.237 OA
ATOM     75  O   UNL A   1      45.590  23.814  34.295  1.00  0.00    -0.237 OA
ATOM     76  O   UNL A   1      44.694  24.028  36.584  1.00  0.00    -0.744 OA
ENDBRANCH  69  73
ENDBRANCH  52  66
BRANCH  53  77
ATOM     77  C   UNL A   1      51.615  24.568  32.502  1.00  0.00     0.023 A 
ATOM     78  C   UNL A   1      50.987  23.398  32.980  1.00  0.00     0.031 A 
ATOM     79  C   UNL A   1      53.027  24.537  32.415  1.00  0.00     0.131 A 
ATOM     80  C   UNL A   1      51.764  22.273  33.350  1.00  0.00     0.055 A 
ATOM     81  C   UNL A   1      53.788  23.426  32.784  1.00  0.00     0.041 A 
ATOM     82  F   UNL A   1      53.714  25.562  31.887  1.00  0.00    -0.206 F 
ATOM     83  C   UNL A   1      53.158  22.284  33.246  1.00  0.00     0.022 A 
BRANCH  80  84
ATOM     84  S   UNL A   1      50.960  20.736  33.907  1.00  0.00     0.124 S 
ATOM     85  O   UNL A   1      52.055  19.775  33.853  1.00  0.00    -0.237 OA
ATOM     86  O   UNL A   1      50.480  21.099  35.236  1.00  0.00    -0.237 OA
ATOM     87  O   UNL A   1      49.906  20.520  32.915  1.00  0.00    -0.744 OA
ENDBRANCH  80  84
ENDBRANCH  53  77
BRANCH  65  88
ATOM     88  C   UNL A   1      49.306  30.351  30.979  1.00  0.00     0.023 A 
ATOM     89  C   UNL A   1      49.768  29.984  29.692  1.00  0.00     0.031 A 
ATOM     90  C   UNL A   1      49.632  31.637  31.444  1.00  0.00     0.131 A 
ATOM     91  C   UNL A   1      50.530  30.897  28.930  1.00  0.00     0.055 A 
ATOM     92  C   UNL A   1      50.369  32.542  30.681  1.00  0.00     0.041 A 
ATOM     93  F   UNL A   1      49.202  32.054  32.647  1.00  0.00    -0.206 F 
ATOM     94  C   UNL A   1      50.824  32.174  29.421  1.00  0.00     0.022 A 
BRANCH  91  95
ATOM     95  S   UNL A   1      51.166  30.445  27.281  1.00  0.00     0.124 S 
ATOM     96  O   UNL A   1      51.347  29.001  27.370  1.00  0.00    -0.237 OA
ATOM     97  O   UNL A   1      50.100  30.905  26.395  1.00  0.00    -0.237 OA
ATOM     98  O   UNL A   1      52.412  31.208  27.174  1.00  0.00    -0.744 OA
ENDBRANCH  91  95
ENDBRANCH  65  88
ENDBRANCH  39  40
ENDBRANCH  32  34
ENDBRANCH  31  32
ENDBRANCH  30  31
ENDBRANCH  29  30
ENDBRANCH  28  29
ENDBRANCH  27  28
ENDBRANCH   1  27
TORSDOF 27
ENDMDL
