MODEL 1
REMARK VINA RESULT:      -6.4      0.000      0.000
REMARK SMILES CN(CCc1cccs1)C(=O)N[C@H](CC(N)=O)C(=O)OCCOCCOCCOCCOC(=O)c1ccc(-c2c3nc(c(-c4cc(S(=O)(=O)[O-])ccc4F)c4ccc([nH]4)c(-c4cc(S(=O)(=O)[O-])ccc4F)c4nc(c(-c5cc(S(=O)(=O)[O-])ccc5F)c5ccc2[nH]5)C=C4)C=C3)cc1
REMARK SMILES IDX 25 1 24 2 23 3 22 4 21 5 20 6 18 7 19 8 13 9 12 10 10 11
REMARK SMILES IDX 11 12 2 14 1 15 3 16 4 17 5 18 6 19 9 20 7 21 8 22 14 23
REMARK SMILES IDX 15 24 16 25 17 26 26 29 27 30 28 31 29 32 30 33 31 34 32 35
REMARK SMILES IDX 33 36 34 37 35 38 36 39 97 40 37 41 96 42 38 43 39 44 40 45
REMARK SMILES IDX 90 46 41 47 95 48 89 49 91 50 42 51 94 52 88 53 87 54 43 56
REMARK SMILES IDX 75 57 55 58 74 59 56 60 59 61 73 62 92 63 57 64 58 65 72 67
REMARK SMILES IDX 93 68 60 69 44 70 45 71 53 72 46 73 52 74 54 75 51 76 47 77
REMARK SMILES IDX 48 78 49 79 50 80 76 81 77 82 85 83 78 84 84 85 86 86 83 87
REMARK SMILES IDX 79 88 80 89 81 90 82 91 61 92 62 93 70 94 63 95 69 96 71 97
REMARK SMILES IDX 68 98 64 99 65 100 66 101 67 102
REMARK H PARENT 12 13 16 27 16 28 91 55 59 66
REMARK Flexibility Score: inf
ROOT
ATOM      1  C   UNL A   1      35.781  34.491  33.599  1.00  0.00     0.188 C 
ENDROOT
BRANCH   1   2
ATOM      2  C   UNL A   1      35.241  34.269  35.016  1.00  0.00     0.188 C 
BRANCH   2   3
ATOM      3  O   UNL A   1      36.249  34.212  36.021  1.00  0.00    -0.376 OA
BRANCH   3   4
ATOM      4  C   UNL A   1      37.369  33.403  35.667  1.00  0.00     0.202 C 
BRANCH   4   5
ATOM      5  C   UNL A   1      37.697  32.248  36.634  1.00  0.00     0.261 C 
BRANCH   5   6
ATOM      6  O   UNL A   1      38.045  31.028  35.954  1.00  0.00    -0.462 OA
BRANCH   6   7
ATOM      7  C   UNL A   1      39.341  30.803  35.637  1.00  0.00     0.329 C 
ATOM      8  O   UNL A   1      40.197  30.450  36.443  1.00  0.00    -0.250 OA
BRANCH   7   9
ATOM      9  C   UNL A   1      39.598  30.983  34.120  1.00  0.00     0.203 C 
BRANCH   9  10
ATOM     10  N   UNL A   1      39.567  29.605  33.585  1.00  0.00    -0.324 N 
ATOM     11  C   UNL A   1      40.337  28.513  33.574  1.00  0.00     0.317 C 
ATOM     12  O   UNL A   1      39.777  27.487  33.172  1.00  0.00    -0.249 OA
ATOM     13  H   UNL A   1      38.732  29.445  33.089  1.00  0.00     0.166 HD
BRANCH  11  14
ATOM     14  N   UNL A   1      41.651  28.499  33.943  1.00  0.00    -0.328 N 
ATOM     15  C   UNL A   1      41.937  27.896  35.239  1.00  0.00     0.148 C 
BRANCH  14  16
ATOM     16  C   UNL A   1      42.826  28.736  33.098  1.00  0.00     0.126 C 
BRANCH  16  17
ATOM     17  C   UNL A   1      44.185  28.568  33.801  1.00  0.00     0.068 C 
BRANCH  17  18
ATOM     18  C   UNL A   1      44.929  27.323  33.402  1.00  0.00     0.006 A 
ATOM     19  C   UNL A   1      46.208  26.938  33.754  1.00  0.00     0.015 A 
ATOM     20  S   UNL A   1      44.211  26.181  32.348  1.00  0.00    -0.149 S 
ATOM     21  C   UNL A   1      46.537  25.637  33.279  1.00  0.00     0.012 A 
ATOM     22  C   UNL A   1      45.528  25.101  32.512  1.00  0.00     0.065 A 
ENDBRANCH  17  18
ENDBRANCH  16  17
ENDBRANCH  14  16
ENDBRANCH  11  14
ENDBRANCH   9  10
BRANCH   9  23
ATOM     23  C   UNL A   1      40.956  31.646  33.857  1.00  0.00     0.136 C 
BRANCH  23  24
ATOM     24  C   UNL A   1      41.077  33.055  34.412  1.00  0.00     0.220 C 
ATOM     25  N   UNL A   1      40.482  34.027  33.663  1.00  0.00    -0.370 N 
ATOM     26  O   UNL A   1      41.582  33.342  35.492  1.00  0.00    -0.275 OA
ATOM     27  H   UNL A   1      40.075  33.801  32.795  1.00  0.00     0.159 HD
ATOM     28  H   UNL A   1      40.459  34.955  33.991  1.00  0.00     0.159 HD
ENDBRANCH  23  24
ENDBRANCH   9  23
ENDBRANCH   7   9
ENDBRANCH   6   7
ENDBRANCH   5   6
ENDBRANCH   4   5
ENDBRANCH   3   4
ENDBRANCH   2   3
ENDBRANCH   1   2
BRANCH   1  29
ATOM     29  O   UNL A   1      35.058  33.911  32.521  1.00  0.00    -0.377 OA
BRANCH  29  30
ATOM     30  C   UNL A   1      35.644  33.905  31.222  1.00  0.00     0.188 C 
BRANCH  30  31
ATOM     31  C   UNL A   1      36.629  32.780  30.858  1.00  0.00     0.188 C 
BRANCH  31  32
ATOM     32  O   UNL A   1      37.331  32.986  29.642  1.00  0.00    -0.376 OA
BRANCH  32  33
ATOM     33  C   UNL A   1      36.653  33.686  28.609  1.00  0.00     0.202 C 
BRANCH  33  34
ATOM     34  C   UNL A   1      35.352  33.054  28.096  1.00  0.00     0.261 C 
BRANCH  34  35
ATOM     35  O   UNL A   1      35.482  31.833  27.343  1.00  0.00    -0.460 OA
BRANCH  35  36
ATOM     36  C   UNL A   1      35.220  30.661  27.963  1.00  0.00     0.338 C 
ATOM     37  O   UNL A   1      34.129  30.172  28.192  1.00  0.00    -0.246 OA
BRANCH  36  38
ATOM     38  C   UNL A   1      36.509  29.974  28.170  1.00  0.00     0.060 A 
ATOM     39  C   UNL A   1      36.782  29.377  29.408  1.00  0.00     0.016 A 
ATOM     40  C   UNL A   1      37.449  29.931  27.138  1.00  0.00     0.016 A 
ATOM     41  C   UNL A   1      38.017  28.762  29.629  1.00  0.00     0.010 A 
ATOM     42  C   UNL A   1      38.689  29.334  27.367  1.00  0.00     0.010 A 
ATOM     43  C   UNL A   1      38.992  28.777  28.623  1.00  0.00    -0.014 A 
BRANCH  43  44
ATOM     44  C   UNL A   1      40.402  28.434  28.935  1.00  0.00     0.031 A 
ATOM     45  C   UNL A   1      41.265  29.511  29.535  1.00  0.00     0.074 A 
ATOM     46  C   UNL A   1      40.914  27.218  28.675  1.00  0.00     0.049 A 
ATOM     47  N   UNL A   1      42.552  29.520  29.758  1.00  0.00    -0.248 NA
ATOM     48  C   UNL A   1      40.575  30.750  29.925  1.00  0.00     0.031 C 
ATOM     49  C   UNL A   1      40.163  26.076  28.158  1.00  0.00     0.029 A 
ATOM     50  N   UNL A   1      42.199  26.750  28.796  1.00  0.00    -0.354 N 
ATOM     51  C   UNL A   1      42.830  30.769  30.303  1.00  0.00     0.074 A 
ATOM     52  C   UNL A   1      41.581  31.498  30.346  1.00  0.00     0.031 C 
ATOM     53  C   UNL A   1      41.008  25.044  27.984  1.00  0.00     0.029 A 
ATOM     54  C   UNL A   1      42.365  25.467  28.329  1.00  0.00     0.049 A 
ATOM     55  H   UNL A   1      42.932  27.283  29.179  1.00  0.00     0.167 HD
ATOM     56  C   UNL A   1      44.019  31.262  30.728  1.00  0.00     0.034 A 
ATOM     57  C   UNL A   1      43.489  24.736  28.165  1.00  0.00     0.034 A 
ATOM     58  C   UNL A   1      45.257  30.530  30.658  1.00  0.00     0.049 A 
ATOM     59  C   UNL A   1      44.821  25.343  28.547  1.00  0.00     0.074 A 
ATOM     60  C   UNL A   1      46.521  30.933  31.052  1.00  0.00     0.029 A 
ATOM     61  N   UNL A   1      45.392  29.245  30.149  1.00  0.00    -0.354 N 
ATOM     62  N   UNL A   1      45.078  26.532  29.045  1.00  0.00    -0.248 NA
ATOM     63  C   UNL A   1      46.015  24.509  28.347  1.00  0.00     0.031 C 
ATOM     64  C   UNL A   1      47.428  29.923  30.714  1.00  0.00     0.029 A 
ATOM     65  C   UNL A   1      46.720  28.853  30.190  1.00  0.00     0.049 A 
ATOM     66  H   UNL A   1      44.651  28.693  29.807  1.00  0.00     0.167 HD
ATOM     67  C   UNL A   1      46.456  26.568  29.257  1.00  0.00     0.074 A 
ATOM     68  C   UNL A   1      46.974  25.285  28.831  1.00  0.00     0.031 C 
ATOM     69  C   UNL A   1      47.221  27.565  29.768  1.00  0.00     0.034 A 
BRANCH  56  70
ATOM     70  C   UNL A   1      44.033  32.682  31.241  1.00  0.00     0.023 A 
ATOM     71  C   UNL A   1      43.903  33.783  30.377  1.00  0.00     0.031 A 
ATOM     72  C   UNL A   1      44.223  32.937  32.611  1.00  0.00     0.131 A 
ATOM     73  C   UNL A   1      44.042  35.086  30.879  1.00  0.00     0.055 A 
ATOM     74  C   UNL A   1      44.276  34.237  33.116  1.00  0.00     0.041 A 
ATOM     75  F   UNL A   1      44.381  31.926  33.480  1.00  0.00    -0.206 F 
ATOM     76  C   UNL A   1      44.200  35.321  32.248  1.00  0.00     0.022 A 
BRANCH  73  77
ATOM     77  S   UNL A   1      44.164  36.459  29.702  1.00  0.00     0.124 S 
ATOM     78  O   UNL A   1      43.887  37.608  30.561  1.00  0.00    -0.237 OA
ATOM     79  O   UNL A   1      45.534  36.340  29.218  1.00  0.00    -0.237 OA
ATOM     80  O   UNL A   1      43.124  36.162  28.718  1.00  0.00    -0.744 OA
ENDBRANCH  73  77
ENDBRANCH  56  70
BRANCH  57  81
ATOM     81  C   UNL A   1      43.426  23.372  27.563  1.00  0.00     0.023 A 
ATOM     82  C   UNL A   1      44.187  23.039  26.432  1.00  0.00     0.031 A 
ATOM     83  C   UNL A   1      42.549  22.397  28.075  1.00  0.00     0.131 A 
ATOM     84  C   UNL A   1      44.025  21.785  25.822  1.00  0.00     0.055 A 
ATOM     85  C   UNL A   1      42.432  21.131  27.497  1.00  0.00     0.041 A 
ATOM     86  F   UNL A   1      41.793  22.661  29.153  1.00  0.00    -0.206 F 
ATOM     87  C   UNL A   1      43.163  20.824  26.354  1.00  0.00     0.022 A 
BRANCH  84  88
ATOM     88  S   UNL A   1      44.893  21.459  24.262  1.00  0.00     0.124 S 
ATOM     89  O   UNL A   1      44.451  20.104  23.955  1.00  0.00    -0.237 OA
ATOM     90  O   UNL A   1      44.373  22.516  23.400  1.00  0.00    -0.237 OA
ATOM     91  O   UNL A   1      46.304  21.590  24.624  1.00  0.00    -0.744 OA
ENDBRANCH  84  88
ENDBRANCH  57  81
BRANCH  69  92
ATOM     92  C   UNL A   1      48.690  27.285  29.970  1.00  0.00     0.023 A 
ATOM     93  C   UNL A   1      49.176  26.606  31.101  1.00  0.00     0.031 A 
ATOM     94  C   UNL A   1      49.617  27.685  28.991  1.00  0.00     0.131 A 
ATOM     95  C   UNL A   1      50.555  26.384  31.243  1.00  0.00     0.055 A 
ATOM     96  C   UNL A   1      50.980  27.413  29.109  1.00  0.00     0.041 A 
ATOM     97  F   UNL A   1      49.208  28.337  27.889  1.00  0.00    -0.206 F 
ATOM     98  C   UNL A   1      51.458  26.767  30.245  1.00  0.00     0.022 A 
BRANCH  95  99
ATOM     99  S   UNL A   1      51.169  25.647  32.782  1.00  0.00     0.124 S 
ATOM    100  O   UNL A   1      51.735  26.803  33.469  1.00  0.00    -0.237 OA
ATOM    101  O   UNL A   1      49.954  25.089  33.368  1.00  0.00    -0.237 OA
ATOM    102  O   UNL A   1      52.145  24.659  32.325  1.00  0.00    -0.744 OA
ENDBRANCH  95  99
ENDBRANCH  69  92
ENDBRANCH  43  44
ENDBRANCH  36  38
ENDBRANCH  35  36
ENDBRANCH  34  35
ENDBRANCH  33  34
ENDBRANCH  32  33
ENDBRANCH  31  32
ENDBRANCH  30  31
ENDBRANCH  29  30
ENDBRANCH   1  29
TORSDOF 30
ENDMDL
MODEL 2
REMARK VINA RESULT:      -5.8      8.421     15.320
REMARK SMILES CN(CCc1cccs1)C(=O)N[C@H](CC(N)=O)C(=O)OCCOCCOCCOCCOC(=O)c1ccc(-c2c3nc(c(-c4cc(S(=O)(=O)[O-])ccc4F)c4ccc([nH]4)c(-c4cc(S(=O)(=O)[O-])ccc4F)c4nc(c(-c5cc(S(=O)(=O)[O-])ccc5F)c5ccc2[nH]5)C=C4)C=C3)cc1
REMARK SMILES IDX 25 1 24 2 23 3 22 4 21 5 20 6 18 7 19 8 13 9 12 10 10 11
REMARK SMILES IDX 11 12 2 14 1 15 3 16 4 17 5 18 6 19 9 20 7 21 8 22 14 23
REMARK SMILES IDX 15 24 16 25 17 26 26 29 27 30 28 31 29 32 30 33 31 34 32 35
REMARK SMILES IDX 33 36 34 37 35 38 36 39 97 40 37 41 96 42 38 43 39 44 40 45
REMARK SMILES IDX 90 46 41 47 95 48 89 49 91 50 42 51 94 52 88 53 87 54 43 56
REMARK SMILES IDX 75 57 55 58 74 59 56 60 59 61 73 62 92 63 57 64 58 65 72 67
REMARK SMILES IDX 93 68 60 69 44 70 45 71 53 72 46 73 52 74 54 75 51 76 47 77
REMARK SMILES IDX 48 78 49 79 50 80 76 81 77 82 85 83 78 84 84 85 86 86 83 87
REMARK SMILES IDX 79 88 80 89 81 90 82 91 61 92 62 93 70 94 63 95 69 96 71 97
REMARK SMILES IDX 68 98 64 99 65 100 66 101 67 102
REMARK H PARENT 12 13 16 27 16 28 91 55 59 66
REMARK Flexibility Score: inf
ROOT
ATOM      1  C   UNL A   1      48.313  38.878  25.507  1.00  0.00     0.188 C 
ENDROOT
BRANCH   1   2
ATOM      2  C   UNL A   1      46.884  39.421  25.395  1.00  0.00     0.188 C 
BRANCH   2   3
ATOM      3  O   UNL A   1      46.492  39.757  24.067  1.00  0.00    -0.376 OA
BRANCH   3   4
ATOM      4  C   UNL A   1      46.881  41.069  23.666  1.00  0.00     0.202 C 
BRANCH   4   5
ATOM      5  C   UNL A   1      46.317  42.227  24.514  1.00  0.00     0.261 C 
BRANCH   5   6
ATOM      6  O   UNL A   1      46.093  43.425  23.748  1.00  0.00    -0.462 OA
BRANCH   6   7
ATOM      7  C   UNL A   1      45.115  43.430  22.814  1.00  0.00     0.329 C 
ATOM      8  O   UNL A   1      43.981  43.001  23.000  1.00  0.00    -0.250 OA
BRANCH   7   9
ATOM      9  C   UNL A   1      45.584  44.104  21.499  1.00  0.00     0.203 C 
BRANCH   9  10
ATOM     10  N   UNL A   1      46.621  45.061  21.936  1.00  0.00    -0.324 N 
ATOM     11  C   UNL A   1      47.519  45.889  21.393  1.00  0.00     0.317 C 
ATOM     12  O   UNL A   1      48.038  46.685  22.185  1.00  0.00    -0.249 OA
ATOM     13  H   UNL A   1      46.663  45.101  22.919  1.00  0.00     0.166 HD
BRANCH  11  14
ATOM     14  N   UNL A   1      47.883  45.868  20.077  1.00  0.00    -0.328 N 
ATOM     15  C   UNL A   1      49.005  44.998  19.747  1.00  0.00     0.148 C 
BRANCH  14  16
ATOM     16  C   UNL A   1      47.125  46.365  18.925  1.00  0.00     0.126 C 
BRANCH  16  17
ATOM     17  C   UNL A   1      46.566  47.791  19.073  1.00  0.00     0.068 C 
BRANCH  17  18
ATOM     18  C   UNL A   1      45.315  48.043  18.275  1.00  0.00     0.006 A 
ATOM     19  C   UNL A   1      44.889  47.410  17.124  1.00  0.00     0.015 A 
ATOM     20  S   UNL A   1      44.222  49.276  18.739  1.00  0.00    -0.149 S 
ATOM     21  C   UNL A   1      43.596  47.837  16.712  1.00  0.00     0.012 A 
ATOM     22  C   UNL A   1      43.106  48.840  17.518  1.00  0.00     0.065 A 
ENDBRANCH  17  18
ENDBRANCH  16  17
ENDBRANCH  14  16
ENDBRANCH  11  14
ENDBRANCH   9  10
BRANCH   9  23
ATOM     23  C   UNL A   1      44.427  44.826  20.797  1.00  0.00     0.136 C 
BRANCH  23  24
ATOM     24  C   UNL A   1      44.136  44.317  19.395  1.00  0.00     0.220 C 
ATOM     25  N   UNL A   1      44.796  43.177  19.043  1.00  0.00    -0.370 N 
ATOM     26  O   UNL A   1      43.311  44.804  18.629  1.00  0.00    -0.275 OA
ATOM     27  H   UNL A   1      45.459  42.782  19.656  1.00  0.00     0.159 HD
ATOM     28  H   UNL A   1      44.609  42.747  18.177  1.00  0.00     0.159 HD
ENDBRANCH  23  24
ENDBRANCH   9  23
ENDBRANCH   7   9
ENDBRANCH   6   7
ENDBRANCH   5   6
ENDBRANCH   4   5
ENDBRANCH   3   4
ENDBRANCH   2   3
ENDBRANCH   1   2
BRANCH   1  29
ATOM     29  O   UNL A   1      48.470  37.504  25.835  1.00  0.00    -0.377 OA
BRANCH  29  30
ATOM     30  C   UNL A   1      47.391  36.817  26.463  1.00  0.00     0.188 C 
BRANCH  30  31
ATOM     31  C   UNL A   1      46.692  35.677  25.700  1.00  0.00     0.188 C 
BRANCH  31  32
ATOM     32  O   UNL A   1      47.569  34.673  25.216  1.00  0.00    -0.376 OA
BRANCH  32  33
ATOM     33  C   UNL A   1      48.108  33.765  26.165  1.00  0.00     0.202 C 
BRANCH  33  34
ATOM     34  C   UNL A   1      47.095  32.967  26.997  1.00  0.00     0.261 C 
BRANCH  34  35
ATOM     35  O   UNL A   1      46.133  32.184  26.265  1.00  0.00    -0.460 OA
BRANCH  35  36
ATOM     36  C   UNL A   1      44.977  32.773  25.885  1.00  0.00     0.338 C 
ATOM     37  O   UNL A   1      44.561  32.925  24.751  1.00  0.00    -0.246 OA
BRANCH  36  38
ATOM     38  C   UNL A   1      44.202  33.054  27.109  1.00  0.00     0.060 A 
ATOM     39  C   UNL A   1      43.809  34.369  27.390  1.00  0.00     0.016 A 
ATOM     40  C   UNL A   1      43.874  32.013  27.980  1.00  0.00     0.016 A 
ATOM     41  C   UNL A   1      43.113  34.653  28.568  1.00  0.00     0.010 A 
ATOM     42  C   UNL A   1      43.197  32.301  29.165  1.00  0.00     0.010 A 
ATOM     43  C   UNL A   1      42.843  33.625  29.482  1.00  0.00    -0.014 A 
BRANCH  43  44
ATOM     44  C   UNL A   1      42.410  33.943  30.866  1.00  0.00     0.031 A 
ATOM     45  C   UNL A   1      43.481  34.109  31.910  1.00  0.00     0.074 A 
ATOM     46  C   UNL A   1      41.113  34.055  31.198  1.00  0.00     0.049 A 
ATOM     47  N   UNL A   1      43.370  34.237  33.205  1.00  0.00    -0.248 NA
ATOM     48  C   UNL A   1      44.868  34.122  31.418  1.00  0.00     0.031 C 
ATOM     49  C   UNL A   1      39.990  33.981  30.266  1.00  0.00     0.029 A 
ATOM     50  N   UNL A   1      40.522  34.240  32.424  1.00  0.00    -0.354 N 
ATOM     51  C   UNL A   1      44.671  34.334  33.686  1.00  0.00     0.074 A 
ATOM     52  C   UNL A   1      45.553  34.218  32.545  1.00  0.00     0.031 C 
ATOM     53  C   UNL A   1      38.842  34.095  30.958  1.00  0.00     0.029 A 
ATOM     54  C   UNL A   1      39.147  34.200  32.385  1.00  0.00     0.049 A 
ATOM     55  H   UNL A   1      41.033  34.385  33.252  1.00  0.00     0.167 HD
ATOM     56  C   UNL A   1      45.092  34.502  34.964  1.00  0.00     0.034 A 
ATOM     57  C   UNL A   1      38.245  34.209  33.390  1.00  0.00     0.034 A 
ATOM     58  C   UNL A   1      44.200  34.594  36.091  1.00  0.00     0.049 A 
ATOM     59  C   UNL A   1      38.737  34.292  34.818  1.00  0.00     0.074 A 
ATOM     60  C   UNL A   1      44.515  34.758  37.429  1.00  0.00     0.029 A 
ATOM     61  N   UNL A   1      42.815  34.517  36.017  1.00  0.00    -0.354 N 
ATOM     62  N   UNL A   1      39.971  34.365  35.266  1.00  0.00    -0.248 NA
ATOM     63  C   UNL A   1      37.717  34.296  35.876  1.00  0.00     0.031 C 
ATOM     64  C   UNL A   1      43.328  34.707  38.168  1.00  0.00     0.029 A 
ATOM     65  C   UNL A   1      42.265  34.599  37.286  1.00  0.00     0.049 A 
ATOM     66  H   UNL A   1      42.300  34.418  35.183  1.00  0.00     0.167 HD
ATOM     67  C   UNL A   1      39.868  34.468  36.653  1.00  0.00     0.074 A 
ATOM     68  C   UNL A   1      38.455  34.445  36.967  1.00  0.00     0.031 C 
ATOM     69  C   UNL A   1      40.851  34.583  37.582  1.00  0.00     0.034 A 
BRANCH  56  70
ATOM     70  C   UNL A   1      46.582  34.530  35.202  1.00  0.00     0.023 A 
ATOM     71  C   UNL A   1      47.324  33.351  35.390  1.00  0.00     0.031 A 
ATOM     72  C   UNL A   1      47.262  35.758  35.284  1.00  0.00     0.131 A 
ATOM     73  C   UNL A   1      48.684  33.428  35.727  1.00  0.00     0.055 A 
ATOM     74  C   UNL A   1      48.633  35.824  35.536  1.00  0.00     0.041 A 
ATOM     75  F   UNL A   1      46.601  36.917  35.141  1.00  0.00    -0.206 F 
ATOM     76  C   UNL A   1      49.350  34.655  35.775  1.00  0.00     0.022 A 
BRANCH  73  77
ATOM     77  S   UNL A   1      49.533  31.913  36.250  1.00  0.00     0.124 S 
ATOM     78  O   UNL A   1      49.020  30.941  35.288  1.00  0.00    -0.237 OA
ATOM     79  O   UNL A   1      50.938  32.273  36.106  1.00  0.00    -0.237 OA
ATOM     80  O   UNL A   1      49.075  31.720  37.625  1.00  0.00    -0.744 OA
ENDBRANCH  73  77
ENDBRANCH  56  70
BRANCH  57  81
ATOM     81  C   UNL A   1      36.786  34.083  33.101  1.00  0.00     0.023 A 
ATOM     82  C   UNL A   1      35.975  35.218  32.942  1.00  0.00     0.031 A 
ATOM     83  C   UNL A   1      36.168  32.821  33.044  1.00  0.00     0.131 A 
ATOM     84  C   UNL A   1      34.588  35.071  32.782  1.00  0.00     0.055 A 
ATOM     85  C   UNL A   1      34.795  32.678  32.829  1.00  0.00     0.041 A 
ATOM     86  F   UNL A   1      36.894  31.701  33.193  1.00  0.00    -0.206 F 
ATOM     87  C   UNL A   1      33.994  33.810  32.710  1.00  0.00     0.022 A 
BRANCH  84  88
ATOM     88  S   UNL A   1      33.554  36.562  32.759  1.00  0.00     0.124 S 
ATOM     89  O   UNL A   1      34.016  37.224  31.545  1.00  0.00    -0.237 OA
ATOM     90  O   UNL A   1      32.209  35.996  32.710  1.00  0.00    -0.237 OA
ATOM     91  O   UNL A   1      33.900  37.235  34.009  1.00  0.00    -0.744 OA
ENDBRANCH  84  88
ENDBRANCH  57  81
BRANCH  69  92
ATOM     92  C   UNL A   1      40.434  34.772  39.020  1.00  0.00     0.023 A 
ATOM     93  C   UNL A   1      40.376  36.040  39.623  1.00  0.00     0.031 A 
ATOM     94  C   UNL A   1      40.062  33.655  39.791  1.00  0.00     0.131 A 
ATOM     95  C   UNL A   1      39.993  36.155  40.970  1.00  0.00     0.055 A 
ATOM     96  C   UNL A   1      39.629  33.780  41.110  1.00  0.00     0.041 A 
ATOM     97  F   UNL A   1      40.099  32.419  39.263  1.00  0.00    -0.206 F 
ATOM     98  C   UNL A   1      39.602  35.035  41.711  1.00  0.00     0.022 A 
BRANCH  95  99
ATOM     99  S   UNL A   1      40.077  37.782  41.767  1.00  0.00     0.124 S 
ATOM    100  O   UNL A   1      39.137  38.560  40.969  1.00  0.00    -0.237 OA
ATOM    101  O   UNL A   1      39.658  37.482  43.133  1.00  0.00    -0.237 OA
ATOM    102  O   UNL A   1      41.480  38.164  41.622  1.00  0.00    -0.744 OA
ENDBRANCH  95  99
ENDBRANCH  69  92
ENDBRANCH  43  44
ENDBRANCH  36  38
ENDBRANCH  35  36
ENDBRANCH  34  35
ENDBRANCH  33  34
ENDBRANCH  32  33
ENDBRANCH  31  32
ENDBRANCH  30  31
ENDBRANCH  29  30
ENDBRANCH   1  29
TORSDOF 30
ENDMDL
MODEL 3
REMARK VINA RESULT:      -5.7      5.417     10.906
REMARK SMILES CN(CCc1cccs1)C(=O)N[C@H](CC(N)=O)C(=O)OCCOCCOCCOCCOC(=O)c1ccc(-c2c3nc(c(-c4cc(S(=O)(=O)[O-])ccc4F)c4ccc([nH]4)c(-c4cc(S(=O)(=O)[O-])ccc4F)c4nc(c(-c5cc(S(=O)(=O)[O-])ccc5F)c5ccc2[nH]5)C=C4)C=C3)cc1
REMARK SMILES IDX 25 1 24 2 23 3 22 4 21 5 20 6 18 7 19 8 13 9 12 10 10 11
REMARK SMILES IDX 11 12 2 14 1 15 3 16 4 17 5 18 6 19 9 20 7 21 8 22 14 23
REMARK SMILES IDX 15 24 16 25 17 26 26 29 27 30 28 31 29 32 30 33 31 34 32 35
REMARK SMILES IDX 33 36 34 37 35 38 36 39 97 40 37 41 96 42 38 43 39 44 40 45
REMARK SMILES IDX 90 46 41 47 95 48 89 49 91 50 42 51 94 52 88 53 87 54 43 56
REMARK SMILES IDX 75 57 55 58 74 59 56 60 59 61 73 62 92 63 57 64 58 65 72 67
REMARK SMILES IDX 93 68 60 69 44 70 45 71 53 72 46 73 52 74 54 75 51 76 47 77
REMARK SMILES IDX 48 78 49 79 50 80 76 81 77 82 85 83 78 84 84 85 86 86 83 87
REMARK SMILES IDX 79 88 80 89 81 90 82 91 61 92 62 93 70 94 63 95 69 96 71 97
REMARK SMILES IDX 68 98 64 99 65 100 66 101 67 102
REMARK H PARENT 12 13 16 27 16 28 91 55 59 66
REMARK Flexibility Score: inf
ROOT
ATOM      1  C   UNL A   1      37.337  29.066  28.497  1.00  0.00     0.188 C 
ENDROOT
BRANCH   1   2
ATOM      2  C   UNL A   1      38.860  28.968  28.355  1.00  0.00     0.188 C 
BRANCH   2   3
ATOM      3  O   UNL A   1      39.538  28.656  29.567  1.00  0.00    -0.376 OA
BRANCH   3   4
ATOM      4  C   UNL A   1      40.770  29.356  29.734  1.00  0.00     0.202 C 
BRANCH   4   5
ATOM      5  C   UNL A   1      41.850  29.083  28.668  1.00  0.00     0.261 C 
BRANCH   5   6
ATOM      6  O   UNL A   1      43.155  28.865  29.235  1.00  0.00    -0.462 OA
BRANCH   6   7
ATOM      7  C   UNL A   1      43.620  27.599  29.338  1.00  0.00     0.329 C 
ATOM      8  O   UNL A   1      44.283  27.182  30.283  1.00  0.00    -0.250 OA
BRANCH   7   9
ATOM      9  C   UNL A   1      43.158  26.722  28.147  1.00  0.00     0.203 C 
BRANCH   9  10
ATOM     10  N   UNL A   1      42.960  25.384  28.742  1.00  0.00    -0.324 N 
ATOM     11  C   UNL A   1      42.297  24.254  28.479  1.00  0.00     0.317 C 
ATOM     12  O   UNL A   1      42.622  23.286  29.177  1.00  0.00    -0.249 OA
ATOM     13  H   UNL A   1      43.468  25.300  29.582  1.00  0.00     0.166 HD
BRANCH  11  14
ATOM     14  N   UNL A   1      41.310  24.145  27.542  1.00  0.00    -0.328 N 
ATOM     15  C   UNL A   1      39.956  24.395  28.019  1.00  0.00     0.148 C 
BRANCH  14  16
ATOM     16  C   UNL A   1      41.455  24.102  26.083  1.00  0.00     0.126 C 
BRANCH  16  17
ATOM     17  C   UNL A   1      42.497  23.101  25.555  1.00  0.00     0.068 C 
BRANCH  17  18
ATOM     18  C   UNL A   1      42.163  21.663  25.843  1.00  0.00     0.006 A 
ATOM     19  C   UNL A   1      40.925  21.102  26.094  1.00  0.00     0.015 A 
ATOM     20  S   UNL A   1      43.400  20.484  25.935  1.00  0.00    -0.149 S 
ATOM     21  C   UNL A   1      40.981  19.685  26.211  1.00  0.00     0.012 A 
ATOM     22  C   UNL A   1      42.270  19.214  26.125  1.00  0.00     0.065 A 
ENDBRANCH  17  18
ENDBRANCH  16  17
ENDBRANCH  14  16
ENDBRANCH  11  14
ENDBRANCH   9  10
BRANCH   9  23
ATOM     23  C   UNL A   1      44.218  26.681  27.038  1.00  0.00     0.136 C 
BRANCH  23  24
ATOM     24  C   UNL A   1      43.785  27.341  25.740  1.00  0.00     0.220 C 
ATOM     25  N   UNL A   1      44.789  27.583  24.849  1.00  0.00    -0.370 N 
ATOM     26  O   UNL A   1      42.623  27.579  25.428  1.00  0.00    -0.275 OA
ATOM     27  H   UNL A   1      45.723  27.394  25.096  1.00  0.00     0.159 HD
ATOM     28  H   UNL A   1      44.579  27.947  23.959  1.00  0.00     0.159 HD
ENDBRANCH  23  24
ENDBRANCH   9  23
ENDBRANCH   7   9
ENDBRANCH   6   7
ENDBRANCH   5   6
ENDBRANCH   4   5
ENDBRANCH   3   4
ENDBRANCH   2   3
ENDBRANCH   1   2
BRANCH   1  29
ATOM     29  O   UNL A   1      36.778  30.355  28.713  1.00  0.00    -0.377 OA
BRANCH  29  30
ATOM     30  C   UNL A   1      35.381  30.546  28.499  1.00  0.00     0.188 C 
BRANCH  30  31
ATOM     31  C   UNL A   1      34.862  31.966  28.214  1.00  0.00     0.188 C 
BRANCH  31  32
ATOM     32  O   UNL A   1      34.784  32.802  29.357  1.00  0.00    -0.376 OA
BRANCH  32  33
ATOM     33  C   UNL A   1      35.853  33.711  29.574  1.00  0.00     0.202 C 
BRANCH  33  34
ATOM     34  C   UNL A   1      35.991  34.275  30.995  1.00  0.00     0.261 C 
BRANCH  34  35
ATOM     35  O   UNL A   1      37.244  34.906  31.319  1.00  0.00    -0.460 OA
BRANCH  35  36
ATOM     36  C   UNL A   1      38.193  34.174  31.944  1.00  0.00     0.338 C 
ATOM     37  O   UNL A   1      38.063  33.489  32.941  1.00  0.00    -0.246 OA
BRANCH  36  38
ATOM     38  C   UNL A   1      39.403  34.207  31.099  1.00  0.00     0.060 A 
ATOM     39  C   UNL A   1      40.596  33.650  31.579  1.00  0.00     0.016 A 
ATOM     40  C   UNL A   1      39.353  34.798  29.835  1.00  0.00     0.016 A 
ATOM     41  C   UNL A   1      41.757  33.715  30.805  1.00  0.00     0.010 A 
ATOM     42  C   UNL A   1      40.519  34.880  29.072  1.00  0.00     0.010 A 
ATOM     43  C   UNL A   1      41.733  34.369  29.566  1.00  0.00    -0.014 A 
BRANCH  43  44
ATOM     44  C   UNL A   1      42.999  34.740  28.886  1.00  0.00     0.031 A 
ATOM     45  C   UNL A   1      44.061  33.681  28.765  1.00  0.00     0.074 A 
ATOM     46  C   UNL A   1      43.216  35.978  28.411  1.00  0.00     0.049 A 
ATOM     47  N   UNL A   1      45.298  33.784  28.357  1.00  0.00    -0.248 NA
ATOM     48  C   UNL A   1      43.669  32.322  29.172  1.00  0.00     0.031 C 
ATOM     49  C   UNL A   1      42.242  37.068  28.410  1.00  0.00     0.029 A 
ATOM     50  N   UNL A   1      44.342  36.532  27.853  1.00  0.00    -0.354 N 
ATOM     51  C   UNL A   1      45.838  32.507  28.469  1.00  0.00     0.074 A 
ATOM     52  C   UNL A   1      44.801  31.656  29.013  1.00  0.00     0.031 C 
ATOM     53  C   UNL A   1      42.822  38.168  27.896  1.00  0.00     0.029 A 
ATOM     54  C   UNL A   1      44.219  37.875  27.580  1.00  0.00     0.049 A 
ATOM     55  H   UNL A   1      45.159  36.017  27.666  1.00  0.00     0.167 HD
ATOM     56  C   UNL A   1      47.085  32.083  28.149  1.00  0.00     0.034 A 
ATOM     57  C   UNL A   1      45.141  38.768  27.160  1.00  0.00     0.034 A 
ATOM     58  C   UNL A   1      48.112  32.948  27.628  1.00  0.00     0.049 A 
ATOM     59  C   UNL A   1      46.557  38.298  26.908  1.00  0.00     0.074 A 
ATOM     60  C   UNL A   1      49.412  32.629  27.276  1.00  0.00     0.029 A 
ATOM     61  N   UNL A   1      47.961  34.309  27.396  1.00  0.00    -0.354 N 
ATOM     62  N   UNL A   1      47.064  37.092  27.033  1.00  0.00    -0.248 NA
ATOM     63  C   UNL A   1      47.524  39.308  26.455  1.00  0.00     0.031 C 
ATOM     64  C   UNL A   1      50.066  33.808  26.901  1.00  0.00     0.029 A 
ATOM     65  C   UNL A   1      49.151  34.848  26.935  1.00  0.00     0.049 A 
ATOM     66  H   UNL A   1      47.129  34.817  27.539  1.00  0.00     0.167 HD
ATOM     67  C   UNL A   1      48.396  37.194  26.633  1.00  0.00     0.074 A 
ATOM     68  C   UNL A   1      48.613  38.577  26.264  1.00  0.00     0.031 C 
ATOM     69  C   UNL A   1      49.350  36.230  26.564  1.00  0.00     0.034 A 
BRANCH  56  70
ATOM     70  C   UNL A   1      47.412  30.634  28.419  1.00  0.00     0.023 A 
ATOM     71  C   UNL A   1      47.981  30.218  29.635  1.00  0.00     0.031 A 
ATOM     72  C   UNL A   1      47.191  29.662  27.428  1.00  0.00     0.131 A 
ATOM     73  C   UNL A   1      48.380  28.883  29.800  1.00  0.00     0.055 A 
ATOM     74  C   UNL A   1      47.512  28.319  27.630  1.00  0.00     0.041 A 
ATOM     75  F   UNL A   1      46.676  30.005  26.236  1.00  0.00    -0.206 F 
ATOM     76  C   UNL A   1      48.124  27.925  28.815  1.00  0.00     0.022 A 
BRANCH  73  77
ATOM     77  S   UNL A   1      49.372  28.448  31.254  1.00  0.00     0.124 S 
ATOM     78  O   UNL A   1      48.432  27.631  32.018  1.00  0.00    -0.237 OA
ATOM     79  O   UNL A   1      50.502  27.740  30.665  1.00  0.00    -0.237 OA
ATOM     80  O   UNL A   1      49.689  29.744  31.853  1.00  0.00    -0.744 OA
ENDBRANCH  73  77
ENDBRANCH  56  70
BRANCH  57  81
ATOM     81  C   UNL A   1      44.785  40.208  27.001  1.00  0.00     0.023 A 
ATOM     82  C   UNL A   1      44.347  40.718  25.768  1.00  0.00     0.031 A 
ATOM     83  C   UNL A   1      44.941  41.113  28.067  1.00  0.00     0.131 A 
ATOM     84  C   UNL A   1      44.125  42.096  25.618  1.00  0.00     0.055 A 
ATOM     85  C   UNL A   1      44.666  42.475  27.928  1.00  0.00     0.041 A 
ATOM     86  F   UNL A   1      45.362  40.683  29.267  1.00  0.00    -0.206 F 
ATOM     87  C   UNL A   1      44.268  42.976  26.692  1.00  0.00     0.022 A 
BRANCH  84  88
ATOM     88  S   UNL A   1      43.732  42.737  23.967  1.00  0.00     0.124 S 
ATOM     89  O   UNL A   1      44.911  42.339  23.207  1.00  0.00    -0.237 OA
ATOM     90  O   UNL A   1      42.496  42.028  23.653  1.00  0.00    -0.237 OA
ATOM     91  O   UNL A   1      43.585  44.175  24.186  1.00  0.00    -0.744 OA
ENDBRANCH  84  88
ENDBRANCH  57  81
BRANCH  69  92
ATOM     92  C   UNL A   1      50.694  36.618  25.998  1.00  0.00     0.023 A 
ATOM     93  C   UNL A   1      51.728  37.128  26.802  1.00  0.00     0.031 A 
ATOM     94  C   UNL A   1      50.949  36.444  24.625  1.00  0.00     0.131 A 
ATOM     95  C   UNL A   1      52.954  37.485  26.219  1.00  0.00     0.055 A 
ATOM     96  C   UNL A   1      52.187  36.746  24.060  1.00  0.00     0.041 A 
ATOM     97  F   UNL A   1      49.996  35.959  23.810  1.00  0.00    -0.206 F 
ATOM     98  C   UNL A   1      53.196  37.280  24.856  1.00  0.00     0.022 A 
BRANCH  95  99
ATOM     99  S   UNL A   1      54.214  38.285  27.249  1.00  0.00     0.124 S 
ATOM    100  O   UNL A   1      55.444  37.954  26.539  1.00  0.00    -0.237 OA
ATOM    101  O   UNL A   1      53.809  39.687  27.204  1.00  0.00    -0.237 OA
ATOM    102  O   UNL A   1      54.055  37.638  28.551  1.00  0.00    -0.744 OA
ENDBRANCH  95  99
ENDBRANCH  69  92
ENDBRANCH  43  44
ENDBRANCH  36  38
ENDBRANCH  35  36
ENDBRANCH  34  35
ENDBRANCH  33  34
ENDBRANCH  32  33
ENDBRANCH  31  32
ENDBRANCH  30  31
ENDBRANCH  29  30
ENDBRANCH   1  29
TORSDOF 30
ENDMDL
