MODEL 1
REMARK VINA RESULT:      -9.1      0.000      0.000
REMARK SMILES O=C(OCCOCCOCCOCCOC(=O)C1CCN(C(=O)COc2ccc(Cl)cc2Cl)CC1)c1ccc(-c2c3nc(c(-c4cc(S(=O)(=O)[O-])ccc4F)c4ccc([nH]4)c(-c4cc(S(=O)(=O)[O-])ccc4F)c4nc(c(-c5cc(S(=O)(=O)[O-])ccc5F)c5ccc2[nH]5)C=C4)C=C3)cc1
REMARK SMILES IDX 9 1 8 2 7 3 6 4 5 5 4 6 3 7 2 8 1 9 36 10 37 11 98 12 38 13
REMARK SMILES IDX 97 14 39 15 40 16 41 17 91 18 42 19 96 20 90 21 92 22 43 23
REMARK SMILES IDX 95 24 89 25 88 26 44 28 76 29 56 30 75 31 57 32 60 33 74 34
REMARK SMILES IDX 93 35 58 36 59 37 73 39 94 40 61 41 45 42 46 43 54 44 47 45
REMARK SMILES IDX 53 46 55 47 52 48 48 49 49 50 50 51 51 52 77 53 78 54 86 55
REMARK SMILES IDX 79 56 85 57 87 58 84 59 80 60 81 61 82 62 83 63 62 64 63 65
REMARK SMILES IDX 71 66 64 67 70 68 72 69 69 70 65 71 66 72 67 73 68 74 10 75
REMARK SMILES IDX 11 76 12 77 13 78 14 79 15 80 16 81 17 82 18 83 19 84 35 85
REMARK SMILES IDX 20 86 34 87 21 88 22 89 23 90 24 91 25 92 26 93 27 94 32 95
REMARK SMILES IDX 28 96 31 97 33 98 29 99 30 100
REMARK H PARENT 92 27 60 38
REMARK Flexibility Score: inf
ROOT
ATOM      1  O   UNL A   1      34.124  29.207  26.205  1.00  0.00    -0.377 OA
ENDROOT
BRANCH   1   2
ATOM      2  C   UNL A   1      34.455  29.825  27.450  1.00  0.00     0.188 C 
BRANCH   2   3
ATOM      3  C   UNL A   1      33.889  31.236  27.634  1.00  0.00     0.188 C 
BRANCH   3   4
ATOM      4  O   UNL A   1      34.860  32.211  27.273  1.00  0.00    -0.376 OA
BRANCH   4   5
ATOM      5  C   UNL A   1      35.082  33.240  28.230  1.00  0.00     0.202 C 
BRANCH   5   6
ATOM      6  C   UNL A   1      33.788  33.661  28.923  1.00  0.00     0.261 C 
BRANCH   6   7
ATOM      7  O   UNL A   1      34.081  34.382  30.131  1.00  0.00    -0.460 OA
BRANCH   7   8
ATOM      8  C   UNL A   1      34.570  33.909  31.301  1.00  0.00     0.338 C 
ATOM      9  O   UNL A   1      33.872  34.047  32.308  1.00  0.00    -0.246 OA
BRANCH   8  10
ATOM     10  C   UNL A   1      35.879  33.193  31.463  1.00  0.00     0.060 A 
ATOM     11  C   UNL A   1      37.135  33.651  31.053  1.00  0.00     0.016 A 
ATOM     12  C   UNL A   1      35.832  31.980  32.176  1.00  0.00     0.016 A 
ATOM     13  C   UNL A   1      38.300  32.926  31.311  1.00  0.00     0.010 A 
ATOM     14  C   UNL A   1      36.994  31.251  32.449  1.00  0.00     0.010 A 
ATOM     15  C   UNL A   1      38.234  31.718  32.003  1.00  0.00    -0.014 A 
BRANCH  15  16
ATOM     16  C   UNL A   1      39.448  30.889  32.140  1.00  0.00     0.031 A 
ATOM     17  C   UNL A   1      40.364  31.170  33.293  1.00  0.00     0.074 A 
ATOM     18  C   UNL A   1      39.690  29.887  31.275  1.00  0.00     0.049 A 
ATOM     19  N   UNL A   1      41.533  30.658  33.568  1.00  0.00    -0.248 NA
ATOM     20  C   UNL A   1      39.890  32.158  34.278  1.00  0.00     0.031 C 
ATOM     21  C   UNL A   1      38.798  29.478  30.188  1.00  0.00     0.029 A 
ATOM     22  N   UNL A   1      40.757  29.031  31.170  1.00  0.00    -0.354 N 
ATOM     23  C   UNL A   1      41.947  31.278  34.742  1.00  0.00     0.074 A 
ATOM     24  C   UNL A   1      40.902  32.201  35.130  1.00  0.00     0.031 C 
ATOM     25  C   UNL A   1      39.365  28.461  29.517  1.00  0.00     0.029 A 
ATOM     26  C   UNL A   1      40.683  28.189  30.083  1.00  0.00     0.049 A 
ATOM     27  H   UNL A   1      41.504  29.020  31.811  1.00  0.00     0.167 HD
ATOM     28  C   UNL A   1      43.104  31.098  35.421  1.00  0.00     0.034 A 
ATOM     29  C   UNL A   1      41.604  27.339  29.582  1.00  0.00     0.034 A 
ATOM     30  C   UNL A   1      44.131  30.184  34.992  1.00  0.00     0.049 A 
ATOM     31  C   UNL A   1      42.934  27.241  30.298  1.00  0.00     0.074 A 
ATOM     32  C   UNL A   1      45.359  29.927  35.574  1.00  0.00     0.029 A 
ATOM     33  N   UNL A   1      44.052  29.388  33.855  1.00  0.00    -0.354 N 
ATOM     34  N   UNL A   1      43.326  27.844  31.400  1.00  0.00    -0.248 NA
ATOM     35  C   UNL A   1      43.950  26.365  29.700  1.00  0.00     0.031 C 
ATOM     36  C   UNL A   1      46.047  29.027  34.753  1.00  0.00     0.029 A 
ATOM     37  C   UNL A   1      45.224  28.672  33.693  1.00  0.00     0.049 A 
ATOM     38  H   UNL A   1      43.275  29.342  33.252  1.00  0.00     0.167 HD
ATOM     39  C   UNL A   1      44.628  27.408  31.630  1.00  0.00     0.074 A 
ATOM     40  C   UNL A   1      44.942  26.470  30.570  1.00  0.00     0.031 C 
ATOM     41  C   UNL A   1      45.498  27.754  32.615  1.00  0.00     0.034 A 
BRANCH  28  42
ATOM     42  C   UNL A   1      43.345  31.975  36.620  1.00  0.00     0.023 A 
ATOM     43  C   UNL A   1      42.661  31.788  37.834  1.00  0.00     0.031 A 
ATOM     44  C   UNL A   1      44.242  33.055  36.526  1.00  0.00     0.131 A 
ATOM     45  C   UNL A   1      42.844  32.700  38.885  1.00  0.00     0.055 A 
ATOM     46  C   UNL A   1      44.468  33.921  37.597  1.00  0.00     0.041 A 
ATOM     47  F   UNL A   1      44.897  33.298  35.381  1.00  0.00    -0.206 F 
ATOM     48  C   UNL A   1      43.759  33.752  38.783  1.00  0.00     0.022 A 
BRANCH  45  49
ATOM     49  S   UNL A   1      41.785  32.566  40.353  1.00  0.00     0.124 S 
ATOM     50  O   UNL A   1      42.366  31.412  41.032  1.00  0.00    -0.237 OA
ATOM     51  O   UNL A   1      41.982  33.857  41.005  1.00  0.00    -0.237 OA
ATOM     52  O   UNL A   1      40.451  32.347  39.796  1.00  0.00    -0.744 OA
ENDBRANCH  45  49
ENDBRANCH  28  42
BRANCH  29  53
ATOM     53  C   UNL A   1      41.365  26.597  28.306  1.00  0.00     0.023 A 
ATOM     54  C   UNL A   1      41.091  25.219  28.296  1.00  0.00     0.031 A 
ATOM     55  C   UNL A   1      41.504  27.240  27.061  1.00  0.00     0.131 A 
ATOM     56  C   UNL A   1      41.022  24.522  27.077  1.00  0.00     0.055 A 
ATOM     57  C   UNL A   1      41.370  26.556  25.849  1.00  0.00     0.041 A 
ATOM     58  F   UNL A   1      41.784  28.552  26.999  1.00  0.00    -0.206 F 
ATOM     59  C   UNL A   1      41.145  25.185  25.854  1.00  0.00     0.022 A 
BRANCH  56  60
ATOM     60  S   UNL A   1      40.903  22.711  27.111  1.00  0.00     0.124 S 
ATOM     61  O   UNL A   1      41.787  22.333  26.013  1.00  0.00    -0.237 OA
ATOM     62  O   UNL A   1      41.381  22.402  28.454  1.00  0.00    -0.237 OA
ATOM     63  O   UNL A   1      39.481  22.458  26.883  1.00  0.00    -0.744 OA
ENDBRANCH  56  60
ENDBRANCH  29  53
BRANCH  41  64
ATOM     64  C   UNL A   1      46.851  27.093  32.584  1.00  0.00     0.023 A 
ATOM     65  C   UNL A   1      47.930  27.672  31.896  1.00  0.00     0.031 A 
ATOM     66  C   UNL A   1      47.063  25.879  33.259  1.00  0.00     0.131 A 
ATOM     67  C   UNL A   1      49.164  27.012  31.858  1.00  0.00     0.055 A 
ATOM     68  C   UNL A   1      48.310  25.254  33.265  1.00  0.00     0.041 A 
ATOM     69  F   UNL A   1      46.062  25.287  33.932  1.00  0.00    -0.206 F 
ATOM     70  C   UNL A   1      49.366  25.816  32.554  1.00  0.00     0.022 A 
BRANCH  67  71
ATOM     71  S   UNL A   1      50.490  27.704  30.833  1.00  0.00     0.124 S 
ATOM     72  O   UNL A   1      51.633  27.651  31.740  1.00  0.00    -0.237 OA
ATOM     73  O   UNL A   1      50.529  26.781  29.704  1.00  0.00    -0.237 OA
ATOM     74  O   UNL A   1      50.011  29.048  30.516  1.00  0.00    -0.744 OA
ENDBRANCH  67  71
ENDBRANCH  41  64
ENDBRANCH  15  16
ENDBRANCH   8  10
ENDBRANCH   7   8
ENDBRANCH   6   7
ENDBRANCH   5   6
ENDBRANCH   4   5
ENDBRANCH   3   4
ENDBRANCH   2   3
ENDBRANCH   1   2
BRANCH   1  75
ATOM     75  C   UNL A   1      33.136  28.173  26.311  1.00  0.00     0.188 C 
BRANCH  75  76
ATOM     76  C   UNL A   1      31.736  28.702  26.003  1.00  0.00     0.188 C 
BRANCH  76  77
ATOM     77  O   UNL A   1      31.684  29.663  24.952  1.00  0.00    -0.376 OA
BRANCH  77  78
ATOM     78  C   UNL A   1      30.482  29.730  24.187  1.00  0.00     0.202 C 
BRANCH  78  79
ATOM     79  C   UNL A   1      30.651  29.710  22.662  1.00  0.00     0.261 C 
BRANCH  79  80
ATOM     80  O   UNL A   1      30.416  28.408  22.069  1.00  0.00    -0.463 OA
BRANCH  80  81
ATOM     81  C   UNL A   1      31.299  27.430  22.387  1.00  0.00     0.309 C 
ATOM     82  O   UNL A   1      32.517  27.555  22.308  1.00  0.00    -0.252 OA
BRANCH  81  83
ATOM     83  C   UNL A   1      30.674  26.097  22.803  1.00  0.00     0.103 C 
ATOM     84  C   UNL A   1      29.641  26.057  23.934  1.00  0.00     0.037 C 
ATOM     85  C   UNL A   1      31.742  24.999  22.930  1.00  0.00     0.037 C 
ATOM     86  C   UNL A   1      30.098  25.540  25.297  1.00  0.00     0.120 C 
ATOM     87  C   UNL A   1      32.247  24.783  24.350  1.00  0.00     0.120 C 
ATOM     88  N   UNL A   1      31.152  24.540  25.278  1.00  0.00    -0.340 N 
ATOM     89  C   UNL A   1      31.231  23.682  26.372  1.00  0.00     0.260 C 
ATOM     90  O   UNL A   1      30.441  23.763  27.320  1.00  0.00    -0.271 OA
BRANCH  89  91
ATOM     91  C   UNL A   1      32.292  22.565  26.395  1.00  0.00     0.329 C 
BRANCH  91  92
ATOM     92  O   UNL A   1      32.647  21.835  25.240  1.00  0.00    -0.482 OA
BRANCH  92  93
ATOM     93  C   UNL A   1      33.928  21.408  25.035  1.00  0.00     0.138 A 
ATOM     94  C   UNL A   1      35.047  22.235  24.905  1.00  0.00     0.049 A 
ATOM     95  C   UNL A   1      34.123  20.015  25.024  1.00  0.00     0.084 A 
ATOM     96  C   UNL A   1      36.333  21.688  24.851  1.00  0.00     0.024 A 
ATOM     97  C   UNL A   1      35.405  19.466  24.941  1.00  0.00     0.045 A 
ATOM     98  Cl  UNL A   1      32.785  18.920  25.104  1.00  0.00    -0.080 Cl
ATOM     99  C   UNL A   1      36.506  20.309  24.878  1.00  0.00     0.042 A 
ATOM    100  Cl  UNL A   1      38.093  19.648  24.835  1.00  0.00    -0.084 Cl
ENDBRANCH  92  93
ENDBRANCH  91  92
ENDBRANCH  89  91
ENDBRANCH  81  83
ENDBRANCH  80  81
ENDBRANCH  79  80
ENDBRANCH  78  79
ENDBRANCH  77  78
ENDBRANCH  76  77
ENDBRANCH  75  76
ENDBRANCH   1  75
TORSDOF 26
ENDMDL
MODEL 2
REMARK VINA RESULT:      -8.7      1.808      2.077
REMARK SMILES O=C(OCCOCCOCCOCCOC(=O)C1CCN(C(=O)COc2ccc(Cl)cc2Cl)CC1)c1ccc(-c2c3nc(c(-c4cc(S(=O)(=O)[O-])ccc4F)c4ccc([nH]4)c(-c4cc(S(=O)(=O)[O-])ccc4F)c4nc(c(-c5cc(S(=O)(=O)[O-])ccc5F)c5ccc2[nH]5)C=C4)C=C3)cc1
REMARK SMILES IDX 9 1 8 2 7 3 6 4 5 5 4 6 3 7 2 8 1 9 36 10 37 11 98 12 38 13
REMARK SMILES IDX 97 14 39 15 40 16 41 17 91 18 42 19 96 20 90 21 92 22 43 23
REMARK SMILES IDX 95 24 89 25 88 26 44 28 76 29 56 30 75 31 57 32 60 33 74 34
REMARK SMILES IDX 93 35 58 36 59 37 73 39 94 40 61 41 45 42 46 43 54 44 47 45
REMARK SMILES IDX 53 46 55 47 52 48 48 49 49 50 50 51 51 52 77 53 78 54 86 55
REMARK SMILES IDX 79 56 85 57 87 58 84 59 80 60 81 61 82 62 83 63 62 64 63 65
REMARK SMILES IDX 71 66 64 67 70 68 72 69 69 70 65 71 66 72 67 73 68 74 10 75
REMARK SMILES IDX 11 76 12 77 13 78 14 79 15 80 16 81 17 82 18 83 19 84 35 85
REMARK SMILES IDX 20 86 34 87 21 88 22 89 23 90 24 91 25 92 26 93 27 94 32 95
REMARK SMILES IDX 28 96 31 97 33 98 29 99 30 100
REMARK H PARENT 92 27 60 38
REMARK Flexibility Score: inf
ROOT
ATOM      1  O   UNL A   1      34.153  28.884  26.075  1.00  0.00    -0.377 OA
ENDROOT
BRANCH   1   2
ATOM      2  C   UNL A   1      34.448  29.586  27.284  1.00  0.00     0.188 C 
BRANCH   2   3
ATOM      3  C   UNL A   1      33.887  31.010  27.350  1.00  0.00     0.188 C 
BRANCH   3   4
ATOM      4  O   UNL A   1      34.942  31.962  27.299  1.00  0.00    -0.376 OA
BRANCH   4   5
ATOM      5  C   UNL A   1      35.149  32.712  28.490  1.00  0.00     0.202 C 
BRANCH   5   6
ATOM      6  C   UNL A   1      33.847  32.935  29.256  1.00  0.00     0.261 C 
BRANCH   6   7
ATOM      7  O   UNL A   1      34.092  33.709  30.442  1.00  0.00    -0.460 OA
BRANCH   7   8
ATOM      8  C   UNL A   1      34.700  33.328  31.590  1.00  0.00     0.338 C 
ATOM      9  O   UNL A   1      34.084  33.496  32.644  1.00  0.00    -0.246 OA
BRANCH   8  10
ATOM     10  C   UNL A   1      36.051  32.680  31.677  1.00  0.00     0.060 A 
ATOM     11  C   UNL A   1      37.272  33.247  31.300  1.00  0.00     0.016 A 
ATOM     12  C   UNL A   1      36.084  31.407  32.278  1.00  0.00     0.016 A 
ATOM     13  C   UNL A   1      38.481  32.571  31.482  1.00  0.00     0.010 A 
ATOM     14  C   UNL A   1      37.290  30.727  32.475  1.00  0.00     0.010 A 
ATOM     15  C   UNL A   1      38.494  31.305  32.064  1.00  0.00    -0.014 A 
BRANCH  15  16
ATOM     16  C   UNL A   1      39.757  30.541  32.116  1.00  0.00     0.031 A 
ATOM     17  C   UNL A   1      40.740  30.881  33.196  1.00  0.00     0.074 A 
ATOM     18  C   UNL A   1      39.986  29.542  31.243  1.00  0.00     0.049 A 
ATOM     19  N   UNL A   1      41.951  30.433  33.387  1.00  0.00    -0.248 NA
ATOM     20  C   UNL A   1      40.289  31.855  34.205  1.00  0.00     0.031 C 
ATOM     21  C   UNL A   1      39.039  29.076  30.229  1.00  0.00     0.029 A 
ATOM     22  N   UNL A   1      41.085  28.741  31.066  1.00  0.00    -0.354 N 
ATOM     23  C   UNL A   1      42.418  31.087  34.522  1.00  0.00     0.074 A 
ATOM     24  C   UNL A   1      41.358  31.959  34.979  1.00  0.00     0.031 C 
ATOM     25  C   UNL A   1      39.606  28.082  29.525  1.00  0.00     0.029 A 
ATOM     26  C   UNL A   1      40.975  27.884  29.993  1.00  0.00     0.049 A 
ATOM     27  H   UNL A   1      41.877  28.775  31.650  1.00  0.00     0.167 HD
ATOM     28  C   UNL A   1      43.630  30.973  35.114  1.00  0.00     0.034 A 
ATOM     29  C   UNL A   1      41.899  27.076  29.432  1.00  0.00     0.034 A 
ATOM     30  C   UNL A   1      44.668  30.109  34.617  1.00  0.00     0.049 A 
ATOM     31  C   UNL A   1      43.281  27.055  30.048  1.00  0.00     0.074 A 
ATOM     32  C   UNL A   1      45.947  29.921  35.108  1.00  0.00     0.029 A 
ATOM     33  N   UNL A   1      44.547  29.297  33.495  1.00  0.00    -0.354 N 
ATOM     34  N   UNL A   1      43.722  27.689  31.113  1.00  0.00    -0.248 NA
ATOM     35  C   UNL A   1      44.294  26.225  29.382  1.00  0.00     0.031 C 
ATOM     36  C   UNL A   1      46.618  29.049  34.245  1.00  0.00     0.029 A 
ATOM     37  C   UNL A   1      45.739  28.640  33.252  1.00  0.00     0.049 A 
ATOM     38  H   UNL A   1      43.730  29.204  32.952  1.00  0.00     0.167 HD
ATOM     39  C   UNL A   1      45.059  27.323  31.248  1.00  0.00     0.074 A 
ATOM     40  C   UNL A   1      45.342  26.390  30.176  1.00  0.00     0.031 C 
ATOM     41  C   UNL A   1      45.979  27.724  32.163  1.00  0.00     0.034 A 
BRANCH  28  42
ATOM     42  C   UNL A   1      43.913  31.876  36.286  1.00  0.00     0.023 A 
ATOM     43  C   UNL A   1      44.391  33.187  36.122  1.00  0.00     0.031 A 
ATOM     44  C   UNL A   1      43.748  31.390  37.596  1.00  0.00     0.131 A 
ATOM     45  C   UNL A   1      44.740  33.948  37.249  1.00  0.00     0.055 A 
ATOM     46  C   UNL A   1      44.035  32.174  38.714  1.00  0.00     0.041 A 
ATOM     47  F   UNL A   1      43.324  30.135  37.809  1.00  0.00    -0.206 F 
ATOM     48  C   UNL A   1      44.545  33.458  38.544  1.00  0.00     0.022 A 
BRANCH  45  49
ATOM     49  S   UNL A   1      45.564  35.546  37.004  1.00  0.00     0.124 S 
ATOM     50  O   UNL A   1      44.466  36.372  36.510  1.00  0.00    -0.237 OA
ATOM     51  O   UNL A   1      46.046  35.863  38.345  1.00  0.00    -0.237 OA
ATOM     52  O   UNL A   1      46.604  35.250  36.022  1.00  0.00    -0.744 OA
ENDBRANCH  45  49
ENDBRANCH  28  42
BRANCH  29  53
ATOM     53  C   UNL A   1      41.605  26.308  28.183  1.00  0.00     0.023 A 
ATOM     54  C   UNL A   1      41.334  24.930  28.213  1.00  0.00     0.031 A 
ATOM     55  C   UNL A   1      41.688  26.927  26.920  1.00  0.00     0.131 A 
ATOM     56  C   UNL A   1      41.212  24.209  27.012  1.00  0.00     0.055 A 
ATOM     57  C   UNL A   1      41.501  26.219  25.730  1.00  0.00     0.041 A 
ATOM     58  F   UNL A   1      41.962  28.238  26.820  1.00  0.00    -0.206 F 
ATOM     59  C   UNL A   1      41.279  24.848  25.772  1.00  0.00     0.022 A 
BRANCH  56  60
ATOM     60  S   UNL A   1      41.099  22.398  27.088  1.00  0.00     0.124 S 
ATOM     61  O   UNL A   1      41.607  22.124  28.427  1.00  0.00    -0.237 OA
ATOM     62  O   UNL A   1      39.672  22.177  26.885  1.00  0.00    -0.237 OA
ATOM     63  O   UNL A   1      41.959  21.958  25.991  1.00  0.00    -0.744 OA
ENDBRANCH  56  60
ENDBRANCH  29  53
BRANCH  41  64
ATOM     64  C   UNL A   1      47.359  27.133  32.037  1.00  0.00     0.023 A 
ATOM     65  C   UNL A   1      47.760  26.043  32.826  1.00  0.00     0.031 A 
ATOM     66  C   UNL A   1      48.275  27.661  31.112  1.00  0.00     0.131 A 
ATOM     67  C   UNL A   1      49.063  25.541  32.709  1.00  0.00     0.055 A 
ATOM     68  C   UNL A   1      49.552  27.122  30.959  1.00  0.00     0.041 A 
ATOM     69  F   UNL A   1      47.938  28.702  30.334  1.00  0.00    -0.206 F 
ATOM     70  C   UNL A   1      49.955  26.062  31.767  1.00  0.00     0.022 A 
BRANCH  67  71
ATOM     71  S   UNL A   1      49.599  24.239  33.849  1.00  0.00     0.124 S 
ATOM     72  O   UNL A   1      48.350  23.528  34.106  1.00  0.00    -0.237 OA
ATOM     73  O   UNL A   1      50.591  23.517  33.059  1.00  0.00    -0.237 OA
ATOM     74  O   UNL A   1      50.137  24.980  34.988  1.00  0.00    -0.744 OA
ENDBRANCH  67  71
ENDBRANCH  41  64
ENDBRANCH  15  16
ENDBRANCH   8  10
ENDBRANCH   7   8
ENDBRANCH   6   7
ENDBRANCH   5   6
ENDBRANCH   4   5
ENDBRANCH   3   4
ENDBRANCH   2   3
ENDBRANCH   1   2
BRANCH   1  75
ATOM     75  C   UNL A   1      33.190  27.832  26.232  1.00  0.00     0.188 C 
BRANCH  75  76
ATOM     76  C   UNL A   1      31.780  28.307  25.883  1.00  0.00     0.188 C 
BRANCH  76  77
ATOM     77  O   UNL A   1      31.728  29.338  24.901  1.00  0.00    -0.376 OA
BRANCH  77  78
ATOM     78  C   UNL A   1      30.577  29.382  24.060  1.00  0.00     0.202 C 
BRANCH  78  79
ATOM     79  C   UNL A   1      30.843  29.338  22.550  1.00  0.00     0.261 C 
BRANCH  79  80
ATOM     80  O   UNL A   1      30.680  28.020  21.969  1.00  0.00    -0.463 OA
BRANCH  80  81
ATOM     81  C   UNL A   1      31.573  27.076  22.351  1.00  0.00     0.309 C 
ATOM     82  O   UNL A   1      32.790  27.234  22.321  1.00  0.00    -0.252 OA
BRANCH  81  83
ATOM     83  C   UNL A   1      30.967  25.736  22.773  1.00  0.00     0.103 C 
ATOM     84  C   UNL A   1      29.767  25.706  23.726  1.00  0.00     0.037 C 
ATOM     85  C   UNL A   1      32.062  24.729  23.159  1.00  0.00     0.037 C 
ATOM     86  C   UNL A   1      30.026  25.325  25.183  1.00  0.00     0.120 C 
ATOM     87  C   UNL A   1      32.340  24.654  24.654  1.00  0.00     0.120 C 
ATOM     88  N   UNL A   1      31.124  24.403  25.415  1.00  0.00    -0.340 N 
ATOM     89  C   UNL A   1      31.074  23.636  26.575  1.00  0.00     0.260 C 
ATOM     90  O   UNL A   1      30.136  23.731  27.376  1.00  0.00    -0.271 OA
BRANCH  89  91
ATOM     91  C   UNL A   1      32.180  22.602  26.859  1.00  0.00     0.329 C 
BRANCH  91  92
ATOM     92  O   UNL A   1      32.474  21.545  25.970  1.00  0.00    -0.482 OA
BRANCH  92  93
ATOM     93  C   UNL A   1      33.760  21.243  25.626  1.00  0.00     0.138 A 
ATOM     94  C   UNL A   1      34.870  22.068  25.831  1.00  0.00     0.049 A 
ATOM     95  C   UNL A   1      33.972  19.963  25.082  1.00  0.00     0.084 A 
ATOM     96  C   UNL A   1      36.162  21.597  25.580  1.00  0.00     0.024 A 
ATOM     97  C   UNL A   1      35.261  19.501  24.803  1.00  0.00     0.045 A 
ATOM     98  Cl  UNL A   1      32.647  18.908  24.726  1.00  0.00    -0.080 Cl
ATOM     99  C   UNL A   1      36.352  20.315  25.076  1.00  0.00     0.042 A 
ATOM    100  Cl  UNL A   1      37.947  19.738  24.794  1.00  0.00    -0.084 Cl
ENDBRANCH  92  93
ENDBRANCH  91  92
ENDBRANCH  89  91
ENDBRANCH  81  83
ENDBRANCH  80  81
ENDBRANCH  79  80
ENDBRANCH  78  79
ENDBRANCH  77  78
ENDBRANCH  76  77
ENDBRANCH  75  76
ENDBRANCH   1  75
TORSDOF 26
ENDMDL
MODEL 3
REMARK VINA RESULT:      -8.6      2.356      7.702
REMARK SMILES O=C(OCCOCCOCCOCCOC(=O)C1CCN(C(=O)COc2ccc(Cl)cc2Cl)CC1)c1ccc(-c2c3nc(c(-c4cc(S(=O)(=O)[O-])ccc4F)c4ccc([nH]4)c(-c4cc(S(=O)(=O)[O-])ccc4F)c4nc(c(-c5cc(S(=O)(=O)[O-])ccc5F)c5ccc2[nH]5)C=C4)C=C3)cc1
REMARK SMILES IDX 9 1 8 2 7 3 6 4 5 5 4 6 3 7 2 8 1 9 36 10 37 11 98 12 38 13
REMARK SMILES IDX 97 14 39 15 40 16 41 17 91 18 42 19 96 20 90 21 92 22 43 23
REMARK SMILES IDX 95 24 89 25 88 26 44 28 76 29 56 30 75 31 57 32 60 33 74 34
REMARK SMILES IDX 93 35 58 36 59 37 73 39 94 40 61 41 45 42 46 43 54 44 47 45
REMARK SMILES IDX 53 46 55 47 52 48 48 49 49 50 50 51 51 52 77 53 78 54 86 55
REMARK SMILES IDX 79 56 85 57 87 58 84 59 80 60 81 61 82 62 83 63 62 64 63 65
REMARK SMILES IDX 71 66 64 67 70 68 72 69 69 70 65 71 66 72 67 73 68 74 10 75
REMARK SMILES IDX 11 76 12 77 13 78 14 79 15 80 16 81 17 82 18 83 19 84 35 85
REMARK SMILES IDX 20 86 34 87 21 88 22 89 23 90 24 91 25 92 26 93 27 94 32 95
REMARK SMILES IDX 28 96 31 97 33 98 29 99 30 100
REMARK H PARENT 92 27 60 38
REMARK Flexibility Score: inf
ROOT
ATOM      1  O   UNL A   1      33.849  28.853  26.270  1.00  0.00    -0.377 OA
ENDROOT
BRANCH   1   2
ATOM      2  C   UNL A   1      33.991  29.467  27.553  1.00  0.00     0.188 C 
BRANCH   2   3
ATOM      3  C   UNL A   1      33.734  30.977  27.573  1.00  0.00     0.188 C 
BRANCH   3   4
ATOM      4  O   UNL A   1      34.956  31.691  27.437  1.00  0.00    -0.376 OA
BRANCH   4   5
ATOM      5  C   UNL A   1      35.661  31.936  28.648  1.00  0.00     0.202 C 
BRANCH   5   6
ATOM      6  C   UNL A   1      34.777  32.614  29.694  1.00  0.00     0.261 C 
BRANCH   6   7
ATOM      7  O   UNL A   1      35.573  33.065  30.801  1.00  0.00    -0.460 OA
BRANCH   7   8
ATOM      8  C   UNL A   1      36.041  32.352  31.853  1.00  0.00     0.338 C 
ATOM      9  O   UNL A   1      35.298  32.219  32.827  1.00  0.00    -0.246 OA
BRANCH   8  10
ATOM     10  C   UNL A   1      37.380  31.677  31.910  1.00  0.00     0.060 A 
ATOM     11  C   UNL A   1      37.674  30.461  32.533  1.00  0.00     0.016 A 
ATOM     12  C   UNL A   1      38.414  32.304  31.188  1.00  0.00     0.016 A 
ATOM     13  C   UNL A   1      38.949  29.895  32.471  1.00  0.00     0.010 A 
ATOM     14  C   UNL A   1      39.692  31.740  31.111  1.00  0.00     0.010 A 
ATOM     15  C   UNL A   1      39.966  30.536  31.766  1.00  0.00    -0.014 A 
BRANCH  15  16
ATOM     16  C   UNL A   1      41.343  30.007  31.831  1.00  0.00     0.031 A 
ATOM     17  C   UNL A   1      41.794  29.085  30.738  1.00  0.00     0.074 A 
ATOM     18  C   UNL A   1      42.172  30.384  32.822  1.00  0.00     0.049 A 
ATOM     19  N   UNL A   1      42.906  28.411  30.627  1.00  0.00    -0.248 NA
ATOM     20  C   UNL A   1      40.863  28.906  29.611  1.00  0.00     0.031 C 
ATOM     21  C   UNL A   1      41.850  31.358  33.866  1.00  0.00     0.029 A 
ATOM     22  N   UNL A   1      43.454  29.993  33.116  1.00  0.00    -0.354 N 
ATOM     23  C   UNL A   1      42.801  27.710  29.430  1.00  0.00     0.074 A 
ATOM     24  C   UNL A   1      41.518  28.042  28.851  1.00  0.00     0.031 C 
ATOM     25  C   UNL A   1      42.900  31.475  34.696  1.00  0.00     0.029 A 
ATOM     26  C   UNL A   1      43.943  30.541  34.282  1.00  0.00     0.049 A 
ATOM     27  H   UNL A   1      43.974  29.379  32.549  1.00  0.00     0.167 HD
ATOM     28  C   UNL A   1      43.695  26.854  28.881  1.00  0.00     0.034 A 
ATOM     29  C   UNL A   1      45.081  30.270  34.954  1.00  0.00     0.034 A 
ATOM     30  C   UNL A   1      44.955  26.531  29.499  1.00  0.00     0.049 A 
ATOM     31  C   UNL A   1      46.010  29.225  34.373  1.00  0.00     0.074 A 
ATOM     32  C   UNL A   1      45.937  25.664  29.059  1.00  0.00     0.029 A 
ATOM     33  N   UNL A   1      45.397  27.058  30.707  1.00  0.00    -0.354 N 
ATOM     34  N   UNL A   1      45.897  28.552  33.249  1.00  0.00    -0.248 NA
ATOM     35  C   UNL A   1      47.209  28.892  35.153  1.00  0.00     0.031 C 
ATOM     36  C   UNL A   1      46.939  25.614  30.034  1.00  0.00     0.029 A 
ATOM     37  C   UNL A   1      46.615  26.501  31.051  1.00  0.00     0.049 A 
ATOM     38  H   UNL A   1      44.912  27.729  31.241  1.00  0.00     0.167 HD
ATOM     39  C   UNL A   1      47.016  27.726  33.185  1.00  0.00     0.074 A 
ATOM     40  C   UNL A   1      47.805  28.009  34.367  1.00  0.00     0.031 C 
ATOM     41  C   UNL A   1      47.363  26.807  32.247  1.00  0.00     0.034 A 
BRANCH  28  42
ATOM     42  C   UNL A   1      43.287  26.149  27.615  1.00  0.00     0.023 A 
ATOM     43  C   UNL A   1      42.674  24.884  27.628  1.00  0.00     0.031 A 
ATOM     44  C   UNL A   1      43.566  26.736  26.368  1.00  0.00     0.131 A 
ATOM     45  C   UNL A   1      42.412  24.223  26.417  1.00  0.00     0.055 A 
ATOM     46  C   UNL A   1      43.243  26.103  25.167  1.00  0.00     0.041 A 
ATOM     47  F   UNL A   1      44.177  27.928  26.298  1.00  0.00    -0.206 F 
ATOM     48  C   UNL A   1      42.672  24.834  25.187  1.00  0.00     0.022 A 
BRANCH  45  49
ATOM     49  S   UNL A   1      41.832  22.505  26.466  1.00  0.00     0.124 S 
ATOM     50  O   UNL A   1      42.514  21.929  25.311  1.00  0.00    -0.237 OA
ATOM     51  O   UNL A   1      42.296  22.051  27.773  1.00  0.00    -0.237 OA
ATOM     52  O   UNL A   1      40.382  22.628  26.329  1.00  0.00    -0.744 OA
ENDBRANCH  45  49
ENDBRANCH  28  42
BRANCH  29  53
ATOM     53  C   UNL A   1      45.370  30.898  36.280  1.00  0.00     0.023 A 
ATOM     54  C   UNL A   1      46.140  32.067  36.389  1.00  0.00     0.031 A 
ATOM     55  C   UNL A   1      44.956  30.279  37.476  1.00  0.00     0.131 A 
ATOM     56  C   UNL A   1      46.520  32.546  37.655  1.00  0.00     0.055 A 
ATOM     57  C   UNL A   1      45.281  30.795  38.733  1.00  0.00     0.041 A 
ATOM     58  F   UNL A   1      44.232  29.148  37.443  1.00  0.00    -0.206 F 
ATOM     59  C   UNL A   1      46.083  31.926  38.827  1.00  0.00     0.022 A 
BRANCH  56  60
ATOM     60  S   UNL A   1      47.708  33.916  37.750  1.00  0.00     0.124 S 
ATOM     61  O   UNL A   1      48.842  33.282  38.415  1.00  0.00    -0.237 OA
ATOM     62  O   UNL A   1      47.896  34.252  36.343  1.00  0.00    -0.237 OA
ATOM     63  O   UNL A   1      47.004  34.923  38.542  1.00  0.00    -0.744 OA
ENDBRANCH  56  60
ENDBRANCH  29  53
BRANCH  41  64
ATOM     64  C   UNL A   1      48.657  26.069  32.470  1.00  0.00     0.023 A 
ATOM     65  C   UNL A   1      48.683  24.819  33.111  1.00  0.00     0.031 A 
ATOM     66  C   UNL A   1      49.873  26.618  32.028  1.00  0.00     0.131 A 
ATOM     67  C   UNL A   1      49.908  24.178  33.335  1.00  0.00     0.055 A 
ATOM     68  C   UNL A   1      51.083  25.949  32.203  1.00  0.00     0.041 A 
ATOM     69  F   UNL A   1      49.899  27.809  31.409  1.00  0.00    -0.206 F 
ATOM     70  C   UNL A   1      51.106  24.726  32.868  1.00  0.00     0.022 A 
BRANCH  67  71
ATOM     71  S   UNL A   1      49.923  22.645  34.302  1.00  0.00     0.124 S 
ATOM     72  O   UNL A   1      50.950  22.926  35.300  1.00  0.00    -0.237 OA
ATOM     73  O   UNL A   1      48.553  22.574  34.801  1.00  0.00    -0.237 OA
ATOM     74  O   UNL A   1      50.275  21.623  33.319  1.00  0.00    -0.744 OA
ENDBRANCH  67  71
ENDBRANCH  41  64
ENDBRANCH  15  16
ENDBRANCH   8  10
ENDBRANCH   7   8
ENDBRANCH   6   7
ENDBRANCH   5   6
ENDBRANCH   4   5
ENDBRANCH   3   4
ENDBRANCH   2   3
ENDBRANCH   1   2
BRANCH   1  75
ATOM     75  C   UNL A   1      32.839  27.836  26.220  1.00  0.00     0.188 C 
BRANCH  75  76
ATOM     76  C   UNL A   1      31.498  28.402  25.752  1.00  0.00     0.188 C 
BRANCH  76  77
ATOM     77  O   UNL A   1      31.600  29.472  24.817  1.00  0.00    -0.376 OA
BRANCH  77  78
ATOM     78  C   UNL A   1      30.461  29.737  24.001  1.00  0.00     0.202 C 
BRANCH  78  79
ATOM     79  C   UNL A   1      30.652  29.538  22.491  1.00  0.00     0.261 C 
BRANCH  79  80
ATOM     80  O   UNL A   1      30.314  28.204  22.034  1.00  0.00    -0.463 OA
BRANCH  80  81
ATOM     81  C   UNL A   1      31.181  27.215  22.361  1.00  0.00     0.309 C 
ATOM     82  O   UNL A   1      32.401  27.323  22.284  1.00  0.00    -0.252 OA
BRANCH  81  83
ATOM     83  C   UNL A   1      30.536  25.894  22.783  1.00  0.00     0.103 C 
ATOM     84  C   UNL A   1      29.497  25.876  23.909  1.00  0.00     0.037 C 
ATOM     85  C   UNL A   1      31.588  24.782  22.922  1.00  0.00     0.037 C 
ATOM     86  C   UNL A   1      29.941  25.362  25.278  1.00  0.00     0.120 C 
ATOM     87  C   UNL A   1      32.083  24.569  24.346  1.00  0.00     0.120 C 
ATOM     88  N   UNL A   1      30.980  24.347  25.270  1.00  0.00    -0.340 N 
ATOM     89  C   UNL A   1      31.043  23.496  26.370  1.00  0.00     0.260 C 
ATOM     90  O   UNL A   1      30.249  23.595  27.314  1.00  0.00    -0.271 OA
BRANCH  89  91
ATOM     91  C   UNL A   1      32.088  22.364  26.405  1.00  0.00     0.329 C 
BRANCH  91  92
ATOM     92  O   UNL A   1      32.476  21.656  25.247  1.00  0.00    -0.482 OA
BRANCH  92  93
ATOM     93  C   UNL A   1      33.773  21.279  25.047  1.00  0.00     0.138 A 
ATOM     94  C   UNL A   1      34.867  22.145  24.965  1.00  0.00     0.049 A 
ATOM     95  C   UNL A   1      34.013  19.894  24.987  1.00  0.00     0.084 A 
ATOM     96  C   UNL A   1      36.170  21.642  24.911  1.00  0.00     0.024 A 
ATOM     97  C   UNL A   1      35.313  19.389  24.905  1.00  0.00     0.045 A 
ATOM     98  Cl  UNL A   1      32.710  18.755  25.006  1.00  0.00    -0.080 Cl
ATOM     99  C   UNL A   1      36.388  20.269  24.889  1.00  0.00     0.042 A 
ATOM    100  Cl  UNL A   1      37.996  19.661  24.847  1.00  0.00    -0.084 Cl
ENDBRANCH  92  93
ENDBRANCH  91  92
ENDBRANCH  89  91
ENDBRANCH  81  83
ENDBRANCH  80  81
ENDBRANCH  79  80
ENDBRANCH  78  79
ENDBRANCH  77  78
ENDBRANCH  76  77
ENDBRANCH  75  76
ENDBRANCH   1  75
TORSDOF 26
ENDMDL
