MODEL 1
REMARK VINA RESULT:     -10.0      0.000      0.000
REMARK SMILES CC(C)(C)c1ccc(C[N@H+]2CCO[C@H](CC(=O)OCCOCCOCCOCCOC(=O)c3ccc(-c4c5nc(c(-c6cc(S(=O)(=O)[O-])ccc6F)c6ccc([nH]6)c(-c6cc(S(=O)(=O)[O-])ccc6F)c6nc(c(-c7cc(S(=O)(=O)[O-])ccc7F)c7ccc4[nH]7)C=C6)C=C5)cc3)C2)cc1
REMARK SMILES IDX 23 1 22 2 21 3 20 4 19 5 18 6 16 7 17 8 15 9 14 10 10 11
REMARK SMILES IDX 11 12 96 13 12 15 13 16 9 17 8 18 5 19 6 20 98 21 7 22 97 23
REMARK SMILES IDX 2 24 1 25 3 26 4 27 24 28 25 29 26 30 27 31 28 32 29 33
REMARK SMILES IDX 30 34 31 35 32 36 33 37 34 38 95 39 35 40 94 41 36 42 37 43
REMARK SMILES IDX 38 44 88 45 39 46 93 47 87 48 89 49 40 50 92 51 86 52 85 53
REMARK SMILES IDX 41 55 73 56 53 57 72 58 54 59 57 60 71 61 90 62 55 63 56 64
REMARK SMILES IDX 70 66 91 67 58 68 42 69 43 70 51 71 44 72 50 73 52 74 49 75
REMARK SMILES IDX 45 76 46 77 47 78 48 79 74 80 75 81 83 82 76 83 82 84 84 85
REMARK SMILES IDX 81 86 77 87 78 88 79 89 80 90 59 91 60 92 68 93 61 94 67 95
REMARK SMILES IDX 69 96 66 97 62 98 63 99 64 100 65 101
REMARK H PARENT 10 14 89 54 57 65
REMARK Flexibility Score: inf
ROOT
ATOM      1  C   UNL A   1      33.647  25.321  22.564  1.00  0.00     0.188 C 
ENDROOT
BRANCH   1   2
ATOM      2  C   UNL A   1      33.659  26.404  23.632  1.00  0.00     0.188 C 
BRANCH   2   3
ATOM      3  O   UNL A   1      32.734  27.442  23.365  1.00  0.00    -0.376 OA
BRANCH   3   4
ATOM      4  C   UNL A   1      33.278  28.713  23.701  1.00  0.00     0.202 C 
BRANCH   4   5
ATOM      5  C   UNL A   1      33.282  29.148  25.174  1.00  0.00     0.261 C 
BRANCH   5   6
ATOM      6  O   UNL A   1      32.318  28.864  26.253  1.00  0.00    -0.463 OA
BRANCH   6   7
ATOM      7  C   UNL A   1      31.641  27.920  26.903  1.00  0.00     0.308 C 
ATOM      8  O   UNL A   1      30.996  28.077  27.933  1.00  0.00    -0.252 OA
BRANCH   7   9
ATOM      9  C   UNL A   1      31.664  26.514  26.300  1.00  0.00     0.160 C 
BRANCH   9  10
ATOM     10  C   UNL A   1      30.470  25.554  26.196  1.00  0.00     0.184 C 
ATOM     11  N   UNL A   1      31.686  23.687  25.368  1.00  0.00    -0.327 N 
ATOM     12  C   UNL A   1      30.932  23.694  24.106  1.00  0.00     0.291 C 
ATOM     13  C   UNL A   1      30.817  24.082  26.449  1.00  0.00     0.295 C 
ATOM     14  H   UNL A   1      32.435  24.351  25.173  1.00  0.00     0.348 HD
ATOM     15  C   UNL A   1      30.187  25.063  23.857  1.00  0.00     0.222 C 
ATOM     16  O   UNL A   1      29.652  25.699  25.028  1.00  0.00    -0.366 OA
BRANCH  11  17
ATOM     17  C   UNL A   1      32.889  22.900  25.641  1.00  0.00     0.299 C 
BRANCH  17  18
ATOM     18  C   UNL A   1      32.741  21.391  25.291  1.00  0.00     0.006 A 
ATOM     19  C   UNL A   1      33.189  18.596  24.609  1.00  0.00    -0.043 A 
ATOM     20  C   UNL A   1      32.944  19.569  23.630  1.00  0.00     0.005 A 
ATOM     21  C   UNL A   1      32.971  19.027  25.932  1.00  0.00     0.005 A 
ATOM     22  C   UNL A   1      32.703  20.931  23.965  1.00  0.00     0.010 A 
ATOM     23  C   UNL A   1      32.751  20.389  26.266  1.00  0.00     0.010 A 
BRANCH  19  24
ATOM     24  C   UNL A   1      33.725  17.177  24.257  1.00  0.00    -0.013 C 
ATOM     25  C   UNL A   1      33.755  16.912  22.731  1.00  0.00     0.016 C 
ATOM     26  C   UNL A   1      32.888  16.005  24.834  1.00  0.00     0.016 C 
ATOM     27  C   UNL A   1      35.140  16.983  24.826  1.00  0.00     0.016 C 
ENDBRANCH  19  24
ENDBRANCH  17  18
ENDBRANCH  11  17
ENDBRANCH   9  10
ENDBRANCH   7   9
ENDBRANCH   6   7
ENDBRANCH   5   6
ENDBRANCH   4   5
ENDBRANCH   3   4
ENDBRANCH   2   3
ENDBRANCH   1   2
BRANCH   1  28
ATOM     28  O   UNL A   1      34.872  24.603  22.434  1.00  0.00    -0.377 OA
BRANCH  28  29
ATOM     29  C   UNL A   1      34.965  23.372  23.154  1.00  0.00     0.188 C 
BRANCH  29  30
ATOM     30  C   UNL A   1      36.311  23.055  23.807  1.00  0.00     0.188 C 
BRANCH  30  31
ATOM     31  O   UNL A   1      36.329  22.338  25.041  1.00  0.00    -0.376 OA
BRANCH  31  32
ATOM     32  C   UNL A   1      36.722  20.972  25.046  1.00  0.00     0.202 C 
BRANCH  32  33
ATOM     33  C   UNL A   1      38.227  20.713  25.026  1.00  0.00     0.261 C 
BRANCH  33  34
ATOM     34  O   UNL A   1      38.854  20.795  26.313  1.00  0.00    -0.460 OA
BRANCH  34  35
ATOM     35  C   UNL A   1      40.139  21.215  26.308  1.00  0.00     0.338 C 
ATOM     36  O   UNL A   1      41.100  20.661  25.791  1.00  0.00    -0.246 OA
BRANCH  35  37
ATOM     37  C   UNL A   1      40.216  22.541  26.946  1.00  0.00     0.060 A 
ATOM     38  C   UNL A   1      39.366  23.570  26.513  1.00  0.00     0.016 A 
ATOM     39  C   UNL A   1      41.205  22.787  27.899  1.00  0.00     0.016 A 
ATOM     40  C   UNL A   1      39.558  24.871  26.978  1.00  0.00     0.010 A 
ATOM     41  C   UNL A   1      41.406  24.089  28.351  1.00  0.00     0.010 A 
ATOM     42  C   UNL A   1      40.620  25.142  27.848  1.00  0.00    -0.014 A 
BRANCH  42  43
ATOM     43  C   UNL A   1      41.099  26.530  28.041  1.00  0.00     0.031 A 
ATOM     44  C   UNL A   1      42.511  26.845  27.631  1.00  0.00     0.074 A 
ATOM     45  C   UNL A   1      40.316  27.469  28.600  1.00  0.00     0.049 A 
ATOM     46  N   UNL A   1      43.223  27.918  27.848  1.00  0.00    -0.248 NA
ATOM     47  C   UNL A   1      43.221  25.790  26.887  1.00  0.00     0.031 C 
ATOM     48  C   UNL A   1      38.917  27.284  28.978  1.00  0.00     0.029 A 
ATOM     49  N   UNL A   1      40.602  28.758  28.968  1.00  0.00    -0.354 N 
ATOM     50  C   UNL A   1      44.470  27.663  27.286  1.00  0.00     0.074 A 
ATOM     51  C   UNL A   1      44.426  26.320  26.749  1.00  0.00     0.031 C 
ATOM     52  C   UNL A   1      38.472  28.417  29.550  1.00  0.00     0.029 A 
ATOM     53  C   UNL A   1      39.569  29.381  29.626  1.00  0.00     0.049 A 
ATOM     54  H   UNL A   1      41.465  29.194  28.780  1.00  0.00     0.167 HD
ATOM     55  C   UNL A   1      45.551  28.478  27.225  1.00  0.00     0.034 A 
ATOM     56  C   UNL A   1      39.534  30.575  30.252  1.00  0.00     0.034 A 
ATOM     57  C   UNL A   1      45.572  29.807  27.784  1.00  0.00     0.049 A 
ATOM     58  C   UNL A   1      40.782  31.430  30.261  1.00  0.00     0.074 A 
ATOM     59  C   UNL A   1      46.602  30.730  27.774  1.00  0.00     0.029 A 
ATOM     60  N   UNL A   1      44.516  30.395  28.470  1.00  0.00    -0.354 N 
ATOM     61  N   UNL A   1      41.959  31.183  29.729  1.00  0.00    -0.248 NA
ATOM     62  C   UNL A   1      40.697  32.722  30.952  1.00  0.00     0.031 C 
ATOM     63  C   UNL A   1      46.200  31.839  28.524  1.00  0.00     0.029 A 
ATOM     64  C   UNL A   1      44.884  31.653  28.920  1.00  0.00     0.049 A 
ATOM     65  H   UNL A   1      43.635  29.980  28.614  1.00  0.00     0.167 HD
ATOM     66  C   UNL A   1      42.737  32.309  29.987  1.00  0.00     0.074 A 
ATOM     67  C   UNL A   1      41.896  33.235  30.717  1.00  0.00     0.031 C 
ATOM     68  C   UNL A   1      44.028  32.561  29.648  1.00  0.00     0.034 A 
BRANCH  55  69
ATOM     69  C   UNL A   1      46.804  27.929  26.587  1.00  0.00     0.023 A 
ATOM     70  C   UNL A   1      47.089  28.119  25.224  1.00  0.00     0.031 A 
ATOM     71  C   UNL A   1      47.714  27.173  27.349  1.00  0.00     0.131 A 
ATOM     72  C   UNL A   1      48.213  27.503  24.651  1.00  0.00     0.055 A 
ATOM     73  C   UNL A   1      48.875  26.635  26.791  1.00  0.00     0.041 A 
ATOM     74  F   UNL A   1      47.482  26.932  28.650  1.00  0.00    -0.206 F 
ATOM     75  C   UNL A   1      49.122  26.786  25.430  1.00  0.00     0.022 A 
BRANCH  72  76
ATOM     76  S   UNL A   1      48.385  27.524  22.846  1.00  0.00     0.124 S 
ATOM     77  O   UNL A   1      48.358  26.097  22.530  1.00  0.00    -0.237 OA
ATOM     78  O   UNL A   1      47.218  28.293  22.426  1.00  0.00    -0.237 OA
ATOM     79  O   UNL A   1      49.674  28.179  22.632  1.00  0.00    -0.744 OA
ENDBRANCH  72  76
ENDBRANCH  55  69
BRANCH  56  80
ATOM     80  C   UNL A   1      38.301  31.021  30.962  1.00  0.00     0.023 A 
ATOM     81  C   UNL A   1      37.260  31.661  30.272  1.00  0.00     0.031 A 
ATOM     82  C   UNL A   1      38.166  30.862  32.354  1.00  0.00     0.131 A 
ATOM     83  C   UNL A   1      36.156  32.163  30.979  1.00  0.00     0.055 A 
ATOM     84  C   UNL A   1      37.037  31.308  33.043  1.00  0.00     0.041 A 
ATOM     85  F   UNL A   1      39.131  30.259  33.067  1.00  0.00    -0.206 F 
ATOM     86  C   UNL A   1      36.029  31.976  32.357  1.00  0.00     0.022 A 
BRANCH  83  87
ATOM     87  S   UNL A   1      34.930  33.154  30.080  1.00  0.00     0.124 S 
ATOM     88  O   UNL A   1      34.035  33.562  31.157  1.00  0.00    -0.237 OA
ATOM     89  O   UNL A   1      35.759  34.206  29.500  1.00  0.00    -0.237 OA
ATOM     90  O   UNL A   1      34.366  32.207  29.121  1.00  0.00    -0.744 OA
ENDBRANCH  83  87
ENDBRANCH  56  80
BRANCH  68  91
ATOM     91  C   UNL A   1      44.589  33.918  30.005  1.00  0.00     0.023 A 
ATOM     92  C   UNL A   1      44.533  35.005  29.116  1.00  0.00     0.031 A 
ATOM     93  C   UNL A   1      45.176  34.124  31.267  1.00  0.00     0.131 A 
ATOM     94  C   UNL A   1      45.098  36.236  29.484  1.00  0.00     0.055 A 
ATOM     95  C   UNL A   1      45.674  35.369  31.653  1.00  0.00     0.041 A 
ATOM     96  F   UNL A   1      45.260  33.120  32.155  1.00  0.00    -0.206 F 
ATOM     97  C   UNL A   1      45.648  36.430  30.755  1.00  0.00     0.022 A 
BRANCH  94  98
ATOM     98  S   UNL A   1      45.189  37.559  28.247  1.00  0.00     0.124 S 
ATOM     99  O   UNL A   1      44.528  38.663  28.935  1.00  0.00    -0.237 OA
ATOM    100  O   UNL A   1      46.628  37.703  28.047  1.00  0.00    -0.237 OA
ATOM    101  O   UNL A   1      44.457  37.013  27.106  1.00  0.00    -0.744 OA
ENDBRANCH  94  98
ENDBRANCH  68  91
ENDBRANCH  42  43
ENDBRANCH  35  37
ENDBRANCH  34  35
ENDBRANCH  33  34
ENDBRANCH  32  33
ENDBRANCH  31  32
ENDBRANCH  30  31
ENDBRANCH  29  30
ENDBRANCH  28  29
ENDBRANCH   1  28
TORSDOF 27
ENDMDL
MODEL 2
REMARK VINA RESULT:      -9.7      2.134      4.087
REMARK SMILES CC(C)(C)c1ccc(C[N@H+]2CCO[C@H](CC(=O)OCCOCCOCCOCCOC(=O)c3ccc(-c4c5nc(c(-c6cc(S(=O)(=O)[O-])ccc6F)c6ccc([nH]6)c(-c6cc(S(=O)(=O)[O-])ccc6F)c6nc(c(-c7cc(S(=O)(=O)[O-])ccc7F)c7ccc4[nH]7)C=C6)C=C5)cc3)C2)cc1
REMARK SMILES IDX 23 1 22 2 21 3 20 4 19 5 18 6 16 7 17 8 15 9 14 10 10 11
REMARK SMILES IDX 11 12 96 13 12 15 13 16 9 17 8 18 5 19 6 20 98 21 7 22 97 23
REMARK SMILES IDX 2 24 1 25 3 26 4 27 24 28 25 29 26 30 27 31 28 32 29 33
REMARK SMILES IDX 30 34 31 35 32 36 33 37 34 38 95 39 35 40 94 41 36 42 37 43
REMARK SMILES IDX 38 44 88 45 39 46 93 47 87 48 89 49 40 50 92 51 86 52 85 53
REMARK SMILES IDX 41 55 73 56 53 57 72 58 54 59 57 60 71 61 90 62 55 63 56 64
REMARK SMILES IDX 70 66 91 67 58 68 42 69 43 70 51 71 44 72 50 73 52 74 49 75
REMARK SMILES IDX 45 76 46 77 47 78 48 79 74 80 75 81 83 82 76 83 82 84 84 85
REMARK SMILES IDX 81 86 77 87 78 88 79 89 80 90 59 91 60 92 68 93 61 94 67 95
REMARK SMILES IDX 69 96 66 97 62 98 63 99 64 100 65 101
REMARK H PARENT 10 14 89 54 57 65
REMARK Flexibility Score: inf
ROOT
ATOM      1  C   UNL A   1      33.281  24.529  21.991  1.00  0.00     0.188 C 
ENDROOT
BRANCH   1   2
ATOM      2  C   UNL A   1      33.745  25.827  22.633  1.00  0.00     0.188 C 
BRANCH   2   3
ATOM      3  O   UNL A   1      33.680  26.928  21.745  1.00  0.00    -0.376 OA
BRANCH   3   4
ATOM      4  C   UNL A   1      33.952  28.149  22.423  1.00  0.00     0.202 C 
BRANCH   4   5
ATOM      5  C   UNL A   1      32.840  29.205  22.515  1.00  0.00     0.261 C 
BRANCH   5   6
ATOM      6  O   UNL A   1      31.391  29.084  22.277  1.00  0.00    -0.463 OA
BRANCH   6   7
ATOM      7  C   UNL A   1      30.254  28.516  22.675  1.00  0.00     0.308 C 
ATOM      8  O   UNL A   1      29.159  28.646  22.139  1.00  0.00    -0.252 OA
BRANCH   7   9
ATOM      9  C   UNL A   1      30.328  27.612  23.906  1.00  0.00     0.160 C 
BRANCH   9  10
ATOM     10  C   UNL A   1      29.349  26.483  24.260  1.00  0.00     0.184 C 
ATOM     11  N   UNL A   1      30.872  25.187  25.544  1.00  0.00    -0.327 N 
ATOM     12  C   UNL A   1      30.782  24.061  24.602  1.00  0.00     0.291 C 
ATOM     13  C   UNL A   1      29.590  25.842  25.632  1.00  0.00     0.295 C 
ATOM     14  H   UNL A   1      31.604  25.758  25.123  1.00  0.00     0.348 HD
ATOM     15  C   UNL A   1      30.189  24.490  23.204  1.00  0.00     0.222 C 
ATOM     16  O   UNL A   1      29.154  25.485  23.250  1.00  0.00    -0.366 OA
BRANCH  11  17
ATOM     17  C   UNL A   1      31.841  25.315  26.632  1.00  0.00     0.299 C 
BRANCH  17  18
ATOM     18  C   UNL A   1      32.601  26.673  26.636  1.00  0.00     0.006 A 
ATOM     19  C   UNL A   1      34.300  28.953  27.260  1.00  0.00    -0.043 A 
ATOM     20  C   UNL A   1      32.952  28.904  27.645  1.00  0.00     0.005 A 
ATOM     21  C   UNL A   1      34.692  27.940  26.364  1.00  0.00     0.005 A 
ATOM     22  C   UNL A   1      32.116  27.799  27.320  1.00  0.00     0.010 A 
ATOM     23  C   UNL A   1      33.864  26.829  26.057  1.00  0.00     0.010 A 
BRANCH  19  24
ATOM     24  C   UNL A   1      35.291  30.006  27.837  1.00  0.00    -0.013 C 
ATOM     25  C   UNL A   1      36.688  29.938  27.173  1.00  0.00     0.016 C 
ATOM     26  C   UNL A   1      35.580  29.863  29.355  1.00  0.00     0.016 C 
ATOM     27  C   UNL A   1      34.725  31.426  27.666  1.00  0.00     0.016 C 
ENDBRANCH  19  24
ENDBRANCH  17  18
ENDBRANCH  11  17
ENDBRANCH   9  10
ENDBRANCH   7   9
ENDBRANCH   6   7
ENDBRANCH   5   6
ENDBRANCH   4   5
ENDBRANCH   3   4
ENDBRANCH   2   3
ENDBRANCH   1   2
BRANCH   1  28
ATOM     28  O   UNL A   1      34.150  23.419  22.202  1.00  0.00    -0.377 OA
BRANCH  28  29
ATOM     29  C   UNL A   1      34.046  22.764  23.468  1.00  0.00     0.188 C 
BRANCH  29  30
ATOM     30  C   UNL A   1      35.288  22.787  24.360  1.00  0.00     0.188 C 
BRANCH  30  31
ATOM     31  O   UNL A   1      35.506  21.710  25.272  1.00  0.00    -0.376 OA
BRANCH  31  32
ATOM     32  C   UNL A   1      36.547  20.778  25.012  1.00  0.00     0.202 C 
BRANCH  32  33
ATOM     33  C   UNL A   1      37.969  21.309  25.172  1.00  0.00     0.261 C 
BRANCH  33  34
ATOM     34  O   UNL A   1      38.678  20.758  26.290  1.00  0.00    -0.460 OA
BRANCH  34  35
ATOM     35  C   UNL A   1      39.997  21.055  26.346  1.00  0.00     0.338 C 
ATOM     36  O   UNL A   1      40.924  20.408  25.877  1.00  0.00    -0.246 OA
BRANCH  35  37
ATOM     37  C   UNL A   1      40.169  22.373  26.982  1.00  0.00     0.060 A 
ATOM     38  C   UNL A   1      39.416  23.466  26.528  1.00  0.00     0.016 A 
ATOM     39  C   UNL A   1      41.154  22.541  27.956  1.00  0.00     0.016 A 
ATOM     40  C   UNL A   1      39.704  24.749  26.995  1.00  0.00     0.010 A 
ATOM     41  C   UNL A   1      41.451  23.823  28.409  1.00  0.00     0.010 A 
ATOM     42  C   UNL A   1      40.766  24.935  27.887  1.00  0.00    -0.014 A 
BRANCH  42  43
ATOM     43  C   UNL A   1      41.353  26.280  28.088  1.00  0.00     0.031 A 
ATOM     44  C   UNL A   1      42.751  26.513  27.585  1.00  0.00     0.074 A 
ATOM     45  C   UNL A   1      40.679  27.249  28.731  1.00  0.00     0.049 A 
ATOM     46  N   UNL A   1      43.549  27.528  27.783  1.00  0.00    -0.248 NA
ATOM     47  C   UNL A   1      43.331  25.441  26.759  1.00  0.00     0.031 C 
ATOM     48  C   UNL A   1      39.301  27.146  29.204  1.00  0.00     0.029 A 
ATOM     49  N   UNL A   1      41.080  28.501  29.117  1.00  0.00    -0.354 N 
ATOM     50  C   UNL A   1      44.733  27.209  27.123  1.00  0.00     0.074 A 
ATOM     51  C   UNL A   1      44.557  25.893  26.549  1.00  0.00     0.031 C 
ATOM     52  C   UNL A   1      38.978  28.285  29.843  1.00  0.00     0.029 A 
ATOM     53  C   UNL A   1      40.142  29.169  29.867  1.00  0.00     0.049 A 
ATOM     54  H   UNL A   1      41.956  28.885  28.879  1.00  0.00     0.167 HD
ATOM     55  C   UNL A   1      45.861  27.951  27.008  1.00  0.00     0.034 A 
ATOM     56  C   UNL A   1      40.235  30.339  30.531  1.00  0.00     0.034 A 
ATOM     57  C   UNL A   1      46.014  29.255  27.605  1.00  0.00     0.049 A 
ATOM     58  C   UNL A   1      41.537  31.107  30.475  1.00  0.00     0.074 A 
ATOM     59  C   UNL A   1      47.103  30.106  27.548  1.00  0.00     0.029 A 
ATOM     60  N   UNL A   1      45.054  29.888  28.384  1.00  0.00    -0.354 N 
ATOM     61  N   UNL A   1      42.653  30.801  29.850  1.00  0.00    -0.248 NA
ATOM     62  C   UNL A   1      41.592  32.377  31.210  1.00  0.00     0.031 C 
ATOM     63  C   UNL A   1      46.834  31.212  28.359  1.00  0.00     0.029 A 
ATOM     64  C   UNL A   1      45.539  31.101  28.844  1.00  0.00     0.049 A 
ATOM     65  H   UNL A   1      44.158  29.528  28.580  1.00  0.00     0.167 HD
ATOM     66  C   UNL A   1      43.525  31.862  30.086  1.00  0.00     0.074 A 
ATOM     67  C   UNL A   1      42.804  32.816  30.903  1.00  0.00     0.031 C 
ATOM     68  C   UNL A   1      44.803  32.038  29.661  1.00  0.00     0.034 A 
BRANCH  55  69
ATOM     69  C   UNL A   1      47.024  27.342  26.263  1.00  0.00     0.023 A 
ATOM     70  C   UNL A   1      47.985  26.544  26.908  1.00  0.00     0.031 A 
ATOM     71  C   UNL A   1      47.193  27.591  24.888  1.00  0.00     0.131 A 
ATOM     72  C   UNL A   1      49.105  26.084  26.198  1.00  0.00     0.055 A 
ATOM     73  C   UNL A   1      48.265  27.058  24.168  1.00  0.00     0.041 A 
ATOM     74  F   UNL A   1      46.325  28.369  24.222  1.00  0.00    -0.206 F 
ATOM     75  C   UNL A   1      49.237  26.312  24.827  1.00  0.00     0.022 A 
BRANCH  72  76
ATOM     76  S   UNL A   1      50.461  25.315  27.124  1.00  0.00     0.124 S 
ATOM     77  O   UNL A   1      50.924  26.430  27.949  1.00  0.00    -0.237 OA
ATOM     78  O   UNL A   1      49.786  24.234  27.833  1.00  0.00    -0.237 OA
ATOM     79  O   UNL A   1      51.393  24.893  26.081  1.00  0.00    -0.744 OA
ENDBRANCH  72  76
ENDBRANCH  55  69
BRANCH  56  80
ATOM     80  C   UNL A   1      39.090  30.842  31.343  1.00  0.00     0.023 A 
ATOM     81  C   UNL A   1      38.173  31.762  30.810  1.00  0.00     0.031 A 
ATOM     82  C   UNL A   1      38.923  30.451  32.685  1.00  0.00     0.131 A 
ATOM     83  C   UNL A   1      37.165  32.298  31.626  1.00  0.00     0.055 A 
ATOM     84  C   UNL A   1      37.880  30.940  33.473  1.00  0.00     0.041 A 
ATOM     85  F   UNL A   1      39.771  29.575  33.249  1.00  0.00    -0.206 F 
ATOM     86  C   UNL A   1      37.001  31.881  32.948  1.00  0.00     0.022 A 
BRANCH  83  87
ATOM     87  S   UNL A   1      36.126  33.627  30.958  1.00  0.00     0.124 S 
ATOM     88  O   UNL A   1      36.253  34.647  31.992  1.00  0.00    -0.237 OA
ATOM     89  O   UNL A   1      36.784  33.914  29.687  1.00  0.00    -0.237 OA
ATOM     90  O   UNL A   1      34.809  33.005  30.849  1.00  0.00    -0.744 OA
ENDBRANCH  83  87
ENDBRANCH  56  80
BRANCH  68  91
ATOM     91  C   UNL A   1      45.481  33.340  30.017  1.00  0.00     0.023 A 
ATOM     92  C   UNL A   1      45.241  34.527  29.303  1.00  0.00     0.031 A 
ATOM     93  C   UNL A   1      46.372  33.392  31.105  1.00  0.00     0.131 A 
ATOM     94  C   UNL A   1      45.922  35.702  29.655  1.00  0.00     0.055 A 
ATOM     95  C   UNL A   1      46.993  34.580  31.493  1.00  0.00     0.041 A 
ATOM     96  F   UNL A   1      46.642  32.289  31.821  1.00  0.00    -0.206 F 
ATOM     97  C   UNL A   1      46.779  35.741  30.759  1.00  0.00     0.022 A 
BRANCH  94  98
ATOM     98  S   UNL A   1      45.744  37.163  28.595  1.00  0.00     0.124 S 
ATOM     99  O   UNL A   1      47.130  37.443  28.232  1.00  0.00    -0.237 OA
ATOM    100  O   UNL A   1      44.892  36.668  27.519  1.00  0.00    -0.237 OA
ATOM    101  O   UNL A   1      45.123  38.151  29.473  1.00  0.00    -0.744 OA
ENDBRANCH  94  98
ENDBRANCH  68  91
ENDBRANCH  42  43
ENDBRANCH  35  37
ENDBRANCH  34  35
ENDBRANCH  33  34
ENDBRANCH  32  33
ENDBRANCH  31  32
ENDBRANCH  30  31
ENDBRANCH  29  30
ENDBRANCH  28  29
ENDBRANCH   1  28
TORSDOF 27
ENDMDL
MODEL 3
REMARK VINA RESULT:      -9.6      2.812      5.817
REMARK SMILES CC(C)(C)c1ccc(C[N@H+]2CCO[C@H](CC(=O)OCCOCCOCCOCCOC(=O)c3ccc(-c4c5nc(c(-c6cc(S(=O)(=O)[O-])ccc6F)c6ccc([nH]6)c(-c6cc(S(=O)(=O)[O-])ccc6F)c6nc(c(-c7cc(S(=O)(=O)[O-])ccc7F)c7ccc4[nH]7)C=C6)C=C5)cc3)C2)cc1
REMARK SMILES IDX 23 1 22 2 21 3 20 4 19 5 18 6 16 7 17 8 15 9 14 10 10 11
REMARK SMILES IDX 11 12 96 13 12 15 13 16 9 17 8 18 5 19 6 20 98 21 7 22 97 23
REMARK SMILES IDX 2 24 1 25 3 26 4 27 24 28 25 29 26 30 27 31 28 32 29 33
REMARK SMILES IDX 30 34 31 35 32 36 33 37 34 38 95 39 35 40 94 41 36 42 37 43
REMARK SMILES IDX 38 44 88 45 39 46 93 47 87 48 89 49 40 50 92 51 86 52 85 53
REMARK SMILES IDX 41 55 73 56 53 57 72 58 54 59 57 60 71 61 90 62 55 63 56 64
REMARK SMILES IDX 70 66 91 67 58 68 42 69 43 70 51 71 44 72 50 73 52 74 49 75
REMARK SMILES IDX 45 76 46 77 47 78 48 79 74 80 75 81 83 82 76 83 82 84 84 85
REMARK SMILES IDX 81 86 77 87 78 88 79 89 80 90 59 91 60 92 68 93 61 94 67 95
REMARK SMILES IDX 69 96 66 97 62 98 63 99 64 100 65 101
REMARK H PARENT 10 14 89 54 57 65
REMARK Flexibility Score: inf
ROOT
ATOM      1  C   UNL A   1      41.381  21.630  26.152  1.00  0.00     0.188 C 
ENDROOT
BRANCH   1   2
ATOM      2  C   UNL A   1      39.965  22.185  26.179  1.00  0.00     0.188 C 
BRANCH   2   3
ATOM      3  O   UNL A   1      38.980  21.169  26.118  1.00  0.00    -0.376 OA
BRANCH   3   4
ATOM      4  C   UNL A   1      37.942  21.516  25.210  1.00  0.00     0.202 C 
BRANCH   4   5
ATOM      5  C   UNL A   1      36.494  21.548  25.721  1.00  0.00     0.261 C 
BRANCH   5   6
ATOM      6  O   UNL A   1      35.429  22.542  25.500  1.00  0.00    -0.463 OA
BRANCH   6   7
ATOM      7  C   UNL A   1      35.115  23.718  24.960  1.00  0.00     0.308 C 
ATOM      8  O   UNL A   1      35.073  24.792  25.549  1.00  0.00    -0.252 OA
BRANCH   7   9
ATOM      9  C   UNL A   1      34.786  23.725  23.466  1.00  0.00     0.160 C 
BRANCH   9  10
ATOM     10  C   UNL A   1      33.764  22.822  22.760  1.00  0.00     0.184 C 
ATOM     11  N   UNL A   1      32.163  24.518  22.305  1.00  0.00    -0.327 N 
ATOM     12  C   UNL A   1      31.155  23.861  23.150  1.00  0.00     0.291 C 
ATOM     13  C   UNL A   1      32.967  23.516  21.649  1.00  0.00     0.295 C 
ATOM     14  H   UNL A   1      32.673  25.083  22.982  1.00  0.00     0.348 HD
ATOM     15  C   UNL A   1      31.792  22.808  24.140  1.00  0.00     0.222 C 
ATOM     16  O   UNL A   1      32.903  22.063  23.618  1.00  0.00    -0.366 OA
BRANCH  11  17
ATOM     17  C   UNL A   1      32.058  25.863  21.740  1.00  0.00     0.299 C 
BRANCH  17  18
ATOM     18  C   UNL A   1      32.253  26.998  22.786  1.00  0.00     0.006 A 
ATOM     19  C   UNL A   1      32.419  28.601  25.210  1.00  0.00    -0.043 A 
ATOM     20  C   UNL A   1      31.263  28.571  24.419  1.00  0.00     0.005 A 
ATOM     21  C   UNL A   1      33.548  27.994  24.626  1.00  0.00     0.005 A 
ATOM     22  C   UNL A   1      31.189  27.804  23.222  1.00  0.00     0.010 A 
ATOM     23  C   UNL A   1      33.468  27.214  23.443  1.00  0.00     0.010 A 
BRANCH  19  24
ATOM     24  C   UNL A   1      32.428  29.200  26.648  1.00  0.00    -0.013 C 
ATOM     25  C   UNL A   1      31.929  30.665  26.688  1.00  0.00     0.016 C 
ATOM     26  C   UNL A   1      33.825  29.251  27.322  1.00  0.00     0.016 C 
ATOM     27  C   UNL A   1      31.557  28.348  27.588  1.00  0.00     0.016 C 
ENDBRANCH  19  24
ENDBRANCH  17  18
ENDBRANCH  11  17
ENDBRANCH   9  10
ENDBRANCH   7   9
ENDBRANCH   6   7
ENDBRANCH   5   6
ENDBRANCH   4   5
ENDBRANCH   3   4
ENDBRANCH   2   3
ENDBRANCH   1   2
BRANCH   1  28
ATOM     28  O   UNL A   1      41.495  20.326  25.589  1.00  0.00    -0.377 OA
BRANCH  28  29
ATOM     29  C   UNL A   1      42.523  19.491  26.126  1.00  0.00     0.188 C 
BRANCH  29  30
ATOM     30  C   UNL A   1      43.787  19.323  25.281  1.00  0.00     0.188 C 
BRANCH  30  31
ATOM     31  O   UNL A   1      44.032  20.236  24.212  1.00  0.00    -0.376 OA
BRANCH  31  32
ATOM     32  C   UNL A   1      44.882  21.353  24.432  1.00  0.00     0.202 C 
BRANCH  32  33
ATOM     33  C   UNL A   1      44.304  22.713  24.048  1.00  0.00     0.261 C 
BRANCH  33  34
ATOM     34  O   UNL A   1      45.220  23.806  24.204  1.00  0.00    -0.460 OA
BRANCH  34  35
ATOM     35  C   UNL A   1      45.699  23.988  25.455  1.00  0.00     0.338 C 
ATOM     36  O   UNL A   1      46.629  23.398  25.989  1.00  0.00    -0.246 OA
BRANCH  35  37
ATOM     37  C   UNL A   1      44.988  25.115  26.085  1.00  0.00     0.060 A 
ATOM     38  C   UNL A   1      44.522  26.173  25.289  1.00  0.00     0.016 A 
ATOM     39  C   UNL A   1      44.879  25.167  27.475  1.00  0.00     0.016 A 
ATOM     40  C   UNL A   1      44.017  27.325  25.891  1.00  0.00     0.010 A 
ATOM     41  C   UNL A   1      44.388  26.324  28.076  1.00  0.00     0.010 A 
ATOM     42  C   UNL A   1      44.011  27.426  27.287  1.00  0.00    -0.014 A 
BRANCH  42  43
ATOM     43  C   UNL A   1      43.869  28.745  27.946  1.00  0.00     0.031 A 
ATOM     44  C   UNL A   1      45.097  29.609  28.047  1.00  0.00     0.074 A 
ATOM     45  C   UNL A   1      42.699  29.144  28.470  1.00  0.00     0.049 A 
ATOM     46  N   UNL A   1      45.284  30.715  28.717  1.00  0.00    -0.248 NA
ATOM     47  C   UNL A   1      46.280  29.146  27.302  1.00  0.00     0.031 C 
ATOM     48  C   UNL A   1      41.439  28.411  28.374  1.00  0.00     0.029 A 
ATOM     49  N   UNL A   1      42.391  30.256  29.210  1.00  0.00    -0.354 N 
ATOM     50  C   UNL A   1      46.610  31.071  28.491  1.00  0.00     0.074 A 
ATOM     51  C   UNL A   1      47.187  30.045  27.650  1.00  0.00     0.031 C 
ATOM     52  C   UNL A   1      40.495  29.084  29.056  1.00  0.00     0.029 A 
ATOM     53  C   UNL A   1      41.098  30.262  29.678  1.00  0.00     0.049 A 
ATOM     54  H   UNL A   1      43.035  30.980  29.391  1.00  0.00     0.167 HD
ATOM     55  C   UNL A   1      47.282  32.157  28.944  1.00  0.00     0.034 A 
ATOM     56  C   UNL A   1      40.492  31.101  30.541  1.00  0.00     0.034 A 
ATOM     57  C   UNL A   1      46.685  33.157  29.795  1.00  0.00     0.049 A 
ATOM     58  C   UNL A   1      41.286  32.252  31.118  1.00  0.00     0.074 A 
ATOM     59  C   UNL A   1      47.259  34.306  30.308  1.00  0.00     0.029 A 
ATOM     60  N   UNL A   1      45.381  33.116  30.273  1.00  0.00    -0.354 N 
ATOM     61  N   UNL A   1      42.540  32.585  30.901  1.00  0.00    -0.248 NA
ATOM     62  C   UNL A   1      40.585  33.142  32.051  1.00  0.00     0.031 C 
ATOM     63  C   UNL A   1      46.333  34.912  31.161  1.00  0.00     0.029 A 
ATOM     64  C   UNL A   1      45.145  34.198  31.104  1.00  0.00     0.049 A 
ATOM     65  H   UNL A   1      44.721  32.419  30.052  1.00  0.00     0.167 HD
ATOM     66  C   UNL A   1      42.761  33.744  31.640  1.00  0.00     0.074 A 
ATOM     67  C   UNL A   1      41.512  34.056  32.303  1.00  0.00     0.031 C 
ATOM     68  C   UNL A   1      43.890  34.490  31.758  1.00  0.00     0.034 A 
BRANCH  55  69
ATOM     69  C   UNL A   1      48.741  32.280  28.576  1.00  0.00     0.023 A 
ATOM     70  C   UNL A   1      49.164  32.983  27.435  1.00  0.00     0.031 A 
ATOM     71  C   UNL A   1      49.724  31.654  29.364  1.00  0.00     0.131 A 
ATOM     72  C   UNL A   1      50.521  32.983  27.076  1.00  0.00     0.055 A 
ATOM     73  C   UNL A   1      51.082  31.731  29.048  1.00  0.00     0.041 A 
ATOM     74  F   UNL A   1      49.381  30.943  30.450  1.00  0.00    -0.206 F 
ATOM     75  C   UNL A   1      51.486  32.386  27.889  1.00  0.00     0.022 A 
BRANCH  72  76
ATOM     76  S   UNL A   1      50.986  33.644  25.452  1.00  0.00     0.124 S 
ATOM     77  O   UNL A   1      51.270  32.420  24.706  1.00  0.00    -0.237 OA
ATOM     78  O   UNL A   1      49.786  34.371  25.052  1.00  0.00    -0.237 OA
ATOM     79  O   UNL A   1      52.153  34.474  25.741  1.00  0.00    -0.744 OA
ENDBRANCH  72  76
ENDBRANCH  55  69
BRANCH  56  80
ATOM     80  C   UNL A   1      39.079  30.870  30.956  1.00  0.00     0.023 A 
ATOM     81  C   UNL A   1      38.028  31.607  30.388  1.00  0.00     0.031 A 
ATOM     82  C   UNL A   1      38.760  29.943  31.966  1.00  0.00     0.131 A 
ATOM     83  C   UNL A   1      36.719  31.444  30.867  1.00  0.00     0.055 A 
ATOM     84  C   UNL A   1      37.447  29.740  32.395  1.00  0.00     0.041 A 
ATOM     85  F   UNL A   1      39.724  29.211  32.547  1.00  0.00    -0.206 F 
ATOM     86  C   UNL A   1      36.419  30.504  31.855  1.00  0.00     0.022 A 
BRANCH  83  87
ATOM     87  S   UNL A   1      35.424  32.553  30.246  1.00  0.00     0.124 S 
ATOM     88  O   UNL A   1      34.434  32.475  31.313  1.00  0.00    -0.237 OA
ATOM     89  O   UNL A   1      36.143  33.818  30.127  1.00  0.00    -0.237 OA
ATOM     90  O   UNL A   1      35.031  31.939  28.980  1.00  0.00    -0.744 OA
ENDBRANCH  83  87
ENDBRANCH  56  80
BRANCH  68  91
ATOM     91  C   UNL A   1      43.807  35.753  32.583  1.00  0.00     0.023 A 
ATOM     92  C   UNL A   1      43.671  37.022  31.993  1.00  0.00     0.031 A 
ATOM     93  C   UNL A   1      43.849  35.677  33.987  1.00  0.00     0.131 A 
ATOM     94  C   UNL A   1      43.630  38.166  32.804  1.00  0.00     0.055 A 
ATOM     95  C   UNL A   1      43.739  36.813  34.789  1.00  0.00     0.041 A 
ATOM     96  F   UNL A   1      43.982  34.492  34.604  1.00  0.00    -0.206 F 
ATOM     97  C   UNL A   1      43.642  38.068  34.198  1.00  0.00     0.022 A 
BRANCH  94  98
ATOM     98  S   UNL A   1      43.656  39.797  32.011  1.00  0.00     0.124 S 
ATOM     99  O   UNL A   1      42.656  40.525  32.787  1.00  0.00    -0.237 OA
ATOM    100  O   UNL A   1      45.040  40.218  32.203  1.00  0.00    -0.237 OA
ATOM    101  O   UNL A   1      43.279  39.513  30.628  1.00  0.00    -0.744 OA
ENDBRANCH  94  98
ENDBRANCH  68  91
ENDBRANCH  42  43
ENDBRANCH  35  37
ENDBRANCH  34  35
ENDBRANCH  33  34
ENDBRANCH  32  33
ENDBRANCH  31  32
ENDBRANCH  30  31
ENDBRANCH  29  30
ENDBRANCH  28  29
ENDBRANCH   1  28
TORSDOF 27
ENDMDL
