MODEL 1
REMARK VINA RESULT:     -10.5      0.000      0.000
REMARK SMILES Cc1cccc(C(=O)Nc2cc(C(=O)OCCOCCOCCOCCOC(=O)c3ccc(-c4c5nc(c(-c6cc(S(=O)(=O)[O-])ccc6F)c6ccc([nH]6)c(-c6cc(S(=O)(=O)[O-])ccc6F)c6nc(c(-c7cc(S(=O)(=O)[O-])ccc7F)c7ccc4[nH]7)C=C6)C=C5)cc3)ccc2N2CC[NH+](CC(=O)NC(C)(C)C)CC2)c1
REMARK SMILES IDX 20 1 19 2 18 3 17 4 16 5 15 6 13 7 14 8 12 9 10 10 11 11
REMARK SMILES IDX 95 12 94 13 93 14 9 15 7 16 8 17 6 19 1 20 2 21 3 22 110 23
REMARK SMILES IDX 4 24 5 25 96 26 97 27 109 28 98 29 108 30 99 31 100 33
REMARK SMILES IDX 101 34 102 35 103 36 104 38 105 39 106 40 107 41 21 42 22 43
REMARK SMILES IDX 23 44 24 45 25 46 26 47 27 48 28 49 29 50 30 51 31 52 92 53
REMARK SMILES IDX 32 54 91 55 33 56 34 57 35 58 85 59 36 60 90 61 84 62 86 63
REMARK SMILES IDX 37 64 89 65 83 66 82 67 38 69 70 70 50 71 69 72 51 73 54 74
REMARK SMILES IDX 68 75 87 76 52 77 53 78 67 80 88 81 55 82 39 83 40 84 48 85
REMARK SMILES IDX 41 86 47 87 49 88 46 89 42 90 43 91 44 92 45 93 71 94 72 95
REMARK SMILES IDX 80 96 73 97 79 98 81 99 78 100 74 101 75 102 76 103 77 104
REMARK SMILES IDX 56 105 57 106 65 107 58 108 64 109 66 110 63 111 59 112
REMARK SMILES IDX 60 113 61 114 62 115
REMARK H PARENT 9 18 99 32 103 37 86 68 54 79
REMARK Flexibility Score: inf
ROOT
ATOM      1  C   UNL A   1      35.108  34.134  34.132  1.00  0.00     0.188 C 
ENDROOT
BRANCH   1   2
ATOM      2  C   UNL A   1      34.101  33.493  32.950  1.00  0.00     0.188 C 
BRANCH   2   3
ATOM      3  O   UNL A   1      34.121  33.513  31.252  1.00  0.00    -0.376 OA
BRANCH   3   4
ATOM      4  C   UNL A   1      34.583  32.433  29.983  1.00  0.00     0.202 C 
BRANCH   4   5
ATOM      5  C   UNL A   1      34.186  32.432  28.135  1.00  0.00     0.261 C 
BRANCH   5   6
ATOM      6  O   UNL A   1      32.579  32.058  27.355  1.00  0.00    -0.460 OA
BRANCH   6   7
ATOM      7  C   UNL A   1      31.808  31.167  26.422  1.00  0.00     0.338 C 
ATOM      8  O   UNL A   1      30.811  31.546  25.795  1.00  0.00    -0.246 OA
BRANCH   7   9
ATOM      9  C   UNL A   1      32.017  29.607  26.071  1.00  0.00     0.062 A 
ATOM     10  C   UNL A   1      32.028  27.590  24.628  1.00  0.00     0.065 A 
ATOM     11  C   UNL A   1      31.514  28.818  25.027  1.00  0.00     0.044 A 
ATOM     12  C   UNL A   1      32.784  26.837  25.523  1.00  0.00     0.061 A 
ATOM     13  C   UNL A   1      33.159  27.479  26.706  1.00  0.00     0.029 A 
ATOM     14  C   UNL A   1      32.842  28.850  26.933  1.00  0.00     0.018 A 
BRANCH  10  15
ATOM     15  N   UNL A   1      31.713  27.059  23.351  1.00  0.00    -0.320 N 
ATOM     16  C   UNL A   1      30.741  27.441  22.423  1.00  0.00     0.255 C 
ATOM     17  O   UNL A   1      30.866  27.012  21.269  1.00  0.00    -0.269 OA
ATOM     18  H   UNL A   1      32.272  26.298  23.073  1.00  0.00     0.170 HD
BRANCH  16  19
ATOM     19  C   UNL A   1      29.646  28.443  22.642  1.00  0.00     0.040 A 
ATOM     20  C   UNL A   1      28.994  32.163  22.626  1.00  0.00     0.044 C 
ATOM     21  C   UNL A   1      28.718  30.696  22.693  1.00  0.00    -0.050 A 
ATOM     22  C   UNL A   1      27.522  30.221  23.235  1.00  0.00     0.003 A 
ATOM     23  C   UNL A   1      29.752  29.803  22.361  1.00  0.00     0.017 A 
ATOM     24  C   UNL A   1      27.353  28.855  23.421  1.00  0.00     0.001 A 
ATOM     25  C   UNL A   1      28.406  27.975  23.128  1.00  0.00     0.014 A 
ENDBRANCH  16  19
ENDBRANCH  10  15
BRANCH  12  26
ATOM     26  N   UNL A   1      33.214  25.569  25.137  1.00  0.00    -0.359 N 
ATOM     27  C   UNL A   1      32.348  24.389  25.170  1.00  0.00     0.178 C 
ATOM     28  C   UNL A   1      34.582  25.316  25.576  1.00  0.00     0.178 C 
ATOM     29  C   UNL A   1      33.077  23.144  24.560  1.00  0.00     0.284 C 
ATOM     30  C   UNL A   1      35.225  24.214  24.735  1.00  0.00     0.284 C 
ATOM     31  N   UNL A   1      34.519  22.936  24.848  1.00  0.00    -0.324 N 
ATOM     32  H   UNL A   1      34.852  22.289  24.132  1.00  0.00     0.348 HD
BRANCH  31  33
ATOM     33  C   UNL A   1      34.857  22.191  26.078  1.00  0.00     0.363 C 
BRANCH  33  34
ATOM     34  C   UNL A   1      33.715  21.479  26.799  1.00  0.00     0.275 C 
ATOM     35  O   UNL A   1      33.272  21.961  27.851  1.00  0.00    -0.268 OA
ATOM     36  N   UNL A   1      33.104  20.343  26.360  1.00  0.00    -0.347 N 
ATOM     37  H   UNL A   1      32.325  20.141  26.927  1.00  0.00     0.164 HD
BRANCH  36  38
ATOM     38  C   UNL A   1      33.240  19.305  25.294  1.00  0.00     0.032 C 
ATOM     39  C   UNL A   1      32.447  19.659  24.020  1.00  0.00     0.034 C 
ATOM     40  C   UNL A   1      34.727  19.311  24.881  1.00  0.00     0.034 C 
ATOM     41  C   UNL A   1      32.879  17.886  25.736  1.00  0.00     0.034 C 
ENDBRANCH  36  38
ENDBRANCH  33  34
ENDBRANCH  31  33
ENDBRANCH  12  26
ENDBRANCH   7   9
ENDBRANCH   6   7
ENDBRANCH   5   6
ENDBRANCH   4   5
ENDBRANCH   3   4
ENDBRANCH   2   3
ENDBRANCH   1   2
BRANCH   1  42
ATOM     42  O   UNL A   1      35.782  33.446  35.202  1.00  0.00    -0.377 OA
BRANCH  42  43
ATOM     43  C   UNL A   1      37.038  33.807  35.772  1.00  0.00     0.188 C 
BRANCH  43  44
ATOM     44  C   UNL A   1      38.232  32.897  35.563  1.00  0.00     0.188 C 
BRANCH  44  45
ATOM     45  O   UNL A   1      38.107  32.264  34.297  1.00  0.00    -0.376 OA
BRANCH  45  46
ATOM     46  C   UNL A   1      39.245  31.527  33.889  1.00  0.00     0.202 C 
BRANCH  46  47
ATOM     47  C   UNL A   1      39.508  31.667  32.388  1.00  0.00     0.261 C 
BRANCH  47  48
ATOM     48  O   UNL A   1      39.455  30.354  31.793  1.00  0.00    -0.460 OA
BRANCH  48  49
ATOM     49  C   UNL A   1      40.628  29.971  31.177  1.00  0.00     0.338 C 
ATOM     50  O   UNL A   1      40.808  29.941  30.006  1.00  0.00    -0.246 OA
BRANCH  49  51
ATOM     51  C   UNL A   1      41.533  29.429  32.241  1.00  0.00     0.060 A 
ATOM     52  C   UNL A   1      42.840  29.833  32.358  1.00  0.00     0.016 A 
ATOM     53  C   UNL A   1      41.165  28.422  33.089  1.00  0.00     0.016 A 
ATOM     54  C   UNL A   1      43.807  28.962  32.957  1.00  0.00     0.010 A 
ATOM     55  C   UNL A   1      42.178  27.645  33.719  1.00  0.00     0.010 A 
ATOM     56  C   UNL A   1      43.568  27.622  33.323  1.00  0.00    -0.014 A 
BRANCH  56  57
ATOM     57  C   UNL A   1      44.805  26.243  33.166  1.00  0.00     0.031 A 
ATOM     58  C   UNL A   1      46.206  25.758  34.477  1.00  0.00     0.074 A 
ATOM     59  C   UNL A   1      44.764  25.828  31.787  1.00  0.00     0.049 A 
ATOM     60  N   UNL A   1      47.510  26.147  34.331  1.00  0.00    -0.248 NA
ATOM     61  C   UNL A   1      46.365  25.387  36.015  1.00  0.00     0.031 C 
ATOM     62  C   UNL A   1      45.600  24.968  30.885  1.00  0.00     0.029 A 
ATOM     63  N   UNL A   1      43.940  26.308  30.745  1.00  0.00    -0.354 N 
ATOM     64  C   UNL A   1      48.451  25.902  35.265  1.00  0.00     0.074 A 
ATOM     65  C   UNL A   1      47.639  25.660  36.403  1.00  0.00     0.031 C 
ATOM     66  C   UNL A   1      45.307  24.984  29.597  1.00  0.00     0.029 A 
ATOM     67  C   UNL A   1      44.520  26.118  29.478  1.00  0.00     0.049 A 
ATOM     68  H   UNL A   1      43.061  26.727  30.889  1.00  0.00     0.167 HD
ATOM     69  C   UNL A   1      49.792  25.818  34.976  1.00  0.00     0.034 A 
ATOM     70  C   UNL A   1      44.992  27.108  28.690  1.00  0.00     0.034 A 
ATOM     71  C   UNL A   1      50.145  25.579  33.547  1.00  0.00     0.049 A 
ATOM     72  C   UNL A   1      46.545  27.255  28.724  1.00  0.00     0.074 A 
ATOM     73  C   UNL A   1      50.564  24.422  32.905  1.00  0.00     0.029 A 
ATOM     74  N   UNL A   1      49.946  26.492  32.505  1.00  0.00    -0.354 N 
ATOM     75  N   UNL A   1      47.374  26.826  29.672  1.00  0.00    -0.248 NA
ATOM     76  C   UNL A   1      47.279  27.832  27.608  1.00  0.00     0.031 C 
ATOM     77  C   UNL A   1      50.488  24.622  31.504  1.00  0.00     0.029 A 
ATOM     78  C   UNL A   1      49.951  25.878  31.237  1.00  0.00     0.049 A 
ATOM     79  H   UNL A   1      49.818  27.459  32.644  1.00  0.00     0.167 HD
ATOM     80  C   UNL A   1      48.698  27.007  29.299  1.00  0.00     0.074 A 
ATOM     81  C   UNL A   1      48.556  27.681  28.002  1.00  0.00     0.031 C 
ATOM     82  C   UNL A   1      49.862  26.617  29.952  1.00  0.00     0.034 A 
BRANCH  69  83
ATOM     83  C   UNL A   1      50.735  25.525  36.123  1.00  0.00     0.023 A 
ATOM     84  C   UNL A   1      51.351  26.541  36.878  1.00  0.00     0.031 A 
ATOM     85  C   UNL A   1      51.091  24.202  36.451  1.00  0.00     0.131 A 
ATOM     86  C   UNL A   1      52.352  26.241  37.822  1.00  0.00     0.055 A 
ATOM     87  C   UNL A   1      52.103  23.902  37.376  1.00  0.00     0.041 A 
ATOM     88  F   UNL A   1      50.484  23.163  35.852  1.00  0.00    -0.206 F 
ATOM     89  C   UNL A   1      52.758  24.928  38.047  1.00  0.00     0.022 A 
BRANCH  86  90
ATOM     90  S   UNL A   1      53.146  27.601  38.732  1.00  0.00     0.124 S 
ATOM     91  O   UNL A   1      52.137  28.654  38.671  1.00  0.00    -0.237 OA
ATOM     92  O   UNL A   1      53.376  27.006  40.044  1.00  0.00    -0.237 OA
ATOM     93  O   UNL A   1      54.359  27.868  37.958  1.00  0.00    -0.744 OA
ENDBRANCH  86  90
ENDBRANCH  69  83
BRANCH  70  94
ATOM     94  C   UNL A   1      43.813  27.928  28.294  1.00  0.00     0.023 A 
ATOM     95  C   UNL A   1      43.965  29.342  28.492  1.00  0.00     0.031 A 
ATOM     96  C   UNL A   1      42.923  27.505  27.315  1.00  0.00     0.131 A 
ATOM     97  C   UNL A   1      43.520  30.238  27.515  1.00  0.00     0.055 A 
ATOM     98  C   UNL A   1      42.336  28.434  26.440  1.00  0.00     0.041 A 
ATOM     99  F   UNL A   1      42.741  26.198  27.082  1.00  0.00    -0.206 F 
ATOM    100  C   UNL A   1      42.684  29.792  26.496  1.00  0.00     0.022 A 
BRANCH  97 101
ATOM    101  S   UNL A   1      44.419  31.827  27.292  1.00  0.00     0.124 S 
ATOM    102  O   UNL A   1      43.625  32.749  28.094  1.00  0.00    -0.237 OA
ATOM    103  O   UNL A   1      45.758  31.526  27.787  1.00  0.00    -0.237 OA
ATOM    104  O   UNL A   1      44.360  32.028  25.846  1.00  0.00    -0.744 OA
ENDBRANCH  97 101
ENDBRANCH  70  94
BRANCH  82 105
ATOM    105  C   UNL A   1      51.220  26.807  29.294  1.00  0.00     0.023 A 
ATOM    106  C   UNL A   1      51.711  25.963  28.290  1.00  0.00     0.031 A 
ATOM    107  C   UNL A   1      52.106  27.795  29.780  1.00  0.00     0.131 A 
ATOM    108  C   UNL A   1      52.968  26.205  27.714  1.00  0.00     0.055 A 
ATOM    109  C   UNL A   1      53.406  27.945  29.298  1.00  0.00     0.041 A 
ATOM    110  F   UNL A   1      51.727  28.665  30.730  1.00  0.00    -0.206 F 
ATOM    111  C   UNL A   1      53.834  27.167  28.232  1.00  0.00     0.022 A 
BRANCH 108 112
ATOM    112  S   UNL A   1      53.367  25.366  26.159  1.00  0.00     0.124 S 
ATOM    113  O   UNL A   1      54.584  24.636  26.498  1.00  0.00    -0.237 OA
ATOM    114  O   UNL A   1      52.173  24.549  25.951  1.00  0.00    -0.237 OA
ATOM    115  O   UNL A   1      53.534  26.463  25.210  1.00  0.00    -0.744 OA
ENDBRANCH 108 112
ENDBRANCH  82 105
ENDBRANCH  56  57
ENDBRANCH  49  51
ENDBRANCH  48  49
ENDBRANCH  47  48
ENDBRANCH  46  47
ENDBRANCH  45  46
ENDBRANCH  44  45
ENDBRANCH  43  44
ENDBRANCH  42  43
ENDBRANCH   1  42
TORSDOF 29
ENDMDL
MODEL 2
REMARK VINA RESULT:      -9.4      4.953     11.101
REMARK SMILES Cc1cccc(C(=O)Nc2cc(C(=O)OCCOCCOCCOCCOC(=O)c3ccc(-c4c5nc(c(-c6cc(S(=O)(=O)[O-])ccc6F)c6ccc([nH]6)c(-c6cc(S(=O)(=O)[O-])ccc6F)c6nc(c(-c7cc(S(=O)(=O)[O-])ccc7F)c7ccc4[nH]7)C=C6)C=C5)cc3)ccc2N2CC[NH+](CC(=O)NC(C)(C)C)CC2)c1
REMARK SMILES IDX 20 1 19 2 18 3 17 4 16 5 15 6 13 7 14 8 12 9 10 10 11 11
REMARK SMILES IDX 95 12 94 13 93 14 9 15 7 16 8 17 6 19 1 20 2 21 3 22 110 23
REMARK SMILES IDX 4 24 5 25 96 26 97 27 109 28 98 29 108 30 99 31 100 33
REMARK SMILES IDX 101 34 102 35 103 36 104 38 105 39 106 40 107 41 21 42 22 43
REMARK SMILES IDX 23 44 24 45 25 46 26 47 27 48 28 49 29 50 30 51 31 52 92 53
REMARK SMILES IDX 32 54 91 55 33 56 34 57 35 58 85 59 36 60 90 61 84 62 86 63
REMARK SMILES IDX 37 64 89 65 83 66 82 67 38 69 70 70 50 71 69 72 51 73 54 74
REMARK SMILES IDX 68 75 87 76 52 77 53 78 67 80 88 81 55 82 39 83 40 84 48 85
REMARK SMILES IDX 41 86 47 87 49 88 46 89 42 90 43 91 44 92 45 93 71 94 72 95
REMARK SMILES IDX 80 96 73 97 79 98 81 99 78 100 74 101 75 102 76 103 77 104
REMARK SMILES IDX 56 105 57 106 65 107 58 108 64 109 66 110 63 111 59 112
REMARK SMILES IDX 60 113 61 114 62 115
REMARK H PARENT 9 18 99 32 103 37 86 68 54 79
REMARK Flexibility Score: inf
ROOT
ATOM      1  C   UNL A   1      45.695  22.077  25.944  1.00  0.00     0.188 C 
ENDROOT
BRANCH   1   2
ATOM      2  C   UNL A   1      44.223  21.282  25.801  1.00  0.00     0.188 C 
BRANCH   2   3
ATOM      3  O   UNL A   1      42.745  21.385  26.632  1.00  0.00    -0.376 OA
BRANCH   3   4
ATOM      4  C   UNL A   1      41.629  22.632  27.070  1.00  0.00     0.202 C 
BRANCH   4   5
ATOM      5  C   UNL A   1      39.772  22.810  26.765  1.00  0.00     0.261 C 
BRANCH   5   6
ATOM      6  O   UNL A   1      38.673  21.613  25.933  1.00  0.00    -0.460 OA
BRANCH   6   7
ATOM      7  C   UNL A   1      37.346  21.370  25.272  1.00  0.00     0.338 C 
ATOM      8  O   UNL A   1      36.920  20.239  25.005  1.00  0.00    -0.246 OA
BRANCH   7   9
ATOM      9  C   UNL A   1      36.252  22.423  24.727  1.00  0.00     0.062 A 
ATOM     10  C   UNL A   1      34.166  23.142  23.595  1.00  0.00     0.065 A 
ATOM     11  C   UNL A   1      35.263  22.302  23.740  1.00  0.00     0.044 A 
ATOM     12  C   UNL A   1      34.211  24.430  24.123  1.00  0.00     0.061 A 
ATOM     13  C   UNL A   1      35.292  24.715  24.962  1.00  0.00     0.029 A 
ATOM     14  C   UNL A   1      36.242  23.711  25.307  1.00  0.00     0.018 A 
BRANCH  10  15
ATOM     15  N   UNL A   1      33.039  22.730  22.838  1.00  0.00    -0.320 N 
ATOM     16  C   UNL A   1      32.282  21.557  22.902  1.00  0.00     0.255 C 
ATOM     17  O   UNL A   1      31.180  21.569  22.340  1.00  0.00    -0.269 OA
ATOM     18  H   UNL A   1      32.743  23.375  22.157  1.00  0.00     0.170 HD
BRANCH  16  19
ATOM     19  C   UNL A   1      32.598  20.336  23.714  1.00  0.00     0.040 A 
ATOM     20  C   UNL A   1      33.587  16.710  23.342  1.00  0.00     0.044 C 
ATOM     21  C   UNL A   1      33.289  18.017  24.003  1.00  0.00    -0.050 A 
ATOM     22  C   UNL A   1      33.016  18.077  25.370  1.00  0.00     0.003 A 
ATOM     23  C   UNL A   1      33.120  19.154  23.194  1.00  0.00     0.017 A 
ATOM     24  C   UNL A   1      32.599  19.277  25.931  1.00  0.00     0.001 A 
ATOM     25  C   UNL A   1      32.390  20.395  25.110  1.00  0.00     0.014 A 
ENDBRANCH  16  19
ENDBRANCH  10  15
BRANCH  12  26
ATOM     26  N   UNL A   1      33.139  25.289  23.889  1.00  0.00    -0.359 N 
ATOM     27  C   UNL A   1      32.846  25.860  22.573  1.00  0.00     0.178 C 
ATOM     28  C   UNL A   1      32.953  26.221  24.997  1.00  0.00     0.178 C 
ATOM     29  C   UNL A   1      31.512  26.679  22.604  1.00  0.00     0.284 C 
ATOM     30  C   UNL A   1      31.529  26.771  25.009  1.00  0.00     0.284 C 
ATOM     31  N   UNL A   1      31.203  27.517  23.791  1.00  0.00    -0.324 N 
ATOM     32  H   UNL A   1      30.199  27.695  23.748  1.00  0.00     0.348 HD
BRANCH  31  33
ATOM     33  C   UNL A   1      31.733  28.896  23.794  1.00  0.00     0.363 C 
BRANCH  33  34
ATOM     34  C   UNL A   1      30.901  29.962  24.502  1.00  0.00     0.275 C 
ATOM     35  O   UNL A   1      31.250  30.354  25.624  1.00  0.00    -0.268 OA
ATOM     36  N   UNL A   1      29.793  30.560  23.980  1.00  0.00    -0.347 N 
ATOM     37  H   UNL A   1      29.499  31.293  24.568  1.00  0.00     0.164 HD
BRANCH  36  38
ATOM     38  C   UNL A   1      28.880  30.455  22.802  1.00  0.00     0.032 C 
ATOM     39  C   UNL A   1      27.753  29.426  23.017  1.00  0.00     0.034 C 
ATOM     40  C   UNL A   1      28.182  31.827  22.680  1.00  0.00     0.034 C 
ATOM     41  C   UNL A   1      29.583  30.166  21.474  1.00  0.00     0.034 C 
ENDBRANCH  36  38
ENDBRANCH  33  34
ENDBRANCH  31  33
ENDBRANCH  12  26
ENDBRANCH   7   9
ENDBRANCH   6   7
ENDBRANCH   5   6
ENDBRANCH   4   5
ENDBRANCH   3   4
ENDBRANCH   2   3
ENDBRANCH   1   2
BRANCH   1  42
ATOM     42  O   UNL A   1      46.017  23.434  25.590  1.00  0.00    -0.377 OA
BRANCH  42  43
ATOM     43  C   UNL A   1      46.564  24.422  26.460  1.00  0.00     0.188 C 
BRANCH  43  44
ATOM     44  C   UNL A   1      45.684  25.565  26.923  1.00  0.00     0.188 C 
BRANCH  44  45
ATOM     45  O   UNL A   1      46.506  26.567  27.507  1.00  0.00    -0.376 OA
BRANCH  45  46
ATOM     46  C   UNL A   1      45.946  27.206  28.640  1.00  0.00     0.202 C 
BRANCH  46  47
ATOM     47  C   UNL A   1      45.325  26.200  29.612  1.00  0.00     0.261 C 
BRANCH  47  48
ATOM     48  O   UNL A   1      46.288  25.914  30.647  1.00  0.00    -0.460 OA
BRANCH  48  49
ATOM     49  C   UNL A   1      45.834  26.173  31.922  1.00  0.00     0.338 C 
ATOM     50  O   UNL A   1      45.103  27.058  32.222  1.00  0.00    -0.246 OA
BRANCH  49  51
ATOM     51  C   UNL A   1      46.579  25.268  32.854  1.00  0.00     0.060 A 
ATOM     52  C   UNL A   1      45.979  24.185  33.449  1.00  0.00     0.016 A 
ATOM     53  C   UNL A   1      47.859  25.512  33.265  1.00  0.00     0.016 A 
ATOM     54  C   UNL A   1      46.478  23.687  34.696  1.00  0.00     0.010 A 
ATOM     55  C   UNL A   1      48.322  24.919  34.474  1.00  0.00     0.010 A 
ATOM     56  C   UNL A   1      47.473  24.312  35.475  1.00  0.00    -0.014 A 
BRANCH  56  57
ATOM     57  C   UNL A   1      47.492  24.361  37.332  1.00  0.00     0.031 A 
ATOM     58  C   UNL A   1      46.294  25.420  38.499  1.00  0.00     0.074 A 
ATOM     59  C   UNL A   1      48.738  23.758  37.732  1.00  0.00     0.049 A 
ATOM     60  N   UNL A   1      46.680  26.609  39.056  1.00  0.00    -0.248 NA
ATOM     61  C   UNL A   1      44.745  25.664  38.760  1.00  0.00     0.031 C 
ATOM     62  C   UNL A   1      49.538  23.652  38.997  1.00  0.00     0.029 A 
ATOM     63  N   UNL A   1      49.746  23.192  36.920  1.00  0.00    -0.354 N 
ATOM     64  C   UNL A   1      45.841  27.382  39.774  1.00  0.00     0.074 A 
ATOM     65  C   UNL A   1      44.585  26.882  39.342  1.00  0.00     0.031 C 
ATOM     66  C   UNL A   1      50.754  23.145  38.900  1.00  0.00     0.029 A 
ATOM     67  C   UNL A   1      51.008  23.222  37.541  1.00  0.00     0.049 A 
ATOM     68  H   UNL A   1      49.584  22.820  36.023  1.00  0.00     0.167 HD
ATOM     69  C   UNL A   1      46.271  28.276  40.725  1.00  0.00     0.034 A 
ATOM     70  C   UNL A   1      52.038  24.006  37.156  1.00  0.00     0.034 A 
ATOM     71  C   UNL A   1      47.651  28.066  41.250  1.00  0.00     0.049 A 
ATOM     72  C   UNL A   1      52.229  25.275  38.043  1.00  0.00     0.074 A 
ATOM     73  C   UNL A   1      48.085  27.523  42.452  1.00  0.00     0.029 A 
ATOM     74  N   UNL A   1      48.828  28.239  40.511  1.00  0.00    -0.354 N 
ATOM     75  N   UNL A   1      51.324  25.854  38.827  1.00  0.00    -0.248 NA
ATOM     76  C   UNL A   1      53.524  25.927  38.167  1.00  0.00     0.031 C 
ATOM     77  C   UNL A   1      49.476  27.267  42.363  1.00  0.00     0.029 A 
ATOM     78  C   UNL A   1      49.930  27.573  41.083  1.00  0.00     0.049 A 
ATOM     79  H   UNL A   1      48.879  28.769  39.683  1.00  0.00     0.167 HD
ATOM     80  C   UNL A   1      51.888  26.878  39.573  1.00  0.00     0.074 A 
ATOM     81  C   UNL A   1      53.270  26.888  39.074  1.00  0.00     0.031 C 
ATOM     82  C   UNL A   1      51.320  27.666  40.568  1.00  0.00     0.034 A 
BRANCH  69  83
ATOM     83  C   UNL A   1      45.215  29.069  41.464  1.00  0.00     0.023 A 
ATOM     84  C   UNL A   1      44.934  30.416  41.168  1.00  0.00     0.031 A 
ATOM     85  C   UNL A   1      44.500  28.504  42.539  1.00  0.00     0.131 A 
ATOM     86  C   UNL A   1      44.072  31.176  41.983  1.00  0.00     0.055 A 
ATOM     87  C   UNL A   1      43.658  29.264  43.364  1.00  0.00     0.041 A 
ATOM     88  F   UNL A   1      44.630  27.200  42.834  1.00  0.00    -0.206 F 
ATOM     89  C   UNL A   1      43.461  30.615  43.102  1.00  0.00     0.022 A 
BRANCH  86  90
ATOM     90  S   UNL A   1      43.784  32.925  41.578  1.00  0.00     0.124 S 
ATOM     91  O   UNL A   1      44.354  33.038  40.239  1.00  0.00    -0.237 OA
ATOM     92  O   UNL A   1      42.332  33.032  41.670  1.00  0.00    -0.237 OA
ATOM     93  O   UNL A   1      44.519  33.642  42.620  1.00  0.00    -0.744 OA
ENDBRANCH  86  90
ENDBRANCH  69  83
BRANCH  70  94
ATOM     94  C   UNL A   1      52.445  23.531  35.805  1.00  0.00     0.023 A 
ATOM     95  C   UNL A   1      52.528  22.105  35.664  1.00  0.00     0.031 A 
ATOM     96  C   UNL A   1      52.198  24.279  34.660  1.00  0.00     0.131 A 
ATOM     97  C   UNL A   1      52.030  21.484  34.513  1.00  0.00     0.055 A 
ATOM     98  C   UNL A   1      51.869  23.643  33.453  1.00  0.00     0.041 A 
ATOM     99  F   UNL A   1      52.107  25.615  34.729  1.00  0.00    -0.206 F 
ATOM    100  C   UNL A   1      51.719  22.249  33.393  1.00  0.00     0.022 A 
BRANCH  97 101
ATOM    101  S   UNL A   1      51.329  19.789  34.652  1.00  0.00     0.124 S 
ATOM    102  O   UNL A   1      52.433  18.957  34.194  1.00  0.00    -0.237 OA
ATOM    103  O   UNL A   1      50.983  19.686  36.066  1.00  0.00    -0.237 OA
ATOM    104  O   UNL A   1      50.167  19.851  33.767  1.00  0.00    -0.744 OA
ENDBRANCH  97 101
ENDBRANCH  70  94
BRANCH  82 105
ATOM    105  C   UNL A   1      52.167  28.656  41.352  1.00  0.00     0.023 A 
ATOM    106  C   UNL A   1      52.977  28.285  42.433  1.00  0.00     0.031 A 
ATOM    107  C   UNL A   1      52.062  30.040  41.085  1.00  0.00     0.131 A 
ATOM    108  C   UNL A   1      53.746  29.248  43.104  1.00  0.00     0.055 A 
ATOM    109  C   UNL A   1      52.723  31.006  41.842  1.00  0.00     0.041 A 
ATOM    110  F   UNL A   1      51.325  30.498  40.061  1.00  0.00    -0.206 F 
ATOM    111  C   UNL A   1      53.601  30.610  42.840  1.00  0.00     0.022 A 
BRANCH 108 112
ATOM    112  S   UNL A   1      55.074  28.669  44.191  1.00  0.00     0.124 S 
ATOM    113  O   UNL A   1      54.662  29.184  45.493  1.00  0.00    -0.237 OA
ATOM    114  O   UNL A   1      54.982  27.221  44.023  1.00  0.00    -0.237 OA
ATOM    115  O   UNL A   1      56.273  29.279  43.624  1.00  0.00    -0.744 OA
ENDBRANCH 108 112
ENDBRANCH  82 105
ENDBRANCH  56  57
ENDBRANCH  49  51
ENDBRANCH  48  49
ENDBRANCH  47  48
ENDBRANCH  46  47
ENDBRANCH  45  46
ENDBRANCH  44  45
ENDBRANCH  43  44
ENDBRANCH  42  43
ENDBRANCH   1  42
TORSDOF 29
ENDMDL
MODEL 3
REMARK VINA RESULT:      -9.1      6.008     12.175
REMARK SMILES Cc1cccc(C(=O)Nc2cc(C(=O)OCCOCCOCCOCCOC(=O)c3ccc(-c4c5nc(c(-c6cc(S(=O)(=O)[O-])ccc6F)c6ccc([nH]6)c(-c6cc(S(=O)(=O)[O-])ccc6F)c6nc(c(-c7cc(S(=O)(=O)[O-])ccc7F)c7ccc4[nH]7)C=C6)C=C5)cc3)ccc2N2CC[NH+](CC(=O)NC(C)(C)C)CC2)c1
REMARK SMILES IDX 20 1 19 2 18 3 17 4 16 5 15 6 13 7 14 8 12 9 10 10 11 11
REMARK SMILES IDX 95 12 94 13 93 14 9 15 7 16 8 17 6 19 1 20 2 21 3 22 110 23
REMARK SMILES IDX 4 24 5 25 96 26 97 27 109 28 98 29 108 30 99 31 100 33
REMARK SMILES IDX 101 34 102 35 103 36 104 38 105 39 106 40 107 41 21 42 22 43
REMARK SMILES IDX 23 44 24 45 25 46 26 47 27 48 28 49 29 50 30 51 31 52 92 53
REMARK SMILES IDX 32 54 91 55 33 56 34 57 35 58 85 59 36 60 90 61 84 62 86 63
REMARK SMILES IDX 37 64 89 65 83 66 82 67 38 69 70 70 50 71 69 72 51 73 54 74
REMARK SMILES IDX 68 75 87 76 52 77 53 78 67 80 88 81 55 82 39 83 40 84 48 85
REMARK SMILES IDX 41 86 47 87 49 88 46 89 42 90 43 91 44 92 45 93 71 94 72 95
REMARK SMILES IDX 80 96 73 97 79 98 81 99 78 100 74 101 75 102 76 103 77 104
REMARK SMILES IDX 56 105 57 106 65 107 58 108 64 109 66 110 63 111 59 112
REMARK SMILES IDX 60 113 61 114 62 115
REMARK H PARENT 9 18 99 32 103 37 86 68 54 79
REMARK Flexibility Score: inf
ROOT
ATOM      1  C   UNL A   1      45.114  25.523  25.908  1.00  0.00     0.188 C 
ENDROOT
BRANCH   1   2
ATOM      2  C   UNL A   1      44.020  24.693  24.941  1.00  0.00     0.188 C 
BRANCH   2   3
ATOM      3  O   UNL A   1      42.692  23.685  25.266  1.00  0.00    -0.376 OA
BRANCH   3   4
ATOM      4  C   UNL A   1      41.693  23.316  26.629  1.00  0.00     0.202 C 
BRANCH   4   5
ATOM      5  C   UNL A   1      40.993  21.677  27.259  1.00  0.00     0.261 C 
BRANCH   5   6
ATOM      6  O   UNL A   1      39.440  20.872  26.739  1.00  0.00    -0.460 OA
BRANCH   6   7
ATOM      7  C   UNL A   1      38.544  20.482  25.597  1.00  0.00     0.338 C 
ATOM      8  O   UNL A   1      38.733  19.476  24.902  1.00  0.00    -0.246 OA
BRANCH   7   9
ATOM      9  C   UNL A   1      37.254  21.236  24.989  1.00  0.00     0.062 A 
ATOM     10  C   UNL A   1      34.901  22.022  24.940  1.00  0.00     0.065 A 
ATOM     11  C   UNL A   1      35.885  21.095  25.262  1.00  0.00     0.044 A 
ATOM     12  C   UNL A   1      35.130  22.940  23.918  1.00  0.00     0.061 A 
ATOM     13  C   UNL A   1      36.437  23.004  23.427  1.00  0.00     0.029 A 
ATOM     14  C   UNL A   1      37.480  22.222  24.003  1.00  0.00     0.018 A 
BRANCH  10  15
ATOM     15  N   UNL A   1      33.637  21.981  25.581  1.00  0.00    -0.320 N 
ATOM     16  C   UNL A   1      32.661  20.981  25.602  1.00  0.00     0.255 C 
ATOM     17  O   UNL A   1      31.784  21.070  26.471  1.00  0.00    -0.269 OA
ATOM     18  H   UNL A   1      33.411  22.788  26.096  1.00  0.00     0.170 HD
BRANCH  16  19
ATOM     19  C   UNL A   1      32.653  19.726  24.780  1.00  0.00     0.040 A 
ATOM     20  C   UNL A   1      32.052  18.500  21.259  1.00  0.00     0.044 C 
ATOM     21  C   UNL A   1      32.440  18.471  22.702  1.00  0.00    -0.050 A 
ATOM     22  C   UNL A   1      32.525  17.261  23.392  1.00  0.00     0.003 A 
ATOM     23  C   UNL A   1      32.546  19.692  23.391  1.00  0.00     0.017 A 
ATOM     24  C   UNL A   1      32.742  17.271  24.763  1.00  0.00     0.001 A 
ATOM     25  C   UNL A   1      32.804  18.493  25.451  1.00  0.00     0.014 A 
ENDBRANCH  16  19
ENDBRANCH  10  15
BRANCH  12  26
ATOM     26  N   UNL A   1      34.100  23.801  23.548  1.00  0.00    -0.359 N 
ATOM     27  C   UNL A   1      33.469  23.770  22.227  1.00  0.00     0.178 C 
ATOM     28  C   UNL A   1      34.317  25.146  24.071  1.00  0.00     0.178 C 
ATOM     29  C   UNL A   1      32.265  24.769  22.159  1.00  0.00     0.284 C 
ATOM     30  C   UNL A   1      33.003  25.921  24.138  1.00  0.00     0.284 C 
ATOM     31  N   UNL A   1      32.382  26.093  22.823  1.00  0.00    -0.324 N 
ATOM     32  H   UNL A   1      31.427  26.433  22.929  1.00  0.00     0.348 HD
BRANCH  31  33
ATOM     33  C   UNL A   1      32.985  27.187  22.034  1.00  0.00     0.363 C 
BRANCH  33  34
ATOM     34  C   UNL A   1      33.090  28.554  22.704  1.00  0.00     0.275 C 
ATOM     35  O   UNL A   1      34.192  29.120  22.750  1.00  0.00    -0.268 OA
ATOM     36  N   UNL A   1      32.045  29.240  23.247  1.00  0.00    -0.347 N 
ATOM     37  H   UNL A   1      32.337  30.142  23.512  1.00  0.00     0.164 HD
BRANCH  36  38
ATOM     38  C   UNL A   1      30.597  29.059  23.569  1.00  0.00     0.032 C 
ATOM     39  C   UNL A   1      30.372  28.114  24.766  1.00  0.00     0.034 C 
ATOM     40  C   UNL A   1      30.084  30.442  24.021  1.00  0.00     0.034 C 
ATOM     41  C   UNL A   1      29.735  28.599  22.392  1.00  0.00     0.034 C 
ENDBRANCH  36  38
ENDBRANCH  33  34
ENDBRANCH  31  33
ENDBRANCH  12  26
ENDBRANCH   7   9
ENDBRANCH   6   7
ENDBRANCH   5   6
ENDBRANCH   4   5
ENDBRANCH   3   4
ENDBRANCH   2   3
ENDBRANCH   1   2
BRANCH   1  42
ATOM     42  O   UNL A   1      44.840  26.465  26.962  1.00  0.00    -0.377 OA
BRANCH  42  43
ATOM     43  C   UNL A   1      44.678  27.873  26.809  1.00  0.00     0.188 C 
BRANCH  43  44
ATOM     44  C   UNL A   1      45.815  28.686  26.222  1.00  0.00     0.188 C 
BRANCH  44  45
ATOM     45  O   UNL A   1      45.377  30.026  26.050  1.00  0.00    -0.376 OA
BRANCH  45  46
ATOM     46  C   UNL A   1      45.602  30.871  27.165  1.00  0.00     0.202 C 
BRANCH  46  47
ATOM     47  C   UNL A   1      44.300  31.480  27.691  1.00  0.00     0.261 C 
BRANCH  47  48
ATOM     48  O   UNL A   1      44.340  31.460  29.133  1.00  0.00    -0.460 OA
BRANCH  48  49
ATOM     49  C   UNL A   1      43.646  30.411  29.697  1.00  0.00     0.338 C 
ATOM     50  O   UNL A   1      43.638  29.298  29.289  1.00  0.00    -0.246 OA
BRANCH  49  51
ATOM     51  C   UNL A   1      42.776  30.981  30.775  1.00  0.00     0.060 A 
ATOM     52  C   UNL A   1      41.845  31.957  30.517  1.00  0.00     0.016 A 
ATOM     53  C   UNL A   1      42.920  30.660  32.096  1.00  0.00     0.016 A 
ATOM     54  C   UNL A   1      41.442  32.854  31.558  1.00  0.00     0.010 A 
ATOM     55  C   UNL A   1      42.422  31.556  33.083  1.00  0.00     0.010 A 
ATOM     56  C   UNL A   1      42.036  32.928  32.835  1.00  0.00    -0.014 A 
BRANCH  56  57
ATOM     57  C   UNL A   1      42.298  34.498  33.793  1.00  0.00     0.031 A 
ATOM     58  C   UNL A   1      44.032  35.248  34.384  1.00  0.00     0.074 A 
ATOM     59  C   UNL A   1      41.003  34.873  34.303  1.00  0.00     0.049 A 
ATOM     60  N   UNL A   1      44.500  35.091  35.660  1.00  0.00    -0.248 NA
ATOM     61  C   UNL A   1      45.446  35.671  33.791  1.00  0.00     0.031 C 
ATOM     62  C   UNL A   1      40.472  35.848  35.312  1.00  0.00     0.029 A 
ATOM     63  N   UNL A   1      39.758  34.235  34.104  1.00  0.00    -0.354 N 
ATOM     64  C   UNL A   1      45.720  35.515  36.045  1.00  0.00     0.074 A 
ATOM     65  C   UNL A   1      46.368  35.633  34.789  1.00  0.00     0.031 C 
ATOM     66  C   UNL A   1      39.192  35.755  35.624  1.00  0.00     0.029 A 
ATOM     67  C   UNL A   1      38.853  34.499  35.148  1.00  0.00     0.049 A 
ATOM     68  H   UNL A   1      39.548  33.671  33.325  1.00  0.00     0.167 HD
ATOM     69  C   UNL A   1      46.031  35.826  37.348  1.00  0.00     0.034 A 
ATOM     70  C   UNL A   1      38.443  33.591  36.060  1.00  0.00     0.034 A 
ATOM     71  C   UNL A   1      44.878  36.096  38.254  1.00  0.00     0.049 A 
ATOM     72  C   UNL A   1      39.157  33.720  37.442  1.00  0.00     0.074 A 
ATOM     73  C   UNL A   1      44.372  37.296  38.736  1.00  0.00     0.029 A 
ATOM     74  N   UNL A   1      43.943  35.141  38.673  1.00  0.00    -0.354 N 
ATOM     75  N   UNL A   1      40.324  34.306  37.694  1.00  0.00    -0.248 NA
ATOM     76  C   UNL A   1      38.526  33.259  38.669  1.00  0.00     0.031 C 
ATOM     77  C   UNL A   1      43.101  37.057  39.316  1.00  0.00     0.029 A 
ATOM     78  C   UNL A   1      42.749  35.722  39.144  1.00  0.00     0.049 A 
ATOM     79  H   UNL A   1      44.104  34.170  38.642  1.00  0.00     0.167 HD
ATOM     80  C   UNL A   1      40.577  34.353  39.057  1.00  0.00     0.074 A 
ATOM     81  C   UNL A   1      39.415  33.639  39.604  1.00  0.00     0.031 C 
ATOM     82  C   UNL A   1      41.627  34.953  39.742  1.00  0.00     0.034 A 
BRANCH  69  83
ATOM     83  C   UNL A   1      47.438  36.303  37.633  1.00  0.00     0.023 A 
ATOM     84  C   UNL A   1      48.437  35.454  38.147  1.00  0.00     0.031 A 
ATOM     85  C   UNL A   1      47.799  37.653  37.452  1.00  0.00     0.131 A 
ATOM     86  C   UNL A   1      49.682  35.965  38.564  1.00  0.00     0.055 A 
ATOM     87  C   UNL A   1      49.031  38.167  37.885  1.00  0.00     0.041 A 
ATOM     88  F   UNL A   1      46.946  38.517  36.877  1.00  0.00    -0.206 F 
ATOM     89  C   UNL A   1      49.970  37.324  38.470  1.00  0.00     0.022 A 
BRANCH  86  90
ATOM     90  S   UNL A   1      50.915  34.827  39.265  1.00  0.00     0.124 S 
ATOM     91  O   UNL A   1      52.081  35.688  39.433  1.00  0.00    -0.237 OA
ATOM     92  O   UNL A   1      50.264  34.378  40.491  1.00  0.00    -0.237 OA
ATOM     93  O   UNL A   1      51.055  33.798  38.233  1.00  0.00    -0.744 OA
ENDBRANCH  86  90
ENDBRANCH  69  83
BRANCH  70  94
ATOM     94  C   UNL A   1      37.658  32.570  35.313  1.00  0.00     0.023 A 
ATOM     95  C   UNL A   1      36.504  33.077  34.625  1.00  0.00     0.031 A 
ATOM     96  C   UNL A   1      38.245  31.411  34.821  1.00  0.00     0.131 A 
ATOM     97  C   UNL A   1      36.212  32.638  33.330  1.00  0.00     0.055 A 
ATOM     98  C   UNL A   1      37.826  30.867  33.597  1.00  0.00     0.041 A 
ATOM     99  F   UNL A   1      39.326  30.891  35.419  1.00  0.00    -0.206 F 
ATOM    100  C   UNL A   1      36.856  31.515  32.817  1.00  0.00     0.022 A 
BRANCH  97 101
ATOM    101  S   UNL A   1      35.390  33.798  32.163  1.00  0.00     0.124 S 
ATOM    102  O   UNL A   1      35.862  33.323  30.868  1.00  0.00    -0.237 OA
ATOM    103  O   UNL A   1      33.971  33.605  32.445  1.00  0.00    -0.237 OA
ATOM    104  O   UNL A   1      35.902  35.098  32.590  1.00  0.00    -0.744 OA
ENDBRANCH  97 101
ENDBRANCH  70  94
BRANCH  82 105
ATOM    105  C   UNL A   1      41.640  34.992  41.262  1.00  0.00     0.023 A 
ATOM    106  C   UNL A   1      40.999  35.987  42.010  1.00  0.00     0.031 A 
ATOM    107  C   UNL A   1      42.429  34.067  41.984  1.00  0.00     0.131 A 
ATOM    108  C   UNL A   1      41.037  35.953  43.413  1.00  0.00     0.055 A 
ATOM    109  C   UNL A   1      42.574  34.120  43.370  1.00  0.00     0.041 A 
ATOM    110  F   UNL A   1      43.071  33.064  41.363  1.00  0.00    -0.206 F 
ATOM    111  C   UNL A   1      41.847  35.049  44.098  1.00  0.00     0.022 A 
BRANCH 108 112
ATOM    112  S   UNL A   1      39.862  36.991  44.321  1.00  0.00     0.124 S 
ATOM    113  O   UNL A   1      38.652  36.176  44.317  1.00  0.00    -0.237 OA
ATOM    114  O   UNL A   1      40.530  37.131  45.613  1.00  0.00    -0.237 OA
ATOM    115  O   UNL A   1      39.800  38.215  43.526  1.00  0.00    -0.744 OA
ENDBRANCH 108 112
ENDBRANCH  82 105
ENDBRANCH  56  57
ENDBRANCH  49  51
ENDBRANCH  48  49
ENDBRANCH  47  48
ENDBRANCH  46  47
ENDBRANCH  45  46
ENDBRANCH  44  45
ENDBRANCH  43  44
ENDBRANCH  42  43
ENDBRANCH   1  42
TORSDOF 29
ENDMDL
