MODEL 1
REMARK VINA RESULT:      -6.9      0.000      0.000
REMARK SMILES CCCCCCNC(=O)Nc1cccc(-c2ccc([C@@H](C)C(=O)OCCOCCOCCOCCOC(=O)c3ccc(-c4c5nc(c(-c6cc(S(=O)(=O)[O-])ccc6F)c6ccc([nH]6)c(-c6cc(S(=O)(=O)[O-])ccc6F)c6nc(c(-c7cc(S(=O)(=O)[O-])ccc7F)c7ccc4[nH]7)C=C6)C=C5)cc3)cc2F)c1
REMARK SMILES IDX 28 1 27 2 26 3 25 4 24 5 22 6 23 7 20 8 21 9 19 10 16 11
REMARK SMILES IDX 17 12 103 13 18 14 102 15 104 16 15 17 11 18 12 19 105 20
REMARK SMILES IDX 13 21 14 22 10 23 7 24 8 25 9 27 6 29 5 30 4 31 3 32 2 33
REMARK SMILES IDX 1 34 29 35 30 36 31 37 32 38 33 39 34 40 35 41 36 42 37 43
REMARK SMILES IDX 38 44 39 45 40 46 101 47 41 48 100 49 42 50 43 51 44 52
REMARK SMILES IDX 94 53 45 54 99 55 93 56 95 57 46 58 98 59 92 60 91 61 47 63
REMARK SMILES IDX 79 64 59 65 78 66 60 67 63 68 77 69 96 70 61 71 62 72 76 74
REMARK SMILES IDX 97 75 64 76 48 77 49 78 57 79 50 80 56 81 58 82 55 83 51 84
REMARK SMILES IDX 52 85 53 86 54 87 80 88 81 89 89 90 82 91 88 92 90 93 87 94
REMARK SMILES IDX 83 95 84 96 85 97 86 98 65 99 66 100 74 101 67 102 73 103
REMARK SMILES IDX 75 104 72 105 68 106 69 107 70 108 71 109
REMARK H PARENT 7 26 10 28 95 62 63 73
REMARK Flexibility Score: inf
ROOT
ATOM      1  C   UNL A   1      32.218  36.418  31.556  1.00  0.00     0.188 C 
ENDROOT
BRANCH   1   2
ATOM      2  O   UNL A   1      32.356  36.225  30.158  1.00  0.00    -0.376 OA
BRANCH   2   3
ATOM      3  C   UNL A   1      33.578  35.961  29.500  1.00  0.00     0.202 C 
BRANCH   3   4
ATOM      4  C   UNL A   1      34.104  34.546  29.237  1.00  0.00     0.261 C 
BRANCH   4   5
ATOM      5  O   UNL A   1      35.466  34.438  28.807  1.00  0.00    -0.463 OA
BRANCH   5   6
ATOM      6  C   UNL A   1      35.894  33.173  28.577  1.00  0.00     0.313 C 
ATOM      7  O   UNL A   1      35.363  32.407  27.776  1.00  0.00    -0.252 OA
BRANCH   6   8
ATOM      8  C   UNL A   1      37.048  32.722  29.452  1.00  0.00     0.126 C 
ATOM      9  C   UNL A   1      38.017  33.894  29.597  1.00  0.00     0.025 C 
BRANCH   8  10
ATOM     10  C   UNL A   1      37.788  31.422  29.148  1.00  0.00    -0.031 A 
ATOM     11  C   UNL A   1      39.490  29.243  28.356  1.00  0.00     0.018 A 
ATOM     12  C   UNL A   1      38.229  29.452  27.765  1.00  0.00     0.012 A 
ATOM     13  C   UNL A   1      39.828  30.096  29.413  1.00  0.00     0.131 A 
ATOM     14  C   UNL A   1      37.395  30.523  28.146  1.00  0.00     0.005 A 
ATOM     15  C   UNL A   1      39.004  31.160  29.802  1.00  0.00     0.044 A 
ATOM     16  F   UNL A   1      41.006  29.963  30.043  1.00  0.00    -0.206 F 
BRANCH  11  17
ATOM     17  C   UNL A   1      40.456  28.255  27.813  1.00  0.00    -0.013 A 
ATOM     18  C   UNL A   1      42.668  27.626  26.963  1.00  0.00     0.043 A 
ATOM     19  C   UNL A   1      42.192  26.373  26.583  1.00  0.00     0.026 A 
ATOM     20  C   UNL A   1      41.801  28.573  27.540  1.00  0.00     0.035 A 
ATOM     21  C   UNL A   1      40.887  26.018  26.902  1.00  0.00     0.003 A 
ATOM     22  C   UNL A   1      40.035  26.944  27.514  1.00  0.00     0.009 A 
BRANCH  18  23
ATOM     23  N   UNL A   1      44.045  27.867  26.840  1.00  0.00    -0.308 N 
ATOM     24  N   UNL A   1      44.801  27.334  29.010  1.00  0.00    -0.338 N 
ATOM     25  C   UNL A   1      44.972  27.994  27.831  1.00  0.00     0.319 C 
ATOM     26  H   UNL A   1      45.413  27.577  29.741  1.00  0.00     0.165 HD
ATOM     27  O   UNL A   1      46.030  28.587  27.619  1.00  0.00    -0.249 OA
ATOM     28  H   UNL A   1      44.385  27.954  25.920  1.00  0.00     0.171 HD
BRANCH  24  29
ATOM     29  C   UNL A   1      43.816  26.313  29.306  1.00  0.00     0.117 C 
BRANCH  29  30
ATOM     30  C   UNL A   1      44.166  25.339  30.413  1.00  0.00     0.021 C 
BRANCH  30  31
ATOM     31  C   UNL A   1      44.116  23.866  30.038  1.00  0.00     0.002 C 
BRANCH  31  32
ATOM     32  C   UNL A   1      44.791  23.460  28.729  1.00  0.00    -0.000 C 
BRANCH  32  33
ATOM     33  C   UNL A   1      43.922  23.019  27.550  1.00  0.00    -0.003 C 
ATOM     34  C   UNL A   1      44.275  23.599  26.195  1.00  0.00     0.004 C 
ENDBRANCH  32  33
ENDBRANCH  31  32
ENDBRANCH  30  31
ENDBRANCH  29  30
ENDBRANCH  24  29
ENDBRANCH  18  23
ENDBRANCH  11  17
ENDBRANCH   8  10
ENDBRANCH   6   8
ENDBRANCH   5   6
ENDBRANCH   4   5
ENDBRANCH   3   4
ENDBRANCH   2   3
ENDBRANCH   1   2
BRANCH   1  35
ATOM     35  C   UNL A   1      33.083  35.664  32.571  1.00  0.00     0.188 C 
BRANCH  35  36
ATOM     36  O   UNL A   1      34.346  36.237  32.844  1.00  0.00    -0.377 OA
BRANCH  36  37
ATOM     37  C   UNL A   1      35.426  35.334  32.705  1.00  0.00     0.188 C 
BRANCH  37  38
ATOM     38  C   UNL A   1      35.000  33.881  32.926  1.00  0.00     0.188 C 
BRANCH  38  39
ATOM     39  O   UNL A   1      35.524  33.132  34.013  1.00  0.00    -0.376 OA
BRANCH  39  40
ATOM     40  C   UNL A   1      36.461  33.680  34.923  1.00  0.00     0.202 C 
BRANCH  40  41
ATOM     41  C   UNL A   1      37.656  32.873  35.445  1.00  0.00     0.261 C 
BRANCH  41  42
ATOM     42  O   UNL A   1      37.670  31.479  35.154  1.00  0.00    -0.460 OA
BRANCH  42  43
ATOM     43  C   UNL A   1      38.341  30.626  35.950  1.00  0.00     0.338 C 
ATOM     44  O   UNL A   1      38.013  30.204  37.039  1.00  0.00    -0.246 OA
BRANCH  43  45
ATOM     45  C   UNL A   1      39.595  30.348  35.212  1.00  0.00     0.060 A 
ATOM     46  C   UNL A   1      39.594  29.797  33.928  1.00  0.00     0.016 A 
ATOM     47  C   UNL A   1      40.791  30.781  35.778  1.00  0.00     0.016 A 
ATOM     48  C   UNL A   1      40.806  29.657  33.226  1.00  0.00     0.010 A 
ATOM     49  C   UNL A   1      41.973  30.728  35.038  1.00  0.00     0.010 A 
ATOM     50  C   UNL A   1      42.017  30.111  33.775  1.00  0.00    -0.014 A 
BRANCH  50  51
ATOM     51  C   UNL A   1      43.349  29.820  33.147  1.00  0.00     0.031 A 
ATOM     52  C   UNL A   1      43.778  30.642  31.944  1.00  0.00     0.074 A 
ATOM     53  C   UNL A   1      44.158  28.823  33.568  1.00  0.00     0.049 A 
ATOM     54  N   UNL A   1      44.821  30.502  31.164  1.00  0.00    -0.248 NA
ATOM     55  C   UNL A   1      42.865  31.714  31.518  1.00  0.00     0.031 C 
ATOM     56  C   UNL A   1      43.866  27.874  34.644  1.00  0.00     0.029 A 
ATOM     57  N   UNL A   1      45.403  28.436  33.123  1.00  0.00    -0.354 N 
ATOM     58  C   UNL A   1      44.640  31.418  30.129  1.00  0.00     0.074 A 
ATOM     59  C   UNL A   1      43.342  32.017  30.324  1.00  0.00     0.031 C 
ATOM     60  C   UNL A   1      44.912  27.039  34.792  1.00  0.00     0.029 A 
ATOM     61  C   UNL A   1      45.945  27.372  33.813  1.00  0.00     0.049 A 
ATOM     62  H   UNL A   1      45.866  28.879  32.376  1.00  0.00     0.167 HD
ATOM     63  C   UNL A   1      45.496  31.788  29.144  1.00  0.00     0.034 A 
ATOM     64  C   UNL A   1      47.136  26.748  33.677  1.00  0.00     0.034 A 
ATOM     65  C   UNL A   1      46.839  31.292  29.025  1.00  0.00     0.049 A 
ATOM     66  C   UNL A   1      48.121  27.234  32.633  1.00  0.00     0.074 A 
ATOM     67  C   UNL A   1      47.835  31.706  28.159  1.00  0.00     0.029 A 
ATOM     68  N   UNL A   1      47.382  30.287  29.810  1.00  0.00    -0.354 N 
ATOM     69  N   UNL A   1      47.976  28.184  31.736  1.00  0.00    -0.248 NA
ATOM     70  C   UNL A   1      49.441  26.583  32.600  1.00  0.00     0.031 C 
ATOM     71  C   UNL A   1      48.967  30.919  28.387  1.00  0.00     0.029 A 
ATOM     72  C   UNL A   1      48.695  30.058  29.438  1.00  0.00     0.049 A 
ATOM     73  H   UNL A   1      46.905  29.807  30.525  1.00  0.00     0.167 HD
ATOM     74  C   UNL A   1      49.200  28.271  31.074  1.00  0.00     0.074 A 
ATOM     75  C   UNL A   1      50.073  27.288  31.673  1.00  0.00     0.031 C 
ATOM     76  C   UNL A   1      49.571  29.099  30.064  1.00  0.00     0.034 A 
BRANCH  63  77
ATOM     77  C   UNL A   1      45.005  32.803  28.138  1.00  0.00     0.023 A 
ATOM     78  C   UNL A   1      44.987  34.178  28.431  1.00  0.00     0.031 A 
ATOM     79  C   UNL A   1      44.512  32.390  26.890  1.00  0.00     0.131 A 
ATOM     80  C   UNL A   1      44.380  35.074  27.541  1.00  0.00     0.055 A 
ATOM     81  C   UNL A   1      44.004  33.301  25.962  1.00  0.00     0.041 A 
ATOM     82  F   UNL A   1      44.494  31.089  26.558  1.00  0.00    -0.206 F 
ATOM     83  C   UNL A   1      43.915  34.651  26.294  1.00  0.00     0.022 A 
BRANCH  80  84
ATOM     84  S   UNL A   1      44.056  36.763  28.114  1.00  0.00     0.124 S 
ATOM     85  O   UNL A   1      43.760  37.444  26.855  1.00  0.00    -0.237 OA
ATOM     86  O   UNL A   1      42.927  36.580  29.019  1.00  0.00    -0.237 OA
ATOM     87  O   UNL A   1      45.311  37.157  28.749  1.00  0.00    -0.744 OA
ENDBRANCH  80  84
ENDBRANCH  63  77
BRANCH  64  88
ATOM     88  C   UNL A   1      47.506  25.593  34.552  1.00  0.00     0.023 A 
ATOM     89  C   UNL A   1      47.062  24.293  34.260  1.00  0.00     0.031 A 
ATOM     90  C   UNL A   1      48.220  25.789  35.747  1.00  0.00     0.131 A 
ATOM     91  C   UNL A   1      47.267  23.254  35.184  1.00  0.00     0.055 A 
ATOM     92  C   UNL A   1      48.470  24.741  36.637  1.00  0.00     0.041 A 
ATOM     93  F   UNL A   1      48.675  27.009  36.074  1.00  0.00    -0.206 F 
ATOM     94  C   UNL A   1      47.976  23.468  36.366  1.00  0.00     0.022 A 
BRANCH  91  95
ATOM     95  S   UNL A   1      46.490  21.644  34.868  1.00  0.00     0.124 S 
ATOM     96  O   UNL A   1      47.584  20.903  34.253  1.00  0.00    -0.237 OA
ATOM     97  O   UNL A   1      46.107  21.227  36.213  1.00  0.00    -0.237 OA
ATOM     98  O   UNL A   1      45.378  21.973  33.979  1.00  0.00    -0.744 OA
ENDBRANCH  91  95
ENDBRANCH  64  88
BRANCH  76  99
ATOM     99  C   UNL A   1      51.003  29.046  29.594  1.00  0.00     0.023 A 
ATOM    100  C   UNL A   1      51.399  28.275  28.489  1.00  0.00     0.031 A 
ATOM    101  C   UNL A   1      51.980  29.821  30.247  1.00  0.00     0.131 A 
ATOM    102  C   UNL A   1      52.744  28.268  28.090  1.00  0.00     0.055 A 
ATOM    103  C   UNL A   1      53.307  29.850  29.814  1.00  0.00     0.041 A 
ATOM    104  F   UNL A   1      51.655  30.578  31.307  1.00  0.00    -0.206 F 
ATOM    105  C   UNL A   1      53.696  29.064  28.734  1.00  0.00     0.022 A 
BRANCH 102 106
ATOM    106  S   UNL A   1      53.252  27.158  26.748  1.00  0.00     0.124 S 
ATOM    107  O   UNL A   1      54.672  27.465  26.618  1.00  0.00    -0.237 OA
ATOM    108  O   UNL A   1      52.931  25.843  27.293  1.00  0.00    -0.237 OA
ATOM    109  O   UNL A   1      52.421  27.578  25.621  1.00  0.00    -0.744 OA
ENDBRANCH 102 106
ENDBRANCH  76  99
ENDBRANCH  50  51
ENDBRANCH  43  45
ENDBRANCH  42  43
ENDBRANCH  41  42
ENDBRANCH  40  41
ENDBRANCH  39  40
ENDBRANCH  38  39
ENDBRANCH  37  38
ENDBRANCH  36  37
ENDBRANCH  35  36
ENDBRANCH   1  35
TORSDOF 31
ENDMDL
MODEL 2
REMARK VINA RESULT:      -6.7      7.332     10.468
REMARK SMILES CCCCCCNC(=O)Nc1cccc(-c2ccc([C@@H](C)C(=O)OCCOCCOCCOCCOC(=O)c3ccc(-c4c5nc(c(-c6cc(S(=O)(=O)[O-])ccc6F)c6ccc([nH]6)c(-c6cc(S(=O)(=O)[O-])ccc6F)c6nc(c(-c7cc(S(=O)(=O)[O-])ccc7F)c7ccc4[nH]7)C=C6)C=C5)cc3)cc2F)c1
REMARK SMILES IDX 28 1 27 2 26 3 25 4 24 5 22 6 23 7 20 8 21 9 19 10 16 11
REMARK SMILES IDX 17 12 103 13 18 14 102 15 104 16 15 17 11 18 12 19 105 20
REMARK SMILES IDX 13 21 14 22 10 23 7 24 8 25 9 27 6 29 5 30 4 31 3 32 2 33
REMARK SMILES IDX 1 34 29 35 30 36 31 37 32 38 33 39 34 40 35 41 36 42 37 43
REMARK SMILES IDX 38 44 39 45 40 46 101 47 41 48 100 49 42 50 43 51 44 52
REMARK SMILES IDX 94 53 45 54 99 55 93 56 95 57 46 58 98 59 92 60 91 61 47 63
REMARK SMILES IDX 79 64 59 65 78 66 60 67 63 68 77 69 96 70 61 71 62 72 76 74
REMARK SMILES IDX 97 75 64 76 48 77 49 78 57 79 50 80 56 81 58 82 55 83 51 84
REMARK SMILES IDX 52 85 53 86 54 87 80 88 81 89 89 90 82 91 88 92 90 93 87 94
REMARK SMILES IDX 83 95 84 96 85 97 86 98 65 99 66 100 74 101 67 102 73 103
REMARK SMILES IDX 75 104 72 105 68 106 69 107 70 108 71 109
REMARK H PARENT 7 26 10 28 95 62 63 73
REMARK Flexibility Score: inf
ROOT
ATOM      1  C   UNL A   1      33.588  28.346  26.766  1.00  0.00     0.188 C 
ENDROOT
BRANCH   1   2
ATOM      2  O   UNL A   1      32.222  28.663  26.985  1.00  0.00    -0.376 OA
BRANCH   2   3
ATOM      3  C   UNL A   1      31.156  27.740  26.880  1.00  0.00     0.202 C 
BRANCH   3   4
ATOM      4  C   UNL A   1      30.575  27.275  25.540  1.00  0.00     0.261 C 
BRANCH   4   5
ATOM      5  O   UNL A   1      30.716  28.176  24.435  1.00  0.00    -0.463 OA
BRANCH   5   6
ATOM      6  C   UNL A   1      31.190  27.612  23.297  1.00  0.00     0.313 C 
ATOM      7  O   UNL A   1      30.605  27.656  22.217  1.00  0.00    -0.252 OA
BRANCH   6   8
ATOM      8  C   UNL A   1      32.481  26.833  23.462  1.00  0.00     0.126 C 
ATOM      9  C   UNL A   1      33.457  27.303  22.385  1.00  0.00     0.025 C 
BRANCH   8  10
ATOM     10  C   UNL A   1      32.459  25.311  23.568  1.00  0.00    -0.031 A 
ATOM     11  C   UNL A   1      32.375  22.448  23.302  1.00  0.00     0.018 A 
ATOM     12  C   UNL A   1      31.298  23.174  23.845  1.00  0.00     0.012 A 
ATOM     13  C   UNL A   1      33.523  23.184  22.986  1.00  0.00     0.131 A 
ATOM     14  C   UNL A   1      31.333  24.579  23.971  1.00  0.00     0.005 A 
ATOM     15  C   UNL A   1      33.568  24.579  23.111  1.00  0.00     0.044 A 
ATOM     16  F   UNL A   1      34.602  22.573  22.473  1.00  0.00    -0.206 F 
BRANCH  11  17
ATOM     17  C   UNL A   1      32.259  21.005  22.971  1.00  0.00    -0.013 A 
ATOM     18  C   UNL A   1      32.389  18.628  23.557  1.00  0.00     0.043 A 
ATOM     19  C   UNL A   1      32.228  18.266  22.222  1.00  0.00     0.026 A 
ATOM     20  C   UNL A   1      32.441  19.986  23.925  1.00  0.00     0.035 A 
ATOM     21  C   UNL A   1      31.984  19.254  21.275  1.00  0.00     0.003 A 
ATOM     22  C   UNL A   1      31.993  20.602  21.647  1.00  0.00     0.009 A 
BRANCH  18  23
ATOM     23  N   UNL A   1      32.399  17.603  24.516  1.00  0.00    -0.308 N 
ATOM     24  N   UNL A   1      34.712  17.372  24.915  1.00  0.00    -0.338 N 
ATOM     25  C   UNL A   1      33.454  16.850  24.934  1.00  0.00     0.319 C 
ATOM     26  H   UNL A   1      35.450  16.742  25.082  1.00  0.00     0.165 HD
ATOM     27  O   UNL A   1      33.264  15.753  25.459  1.00  0.00    -0.249 OA
ATOM     28  H   UNL A   1      31.534  17.404  24.941  1.00  0.00     0.171 HD
BRANCH  24  29
ATOM     29  C   UNL A   1      35.082  18.753  24.678  1.00  0.00     0.117 C 
BRANCH  29  30
ATOM     30  C   UNL A   1      36.521  19.126  24.975  1.00  0.00     0.021 C 
BRANCH  30  31
ATOM     31  C   UNL A   1      36.874  20.594  24.794  1.00  0.00     0.002 C 
BRANCH  31  32
ATOM     32  C   UNL A   1      35.800  21.618  25.163  1.00  0.00    -0.000 C 
BRANCH  32  33
ATOM     33  C   UNL A   1      35.226  21.616  26.580  1.00  0.00    -0.003 C 
ATOM     34  C   UNL A   1      33.731  21.831  26.705  1.00  0.00     0.004 C 
ENDBRANCH  32  33
ENDBRANCH  31  32
ENDBRANCH  30  31
ENDBRANCH  29  30
ENDBRANCH  24  29
ENDBRANCH  18  23
ENDBRANCH  11  17
ENDBRANCH   8  10
ENDBRANCH   6   8
ENDBRANCH   5   6
ENDBRANCH   4   5
ENDBRANCH   3   4
ENDBRANCH   2   3
ENDBRANCH   1   2
BRANCH   1  35
ATOM     35  C   UNL A   1      34.651  29.429  26.555  1.00  0.00     0.188 C 
BRANCH  35  36
ATOM     36  O   UNL A   1      34.296  30.726  26.990  1.00  0.00    -0.377 OA
BRANCH  36  37
ATOM     37  C   UNL A   1      35.025  31.171  28.118  1.00  0.00     0.188 C 
BRANCH  37  38
ATOM     38  C   UNL A   1      34.748  32.640  28.445  1.00  0.00     0.188 C 
BRANCH  38  39
ATOM     39  O   UNL A   1      35.779  33.611  28.336  1.00  0.00    -0.376 OA
BRANCH  39  40
ATOM     40  C   UNL A   1      36.426  34.153  29.473  1.00  0.00     0.202 C 
BRANCH  40  41
ATOM     41  C   UNL A   1      36.125  33.659  30.893  1.00  0.00     0.261 C 
BRANCH  41  42
ATOM     42  O   UNL A   1      37.166  32.955  31.565  1.00  0.00    -0.460 OA
BRANCH  42  43
ATOM     43  C   UNL A   1      37.109  31.616  31.688  1.00  0.00     0.338 C 
ATOM     44  O   UNL A   1      36.380  30.841  31.104  1.00  0.00    -0.246 OA
BRANCH  43  45
ATOM     45  C   UNL A   1      38.114  31.303  32.730  1.00  0.00     0.060 A 
ATOM     46  C   UNL A   1      37.859  30.392  33.758  1.00  0.00     0.016 A 
ATOM     47  C   UNL A   1      39.390  31.842  32.585  1.00  0.00     0.016 A 
ATOM     48  C   UNL A   1      38.885  30.045  34.657  1.00  0.00     0.010 A 
ATOM     49  C   UNL A   1      40.426  31.420  33.419  1.00  0.00     0.010 A 
ATOM     50  C   UNL A   1      40.183  30.563  34.508  1.00  0.00    -0.014 A 
BRANCH  50  51
ATOM     51  C   UNL A   1      41.255  30.367  35.540  1.00  0.00     0.031 A 
ATOM     52  C   UNL A   1      41.295  31.311  36.730  1.00  0.00     0.074 A 
ATOM     53  C   UNL A   1      42.219  29.427  35.431  1.00  0.00     0.049 A 
ATOM     54  N   UNL A   1      42.187  31.417  37.683  1.00  0.00    -0.248 NA
ATOM     55  C   UNL A   1      40.229  32.322  36.807  1.00  0.00     0.031 C 
ATOM     56  C   UNL A   1      42.392  28.499  34.311  1.00  0.00     0.029 A 
ATOM     57  N   UNL A   1      43.253  29.104  36.282  1.00  0.00    -0.354 N 
ATOM     58  C   UNL A   1      41.820  32.544  38.417  1.00  0.00     0.074 A 
ATOM     59  C   UNL A   1      40.700  33.142  37.729  1.00  0.00     0.031 C 
ATOM     60  C   UNL A   1      43.445  27.697  34.561  1.00  0.00     0.029 A 
ATOM     61  C   UNL A   1      44.040  28.060  35.846  1.00  0.00     0.049 A 
ATOM     62  H   UNL A   1      43.416  29.579  37.130  1.00  0.00     0.167 HD
ATOM     63  C   UNL A   1      42.311  33.008  39.592  1.00  0.00     0.034 A 
ATOM     64  C   UNL A   1      45.108  27.462  36.420  1.00  0.00     0.034 A 
ATOM     65  C   UNL A   1      43.336  32.341  40.348  1.00  0.00     0.049 A 
ATOM     66  C   UNL A   1      45.588  27.931  37.779  1.00  0.00     0.074 A 
ATOM     67  C   UNL A   1      43.802  32.642  41.614  1.00  0.00     0.029 A 
ATOM     68  N   UNL A   1      44.037  31.227  39.915  1.00  0.00    -0.354 N 
ATOM     69  N   UNL A   1      45.150  28.929  38.512  1.00  0.00    -0.248 NA
ATOM     70  C   UNL A   1      46.689  27.176  38.399  1.00  0.00     0.031 C 
ATOM     71  C   UNL A   1      44.820  31.737  41.931  1.00  0.00     0.029 A 
ATOM     72  C   UNL A   1      44.942  30.835  40.886  1.00  0.00     0.049 A 
ATOM     73  H   UNL A   1      43.910  30.779  39.048  1.00  0.00     0.167 HD
ATOM     74  C   UNL A   1      45.888  28.884  39.695  1.00  0.00     0.074 A 
ATOM     75  C   UNL A   1      46.793  27.763  39.582  1.00  0.00     0.031 C 
ATOM     76  C   UNL A   1      45.818  29.695  40.781  1.00  0.00     0.034 A 
BRANCH  63  77
ATOM     77  C   UNL A   1      41.718  34.284  40.142  1.00  0.00     0.023 A 
ATOM     78  C   UNL A   1      40.797  34.269  41.203  1.00  0.00     0.031 A 
ATOM     79  C   UNL A   1      42.044  35.525  39.571  1.00  0.00     0.131 A 
ATOM     80  C   UNL A   1      40.148  35.451  41.582  1.00  0.00     0.055 A 
ATOM     81  C   UNL A   1      41.472  36.716  40.025  1.00  0.00     0.041 A 
ATOM     82  F   UNL A   1      42.910  35.603  38.549  1.00  0.00    -0.206 F 
ATOM     83  C   UNL A   1      40.499  36.681  41.022  1.00  0.00     0.022 A 
BRANCH  80  84
ATOM     84  S   UNL A   1      38.720  35.327  42.692  1.00  0.00     0.124 S 
ATOM     85  O   UNL A   1      37.611  35.536  41.762  1.00  0.00    -0.237 OA
ATOM     86  O   UNL A   1      38.853  33.978  43.230  1.00  0.00    -0.237 OA
ATOM     87  O   UNL A   1      38.935  36.408  43.650  1.00  0.00    -0.744 OA
ENDBRANCH  80  84
ENDBRANCH  63  77
BRANCH  64  88
ATOM     88  C   UNL A   1      45.816  26.332  35.743  1.00  0.00     0.023 A 
ATOM     89  C   UNL A   1      45.425  25.000  35.959  1.00  0.00     0.031 A 
ATOM     90  C   UNL A   1      46.956  26.561  34.954  1.00  0.00     0.131 A 
ATOM     91  C   UNL A   1      46.209  23.946  35.460  1.00  0.00     0.055 A 
ATOM     92  C   UNL A   1      47.702  25.510  34.413  1.00  0.00     0.041 A 
ATOM     93  F   UNL A   1      47.371  27.813  34.707  1.00  0.00    -0.206 F 
ATOM     94  C   UNL A   1      47.340  24.193  34.681  1.00  0.00     0.022 A 
BRANCH  91  95
ATOM     95  S   UNL A   1      45.792  22.247  35.945  1.00  0.00     0.124 S 
ATOM     96  O   UNL A   1      44.521  22.048  35.260  1.00  0.00    -0.237 OA
ATOM     97  O   UNL A   1      46.930  21.498  35.422  1.00  0.00    -0.237 OA
ATOM     98  O   UNL A   1      45.713  22.320  37.403  1.00  0.00    -0.744 OA
ENDBRANCH  91  95
ENDBRANCH  64  88
BRANCH  76  99
ATOM     99  C   UNL A   1      46.676  29.357  41.974  1.00  0.00     0.023 A 
ATOM    100  C   UNL A   1      47.934  29.948  42.181  1.00  0.00     0.031 A 
ATOM    101  C   UNL A   1      46.199  28.455  42.944  1.00  0.00     0.131 A 
ATOM    102  C   UNL A   1      48.688  29.603  43.313  1.00  0.00     0.055 A 
ATOM    103  C   UNL A   1      46.931  28.155  44.093  1.00  0.00     0.041 A 
ATOM    104  F   UNL A   1      45.002  27.864  42.797  1.00  0.00    -0.206 F 
ATOM    105  C   UNL A   1      48.187  28.724  44.279  1.00  0.00     0.022 A 
BRANCH 102 106
ATOM    106  S   UNL A   1      50.364  30.275  43.484  1.00  0.00     0.124 S 
ATOM    107  O   UNL A   1      50.281  31.505  42.704  1.00  0.00    -0.237 OA
ATOM    108  O   UNL A   1      50.487  30.442  44.928  1.00  0.00    -0.237 OA
ATOM    109  O   UNL A   1      51.213  29.232  42.908  1.00  0.00    -0.744 OA
ENDBRANCH 102 106
ENDBRANCH  76  99
ENDBRANCH  50  51
ENDBRANCH  43  45
ENDBRANCH  42  43
ENDBRANCH  41  42
ENDBRANCH  40  41
ENDBRANCH  39  40
ENDBRANCH  38  39
ENDBRANCH  37  38
ENDBRANCH  36  37
ENDBRANCH  35  36
ENDBRANCH   1  35
TORSDOF 31
ENDMDL
MODEL 3
REMARK VINA RESULT:      -5.8      4.553     12.556
REMARK SMILES CCCCCCNC(=O)Nc1cccc(-c2ccc([C@@H](C)C(=O)OCCOCCOCCOCCOC(=O)c3ccc(-c4c5nc(c(-c6cc(S(=O)(=O)[O-])ccc6F)c6ccc([nH]6)c(-c6cc(S(=O)(=O)[O-])ccc6F)c6nc(c(-c7cc(S(=O)(=O)[O-])ccc7F)c7ccc4[nH]7)C=C6)C=C5)cc3)cc2F)c1
REMARK SMILES IDX 28 1 27 2 26 3 25 4 24 5 22 6 23 7 20 8 21 9 19 10 16 11
REMARK SMILES IDX 17 12 103 13 18 14 102 15 104 16 15 17 11 18 12 19 105 20
REMARK SMILES IDX 13 21 14 22 10 23 7 24 8 25 9 27 6 29 5 30 4 31 3 32 2 33
REMARK SMILES IDX 1 34 29 35 30 36 31 37 32 38 33 39 34 40 35 41 36 42 37 43
REMARK SMILES IDX 38 44 39 45 40 46 101 47 41 48 100 49 42 50 43 51 44 52
REMARK SMILES IDX 94 53 45 54 99 55 93 56 95 57 46 58 98 59 92 60 91 61 47 63
REMARK SMILES IDX 79 64 59 65 78 66 60 67 63 68 77 69 96 70 61 71 62 72 76 74
REMARK SMILES IDX 97 75 64 76 48 77 49 78 57 79 50 80 56 81 58 82 55 83 51 84
REMARK SMILES IDX 52 85 53 86 54 87 80 88 81 89 89 90 82 91 88 92 90 93 87 94
REMARK SMILES IDX 83 95 84 96 85 97 86 98 65 99 66 100 74 101 67 102 73 103
REMARK SMILES IDX 75 104 72 105 68 106 69 107 70 108 71 109
REMARK H PARENT 7 26 10 28 95 62 63 73
REMARK Flexibility Score: inf
ROOT
ATOM      1  C   UNL A   1      50.574  21.779  40.173  1.00  0.00     0.188 C 
ENDROOT
BRANCH   1   2
ATOM      2  O   UNL A   1      51.248  21.813  38.925  1.00  0.00    -0.376 OA
BRANCH   2   3
ATOM      3  C   UNL A   1      50.723  21.307  37.714  1.00  0.00     0.202 C 
BRANCH   3   4
ATOM      4  C   UNL A   1      51.598  20.773  36.575  1.00  0.00     0.261 C 
BRANCH   4   5
ATOM      5  O   UNL A   1      50.944  20.535  35.323  1.00  0.00    -0.463 OA
BRANCH   5   6
ATOM      6  C   UNL A   1      51.761  20.131  34.320  1.00  0.00     0.313 C 
ATOM      7  O   UNL A   1      52.357  19.056  34.315  1.00  0.00    -0.252 OA
BRANCH   6   8
ATOM      8  C   UNL A   1      51.965  21.150  33.215  1.00  0.00     0.126 C 
ATOM      9  C   UNL A   1      53.437  21.118  32.810  1.00  0.00     0.025 C 
BRANCH   8  10
ATOM     10  C   UNL A   1      51.463  22.581  33.380  1.00  0.00    -0.031 A 
ATOM     11  C   UNL A   1      50.625  25.226  34.142  1.00  0.00     0.018 A 
ATOM     12  C   UNL A   1      49.698  24.225  33.795  1.00  0.00     0.012 A 
ATOM     13  C   UNL A   1      51.978  24.892  34.006  1.00  0.00     0.131 A 
ATOM     14  C   UNL A   1      50.105  22.926  33.427  1.00  0.00     0.005 A 
ATOM     15  C   UNL A   1      52.392  23.605  33.638  1.00  0.00     0.044 A 
ATOM     16  F   UNL A   1      52.933  25.787  34.304  1.00  0.00    -0.206 F 
BRANCH  11  17
ATOM     17  C   UNL A   1      50.199  26.519  34.732  1.00  0.00    -0.013 A 
ATOM     18  C   UNL A   1      49.986  28.080  36.611  1.00  0.00     0.043 A 
ATOM     19  C   UNL A   1      49.174  28.920  35.852  1.00  0.00     0.026 A 
ATOM     20  C   UNL A   1      50.465  26.873  36.069  1.00  0.00     0.035 A 
ATOM     21  C   UNL A   1      48.952  28.621  34.512  1.00  0.00     0.003 A 
ATOM     22  C   UNL A   1      49.464  27.441  33.961  1.00  0.00     0.009 A 
BRANCH  18  23
ATOM     23  N   UNL A   1      50.380  28.527  37.882  1.00  0.00    -0.308 N 
ATOM     24  N   UNL A   1      48.331  28.454  39.049  1.00  0.00    -0.338 N 
ATOM     25  C   UNL A   1      49.591  28.951  38.909  1.00  0.00     0.319 C 
ATOM     26  H   UNL A   1      47.755  28.901  39.710  1.00  0.00     0.165 HD
ATOM     27  O   UNL A   1      50.057  29.674  39.790  1.00  0.00    -0.249 OA
ATOM     28  H   UNL A   1      51.349  28.532  38.053  1.00  0.00     0.171 HD
BRANCH  24  29
ATOM     29  C   UNL A   1      47.747  27.338  38.332  1.00  0.00     0.117 C 
BRANCH  29  30
ATOM     30  C   UNL A   1      46.289  27.042  38.619  1.00  0.00     0.021 C 
BRANCH  30  31
ATOM     31  C   UNL A   1      45.954  26.702  40.063  1.00  0.00     0.002 C 
BRANCH  31  32
ATOM     32  C   UNL A   1      45.313  27.804  40.906  1.00  0.00    -0.000 C 
BRANCH  32  33
ATOM     33  C   UNL A   1      44.501  27.417  42.143  1.00  0.00    -0.003 C 
ATOM     34  C   UNL A   1      44.328  28.488  43.200  1.00  0.00     0.004 C 
ENDBRANCH  32  33
ENDBRANCH  31  32
ENDBRANCH  30  31
ENDBRANCH  29  30
ENDBRANCH  24  29
ENDBRANCH  18  23
ENDBRANCH  11  17
ENDBRANCH   8  10
ENDBRANCH   6   8
ENDBRANCH   5   6
ENDBRANCH   4   5
ENDBRANCH   3   4
ENDBRANCH   2   3
ENDBRANCH   1   2
BRANCH   1  35
ATOM     35  C   UNL A   1      49.916  20.502  40.707  1.00  0.00     0.188 C 
BRANCH  35  36
ATOM     36  O   UNL A   1      49.355  19.649  39.730  1.00  0.00    -0.377 OA
BRANCH  36  37
ATOM     37  C   UNL A   1      48.842  18.439  40.253  1.00  0.00     0.188 C 
BRANCH  37  38
ATOM     38  C   UNL A   1      47.365  18.238  39.910  1.00  0.00     0.188 C 
BRANCH  38  39
ATOM     39  O   UNL A   1      46.654  19.221  39.172  1.00  0.00    -0.376 OA
BRANCH  39  40
ATOM     40  C   UNL A   1      46.273  19.019  37.823  1.00  0.00     0.202 C 
BRANCH  40  41
ATOM     41  C   UNL A   1      46.000  20.189  36.870  1.00  0.00     0.261 C 
BRANCH  41  42
ATOM     42  O   UNL A   1      46.620  21.433  37.182  1.00  0.00    -0.460 OA
BRANCH  42  43
ATOM     43  C   UNL A   1      45.926  22.397  37.817  1.00  0.00     0.338 C 
ATOM     44  O   UNL A   1      45.406  22.345  38.913  1.00  0.00    -0.246 OA
BRANCH  43  45
ATOM     45  C   UNL A   1      45.907  23.525  36.858  1.00  0.00     0.060 A 
ATOM     46  C   UNL A   1      47.062  24.237  36.526  1.00  0.00     0.016 A 
ATOM     47  C   UNL A   1      44.719  23.778  36.177  1.00  0.00     0.016 A 
ATOM     48  C   UNL A   1      47.012  25.226  35.526  1.00  0.00     0.010 A 
ATOM     49  C   UNL A   1      44.700  24.690  35.121  1.00  0.00     0.010 A 
ATOM     50  C   UNL A   1      45.826  25.476  34.815  1.00  0.00    -0.014 A 
BRANCH  50  51
ATOM     51  C   UNL A   1      45.676  26.636  33.874  1.00  0.00     0.031 A 
ATOM     52  C   UNL A   1      44.921  27.864  34.353  1.00  0.00     0.074 A 
ATOM     53  C   UNL A   1      46.133  26.616  32.603  1.00  0.00     0.049 A 
ATOM     54  N   UNL A   1      44.561  28.936  33.692  1.00  0.00    -0.248 NA
ATOM     55  C   UNL A   1      44.438  27.842  35.743  1.00  0.00     0.031 C 
ATOM     56  C   UNL A   1      46.794  25.488  31.945  1.00  0.00     0.029 A 
ATOM     57  N   UNL A   1      46.096  27.586  31.625  1.00  0.00    -0.354 N 
ATOM     58  C   UNL A   1      43.758  29.665  34.567  1.00  0.00     0.074 A 
ATOM     59  C   UNL A   1      43.595  28.859  35.753  1.00  0.00     0.031 C 
ATOM     60  C   UNL A   1      47.126  25.842  30.688  1.00  0.00     0.029 A 
ATOM     61  C   UNL A   1      46.685  27.213  30.436  1.00  0.00     0.049 A 
ATOM     62  H   UNL A   1      45.683  28.470  31.763  1.00  0.00     0.167 HD
ATOM     63  C   UNL A   1      43.256  30.918  34.438  1.00  0.00     0.034 A 
ATOM     64  C   UNL A   1      46.857  27.900  29.284  1.00  0.00     0.034 A 
ATOM     65  C   UNL A   1      43.526  31.775  33.317  1.00  0.00     0.049 A 
ATOM     66  C   UNL A   1      46.374  29.333  29.188  1.00  0.00     0.074 A 
ATOM     67  C   UNL A   1      43.193  33.107  33.154  1.00  0.00     0.029 A 
ATOM     68  N   UNL A   1      44.215  31.391  32.177  1.00  0.00    -0.354 N 
ATOM     69  N   UNL A   1      45.717  30.046  30.074  1.00  0.00    -0.248 NA
ATOM     70  C   UNL A   1      46.681  30.062  27.947  1.00  0.00     0.031 C 
ATOM     71  C   UNL A   1      43.638  33.518  31.893  1.00  0.00     0.029 A 
ATOM     72  C   UNL A   1      44.304  32.458  31.300  1.00  0.00     0.049 A 
ATOM     73  H   UNL A   1      44.586  30.493  32.015  1.00  0.00     0.167 HD
ATOM     74  C   UNL A   1      45.579  31.316  29.513  1.00  0.00     0.074 A 
ATOM     75  C   UNL A   1      46.223  31.276  28.220  1.00  0.00     0.031 C 
ATOM     76  C   UNL A   1      44.979  32.420  30.027  1.00  0.00     0.034 A 
BRANCH  63  77
ATOM     77  C   UNL A   1      42.389  31.441  35.559  1.00  0.00     0.023 A 
ATOM     78  C   UNL A   1      41.005  31.203  35.590  1.00  0.00     0.031 A 
ATOM     79  C   UNL A   1      42.945  32.223  36.585  1.00  0.00     0.131 A 
ATOM     80  C   UNL A   1      40.208  31.834  36.554  1.00  0.00     0.055 A 
ATOM     81  C   UNL A   1      42.159  32.763  37.605  1.00  0.00     0.041 A 
ATOM     82  F   UNL A   1      44.260  32.494  36.604  1.00  0.00    -0.206 F 
ATOM     83  C   UNL A   1      40.777  32.590  37.581  1.00  0.00     0.022 A 
BRANCH  80  84
ATOM     84  S   UNL A   1      38.408  31.792  36.340  1.00  0.00     0.124 S 
ATOM     85  O   UNL A   1      38.214  32.820  35.317  1.00  0.00    -0.237 OA
ATOM     86  O   UNL A   1      38.171  30.418  35.914  1.00  0.00    -0.237 OA
ATOM     87  O   UNL A   1      37.897  32.135  37.664  1.00  0.00    -0.744 OA
ENDBRANCH  80  84
ENDBRANCH  63  77
BRANCH  64  88
ATOM     88  C   UNL A   1      47.532  27.273  28.106  1.00  0.00     0.023 A 
ATOM     89  C   UNL A   1      46.812  26.479  27.198  1.00  0.00     0.031 A 
ATOM     90  C   UNL A   1      48.923  27.373  27.930  1.00  0.00     0.131 A 
ATOM     91  C   UNL A   1      47.490  25.755  26.203  1.00  0.00     0.055 A 
ATOM     92  C   UNL A   1      49.587  26.694  26.905  1.00  0.00     0.041 A 
ATOM     93  F   UNL A   1      49.661  28.123  28.763  1.00  0.00    -0.206 F 
ATOM     94  C   UNL A   1      48.872  25.864  26.046  1.00  0.00     0.022 A 
BRANCH  91  95
ATOM     95  S   UNL A   1      46.550  24.575  25.192  1.00  0.00     0.124 S 
ATOM     96  O   UNL A   1      45.225  25.184  25.184  1.00  0.00    -0.237 OA
ATOM     97  O   UNL A   1      47.283  24.611  23.931  1.00  0.00    -0.237 OA
ATOM     98  O   UNL A   1      46.660  23.325  25.940  1.00  0.00    -0.744 OA
ENDBRANCH  91  95
ENDBRANCH  64  88
BRANCH  76  99
ATOM     99  C   UNL A   1      45.061  33.702  29.238  1.00  0.00     0.023 A 
ATOM    100  C   UNL A   1      43.982  34.182  28.478  1.00  0.00     0.031 A 
ATOM    101  C   UNL A   1      46.234  34.479  29.288  1.00  0.00     0.131 A 
ATOM    102  C   UNL A   1      44.110  35.386  27.768  1.00  0.00     0.055 A 
ATOM    103  C   UNL A   1      46.337  35.701  28.622  1.00  0.00     0.041 A 
ATOM    104  F   UNL A   1      47.295  34.068  30.002  1.00  0.00    -0.206 F 
ATOM    105  C   UNL A   1      45.274  36.157  27.850  1.00  0.00     0.022 A 
BRANCH 102 106
ATOM    106  S   UNL A   1      42.752  35.911  26.686  1.00  0.00     0.124 S 
ATOM    107  O   UNL A   1      42.951  35.065  25.515  1.00  0.00    -0.237 OA
ATOM    108  O   UNL A   1      41.575  35.613  27.495  1.00  0.00    -0.237 OA
ATOM    109  O   UNL A   1      43.011  37.335  26.474  1.00  0.00    -0.744 OA
ENDBRANCH 102 106
ENDBRANCH  76  99
ENDBRANCH  50  51
ENDBRANCH  43  45
ENDBRANCH  42  43
ENDBRANCH  41  42
ENDBRANCH  40  41
ENDBRANCH  39  40
ENDBRANCH  38  39
ENDBRANCH  37  38
ENDBRANCH  36  37
ENDBRANCH  35  36
ENDBRANCH   1  35
TORSDOF 31
ENDMDL
