MODEL 1
REMARK VINA RESULT:      -9.9      0.000      0.000
REMARK SMILES Cc1nccn1C1(C(=O)OCCOCCOCCOCCOC(=O)c2ccc(-c3c4nc(c(-c5cc(S(=O)(=O)[O-])ccc5F)c5ccc([nH]5)c(-c5cc(S(=O)(=O)[O-])ccc5F)c5nc(c(-c6cc(S(=O)(=O)[O-])ccc6F)c6ccc3[nH]6)C=C5)C=C4)cc2)CCN(C(=O)[C@@H]2C[C@H]2c2ccccc2)CC1
REMARK SMILES IDX 17 1 16 2 15 3 14 4 13 5 12 6 11 7 10 8 8 9 9 10 7 11 88 12
REMARK SMILES IDX 103 13 89 14 102 15 90 16 91 17 92 18 6 19 1 20 2 21 3 22
REMARK SMILES IDX 4 23 5 24 93 25 94 26 95 27 96 28 97 29 101 30 98 31 100 32
REMARK SMILES IDX 99 33 18 34 19 35 20 36 21 37 22 38 23 39 24 40 25 41 26 42
REMARK SMILES IDX 87 43 27 44 86 45 28 46 29 47 30 48 80 49 31 50 85 51 79 52
REMARK SMILES IDX 81 53 32 54 84 55 78 56 77 57 33 59 65 60 45 61 64 62 46 63
REMARK SMILES IDX 49 64 63 65 82 66 47 67 48 68 62 70 83 71 50 72 34 73 35 74
REMARK SMILES IDX 43 75 36 76 42 77 44 78 41 79 37 80 38 81 39 82 40 83 66 84
REMARK SMILES IDX 67 85 75 86 68 87 74 88 76 89 73 90 69 91 70 92 71 93 72 94
REMARK SMILES IDX 51 95 52 96 60 97 53 98 59 99 61 100 58 101 54 102 55 103
REMARK SMILES IDX 56 104 57 105
REMARK H PARENT 81 58 49 69
REMARK Flexibility Score: inf
ROOT
ATOM      1  C   UNL A   1      33.243  31.313  27.084  1.00  0.00     0.188 C 
ENDROOT
BRANCH   1   2
ATOM      2  O   UNL A   1      32.152  30.431  27.350  1.00  0.00    -0.377 OA
BRANCH   2   3
ATOM      3  C   UNL A   1      31.784  29.556  26.302  1.00  0.00     0.188 C 
BRANCH   3   4
ATOM      4  C   UNL A   1      31.316  30.221  25.003  1.00  0.00     0.188 C 
BRANCH   4   5
ATOM      5  O   UNL A   1      30.697  29.456  23.981  1.00  0.00    -0.376 OA
BRANCH   5   6
ATOM      6  C   UNL A   1      30.204  28.157  24.289  1.00  0.00     0.202 C 
BRANCH   6   7
ATOM      7  C   UNL A   1      30.030  27.095  23.181  1.00  0.00     0.261 C 
BRANCH   7   8
ATOM      8  O   UNL A   1      30.622  25.812  23.485  1.00  0.00    -0.461 OA
BRANCH   8   9
ATOM      9  C   UNL A   1      31.412  25.693  24.586  1.00  0.00     0.332 C 
ATOM     10  O   UNL A   1      30.965  25.708  25.729  1.00  0.00    -0.249 OA
BRANCH   9  11
ATOM     11  C   UNL A   1      32.940  25.434  24.235  1.00  0.00     0.146 C 
ATOM     12  C   UNL A   1      33.635  25.023  25.592  1.00  0.00     0.062 C 
ATOM     13  C   UNL A   1      32.909  24.195  23.304  1.00  0.00     0.062 C 
ATOM     14  C   UNL A   1      34.811  24.056  25.563  1.00  0.00     0.122 C 
ATOM     15  C   UNL A   1      34.261  23.503  23.272  1.00  0.00     0.122 C 
ATOM     16  N   UNL A   1      34.580  23.005  24.597  1.00  0.00    -0.342 N 
ATOM     17  C   UNL A   1      34.648  21.690  25.052  1.00  0.00     0.226 C 
ATOM     18  O   UNL A   1      35.184  21.412  26.122  1.00  0.00    -0.275 OA
BRANCH  11  19
ATOM     19  N   UNL A   1      33.467  26.604  23.451  1.00  0.00    -0.318 N 
ATOM     20  C   UNL A   1      32.895  26.277  20.900  1.00  0.00     0.087 C 
ATOM     21  C   UNL A   1      33.460  26.953  22.094  1.00  0.00     0.106 A 
ATOM     22  N   UNL A   1      33.990  28.150  21.903  1.00  0.00    -0.242 NA
ATOM     23  C   UNL A   1      34.272  28.661  23.117  1.00  0.00     0.131 A 
ATOM     24  C   UNL A   1      33.922  27.762  24.083  1.00  0.00     0.108 A 
ENDBRANCH  11  19
BRANCH  17  25
ATOM     25  C   UNL A   1      34.003  20.557  24.326  1.00  0.00     0.087 C 
ATOM     26  C   UNL A   1      32.564  20.639  23.884  1.00  0.00     0.023 C 
ATOM     27  C   UNL A   1      32.992  19.616  24.901  1.00  0.00     0.032 C 
BRANCH  27  28
ATOM     28  C   UNL A   1      32.945  18.143  24.700  1.00  0.00    -0.044 A 
ATOM     29  C   UNL A   1      32.528  17.329  25.762  1.00  0.00     0.004 A 
ATOM     30  C   UNL A   1      33.669  17.557  23.650  1.00  0.00     0.004 A 
ATOM     31  C   UNL A   1      32.912  15.993  25.829  1.00  0.00     0.000 A 
ATOM     32  C   UNL A   1      34.054  16.219  23.714  1.00  0.00     0.000 A 
ATOM     33  C   UNL A   1      33.697  15.447  24.818  1.00  0.00     0.000 A 
ENDBRANCH  27  28
ENDBRANCH  17  25
ENDBRANCH   9  11
ENDBRANCH   8   9
ENDBRANCH   7   8
ENDBRANCH   6   7
ENDBRANCH   5   6
ENDBRANCH   4   5
ENDBRANCH   3   4
ENDBRANCH   2   3
ENDBRANCH   1   2
BRANCH   1  34
ATOM     34  C   UNL A   1      33.307  32.669  27.830  1.00  0.00     0.188 C 
BRANCH  34  35
ATOM     35  O   UNL A   1      34.546  32.984  28.459  1.00  0.00    -0.376 OA
BRANCH  35  36
ATOM     36  C   UNL A   1      35.804  32.540  27.966  1.00  0.00     0.202 C 
BRANCH  36  37
ATOM     37  C   UNL A   1      36.536  31.370  28.634  1.00  0.00     0.261 C 
BRANCH  37  38
ATOM     38  O   UNL A   1      37.664  31.728  29.403  1.00  0.00    -0.460 OA
BRANCH  38  39
ATOM     39  C   UNL A   1      37.417  31.925  30.714  1.00  0.00     0.338 C 
ATOM     40  O   UNL A   1      36.650  32.720  31.209  1.00  0.00    -0.246 OA
BRANCH  39  41
ATOM     41  C   UNL A   1      38.307  31.049  31.474  1.00  0.00     0.060 A 
ATOM     42  C   UNL A   1      39.596  31.528  31.690  1.00  0.00     0.016 A 
ATOM     43  C   UNL A   1      37.966  29.693  31.592  1.00  0.00     0.016 A 
ATOM     44  C   UNL A   1      40.612  30.608  31.712  1.00  0.00     0.010 A 
ATOM     45  C   UNL A   1      38.982  28.781  31.598  1.00  0.00     0.010 A 
ATOM     46  C   UNL A   1      40.286  29.259  31.535  1.00  0.00    -0.014 A 
BRANCH  46  47
ATOM     47  C   UNL A   1      41.360  28.307  31.378  1.00  0.00     0.031 A 
ATOM     48  C   UNL A   1      41.866  27.874  32.692  1.00  0.00     0.074 A 
ATOM     49  C   UNL A   1      41.737  27.841  30.172  1.00  0.00     0.049 A 
ATOM     50  N   UNL A   1      42.948  28.266  33.276  1.00  0.00    -0.248 NA
ATOM     51  C   UNL A   1      40.935  27.155  33.579  1.00  0.00     0.031 C 
ATOM     52  C   UNL A   1      41.113  28.080  28.866  1.00  0.00     0.029 A 
ATOM     53  N   UNL A   1      42.738  26.974  29.867  1.00  0.00    -0.354 N 
ATOM     54  C   UNL A   1      42.966  27.583  34.482  1.00  0.00     0.074 A 
ATOM     55  C   UNL A   1      41.610  27.184  34.728  1.00  0.00     0.031 C 
ATOM     56  C   UNL A   1      41.611  27.205  27.959  1.00  0.00     0.029 A 
ATOM     57  C   UNL A   1      42.684  26.443  28.579  1.00  0.00     0.049 A 
ATOM     58  H   UNL A   1      43.449  26.740  30.507  1.00  0.00     0.167 HD
ATOM     59  C   UNL A   1      44.136  27.090  34.967  1.00  0.00     0.034 A 
ATOM     60  C   UNL A   1      43.447  25.427  28.083  1.00  0.00     0.034 A 
ATOM     61  C   UNL A   1      45.262  27.753  34.339  1.00  0.00     0.049 A 
ATOM     62  C   UNL A   1      44.651  25.357  28.947  1.00  0.00     0.074 A 
ATOM     63  C   UNL A   1      45.720  29.053  34.279  1.00  0.00     0.029 A 
ATOM     64  N   UNL A   1      45.868  27.087  33.297  1.00  0.00    -0.354 N 
ATOM     65  N   UNL A   1      45.537  26.314  29.009  1.00  0.00    -0.248 NA
ATOM     66  C   UNL A   1      44.622  24.471  30.103  1.00  0.00     0.031 C 
ATOM     67  C   UNL A   1      46.238  29.209  32.958  1.00  0.00     0.029 A 
ATOM     68  C   UNL A   1      46.149  27.982  32.294  1.00  0.00     0.049 A 
ATOM     69  H   UNL A   1      46.067  26.124  33.273  1.00  0.00     0.167 HD
ATOM     70  C   UNL A   1      45.855  26.426  30.353  1.00  0.00     0.074 A 
ATOM     71  C   UNL A   1      45.356  25.191  30.959  1.00  0.00     0.031 C 
ATOM     72  C   UNL A   1      46.223  27.630  30.885  1.00  0.00     0.034 A 
BRANCH  59  73
ATOM     73  C   UNL A   1      44.261  25.730  35.626  1.00  0.00     0.023 A 
ATOM     74  C   UNL A   1      44.769  25.708  36.937  1.00  0.00     0.031 A 
ATOM     75  C   UNL A   1      44.201  24.471  34.977  1.00  0.00     0.131 A 
ATOM     76  C   UNL A   1      45.279  24.525  37.497  1.00  0.00     0.055 A 
ATOM     77  C   UNL A   1      44.655  23.286  35.561  1.00  0.00     0.041 A 
ATOM     78  F   UNL A   1      43.788  24.307  33.717  1.00  0.00    -0.206 F 
ATOM     79  C   UNL A   1      45.228  23.313  36.816  1.00  0.00     0.022 A 
BRANCH  76  80
ATOM     80  S   UNL A   1      46.168  24.635  39.066  1.00  0.00     0.124 S 
ATOM     81  O   UNL A   1      45.201  25.336  39.902  1.00  0.00    -0.237 OA
ATOM     82  O   UNL A   1      46.394  23.228  39.379  1.00  0.00    -0.237 OA
ATOM     83  O   UNL A   1      47.366  25.397  38.722  1.00  0.00    -0.744 OA
ENDBRANCH  76  80
ENDBRANCH  59  73
BRANCH  60  84
ATOM     84  C   UNL A   1      43.020  24.306  27.190  1.00  0.00     0.023 A 
ATOM     85  C   UNL A   1      43.871  23.691  26.242  1.00  0.00     0.031 A 
ATOM     86  C   UNL A   1      41.802  23.645  27.464  1.00  0.00     0.131 A 
ATOM     87  C   UNL A   1      43.491  22.474  25.619  1.00  0.00     0.055 A 
ATOM     88  C   UNL A   1      41.437  22.442  26.853  1.00  0.00     0.041 A 
ATOM     89  F   UNL A   1      40.963  24.102  28.406  1.00  0.00    -0.206 F 
ATOM     90  C   UNL A   1      42.283  21.847  25.933  1.00  0.00     0.022 A 
BRANCH  87  91
ATOM     91  S   UNL A   1      44.594  21.639  24.424  1.00  0.00     0.124 S 
ATOM     92  O   UNL A   1      44.293  20.231  24.650  1.00  0.00    -0.237 OA
ATOM     93  O   UNL A   1      44.159  22.201  23.151  1.00  0.00    -0.237 OA
ATOM     94  O   UNL A   1      45.934  22.052  24.847  1.00  0.00    -0.744 OA
ENDBRANCH  87  91
ENDBRANCH  60  84
BRANCH  72  95
ATOM     95  C   UNL A   1      46.592  28.740  29.914  1.00  0.00     0.023 A 
ATOM     96  C   UNL A   1      47.838  28.877  29.255  1.00  0.00     0.031 A 
ATOM     97  C   UNL A   1      45.575  29.650  29.578  1.00  0.00     0.131 A 
ATOM     98  C   UNL A   1      48.025  29.908  28.309  1.00  0.00     0.055 A 
ATOM     99  C   UNL A   1      45.757  30.651  28.625  1.00  0.00     0.041 A 
ATOM    100  F   UNL A   1      44.365  29.559  30.152  1.00  0.00    -0.206 F 
ATOM    101  C   UNL A   1      46.985  30.787  27.989  1.00  0.00     0.022 A 
BRANCH  98 102
ATOM    102  S   UNL A   1      49.634  30.136  27.477  1.00  0.00     0.124 S 
ATOM    103  O   UNL A   1      49.824  31.582  27.496  1.00  0.00    -0.237 OA
ATOM    104  O   UNL A   1      50.540  29.359  28.318  1.00  0.00    -0.237 OA
ATOM    105  O   UNL A   1      49.413  29.570  26.144  1.00  0.00    -0.744 OA
ENDBRANCH  98 102
ENDBRANCH  72  95
ENDBRANCH  46  47
ENDBRANCH  39  41
ENDBRANCH  38  39
ENDBRANCH  37  38
ENDBRANCH  36  37
ENDBRANCH  35  36
ENDBRANCH  34  35
ENDBRANCH   1  34
TORSDOF 26
ENDMDL
MODEL 2
REMARK VINA RESULT:      -9.7      2.142      7.352
REMARK SMILES Cc1nccn1C1(C(=O)OCCOCCOCCOCCOC(=O)c2ccc(-c3c4nc(c(-c5cc(S(=O)(=O)[O-])ccc5F)c5ccc([nH]5)c(-c5cc(S(=O)(=O)[O-])ccc5F)c5nc(c(-c6cc(S(=O)(=O)[O-])ccc6F)c6ccc3[nH]6)C=C5)C=C4)cc2)CCN(C(=O)[C@@H]2C[C@H]2c2ccccc2)CC1
REMARK SMILES IDX 17 1 16 2 15 3 14 4 13 5 12 6 11 7 10 8 8 9 9 10 7 11 88 12
REMARK SMILES IDX 103 13 89 14 102 15 90 16 91 17 92 18 6 19 1 20 2 21 3 22
REMARK SMILES IDX 4 23 5 24 93 25 94 26 95 27 96 28 97 29 101 30 98 31 100 32
REMARK SMILES IDX 99 33 18 34 19 35 20 36 21 37 22 38 23 39 24 40 25 41 26 42
REMARK SMILES IDX 87 43 27 44 86 45 28 46 29 47 30 48 80 49 31 50 85 51 79 52
REMARK SMILES IDX 81 53 32 54 84 55 78 56 77 57 33 59 65 60 45 61 64 62 46 63
REMARK SMILES IDX 49 64 63 65 82 66 47 67 48 68 62 70 83 71 50 72 34 73 35 74
REMARK SMILES IDX 43 75 36 76 42 77 44 78 41 79 37 80 38 81 39 82 40 83 66 84
REMARK SMILES IDX 67 85 75 86 68 87 74 88 76 89 73 90 69 91 70 92 71 93 72 94
REMARK SMILES IDX 51 95 52 96 60 97 53 98 59 99 61 100 58 101 54 102 55 103
REMARK SMILES IDX 56 104 57 105
REMARK H PARENT 81 58 49 69
REMARK Flexibility Score: inf
ROOT
ATOM      1  C   UNL A   1      38.537  29.373  30.127  1.00  0.00     0.188 C 
ENDROOT
BRANCH   1   2
ATOM      2  O   UNL A   1      38.203  30.536  29.371  1.00  0.00    -0.377 OA
BRANCH   2   3
ATOM      3  C   UNL A   1      37.644  30.313  28.091  1.00  0.00     0.188 C 
BRANCH   3   4
ATOM      4  C   UNL A   1      36.114  30.381  28.005  1.00  0.00     0.188 C 
BRANCH   4   5
ATOM      5  O   UNL A   1      35.373  29.303  27.457  1.00  0.00    -0.376 OA
BRANCH   5   6
ATOM      6  C   UNL A   1      33.952  29.330  27.529  1.00  0.00     0.202 C 
BRANCH   6   7
ATOM      7  C   UNL A   1      33.092  28.644  26.445  1.00  0.00     0.261 C 
BRANCH   7   8
ATOM      8  O   UNL A   1      33.069  27.202  26.525  1.00  0.00    -0.461 OA
BRANCH   8   9
ATOM      9  C   UNL A   1      31.920  26.541  26.220  1.00  0.00     0.332 C 
ATOM     10  O   UNL A   1      31.022  26.356  27.036  1.00  0.00    -0.249 OA
BRANCH   9  11
ATOM     11  C   UNL A   1      31.822  26.133  24.686  1.00  0.00     0.146 C 
ATOM     12  C   UNL A   1      33.312  25.992  24.178  1.00  0.00     0.062 C 
ATOM     13  C   UNL A   1      31.177  24.723  24.711  1.00  0.00     0.062 C 
ATOM     14  C   UNL A   1      33.632  24.982  23.085  1.00  0.00     0.122 C 
ATOM     15  C   UNL A   1      31.459  23.972  23.421  1.00  0.00     0.122 C 
ATOM     16  N   UNL A   1      32.889  23.760  23.289  1.00  0.00    -0.342 N 
ATOM     17  C   UNL A   1      33.615  22.574  23.374  1.00  0.00     0.226 C 
ATOM     18  O   UNL A   1      34.777  22.508  22.981  1.00  0.00    -0.275 OA
BRANCH  11  19
ATOM     19  N   UNL A   1      30.882  27.074  23.988  1.00  0.00    -0.318 N 
ATOM     20  C   UNL A   1      32.274  28.865  22.646  1.00  0.00     0.087 C 
ATOM     21  C   UNL A   1      31.055  28.193  23.161  1.00  0.00     0.106 A 
ATOM     22  N   UNL A   1      29.894  28.647  22.718  1.00  0.00    -0.242 NA
ATOM     23  C   UNL A   1      28.942  27.799  23.152  1.00  0.00     0.131 A 
ATOM     24  C   UNL A   1      29.516  26.805  23.889  1.00  0.00     0.108 A 
ENDBRANCH  11  19
BRANCH  17  25
ATOM     25  C   UNL A   1      33.070  21.345  24.021  1.00  0.00     0.087 C 
ATOM     26  C   UNL A   1      32.981  21.234  25.521  1.00  0.00     0.023 C 
ATOM     27  C   UNL A   1      33.874  20.308  24.741  1.00  0.00     0.032 C 
BRANCH  27  28
ATOM     28  C   UNL A   1      33.699  18.835  24.645  1.00  0.00    -0.044 A 
ATOM     29  C   UNL A   1      32.568  18.248  25.229  1.00  0.00     0.004 A 
ATOM     30  C   UNL A   1      34.802  18.017  24.351  1.00  0.00     0.004 A 
ATOM     31  C   UNL A   1      32.574  16.909  25.608  1.00  0.00     0.000 A 
ATOM     32  C   UNL A   1      34.810  16.676  24.728  1.00  0.00     0.000 A 
ATOM     33  C   UNL A   1      33.706  16.131  25.380  1.00  0.00     0.000 A 
ENDBRANCH  27  28
ENDBRANCH  17  25
ENDBRANCH   9  11
ENDBRANCH   8   9
ENDBRANCH   7   8
ENDBRANCH   6   7
ENDBRANCH   5   6
ENDBRANCH   4   5
ENDBRANCH   3   4
ENDBRANCH   2   3
ENDBRANCH   1   2
BRANCH   1  34
ATOM     34  C   UNL A   1      37.725  29.055  31.407  1.00  0.00     0.188 C 
BRANCH  34  35
ATOM     35  O   UNL A   1      38.448  29.082  32.635  1.00  0.00    -0.376 OA
BRANCH  35  36
ATOM     36  C   UNL A   1      39.126  30.237  33.113  1.00  0.00     0.202 C 
BRANCH  36  37
ATOM     37  C   UNL A   1      38.494  31.627  32.978  1.00  0.00     0.261 C 
BRANCH  37  38
ATOM     38  O   UNL A   1      39.390  32.709  33.108  1.00  0.00    -0.460 OA
BRANCH  38  39
ATOM     39  C   UNL A   1      39.637  33.381  31.965  1.00  0.00     0.338 C 
ATOM     40  O   UNL A   1      38.900  34.146  31.385  1.00  0.00    -0.246 OA
BRANCH  39  41
ATOM     41  C   UNL A   1      40.953  32.968  31.478  1.00  0.00     0.060 A 
ATOM     42  C   UNL A   1      40.968  32.304  30.255  1.00  0.00     0.016 A 
ATOM     43  C   UNL A   1      42.013  32.909  32.394  1.00  0.00     0.016 A 
ATOM     44  C   UNL A   1      41.912  31.323  30.086  1.00  0.00     0.010 A 
ATOM     45  C   UNL A   1      42.940  31.919  32.230  1.00  0.00     0.010 A 
ATOM     46  C   UNL A   1      42.798  31.069  31.139  1.00  0.00    -0.014 A 
BRANCH  46  47
ATOM     47  C   UNL A   1      43.671  29.924  31.041  1.00  0.00     0.031 A 
ATOM     48  C   UNL A   1      44.851  30.241  30.218  1.00  0.00     0.074 A 
ATOM     49  C   UNL A   1      43.437  28.781  31.713  1.00  0.00     0.049 A 
ATOM     50  N   UNL A   1      45.060  29.896  28.992  1.00  0.00    -0.248 NA
ATOM     51  C   UNL A   1      45.762  31.292  30.706  1.00  0.00     0.031 C 
ATOM     52  C   UNL A   1      42.397  28.506  32.711  1.00  0.00     0.029 A 
ATOM     53  N   UNL A   1      44.146  27.622  31.699  1.00  0.00    -0.354 N 
ATOM     54  C   UNL A   1      46.293  30.445  28.675  1.00  0.00     0.074 A 
ATOM     55  C   UNL A   1      46.507  31.502  29.621  1.00  0.00     0.031 C 
ATOM     56  C   UNL A   1      42.683  27.350  33.357  1.00  0.00     0.029 A 
ATOM     57  C   UNL A   1      43.841  26.733  32.728  1.00  0.00     0.049 A 
ATOM     58  H   UNL A   1      44.824  27.425  31.013  1.00  0.00     0.167 HD
ATOM     59  C   UNL A   1      47.175  29.743  27.917  1.00  0.00     0.034 A 
ATOM     60  C   UNL A   1      44.520  25.594  33.051  1.00  0.00     0.034 A 
ATOM     61  C   UNL A   1      46.491  28.692  27.190  1.00  0.00     0.049 A 
ATOM     62  C   UNL A   1      45.281  25.210  31.837  1.00  0.00     0.074 A 
ATOM     63  C   UNL A   1      45.491  28.653  26.239  1.00  0.00     0.029 A 
ATOM     64  N   UNL A   1      46.552  27.427  27.730  1.00  0.00    -0.354 N 
ATOM     65  N   UNL A   1      44.704  24.838  30.727  1.00  0.00    -0.248 NA
ATOM     66  C   UNL A   1      46.640  25.710  31.686  1.00  0.00     0.031 C 
ATOM     67  C   UNL A   1      44.717  27.496  26.556  1.00  0.00     0.029 A 
ATOM     68  C   UNL A   1      45.317  26.835  27.631  1.00  0.00     0.049 A 
ATOM     69  H   UNL A   1      47.351  27.012  28.127  1.00  0.00     0.167 HD
ATOM     70  C   UNL A   1      45.427  25.456  29.719  1.00  0.00     0.074 A 
ATOM     71  C   UNL A   1      46.674  25.877  30.359  1.00  0.00     0.031 C 
ATOM     72  C   UNL A   1      44.821  25.823  28.550  1.00  0.00     0.034 A 
BRANCH  59  73
ATOM     73  C   UNL A   1      48.666  29.699  28.193  1.00  0.00     0.023 A 
ATOM     74  C   UNL A   1      49.517  29.880  27.088  1.00  0.00     0.031 A 
ATOM     75  C   UNL A   1      49.291  29.215  29.369  1.00  0.00     0.131 A 
ATOM     76  C   UNL A   1      50.866  29.490  27.143  1.00  0.00     0.055 A 
ATOM     77  C   UNL A   1      50.646  28.885  29.435  1.00  0.00     0.041 A 
ATOM     78  F   UNL A   1      48.631  28.943  30.499  1.00  0.00    -0.206 F 
ATOM     79  C   UNL A   1      51.436  28.990  28.309  1.00  0.00     0.022 A 
BRANCH  76  80
ATOM     80  S   UNL A   1      51.818  29.487  25.607  1.00  0.00     0.124 S 
ATOM     81  O   UNL A   1      52.933  28.614  25.955  1.00  0.00    -0.237 OA
ATOM     82  O   UNL A   1      50.849  28.953  24.657  1.00  0.00    -0.237 OA
ATOM     83  O   UNL A   1      52.162  30.895  25.422  1.00  0.00    -0.744 OA
ENDBRANCH  76  80
ENDBRANCH  59  73
BRANCH  60  84
ATOM     84  C   UNL A   1      44.844  25.072  34.414  1.00  0.00     0.023 A 
ATOM     85  C   UNL A   1      45.013  25.898  35.551  1.00  0.00     0.031 A 
ATOM     86  C   UNL A   1      44.729  23.685  34.657  1.00  0.00     0.131 A 
ATOM     87  C   UNL A   1      45.057  25.330  36.851  1.00  0.00     0.055 A 
ATOM     88  C   UNL A   1      44.765  23.132  35.940  1.00  0.00     0.041 A 
ATOM     89  F   UNL A   1      44.484  22.825  33.655  1.00  0.00    -0.206 F 
ATOM     90  C   UNL A   1      44.921  23.953  37.044  1.00  0.00     0.022 A 
BRANCH  87  91
ATOM     91  S   UNL A   1      45.229  26.381  38.336  1.00  0.00     0.124 S 
ATOM     92  O   UNL A   1      44.270  27.447  38.080  1.00  0.00    -0.237 OA
ATOM     93  O   UNL A   1      44.902  25.456  39.415  1.00  0.00    -0.237 OA
ATOM     94  O   UNL A   1      46.632  26.800  38.298  1.00  0.00    -0.744 OA
ENDBRANCH  87  91
ENDBRANCH  60  84
BRANCH  72  95
ATOM     95  C   UNL A   1      43.446  25.241  28.262  1.00  0.00     0.023 A 
ATOM     96  C   UNL A   1      43.189  23.929  27.794  1.00  0.00     0.031 A 
ATOM     97  C   UNL A   1      42.340  26.049  28.576  1.00  0.00     0.131 A 
ATOM     98  C   UNL A   1      41.858  23.482  27.647  1.00  0.00     0.055 A 
ATOM     99  C   UNL A   1      41.028  25.594  28.452  1.00  0.00     0.041 A 
ATOM    100  F   UNL A   1      42.519  27.294  29.044  1.00  0.00    -0.206 F 
ATOM    101  C   UNL A   1      40.781  24.310  27.983  1.00  0.00     0.022 A 
BRANCH  98 102
ATOM    102  S   UNL A   1      41.495  21.813  27.004  1.00  0.00     0.124 S 
ATOM    103  O   UNL A   1      40.119  21.578  27.426  1.00  0.00    -0.237 OA
ATOM    104  O   UNL A   1      41.708  21.972  25.569  1.00  0.00    -0.237 OA
ATOM    105  O   UNL A   1      42.488  20.967  27.672  1.00  0.00    -0.744 OA
ENDBRANCH  98 102
ENDBRANCH  72  95
ENDBRANCH  46  47
ENDBRANCH  39  41
ENDBRANCH  38  39
ENDBRANCH  37  38
ENDBRANCH  36  37
ENDBRANCH  35  36
ENDBRANCH  34  35
ENDBRANCH   1  34
TORSDOF 26
ENDMDL
MODEL 3
REMARK VINA RESULT:      -9.5      2.063      2.616
REMARK SMILES Cc1nccn1C1(C(=O)OCCOCCOCCOCCOC(=O)c2ccc(-c3c4nc(c(-c5cc(S(=O)(=O)[O-])ccc5F)c5ccc([nH]5)c(-c5cc(S(=O)(=O)[O-])ccc5F)c5nc(c(-c6cc(S(=O)(=O)[O-])ccc6F)c6ccc3[nH]6)C=C5)C=C4)cc2)CCN(C(=O)[C@@H]2C[C@H]2c2ccccc2)CC1
REMARK SMILES IDX 17 1 16 2 15 3 14 4 13 5 12 6 11 7 10 8 8 9 9 10 7 11 88 12
REMARK SMILES IDX 103 13 89 14 102 15 90 16 91 17 92 18 6 19 1 20 2 21 3 22
REMARK SMILES IDX 4 23 5 24 93 25 94 26 95 27 96 28 97 29 101 30 98 31 100 32
REMARK SMILES IDX 99 33 18 34 19 35 20 36 21 37 22 38 23 39 24 40 25 41 26 42
REMARK SMILES IDX 87 43 27 44 86 45 28 46 29 47 30 48 80 49 31 50 85 51 79 52
REMARK SMILES IDX 81 53 32 54 84 55 78 56 77 57 33 59 65 60 45 61 64 62 46 63
REMARK SMILES IDX 49 64 63 65 82 66 47 67 48 68 62 70 83 71 50 72 34 73 35 74
REMARK SMILES IDX 43 75 36 76 42 77 44 78 41 79 37 80 38 81 39 82 40 83 66 84
REMARK SMILES IDX 67 85 75 86 68 87 74 88 76 89 73 90 69 91 70 92 71 93 72 94
REMARK SMILES IDX 51 95 52 96 60 97 53 98 59 99 61 100 58 101 54 102 55 103
REMARK SMILES IDX 56 104 57 105
REMARK H PARENT 81 58 49 69
REMARK Flexibility Score: inf
ROOT
ATOM      1  C   UNL A   1      32.594  31.071  26.171  1.00  0.00     0.188 C 
ENDROOT
BRANCH   1   2
ATOM      2  O   UNL A   1      31.520  30.314  25.613  1.00  0.00    -0.377 OA
BRANCH   2   3
ATOM      3  C   UNL A   1      30.500  31.053  24.970  1.00  0.00     0.188 C 
BRANCH   3   4
ATOM      4  C   UNL A   1      29.808  30.359  23.791  1.00  0.00     0.188 C 
BRANCH   4   5
ATOM      5  O   UNL A   1      30.349  29.172  23.232  1.00  0.00    -0.376 OA
BRANCH   5   6
ATOM      6  C   UNL A   1      29.765  27.918  23.567  1.00  0.00     0.202 C 
BRANCH   6   7
ATOM      7  C   UNL A   1      30.079  27.234  24.916  1.00  0.00     0.261 C 
BRANCH   7   8
ATOM      8  O   UNL A   1      30.009  25.792  24.885  1.00  0.00    -0.461 OA
BRANCH   8   9
ATOM      9  C   UNL A   1      30.754  25.114  23.970  1.00  0.00     0.332 C 
ATOM     10  O   UNL A   1      30.278  24.647  22.939  1.00  0.00    -0.249 OA
BRANCH   9  11
ATOM     11  C   UNL A   1      32.303  25.081  24.327  1.00  0.00     0.146 C 
ATOM     12  C   UNL A   1      32.389  24.692  25.856  1.00  0.00     0.062 C 
ATOM     13  C   UNL A   1      32.859  23.901  23.489  1.00  0.00     0.062 C 
ATOM     14  C   UNL A   1      33.586  23.895  26.354  1.00  0.00     0.122 C 
ATOM     15  C   UNL A   1      34.174  23.399  24.059  1.00  0.00     0.122 C 
ATOM     16  N   UNL A   1      33.952  22.877  25.395  1.00  0.00    -0.342 N 
ATOM     17  C   UNL A   1      34.004  21.560  25.846  1.00  0.00     0.226 C 
ATOM     18  O   UNL A   1      34.056  21.298  27.045  1.00  0.00    -0.275 OA
BRANCH  11  19
ATOM     19  N   UNL A   1      32.943  26.352  23.843  1.00  0.00    -0.318 N 
ATOM     20  C   UNL A   1      33.929  27.672  25.898  1.00  0.00     0.087 C 
ATOM     21  C   UNL A   1      33.602  27.416  24.474  1.00  0.00     0.106 A 
ATOM     22  N   UNL A   1      34.070  28.282  23.592  1.00  0.00    -0.242 NA
ATOM     23  C   UNL A   1      33.825  27.778  22.367  1.00  0.00     0.131 A 
ATOM     24  C   UNL A   1      33.181  26.581  22.487  1.00  0.00     0.108 A 
ENDBRANCH  11  19
BRANCH  17  25
ATOM     25  C   UNL A   1      33.910  20.392  24.922  1.00  0.00     0.087 C 
ATOM     26  C   UNL A   1      32.750  20.249  23.970  1.00  0.00     0.023 C 
ATOM     27  C   UNL A   1      32.966  19.240  25.066  1.00  0.00     0.032 C 
BRANCH  27  28
ATOM     28  C   UNL A   1      33.289  17.805  24.851  1.00  0.00    -0.044 A 
ATOM     29  C   UNL A   1      32.356  16.835  25.244  1.00  0.00     0.004 A 
ATOM     30  C   UNL A   1      34.621  17.410  24.648  1.00  0.00     0.004 A 
ATOM     31  C   UNL A   1      32.758  15.534  25.531  1.00  0.00     0.000 A 
ATOM     32  C   UNL A   1      35.025  16.107  24.934  1.00  0.00     0.000 A 
ATOM     33  C   UNL A   1      34.097  15.179  25.401  1.00  0.00     0.000 A 
ENDBRANCH  27  28
ENDBRANCH  17  25
ENDBRANCH   9  11
ENDBRANCH   8   9
ENDBRANCH   7   8
ENDBRANCH   6   7
ENDBRANCH   5   6
ENDBRANCH   4   5
ENDBRANCH   3   4
ENDBRANCH   2   3
ENDBRANCH   1   2
BRANCH   1  34
ATOM     34  C   UNL A   1      33.038  30.780  27.625  1.00  0.00     0.188 C 
BRANCH  34  35
ATOM     35  O   UNL A   1      34.443  30.703  27.852  1.00  0.00    -0.376 OA
BRANCH  35  36
ATOM     36  C   UNL A   1      35.330  31.788  27.612  1.00  0.00     0.202 C 
BRANCH  36  37
ATOM     37  C   UNL A   1      36.175  32.373  28.749  1.00  0.00     0.261 C 
BRANCH  37  38
ATOM     38  O   UNL A   1      35.773  32.000  30.050  1.00  0.00    -0.460 OA
BRANCH  38  39
ATOM     39  C   UNL A   1      36.314  30.851  30.502  1.00  0.00     0.338 C 
ATOM     40  O   UNL A   1      35.885  30.126  31.372  1.00  0.00    -0.246 OA
BRANCH  39  41
ATOM     41  C   UNL A   1      37.585  30.649  29.807  1.00  0.00     0.060 A 
ATOM     42  C   UNL A   1      37.719  29.447  29.119  1.00  0.00     0.016 A 
ATOM     43  C   UNL A   1      38.679  31.445  30.178  1.00  0.00     0.016 A 
ATOM     44  C   UNL A   1      38.968  28.882  29.080  1.00  0.00     0.010 A 
ATOM     45  C   UNL A   1      39.919  30.871  30.152  1.00  0.00     0.010 A 
ATOM     46  C   UNL A   1      40.018  29.555  29.714  1.00  0.00    -0.014 A 
BRANCH  46  47
ATOM     47  C   UNL A   1      41.290  28.885  29.834  1.00  0.00     0.031 A 
ATOM     48  C   UNL A   1      41.678  28.756  31.249  1.00  0.00     0.074 A 
ATOM     49  C   UNL A   1      41.941  28.381  28.768  1.00  0.00     0.049 A 
ATOM     50  N   UNL A   1      42.542  29.472  31.887  1.00  0.00    -0.248 NA
ATOM     51  C   UNL A   1      40.811  27.946  32.123  1.00  0.00     0.031 C 
ATOM     52  C   UNL A   1      41.483  28.295  27.377  1.00  0.00     0.029 A 
ATOM     53  N   UNL A   1      43.147  27.756  28.721  1.00  0.00    -0.354 N 
ATOM     54  C   UNL A   1      42.532  28.968  33.179  1.00  0.00     0.074 A 
ATOM     55  C   UNL A   1      41.281  28.282  33.325  1.00  0.00     0.031 C 
ATOM     56  C   UNL A   1      42.298  27.465  26.682  1.00  0.00     0.029 A 
ATOM     57  C   UNL A   1      43.410  27.073  27.535  1.00  0.00     0.049 A 
ATOM     58  H   UNL A   1      43.788  27.785  29.469  1.00  0.00     0.167 HD
ATOM     59  C   UNL A   1      43.696  28.843  33.869  1.00  0.00     0.034 A 
ATOM     60  C   UNL A   1      44.450  26.223  27.297  1.00  0.00     0.034 A 
ATOM     61  C   UNL A   1      44.724  29.680  33.282  1.00  0.00     0.049 A 
ATOM     62  C   UNL A   1      45.494  26.559  28.296  1.00  0.00     0.074 A 
ATOM     63  C   UNL A   1      44.878  31.036  33.073  1.00  0.00     0.029 A 
ATOM     64  N   UNL A   1      45.615  29.061  32.434  1.00  0.00    -0.354 N 
ATOM     65  N   UNL A   1      46.120  27.705  28.310  1.00  0.00    -0.248 NA
ATOM     66  C   UNL A   1      45.493  25.844  29.564  1.00  0.00     0.031 C 
ATOM     67  C   UNL A   1      45.541  31.149  31.813  1.00  0.00     0.029 A 
ATOM     68  C   UNL A   1      45.834  29.866  31.344  1.00  0.00     0.049 A 
ATOM     69  H   UNL A   1      46.029  28.181  32.584  1.00  0.00     0.167 HD
ATOM     70  C   UNL A   1      46.197  28.058  29.649  1.00  0.00     0.074 A 
ATOM     71  C   UNL A   1      45.906  26.822  30.377  1.00  0.00     0.031 C 
ATOM     72  C   UNL A   1      46.197  29.372  30.025  1.00  0.00     0.034 A 
BRANCH  59  73
ATOM     73  C   UNL A   1      44.026  27.648  34.742  1.00  0.00     0.023 A 
ATOM     74  C   UNL A   1      44.257  26.428  34.080  1.00  0.00     0.031 A 
ATOM     75  C   UNL A   1      43.846  27.553  36.145  1.00  0.00     0.131 A 
ATOM     76  C   UNL A   1      44.193  25.207  34.771  1.00  0.00     0.055 A 
ATOM     77  C   UNL A   1      43.843  26.339  36.836  1.00  0.00     0.041 A 
ATOM     78  F   UNL A   1      43.574  28.601  36.928  1.00  0.00    -0.206 F 
ATOM     79  C   UNL A   1      43.984  25.153  36.145  1.00  0.00     0.022 A 
BRANCH  76  80
ATOM     80  S   UNL A   1      44.217  23.677  33.808  1.00  0.00     0.124 S 
ATOM     81  O   UNL A   1      44.658  24.159  32.504  1.00  0.00    -0.237 OA
ATOM     82  O   UNL A   1      45.173  22.870  34.557  1.00  0.00    -0.237 OA
ATOM     83  O   UNL A   1      42.830  23.220  33.869  1.00  0.00    -0.744 OA
ENDBRANCH  76  80
ENDBRANCH  59  73
BRANCH  60  84
ATOM     84  C   UNL A   1      44.429  24.930  26.546  1.00  0.00     0.023 A 
ATOM     85  C   UNL A   1      43.599  23.837  26.892  1.00  0.00     0.031 A 
ATOM     86  C   UNL A   1      45.061  24.865  25.285  1.00  0.00     0.131 A 
ATOM     87  C   UNL A   1      43.434  22.750  25.994  1.00  0.00     0.055 A 
ATOM     88  C   UNL A   1      44.888  23.795  24.402  1.00  0.00     0.041 A 
ATOM     89  F   UNL A   1      45.802  25.887  24.829  1.00  0.00    -0.206 F 
ATOM     90  C   UNL A   1      44.067  22.736  24.749  1.00  0.00     0.022 A 
BRANCH  87  91
ATOM     91  S   UNL A   1      42.334  21.348  26.401  1.00  0.00     0.124 S 
ATOM     92  O   UNL A   1      42.945  20.246  25.668  1.00  0.00    -0.237 OA
ATOM     93  O   UNL A   1      42.422  21.291  27.855  1.00  0.00    -0.237 OA
ATOM     94  O   UNL A   1      41.030  21.774  25.886  1.00  0.00    -0.744 OA
ENDBRANCH  87  91
ENDBRANCH  60  84
BRANCH  72  95
ATOM     95  C   UNL A   1      46.447  30.410  28.942  1.00  0.00     0.023 A 
ATOM     96  C   UNL A   1      47.714  30.765  28.419  1.00  0.00     0.031 A 
ATOM     97  C   UNL A   1      45.312  30.994  28.353  1.00  0.00     0.131 A 
ATOM     98  C   UNL A   1      47.802  31.685  27.352  1.00  0.00     0.055 A 
ATOM     99  C   UNL A   1      45.404  31.883  27.284  1.00  0.00     0.041 A 
ATOM    100  F   UNL A   1      44.083  30.680  28.791  1.00  0.00    -0.206 F 
ATOM    101  C   UNL A   1      46.650  32.236  26.781  1.00  0.00     0.022 A 
BRANCH  98 102
ATOM    102  S   UNL A   1      49.424  32.196  26.687  1.00  0.00     0.124 S 
ATOM    103  O   UNL A   1      49.971  30.960  26.138  1.00  0.00    -0.237 OA
ATOM    104  O   UNL A   1      49.059  33.222  25.714  1.00  0.00    -0.237 OA
ATOM    105  O   UNL A   1      50.132  32.703  27.865  1.00  0.00    -0.744 OA
ENDBRANCH  98 102
ENDBRANCH  72  95
ENDBRANCH  46  47
ENDBRANCH  39  41
ENDBRANCH  38  39
ENDBRANCH  37  38
ENDBRANCH  36  37
ENDBRANCH  35  36
ENDBRANCH  34  35
ENDBRANCH   1  34
TORSDOF 26
ENDMDL
