MODEL 1
REMARK VINA RESULT:      -8.9      0.000      0.000
REMARK SMILES Cc1nc2sc3c(c2c2nc(CCC(=O)OCCOCCOCCOCCOC(=O)c4ccc(-c5c6nc(c(-c7cc(S(=O)(=O)[O-])ccc7F)c7ccc([nH]7)c(-c7cc(S(=O)(=O)[O-])ccc7F)c7nc(c(-c8cc(S(=O)(=O)[O-])ccc8F)c8ccc5[nH]8)C=C7)C=C6)cc4)nn12)[C@@H](C)CCC3
REMARK SMILES IDX 23 1 22 2 21 3 20 4 19 5 18 6 17 7 16 8 14 9 15 10 13 11
REMARK SMILES IDX 12 12 11 13 1 14 2 15 3 16 95 17 4 18 9 19 94 20 5 21 8 22
REMARK SMILES IDX 10 23 6 24 7 25 100 26 96 27 99 28 97 29 98 30 24 31 25 32
REMARK SMILES IDX 26 33 27 34 28 35 29 36 30 37 31 38 32 39 93 40 33 41 92 42
REMARK SMILES IDX 34 43 35 44 36 45 86 46 37 47 91 48 85 49 87 50 38 51 90 52
REMARK SMILES IDX 84 53 83 54 39 56 71 57 51 58 70 59 52 60 55 61 69 62 88 63
REMARK SMILES IDX 53 64 54 65 68 67 89 68 56 69 40 70 41 71 49 72 42 73 48 74
REMARK SMILES IDX 50 75 47 76 43 77 44 78 45 79 46 80 72 81 73 82 81 83 74 84
REMARK SMILES IDX 80 85 82 86 79 87 75 88 76 89 77 90 78 91 57 92 58 93 66 94
REMARK SMILES IDX 59 95 65 96 67 97 64 98 60 99 61 100 62 101 63 102
REMARK H PARENT 87 55 55 66
REMARK Flexibility Score: inf
ROOT
ATOM      1  C   UNL A   1      42.469  29.156  36.296  1.00  0.00     0.188 C 
ENDROOT
BRANCH   1   2
ATOM      2  O   UNL A   1      41.955  30.304  36.950  1.00  0.00    -0.377 OA
BRANCH   2   3
ATOM      3  C   UNL A   1      42.740  31.476  37.031  1.00  0.00     0.188 C 
BRANCH   3   4
ATOM      4  C   UNL A   1      44.226  31.499  37.427  1.00  0.00     0.188 C 
BRANCH   4   5
ATOM      5  O   UNL A   1      45.207  30.871  36.624  1.00  0.00    -0.376 OA
BRANCH   5   6
ATOM      6  C   UNL A   1      45.644  31.474  35.412  1.00  0.00     0.202 C 
BRANCH   6   7
ATOM      7  C   UNL A   1      44.796  31.300  34.152  1.00  0.00     0.261 C 
BRANCH   7   8
ATOM      8  O   UNL A   1      44.835  32.464  33.290  1.00  0.00    -0.463 OA
BRANCH   8   9
ATOM      9  C   UNL A   1      44.106  32.365  32.155  1.00  0.00     0.306 C 
ATOM     10  O   UNL A   1      43.644  31.306  31.734  1.00  0.00    -0.252 OA
BRANCH   9  11
ATOM     11  C   UNL A   1      43.879  33.647  31.387  1.00  0.00     0.131 C 
BRANCH  11  12
ATOM     12  C   UNL A   1      42.641  33.882  30.540  1.00  0.00     0.091 C 
BRANCH  12  13
ATOM     13  C   UNL A   1      41.342  34.002  31.250  1.00  0.00     0.152 A 
ATOM     14  C   UNL A   1      40.195  35.129  35.056  1.00  0.00     0.090 C 
ATOM     15  C   UNL A   1      39.289  34.849  33.898  1.00  0.00     0.131 A 
ATOM     16  N   UNL A   1      37.986  34.908  33.990  1.00  0.00    -0.222 NA
ATOM     17  N   UNL A   1      39.944  34.496  32.714  1.00  0.00    -0.199 N 
ATOM     18  C   UNL A   1      37.289  34.599  32.846  1.00  0.00     0.129 A 
ATOM     19  C   UNL A   1      39.273  34.205  31.557  1.00  0.00     0.168 A 
ATOM     20  N   UNL A   1      41.276  34.337  32.551  1.00  0.00    -0.150 NA
ATOM     21  S   UNL A   1      35.582  34.588  32.828  1.00  0.00    -0.120 S 
ATOM     22  C   UNL A   1      37.792  34.238  31.602  1.00  0.00     0.060 A 
ATOM     23  N   UNL A   1      40.130  33.910  30.611  1.00  0.00    -0.211 NA
ATOM     24  C   UNL A   1      35.534  34.102  31.195  1.00  0.00     0.011 A 
ATOM     25  C   UNL A   1      36.789  33.929  30.634  1.00  0.00    -0.018 A 
ATOM     26  C   UNL A   1      34.233  33.858  30.493  1.00  0.00     0.047 C 
ATOM     27  C   UNL A   1      36.949  33.494  29.196  1.00  0.00     0.018 C 
ATOM     28  C   UNL A   1      34.431  33.940  28.976  1.00  0.00     0.006 C 
ATOM     29  C   UNL A   1      37.915  32.328  29.044  1.00  0.00     0.013 C 
ATOM     30  C   UNL A   1      35.612  33.075  28.541  1.00  0.00     0.008 C 
ENDBRANCH  12  13
ENDBRANCH  11  12
ENDBRANCH   9  11
ENDBRANCH   8   9
ENDBRANCH   7   8
ENDBRANCH   6   7
ENDBRANCH   5   6
ENDBRANCH   4   5
ENDBRANCH   3   4
ENDBRANCH   2   3
ENDBRANCH   1   2
BRANCH   1  31
ATOM     31  C   UNL A   1      41.547  27.978  35.920  1.00  0.00     0.188 C 
BRANCH  31  32
ATOM     32  O   UNL A   1      41.059  27.224  37.014  1.00  0.00    -0.376 OA
BRANCH  32  33
ATOM     33  C   UNL A   1      41.308  25.827  37.104  1.00  0.00     0.202 C 
BRANCH  33  34
ATOM     34  C   UNL A   1      42.737  25.286  37.206  1.00  0.00     0.261 C 
BRANCH  34  35
ATOM     35  O   UNL A   1      43.512  25.396  36.029  1.00  0.00    -0.460 OA
BRANCH  35  36
ATOM     36  C   UNL A   1      44.674  24.734  36.035  1.00  0.00     0.338 C 
ATOM     37  O   UNL A   1      45.105  23.999  36.924  1.00  0.00    -0.246 OA
BRANCH  36  38
ATOM     38  C   UNL A   1      45.413  25.107  34.834  1.00  0.00     0.060 A 
ATOM     39  C   UNL A   1      45.237  26.415  34.388  1.00  0.00     0.016 A 
ATOM     40  C   UNL A   1      45.885  24.077  34.005  1.00  0.00     0.016 A 
ATOM     41  C   UNL A   1      45.233  26.623  33.032  1.00  0.00     0.010 A 
ATOM     42  C   UNL A   1      45.849  24.279  32.652  1.00  0.00     0.010 A 
ATOM     43  C   UNL A   1      45.417  25.519  32.192  1.00  0.00    -0.014 A 
BRANCH  43  44
ATOM     44  C   UNL A   1      45.242  25.710  30.771  1.00  0.00     0.031 A 
ATOM     45  C   UNL A   1      46.219  26.683  30.251  1.00  0.00     0.074 A 
ATOM     46  C   UNL A   1      44.350  24.992  30.061  1.00  0.00     0.049 A 
ATOM     47  N   UNL A   1      45.988  27.891  29.865  1.00  0.00    -0.248 NA
ATOM     48  C   UNL A   1      47.653  26.371  30.412  1.00  0.00     0.031 C 
ATOM     49  C   UNL A   1      43.539  23.860  30.527  1.00  0.00     0.029 A 
ATOM     50  N   UNL A   1      44.046  25.052  28.735  1.00  0.00    -0.354 N 
ATOM     51  C   UNL A   1      47.222  28.371  29.450  1.00  0.00     0.074 A 
ATOM     52  C   UNL A   1      48.214  27.525  30.052  1.00  0.00     0.031 C 
ATOM     53  C   UNL A   1      43.027  23.204  29.460  1.00  0.00     0.029 A 
ATOM     54  C   UNL A   1      43.361  23.938  28.249  1.00  0.00     0.049 A 
ATOM     55  H   UNL A   1      44.289  25.818  28.167  1.00  0.00     0.167 HD
ATOM     56  C   UNL A   1      47.306  29.173  28.358  1.00  0.00     0.034 A 
ATOM     57  C   UNL A   1      43.142  23.631  26.941  1.00  0.00     0.034 A 
ATOM     58  C   UNL A   1      46.016  29.724  28.024  1.00  0.00     0.049 A 
ATOM     59  C   UNL A   1      43.243  24.908  26.195  1.00  0.00     0.074 A 
ATOM     60  C   UNL A   1      45.168  30.660  28.576  1.00  0.00     0.029 A 
ATOM     61  N   UNL A   1      45.265  28.938  27.185  1.00  0.00    -0.354 N 
ATOM     62  N   UNL A   1      42.415  25.902  26.370  1.00  0.00    -0.248 NA
ATOM     63  C   UNL A   1      44.502  25.255  25.545  1.00  0.00     0.031 C 
ATOM     64  C   UNL A   1      43.848  30.259  28.212  1.00  0.00     0.029 A 
ATOM     65  C   UNL A   1      43.925  29.125  27.403  1.00  0.00     0.049 A 
ATOM     66  H   UNL A   1      45.641  28.321  26.516  1.00  0.00     0.167 HD
ATOM     67  C   UNL A   1      43.201  27.034  26.257  1.00  0.00     0.074 A 
ATOM     68  C   UNL A   1      44.418  26.588  25.586  1.00  0.00     0.031 C 
ATOM     69  C   UNL A   1      42.930  28.147  26.997  1.00  0.00     0.034 A 
BRANCH  56  70
ATOM     70  C   UNL A   1      48.408  29.059  27.330  1.00  0.00     0.023 A 
ATOM     71  C   UNL A   1      48.165  28.285  26.183  1.00  0.00     0.031 A 
ATOM     72  C   UNL A   1      49.758  29.431  27.549  1.00  0.00     0.131 A 
ATOM     73  C   UNL A   1      49.223  27.901  25.339  1.00  0.00     0.055 A 
ATOM     74  C   UNL A   1      50.795  29.100  26.677  1.00  0.00     0.041 A 
ATOM     75  F   UNL A   1      50.170  30.041  28.668  1.00  0.00    -0.206 F 
ATOM     76  C   UNL A   1      50.534  28.314  25.572  1.00  0.00     0.022 A 
BRANCH  73  77
ATOM     77  S   UNL A   1      48.884  26.755  23.979  1.00  0.00     0.124 S 
ATOM     78  O   UNL A   1      50.200  26.619  23.364  1.00  0.00    -0.237 OA
ATOM     79  O   UNL A   1      48.380  25.585  24.689  1.00  0.00    -0.237 OA
ATOM     80  O   UNL A   1      47.892  27.466  23.176  1.00  0.00    -0.744 OA
ENDBRANCH  73  77
ENDBRANCH  56  70
BRANCH  57  81
ATOM     81  C   UNL A   1      43.167  22.300  26.266  1.00  0.00     0.023 A 
ATOM     82  C   UNL A   1      44.352  21.763  25.709  1.00  0.00     0.031 A 
ATOM     83  C   UNL A   1      42.083  21.407  26.413  1.00  0.00     0.131 A 
ATOM     84  C   UNL A   1      44.427  20.394  25.359  1.00  0.00     0.055 A 
ATOM     85  C   UNL A   1      42.162  20.054  26.064  1.00  0.00     0.041 A 
ATOM     86  F   UNL A   1      40.935  21.791  26.990  1.00  0.00    -0.206 F 
ATOM     87  C   UNL A   1      43.342  19.537  25.551  1.00  0.00     0.022 A 
BRANCH  84  88
ATOM     88  S   UNL A   1      45.992  19.665  24.768  1.00  0.00     0.124 S 
ATOM     89  O   UNL A   1      45.553  18.897  23.608  1.00  0.00    -0.237 OA
ATOM     90  O   UNL A   1      46.808  20.842  24.495  1.00  0.00    -0.237 OA
ATOM     91  O   UNL A   1      46.442  18.860  25.905  1.00  0.00    -0.744 OA
ENDBRANCH  84  88
ENDBRANCH  57  81
BRANCH  69  92
ATOM     92  C   UNL A   1      41.520  28.321  27.509  1.00  0.00     0.023 A 
ATOM     93  C   UNL A   1      41.081  28.072  28.829  1.00  0.00     0.031 A 
ATOM     94  C   UNL A   1      40.592  28.851  26.596  1.00  0.00     0.131 A 
ATOM     95  C   UNL A   1      39.748  28.362  29.186  1.00  0.00     0.055 A 
ATOM     96  C   UNL A   1      39.284  29.155  26.959  1.00  0.00     0.041 A 
ATOM     97  F   UNL A   1      40.962  29.119  25.332  1.00  0.00    -0.206 F 
ATOM     98  C   UNL A   1      38.855  28.910  28.256  1.00  0.00     0.022 A 
BRANCH  95  99
ATOM     99  S   UNL A   1      39.144  28.044  30.878  1.00  0.00     0.124 S 
ATOM    100  O   UNL A   1      40.355  28.126  31.687  1.00  0.00    -0.237 OA
ATOM    101  O   UNL A   1      38.167  29.111  31.073  1.00  0.00    -0.237 OA
ATOM    102  O   UNL A   1      38.564  26.702  30.788  1.00  0.00    -0.744 OA
ENDBRANCH  95  99
ENDBRANCH  69  92
ENDBRANCH  43  44
ENDBRANCH  36  38
ENDBRANCH  35  36
ENDBRANCH  34  35
ENDBRANCH  33  34
ENDBRANCH  32  33
ENDBRANCH  31  32
ENDBRANCH   1  31
TORSDOF 25
ENDMDL
MODEL 2
REMARK VINA RESULT:      -8.7      4.990     13.213
REMARK SMILES Cc1nc2sc3c(c2c2nc(CCC(=O)OCCOCCOCCOCCOC(=O)c4ccc(-c5c6nc(c(-c7cc(S(=O)(=O)[O-])ccc7F)c7ccc([nH]7)c(-c7cc(S(=O)(=O)[O-])ccc7F)c7nc(c(-c8cc(S(=O)(=O)[O-])ccc8F)c8ccc5[nH]8)C=C7)C=C6)cc4)nn12)[C@@H](C)CCC3
REMARK SMILES IDX 23 1 22 2 21 3 20 4 19 5 18 6 17 7 16 8 14 9 15 10 13 11
REMARK SMILES IDX 12 12 11 13 1 14 2 15 3 16 95 17 4 18 9 19 94 20 5 21 8 22
REMARK SMILES IDX 10 23 6 24 7 25 100 26 96 27 99 28 97 29 98 30 24 31 25 32
REMARK SMILES IDX 26 33 27 34 28 35 29 36 30 37 31 38 32 39 93 40 33 41 92 42
REMARK SMILES IDX 34 43 35 44 36 45 86 46 37 47 91 48 85 49 87 50 38 51 90 52
REMARK SMILES IDX 84 53 83 54 39 56 71 57 51 58 70 59 52 60 55 61 69 62 88 63
REMARK SMILES IDX 53 64 54 65 68 67 89 68 56 69 40 70 41 71 49 72 42 73 48 74
REMARK SMILES IDX 50 75 47 76 43 77 44 78 45 79 46 80 72 81 73 82 81 83 74 84
REMARK SMILES IDX 80 85 82 86 79 87 75 88 76 89 77 90 78 91 57 92 58 93 66 94
REMARK SMILES IDX 59 95 65 96 67 97 64 98 60 99 61 100 62 101 63 102
REMARK H PARENT 87 55 55 66
REMARK Flexibility Score: inf
ROOT
ATOM      1  C   UNL A   1      32.484  26.654  26.248  1.00  0.00     0.188 C 
ENDROOT
BRANCH   1   2
ATOM      2  O   UNL A   1      31.294  26.385  25.528  1.00  0.00    -0.377 OA
BRANCH   2   3
ATOM      3  C   UNL A   1      30.638  25.144  25.692  1.00  0.00     0.188 C 
BRANCH   3   4
ATOM      4  C   UNL A   1      30.820  23.936  24.757  1.00  0.00     0.188 C 
BRANCH   4   5
ATOM      5  O   UNL A   1      31.433  22.746  25.210  1.00  0.00    -0.376 OA
BRANCH   5   6
ATOM      6  C   UNL A   1      32.639  22.281  24.613  1.00  0.00     0.202 C 
BRANCH   6   7
ATOM      7  C   UNL A   1      33.714  21.662  25.507  1.00  0.00     0.261 C 
BRANCH   7   8
ATOM      8  O   UNL A   1      34.415  20.571  24.860  1.00  0.00    -0.463 OA
BRANCH   8   9
ATOM      9  C   UNL A   1      35.742  20.509  25.112  1.00  0.00     0.306 C 
ATOM     10  O   UNL A   1      36.459  19.575  24.757  1.00  0.00    -0.252 OA
BRANCH   9  11
ATOM     11  C   UNL A   1      36.334  21.666  25.883  1.00  0.00     0.131 C 
BRANCH  11  12
ATOM     12  C   UNL A   1      37.472  22.512  25.339  1.00  0.00     0.091 C 
BRANCH  12  13
ATOM     13  C   UNL A   1      38.704  22.610  26.163  1.00  0.00     0.152 A 
ATOM     14  C   UNL A   1      41.587  19.929  27.420  1.00  0.00     0.090 C 
ATOM     15  C   UNL A   1      41.617  21.416  27.589  1.00  0.00     0.131 A 
ATOM     16  N   UNL A   1      42.589  22.037  28.205  1.00  0.00    -0.222 NA
ATOM     17  N   UNL A   1      40.512  22.089  27.057  1.00  0.00    -0.199 N 
ATOM     18  C   UNL A   1      42.461  23.402  28.305  1.00  0.00     0.129 A 
ATOM     19  C   UNL A   1      40.374  23.449  27.124  1.00  0.00     0.168 A 
ATOM     20  N   UNL A   1      39.432  21.522  26.475  1.00  0.00    -0.150 NA
ATOM     21  S   UNL A   1      43.629  24.341  29.122  1.00  0.00    -0.120 S 
ATOM     22  C   UNL A   1      41.435  24.209  27.826  1.00  0.00     0.060 A 
ATOM     23  N   UNL A   1      39.253  23.807  26.549  1.00  0.00    -0.211 NA
ATOM     24  C   UNL A   1      42.764  25.783  28.844  1.00  0.00     0.011 A 
ATOM     25  C   UNL A   1      41.584  25.592  28.144  1.00  0.00    -0.018 A 
ATOM     26  C   UNL A   1      43.256  27.099  29.364  1.00  0.00     0.047 C 
ATOM     27  C   UNL A   1      40.678  26.754  27.807  1.00  0.00     0.018 C 
ATOM     28  C   UNL A   1      42.617  28.248  28.577  1.00  0.00     0.006 C 
ATOM     29  C   UNL A   1      39.227  26.489  28.184  1.00  0.00     0.013 C 
ATOM     30  C   UNL A   1      41.102  28.070  28.500  1.00  0.00     0.008 C 
ENDBRANCH  12  13
ENDBRANCH  11  12
ENDBRANCH   9  11
ENDBRANCH   8   9
ENDBRANCH   7   8
ENDBRANCH   6   7
ENDBRANCH   5   6
ENDBRANCH   4   5
ENDBRANCH   3   4
ENDBRANCH   2   3
ENDBRANCH   1   2
BRANCH   1  31
ATOM     31  C   UNL A   1      33.387  27.847  25.873  1.00  0.00     0.188 C 
BRANCH  31  32
ATOM     32  O   UNL A   1      32.707  28.974  25.350  1.00  0.00    -0.376 OA
BRANCH  32  33
ATOM     33  C   UNL A   1      32.676  30.202  26.068  1.00  0.00     0.202 C 
BRANCH  33  34
ATOM     34  C   UNL A   1      33.420  30.356  27.397  1.00  0.00     0.261 C 
BRANCH  34  35
ATOM     35  O   UNL A   1      34.491  31.278  27.389  1.00  0.00    -0.460 OA
BRANCH  35  36
ATOM     36  C   UNL A   1      34.365  32.323  28.215  1.00  0.00     0.338 C 
ATOM     37  O   UNL A   1      33.838  33.407  27.965  1.00  0.00    -0.246 OA
BRANCH  36  38
ATOM     38  C   UNL A   1      35.056  32.001  29.459  1.00  0.00     0.060 A 
ATOM     39  C   UNL A   1      34.912  32.920  30.496  1.00  0.00     0.016 A 
ATOM     40  C   UNL A   1      36.106  31.070  29.407  1.00  0.00     0.016 A 
ATOM     41  C   UNL A   1      35.994  33.119  31.315  1.00  0.00     0.010 A 
ATOM     42  C   UNL A   1      37.195  31.291  30.205  1.00  0.00     0.010 A 
ATOM     43  C   UNL A   1      37.158  32.382  31.068  1.00  0.00    -0.014 A 
BRANCH  43  44
ATOM     44  C   UNL A   1      38.345  32.714  31.819  1.00  0.00     0.031 A 
ATOM     45  C   UNL A   1      39.358  33.335  30.946  1.00  0.00     0.074 A 
ATOM     46  C   UNL A   1      38.416  32.541  33.153  1.00  0.00     0.049 A 
ATOM     47  N   UNL A   1      40.458  32.808  30.529  1.00  0.00    -0.248 NA
ATOM     48  C   UNL A   1      38.994  34.585  30.251  1.00  0.00     0.031 C 
ATOM     49  C   UNL A   1      37.333  32.142  34.061  1.00  0.00     0.029 A 
ATOM     50  N   UNL A   1      39.449  32.782  34.006  1.00  0.00    -0.354 N 
ATOM     51  C   UNL A   1      41.056  33.800  29.764  1.00  0.00     0.074 A 
ATOM     52  C   UNL A   1      40.019  34.727  29.411  1.00  0.00     0.031 C 
ATOM     53  C   UNL A   1      37.701  32.398  35.339  1.00  0.00     0.029 A 
ATOM     54  C   UNL A   1      39.082  32.852  35.351  1.00  0.00     0.049 A 
ATOM     55  H   UNL A   1      40.377  32.897  33.700  1.00  0.00     0.167 HD
ATOM     56  C   UNL A   1      42.403  33.973  29.810  1.00  0.00     0.034 A 
ATOM     57  C   UNL A   1      39.854  33.304  36.376  1.00  0.00     0.034 A 
ATOM     58  C   UNL A   1      43.052  32.812  30.368  1.00  0.00     0.049 A 
ATOM     59  C   UNL A   1      41.260  33.165  35.927  1.00  0.00     0.074 A 
ATOM     60  C   UNL A   1      43.289  31.519  29.958  1.00  0.00     0.029 A 
ATOM     61  N   UNL A   1      43.168  32.834  31.736  1.00  0.00    -0.354 N 
ATOM     62  N   UNL A   1      41.816  32.012  35.673  1.00  0.00    -0.248 NA
ATOM     63  C   UNL A   1      41.943  34.322  35.359  1.00  0.00     0.031 C 
ATOM     64  C   UNL A   1      43.325  30.729  31.144  1.00  0.00     0.029 A 
ATOM     65  C   UNL A   1      43.165  31.564  32.251  1.00  0.00     0.049 A 
ATOM     66  H   UNL A   1      43.244  33.654  32.276  1.00  0.00     0.167 HD
ATOM     67  C   UNL A   1      42.637  32.252  34.587  1.00  0.00     0.074 A 
ATOM     68  C   UNL A   1      42.807  33.701  34.550  1.00  0.00     0.031 C 
ATOM     69  C   UNL A   1      42.838  31.291  33.640  1.00  0.00     0.034 A 
BRANCH  56  70
ATOM     70  C   UNL A   1      43.062  35.333  29.823  1.00  0.00     0.023 A 
ATOM     71  C   UNL A   1      43.831  35.705  28.707  1.00  0.00     0.031 A 
ATOM     72  C   UNL A   1      43.205  36.150  30.972  1.00  0.00     0.131 A 
ATOM     73  C   UNL A   1      44.696  36.812  28.770  1.00  0.00     0.055 A 
ATOM     74  C   UNL A   1      44.018  37.282  31.010  1.00  0.00     0.041 A 
ATOM     75  F   UNL A   1      42.655  35.843  32.153  1.00  0.00    -0.206 F 
ATOM     76  C   UNL A   1      44.785  37.610  29.909  1.00  0.00     0.022 A 
BRANCH  73  77
ATOM     77  S   UNL A   1      45.798  37.140  27.371  1.00  0.00     0.124 S 
ATOM     78  O   UNL A   1      45.255  38.389  26.846  1.00  0.00    -0.237 OA
ATOM     79  O   UNL A   1      47.099  37.226  28.024  1.00  0.00    -0.237 OA
ATOM     80  O   UNL A   1      45.612  35.972  26.513  1.00  0.00    -0.744 OA
ENDBRANCH  73  77
ENDBRANCH  56  70
BRANCH  57  81
ATOM     81  C   UNL A   1      39.466  34.123  37.562  1.00  0.00     0.023 A 
ATOM     82  C   UNL A   1      39.420  33.578  38.868  1.00  0.00     0.031 A 
ATOM     83  C   UNL A   1      39.413  35.531  37.469  1.00  0.00     0.131 A 
ATOM     84  C   UNL A   1      39.358  34.425  40.000  1.00  0.00     0.055 A 
ATOM     85  C   UNL A   1      39.351  36.364  38.592  1.00  0.00     0.041 A 
ATOM     86  F   UNL A   1      39.516  36.156  36.287  1.00  0.00    -0.206 F 
ATOM     87  C   UNL A   1      39.340  35.814  39.864  1.00  0.00     0.022 A 
BRANCH  84  88
ATOM     88  S   UNL A   1      39.435  33.737  41.688  1.00  0.00     0.124 S 
ATOM     89  O   UNL A   1      40.873  33.672  41.926  1.00  0.00    -0.237 OA
ATOM     90  O   UNL A   1      38.692  34.720  42.467  1.00  0.00    -0.237 OA
ATOM     91  O   UNL A   1      38.774  32.438  41.555  1.00  0.00    -0.744 OA
ENDBRANCH  84  88
ENDBRANCH  57  81
BRANCH  69  92
ATOM     92  C   UNL A   1      42.610  29.853  34.042  1.00  0.00     0.023 A 
ATOM     93  C   UNL A   1      43.446  29.085  34.884  1.00  0.00     0.031 A 
ATOM     94  C   UNL A   1      41.416  29.267  33.588  1.00  0.00     0.131 A 
ATOM     95  C   UNL A   1      43.060  27.777  35.242  1.00  0.00     0.055 A 
ATOM     96  C   UNL A   1      41.030  27.984  33.961  1.00  0.00     0.041 A 
ATOM     97  F   UNL A   1      40.580  29.959  32.796  1.00  0.00    -0.206 F 
ATOM     98  C   UNL A   1      41.852  27.232  34.789  1.00  0.00     0.022 A 
BRANCH  95  99
ATOM     99  S   UNL A   1      44.118  26.753  36.319  1.00  0.00     0.124 S 
ATOM    100  O   UNL A   1      43.781  25.390  35.922  1.00  0.00    -0.237 OA
ATOM    101  O   UNL A   1      45.460  27.209  35.975  1.00  0.00    -0.237 OA
ATOM    102  O   UNL A   1      43.684  27.115  37.671  1.00  0.00    -0.744 OA
ENDBRANCH  95  99
ENDBRANCH  69  92
ENDBRANCH  43  44
ENDBRANCH  36  38
ENDBRANCH  35  36
ENDBRANCH  34  35
ENDBRANCH  33  34
ENDBRANCH  32  33
ENDBRANCH  31  32
ENDBRANCH   1  31
TORSDOF 25
ENDMDL
MODEL 3
REMARK VINA RESULT:      -8.4      3.550     11.288
REMARK SMILES Cc1nc2sc3c(c2c2nc(CCC(=O)OCCOCCOCCOCCOC(=O)c4ccc(-c5c6nc(c(-c7cc(S(=O)(=O)[O-])ccc7F)c7ccc([nH]7)c(-c7cc(S(=O)(=O)[O-])ccc7F)c7nc(c(-c8cc(S(=O)(=O)[O-])ccc8F)c8ccc5[nH]8)C=C7)C=C6)cc4)nn12)[C@@H](C)CCC3
REMARK SMILES IDX 23 1 22 2 21 3 20 4 19 5 18 6 17 7 16 8 14 9 15 10 13 11
REMARK SMILES IDX 12 12 11 13 1 14 2 15 3 16 95 17 4 18 9 19 94 20 5 21 8 22
REMARK SMILES IDX 10 23 6 24 7 25 100 26 96 27 99 28 97 29 98 30 24 31 25 32
REMARK SMILES IDX 26 33 27 34 28 35 29 36 30 37 31 38 32 39 93 40 33 41 92 42
REMARK SMILES IDX 34 43 35 44 36 45 86 46 37 47 91 48 85 49 87 50 38 51 90 52
REMARK SMILES IDX 84 53 83 54 39 56 71 57 51 58 70 59 52 60 55 61 69 62 88 63
REMARK SMILES IDX 53 64 54 65 68 67 89 68 56 69 40 70 41 71 49 72 42 73 48 74
REMARK SMILES IDX 50 75 47 76 43 77 44 78 45 79 46 80 72 81 73 82 81 83 74 84
REMARK SMILES IDX 80 85 82 86 79 87 75 88 76 89 77 90 78 91 57 92 58 93 66 94
REMARK SMILES IDX 59 95 65 96 67 97 64 98 60 99 61 100 62 101 63 102
REMARK H PARENT 87 55 55 66
REMARK Flexibility Score: inf
ROOT
ATOM      1  C   UNL A   1      44.383  25.837  25.802  1.00  0.00     0.188 C 
ENDROOT
BRANCH   1   2
ATOM      2  O   UNL A   1      45.455  26.763  25.837  1.00  0.00    -0.377 OA
BRANCH   2   3
ATOM      3  C   UNL A   1      46.458  26.714  24.841  1.00  0.00     0.188 C 
BRANCH   3   4
ATOM      4  C   UNL A   1      46.830  27.894  23.927  1.00  0.00     0.188 C 
BRANCH   4   5
ATOM      5  O   UNL A   1      48.178  28.172  23.602  1.00  0.00    -0.376 OA
BRANCH   5   6
ATOM      6  C   UNL A   1      48.916  27.289  22.765  1.00  0.00     0.202 C 
BRANCH   6   7
ATOM      7  C   UNL A   1      50.321  26.867  23.194  1.00  0.00     0.261 C 
BRANCH   7   8
ATOM      8  O   UNL A   1      51.359  27.613  22.510  1.00  0.00    -0.463 OA
BRANCH   8   9
ATOM      9  C   UNL A   1      51.742  28.759  23.117  1.00  0.00     0.306 C 
ATOM     10  O   UNL A   1      51.428  29.878  22.716  1.00  0.00    -0.252 OA
BRANCH   9  11
ATOM     11  C   UNL A   1      52.609  28.611  24.346  1.00  0.00     0.131 C 
BRANCH  11  12
ATOM     12  C   UNL A   1      52.446  29.495  25.570  1.00  0.00     0.091 C 
BRANCH  12  13
ATOM     13  C   UNL A   1      51.335  29.172  26.502  1.00  0.00     0.152 A 
ATOM     14  C   UNL A   1      47.302  30.063  26.644  1.00  0.00     0.090 C 
ATOM     15  C   UNL A   1      48.039  29.119  27.541  1.00  0.00     0.131 A 
ATOM     16  N   UNL A   1      47.458  28.477  28.521  1.00  0.00    -0.222 NA
ATOM     17  N   UNL A   1      49.405  28.994  27.266  1.00  0.00    -0.199 N 
ATOM     18  C   UNL A   1      48.272  27.666  29.274  1.00  0.00     0.129 A 
ATOM     19  C   UNL A   1      50.231  28.175  27.987  1.00  0.00     0.168 A 
ATOM     20  N   UNL A   1      50.099  29.674  26.326  1.00  0.00    -0.150 NA
ATOM     21  S   UNL A   1      47.663  26.801  30.614  1.00  0.00    -0.120 S 
ATOM     22  C   UNL A   1      49.635  27.434  29.123  1.00  0.00     0.060 A 
ATOM     23  N   UNL A   1      51.450  28.252  27.514  1.00  0.00    -0.211 NA
ATOM     24  C   UNL A   1      49.196  26.149  30.977  1.00  0.00     0.011 A 
ATOM     25  C   UNL A   1      50.193  26.569  30.112  1.00  0.00    -0.018 A 
ATOM     26  C   UNL A   1      49.398  25.245  32.154  1.00  0.00     0.047 C 
ATOM     27  C   UNL A   1      51.620  26.100  30.278  1.00  0.00     0.018 C 
ATOM     28  C   UNL A   1      50.674  24.418  31.969  1.00  0.00     0.006 C 
ATOM     29  C   UNL A   1      52.617  27.250  30.252  1.00  0.00     0.013 C 
ATOM     30  C   UNL A   1      51.849  25.319  31.592  1.00  0.00     0.008 C 
ENDBRANCH  12  13
ENDBRANCH  11  12
ENDBRANCH   9  11
ENDBRANCH   8   9
ENDBRANCH   7   8
ENDBRANCH   6   7
ENDBRANCH   5   6
ENDBRANCH   4   5
ENDBRANCH   3   4
ENDBRANCH   2   3
ENDBRANCH   1   2
BRANCH   1  31
ATOM     31  C   UNL A   1      44.579  24.415  25.236  1.00  0.00     0.188 C 
BRANCH  31  32
ATOM     32  O   UNL A   1      44.257  23.364  26.129  1.00  0.00    -0.376 OA
BRANCH  32  33
ATOM     33  C   UNL A   1      43.491  22.248  25.692  1.00  0.00     0.202 C 
BRANCH  33  34
ATOM     34  C   UNL A   1      41.968  22.228  25.850  1.00  0.00     0.261 C 
BRANCH  34  35
ATOM     35  O   UNL A   1      41.489  22.516  27.148  1.00  0.00    -0.460 OA
BRANCH  35  36
ATOM     36  C   UNL A   1      40.558  23.474  27.224  1.00  0.00     0.338 C 
ATOM     37  O   UNL A   1      39.336  23.324  27.201  1.00  0.00    -0.246 OA
BRANCH  36  38
ATOM     38  C   UNL A   1      41.238  24.764  27.241  1.00  0.00     0.060 A 
ATOM     39  C   UNL A   1      42.025  25.029  28.359  1.00  0.00     0.016 A 
ATOM     40  C   UNL A   1      40.751  25.775  26.397  1.00  0.00     0.016 A 
ATOM     41  C   UNL A   1      42.061  26.323  28.812  1.00  0.00     0.010 A 
ATOM     42  C   UNL A   1      40.762  27.060  26.867  1.00  0.00     0.010 A 
ATOM     43  C   UNL A   1      41.323  27.289  28.120  1.00  0.00    -0.014 A 
BRANCH  43  44
ATOM     44  C   UNL A   1      41.224  28.610  28.694  1.00  0.00     0.031 A 
ATOM     45  C   UNL A   1      42.342  29.458  28.245  1.00  0.00     0.074 A 
ATOM     46  C   UNL A   1      40.175  28.980  29.453  1.00  0.00     0.049 A 
ATOM     47  N   UNL A   1      43.354  29.851  28.943  1.00  0.00    -0.248 NA
ATOM     48  C   UNL A   1      42.491  29.692  26.795  1.00  0.00     0.031 C 
ATOM     49  C   UNL A   1      38.946  28.219  29.712  1.00  0.00     0.029 A 
ATOM     50  N   UNL A   1      39.930  30.164  30.079  1.00  0.00    -0.354 N 
ATOM     51  C   UNL A   1      44.098  30.635  28.073  1.00  0.00     0.074 A 
ATOM     52  C   UNL A   1      43.685  30.282  26.744  1.00  0.00     0.031 C 
ATOM     53  C   UNL A   1      38.007  29.044  30.233  1.00  0.00     0.029 A 
ATOM     54  C   UNL A   1      38.603  30.350  30.465  1.00  0.00     0.049 A 
ATOM     55  H   UNL A   1      40.633  30.834  30.246  1.00  0.00     0.167 HD
ATOM     56  C   UNL A   1      44.704  31.763  28.527  1.00  0.00     0.034 A 
ATOM     57  C   UNL A   1      38.040  31.514  30.890  1.00  0.00     0.034 A 
ATOM     58  C   UNL A   1      44.796  31.753  29.966  1.00  0.00     0.049 A 
ATOM     59  C   UNL A   1      39.155  32.350  31.396  1.00  0.00     0.074 A 
ATOM     60  C   UNL A   1      45.522  31.053  30.906  1.00  0.00     0.029 A 
ATOM     61  N   UNL A   1      43.702  32.282  30.606  1.00  0.00    -0.354 N 
ATOM     62  N   UNL A   1      39.880  32.021  32.430  1.00  0.00    -0.248 NA
ATOM     63  C   UNL A   1      39.743  33.357  30.520  1.00  0.00     0.031 C 
ATOM     64  C   UNL A   1      44.702  30.994  32.072  1.00  0.00     0.029 A 
ATOM     65  C   UNL A   1      43.525  31.705  31.836  1.00  0.00     0.049 A 
ATOM     66  H   UNL A   1      43.122  32.983  30.230  1.00  0.00     0.167 HD
ATOM     67  C   UNL A   1      41.158  32.438  32.106  1.00  0.00     0.074 A 
ATOM     68  C   UNL A   1      40.984  33.393  31.018  1.00  0.00     0.031 C 
ATOM     69  C   UNL A   1      42.248  31.736  32.530  1.00  0.00     0.034 A 
BRANCH  56  70
ATOM     70  C   UNL A   1      44.752  33.052  27.739  1.00  0.00     0.023 A 
ATOM     71  C   UNL A   1      45.986  33.448  27.195  1.00  0.00     0.031 A 
ATOM     72  C   UNL A   1      43.731  34.035  27.735  1.00  0.00     0.131 A 
ATOM     73  C   UNL A   1      46.168  34.755  26.707  1.00  0.00     0.055 A 
ATOM     74  C   UNL A   1      43.897  35.309  27.194  1.00  0.00     0.041 A 
ATOM     75  F   UNL A   1      42.553  33.858  28.345  1.00  0.00    -0.206 F 
ATOM     76  C   UNL A   1      45.128  35.683  26.692  1.00  0.00     0.022 A 
BRANCH  73  77
ATOM     77  S   UNL A   1      47.824  35.270  26.186  1.00  0.00     0.124 S 
ATOM     78  O   UNL A   1      47.600  36.660  25.802  1.00  0.00    -0.237 OA
ATOM     79  O   UNL A   1      48.603  35.053  27.400  1.00  0.00    -0.237 OA
ATOM     80  O   UNL A   1      48.129  34.362  25.083  1.00  0.00    -0.744 OA
ENDBRANCH  73  77
ENDBRANCH  56  70
BRANCH  57  81
ATOM     81  C   UNL A   1      36.684  32.068  30.606  1.00  0.00     0.023 A 
ATOM     82  C   UNL A   1      35.910  32.708  31.603  1.00  0.00     0.031 A 
ATOM     83  C   UNL A   1      36.247  32.232  29.273  1.00  0.00     0.131 A 
ATOM     84  C   UNL A   1      34.784  33.491  31.250  1.00  0.00     0.055 A 
ATOM     85  C   UNL A   1      35.132  33.005  28.930  1.00  0.00     0.041 A 
ATOM     86  F   UNL A   1      36.941  31.725  28.244  1.00  0.00    -0.206 F 
ATOM     87  C   UNL A   1      34.406  33.653  29.917  1.00  0.00     0.022 A 
BRANCH  84  88
ATOM     88  S   UNL A   1      33.864  34.428  32.516  1.00  0.00     0.124 S 
ATOM     89  O   UNL A   1      32.867  35.128  31.714  1.00  0.00    -0.237 OA
ATOM     90  O   UNL A   1      33.367  33.375  33.394  1.00  0.00    -0.237 OA
ATOM     91  O   UNL A   1      34.888  35.287  33.113  1.00  0.00    -0.744 OA
ENDBRANCH  84  88
ENDBRANCH  57  81
BRANCH  69  92
ATOM     92  C   UNL A   1      42.085  30.856  33.747  1.00  0.00     0.023 A 
ATOM     93  C   UNL A   1      42.132  29.443  33.760  1.00  0.00     0.031 A 
ATOM     94  C   UNL A   1      41.951  31.522  34.977  1.00  0.00     0.131 A 
ATOM     95  C   UNL A   1      42.050  28.756  34.989  1.00  0.00     0.055 A 
ATOM     96  C   UNL A   1      41.891  30.840  36.188  1.00  0.00     0.041 A 
ATOM     97  F   UNL A   1      41.914  32.865  35.020  1.00  0.00    -0.206 F 
ATOM     98  C   UNL A   1      41.938  29.453  36.199  1.00  0.00     0.022 A 
BRANCH  95  99
ATOM     99  S   UNL A   1      42.097  26.933  35.044  1.00  0.00     0.124 S 
ATOM    100  O   UNL A   1      42.506  26.651  36.416  1.00  0.00    -0.237 OA
ATOM    101  O   UNL A   1      40.729  26.568  34.693  1.00  0.00    -0.237 OA
ATOM    102  O   UNL A   1      43.096  26.586  34.031  1.00  0.00    -0.744 OA
ENDBRANCH  95  99
ENDBRANCH  69  92
ENDBRANCH  43  44
ENDBRANCH  36  38
ENDBRANCH  35  36
ENDBRANCH  34  35
ENDBRANCH  33  34
ENDBRANCH  32  33
ENDBRANCH  31  32
ENDBRANCH   1  31
TORSDOF 25
ENDMDL
