MODEL 1
REMARK VINA RESULT:      -9.8      0.000      0.000
REMARK SMILES O=C(OCCOCCOCCOCCOC(=O)c1ccc(-n2cc(CSc3nc4ccccc4c(=O)n3-c3ccc(Cl)cc3)nn2)cc1)c1ccc(-c2c3nc(c(-c4cc(S(=O)(=O)[O-])ccc4F)c4ccc([nH]4)c(-c4cc(S(=O)(=O)[O-])ccc4F)c4nc(c(-c5cc(S(=O)(=O)[O-])ccc5F)c5ccc2[nH]5)C=C4)C=C3)cc1
REMARK SMILES IDX 10 1 9 2 8 3 7 4 6 5 5 6 4 7 3 8 2 9 1 10 49 11 50 12 111 13
REMARK SMILES IDX 51 14 110 15 52 16 53 17 54 18 104 19 55 20 109 21 103 22
REMARK SMILES IDX 105 23 56 24 108 25 102 26 101 27 57 29 89 30 69 31 88 32
REMARK SMILES IDX 70 33 73 34 87 35 106 36 71 37 72 38 86 40 107 41 74 42
REMARK SMILES IDX 58 43 59 44 67 45 60 46 66 47 68 48 65 49 61 50 62 51 63 52
REMARK SMILES IDX 64 53 90 54 91 55 99 56 92 57 98 58 100 59 97 60 93 61 94 62
REMARK SMILES IDX 95 63 96 64 75 65 76 66 84 67 77 68 83 69 85 70 82 71 78 72
REMARK SMILES IDX 79 73 80 74 81 75 11 76 12 77 13 78 14 79 15 80 16 81 17 82
REMARK SMILES IDX 18 83 19 84 48 85 20 86 47 87 21 88 22 89 23 90 46 91 24 92
REMARK SMILES IDX 45 93 25 94 26 95 27 96 28 97 37 98 29 99 35 100 30 101
REMARK SMILES IDX 34 102 36 103 31 104 33 105 32 106 38 107 39 108 44 109
REMARK SMILES IDX 40 110 43 111 41 112 42 113
REMARK H PARENT 105 28 73 39
REMARK Flexibility Score: inf
ROOT
ATOM      1  C   UNL A   1      41.125  28.493  30.397  1.00  0.00     0.188 C 
ENDROOT
BRANCH   1   2
ATOM      2  O   UNL A   1      41.802  29.727  30.307  1.00  0.00    -0.377 OA
BRANCH   2   3
ATOM      3  C   UNL A   1      40.933  30.829  30.097  1.00  0.00     0.188 C 
BRANCH   3   4
ATOM      4  C   UNL A   1      41.116  32.072  30.994  1.00  0.00     0.188 C 
BRANCH   4   5
ATOM      5  O   UNL A   1      40.787  33.406  30.633  1.00  0.00    -0.376 OA
BRANCH   5   6
ATOM      6  C   UNL A   1      41.384  34.286  29.703  1.00  0.00     0.202 C 
BRANCH   6   7
ATOM      7  C   UNL A   1      42.873  34.360  29.367  1.00  0.00     0.261 C 
BRANCH   7   8
ATOM      8  O   UNL A   1      43.189  35.065  28.180  1.00  0.00    -0.460 OA
BRANCH   8   9
ATOM      9  C   UNL A   1      44.309  34.972  27.437  1.00  0.00     0.338 C 
ATOM     10  O   UNL A   1      44.598  35.933  26.725  1.00  0.00    -0.246 OA
BRANCH   9  11
ATOM     11  C   UNL A   1      45.166  33.752  27.351  1.00  0.00     0.060 A 
ATOM     12  C   UNL A   1      45.094  32.730  26.399  1.00  0.00     0.016 A 
ATOM     13  C   UNL A   1      46.144  33.658  28.359  1.00  0.00     0.016 A 
ATOM     14  C   UNL A   1      45.795  31.555  26.582  1.00  0.00     0.010 A 
ATOM     15  C   UNL A   1      46.883  32.506  28.524  1.00  0.00     0.010 A 
ATOM     16  C   UNL A   1      46.620  31.429  27.691  1.00  0.00    -0.014 A 
BRANCH  16  17
ATOM     17  C   UNL A   1      47.226  30.136  27.926  1.00  0.00     0.031 A 
ATOM     18  C   UNL A   1      48.612  30.018  27.413  1.00  0.00     0.074 A 
ATOM     19  C   UNL A   1      46.556  29.178  28.596  1.00  0.00     0.049 A 
ATOM     20  N   UNL A   1      49.050  29.234  26.485  1.00  0.00    -0.248 NA
ATOM     21  C   UNL A   1      49.598  31.016  27.863  1.00  0.00     0.031 C 
ATOM     22  C   UNL A   1      45.275  29.298  29.301  1.00  0.00     0.029 A 
ATOM     23  N   UNL A   1      46.933  27.906  28.879  1.00  0.00    -0.354 N 
ATOM     24  C   UNL A   1      50.420  29.465  26.413  1.00  0.00     0.074 A 
ATOM     25  C   UNL A   1      50.660  30.691  27.126  1.00  0.00     0.031 C 
ATOM     26  C   UNL A   1      45.120  28.241  30.129  1.00  0.00     0.029 A 
ATOM     27  C   UNL A   1      46.216  27.311  29.914  1.00  0.00     0.049 A 
ATOM     28  H   UNL A   1      47.651  27.441  28.393  1.00  0.00     0.167 HD
ATOM     29  C   UNL A   1      51.274  28.490  25.997  1.00  0.00     0.034 A 
ATOM     30  C   UNL A   1      46.551  26.180  30.594  1.00  0.00     0.034 A 
ATOM     31  C   UNL A   1      50.584  27.501  25.203  1.00  0.00     0.049 A 
ATOM     32  C   UNL A   1      47.491  25.428  29.723  1.00  0.00     0.074 A 
ATOM     33  C   UNL A   1      49.852  27.558  24.031  1.00  0.00     0.029 A 
ATOM     34  N   UNL A   1      50.235  26.308  25.796  1.00  0.00    -0.354 N 
ATOM     35  N   UNL A   1      47.140  24.918  28.573  1.00  0.00    -0.248 NA
ATOM     36  C   UNL A   1      48.916  25.696  29.867  1.00  0.00     0.031 C 
ATOM     37  C   UNL A   1      48.745  26.686  24.251  1.00  0.00     0.029 A 
ATOM     38  C   UNL A   1      48.914  26.070  25.493  1.00  0.00     0.049 A 
ATOM     39  H   UNL A   1      50.822  25.731  26.337  1.00  0.00     0.167 HD
ATOM     40  C   UNL A   1      48.189  25.208  27.712  1.00  0.00     0.074 A 
ATOM     41  C   UNL A   1      49.292  25.613  28.586  1.00  0.00     0.031 C 
ATOM     42  C   UNL A   1      47.987  25.378  26.371  1.00  0.00     0.034 A 
BRANCH  29  43
ATOM     43  C   UNL A   1      52.630  28.249  26.620  1.00  0.00     0.023 A 
ATOM     44  C   UNL A   1      53.683  27.864  25.772  1.00  0.00     0.031 A 
ATOM     45  C   UNL A   1      52.870  28.098  28.007  1.00  0.00     0.131 A 
ATOM     46  C   UNL A   1      54.856  27.287  26.295  1.00  0.00     0.055 A 
ATOM     47  C   UNL A   1      54.062  27.588  28.525  1.00  0.00     0.041 A 
ATOM     48  F   UNL A   1      51.938  28.337  28.937  1.00  0.00    -0.206 F 
ATOM     49  C   UNL A   1      55.053  27.151  27.667  1.00  0.00     0.022 A 
BRANCH  46  50
ATOM     50  S   UNL A   1      56.047  26.556  25.145  1.00  0.00     0.124 S 
ATOM     51  O   UNL A   1      56.573  25.446  25.932  1.00  0.00    -0.237 OA
ATOM     52  O   UNL A   1      55.194  26.201  24.016  1.00  0.00    -0.237 OA
ATOM     53  O   UNL A   1      56.989  27.646  24.896  1.00  0.00    -0.744 OA
ENDBRANCH  46  50
ENDBRANCH  29  43
BRANCH  30  54
ATOM     54  C   UNL A   1      46.419  25.964  32.066  1.00  0.00     0.023 A 
ATOM     55  C   UNL A   1      45.708  24.880  32.629  1.00  0.00     0.031 A 
ATOM     56  C   UNL A   1      47.210  26.726  32.959  1.00  0.00     0.131 A 
ATOM     57  C   UNL A   1      45.802  24.607  34.018  1.00  0.00     0.055 A 
ATOM     58  C   UNL A   1      47.295  26.455  34.326  1.00  0.00     0.041 A 
ATOM     59  F   UNL A   1      48.000  27.717  32.518  1.00  0.00    -0.206 F 
ATOM     60  C   UNL A   1      46.596  25.387  34.861  1.00  0.00     0.022 A 
BRANCH  57  61
ATOM     61  S   UNL A   1      44.945  23.171  34.747  1.00  0.00     0.124 S 
ATOM     62  O   UNL A   1      45.560  22.052  34.043  1.00  0.00    -0.237 OA
ATOM     63  O   UNL A   1      45.264  23.301  36.164  1.00  0.00    -0.237 OA
ATOM     64  O   UNL A   1      43.538  23.406  34.415  1.00  0.00    -0.744 OA
ENDBRANCH  57  61
ENDBRANCH  30  54
BRANCH  42  65
ATOM     65  C   UNL A   1      46.635  25.003  25.786  1.00  0.00     0.023 A 
ATOM     66  C   UNL A   1      46.239  23.693  25.417  1.00  0.00     0.031 A 
ATOM     67  C   UNL A   1      45.661  26.015  25.720  1.00  0.00     0.131 A 
ATOM     68  C   UNL A   1      44.915  23.448  24.993  1.00  0.00     0.055 A 
ATOM     69  C   UNL A   1      44.349  25.764  25.321  1.00  0.00     0.041 A 
ATOM     70  F   UNL A   1      45.963  27.274  26.083  1.00  0.00    -0.206 F 
ATOM     71  C   UNL A   1      43.972  24.480  24.950  1.00  0.00     0.022 A 
BRANCH  68  72
ATOM     72  S   UNL A   1      44.389  21.781  24.470  1.00  0.00     0.124 S 
ATOM     73  O   UNL A   1      45.428  20.910  25.007  1.00  0.00    -0.237 OA
ATOM     74  O   UNL A   1      43.069  21.659  25.083  1.00  0.00    -0.237 OA
ATOM     75  O   UNL A   1      44.371  21.874  23.008  1.00  0.00    -0.744 OA
ENDBRANCH  68  72
ENDBRANCH  42  65
ENDBRANCH  16  17
ENDBRANCH   9  11
ENDBRANCH   8   9
ENDBRANCH   7   8
ENDBRANCH   6   7
ENDBRANCH   5   6
ENDBRANCH   4   5
ENDBRANCH   3   4
ENDBRANCH   2   3
ENDBRANCH   1   2
BRANCH   1  76
ATOM     76  C   UNL A   1      40.884  27.831  29.025  1.00  0.00     0.188 C 
BRANCH  76  77
ATOM     77  O   UNL A   1      41.400  26.545  28.731  1.00  0.00    -0.376 OA
BRANCH  77  78
ATOM     78  C   UNL A   1      40.708  25.679  27.847  1.00  0.00     0.202 C 
BRANCH  78  79
ATOM     79  C   UNL A   1      41.003  24.166  27.765  1.00  0.00     0.261 C 
BRANCH  79  80
ATOM     80  O   UNL A   1      40.621  23.484  26.562  1.00  0.00    -0.460 OA
BRANCH  80  81
ATOM     81  C   UNL A   1      39.988  22.299  26.710  1.00  0.00     0.338 C 
ATOM     82  O   UNL A   1      40.358  21.327  27.353  1.00  0.00    -0.246 OA
BRANCH  81  83
ATOM     83  C   UNL A   1      38.648  22.410  26.100  1.00  0.00     0.060 A 
ATOM     84  C   UNL A   1      37.939  23.619  26.227  1.00  0.00     0.018 A 
ATOM     85  C   UNL A   1      38.095  21.336  25.405  1.00  0.00     0.018 A 
ATOM     86  C   UNL A   1      36.695  23.784  25.628  1.00  0.00     0.029 A 
ATOM     87  C   UNL A   1      36.797  21.453  24.906  1.00  0.00     0.029 A 
ATOM     88  C   UNL A   1      36.105  22.675  25.027  1.00  0.00     0.066 A 
BRANCH  88  89
ATOM     89  N   UNL A   1      34.705  22.683  24.919  1.00  0.00    -0.220 N 
ATOM     90  C   UNL A   1      34.034  23.737  24.362  1.00  0.00     0.141 A 
ATOM     91  N   UNL A   1      33.894  21.609  24.965  1.00  0.00    -0.062 NA
ATOM     92  C   UNL A   1      32.769  23.284  24.095  1.00  0.00     0.093 A 
ATOM     93  N   UNL A   1      32.683  21.992  24.554  1.00  0.00    -0.134 NA
BRANCH  92  94
ATOM     94  C   UNL A   1      31.599  24.074  23.660  1.00  0.00     0.138 C 
BRANCH  94  95
ATOM     95  S   UNL A   1      30.629  25.122  24.734  1.00  0.00    -0.081 SA
BRANCH  95  96
ATOM     96  C   UNL A   1      30.430  26.775  24.213  1.00  0.00     0.176 A 
ATOM     97  N   UNL A   1      29.240  26.980  23.724  1.00  0.00    -0.223 NA
ATOM     98  N   UNL A   1      31.364  27.796  24.284  1.00  0.00    -0.255 N 
ATOM     99  C   UNL A   1      28.960  28.221  23.143  1.00  0.00     0.079 A 
ATOM    100  C   UNL A   1      31.337  28.666  23.186  1.00  0.00     0.266 A 
ATOM    101  C   UNL A   1      27.646  28.625  22.898  1.00  0.00     0.029 A 
ATOM    102  C   UNL A   1      29.997  29.026  22.697  1.00  0.00     0.066 A 
ATOM    103  O   UNL A   1      32.315  29.141  22.614  1.00  0.00    -0.268 OA
ATOM    104  C   UNL A   1      27.392  29.788  22.159  1.00  0.00     0.002 A 
ATOM    105  C   UNL A   1      29.765  30.159  21.911  1.00  0.00     0.016 A 
ATOM    106  C   UNL A   1      28.451  30.533  21.635  1.00  0.00     0.001 A 
BRANCH  98 107
ATOM    107  C   UNL A   1      32.315  28.051  25.345  1.00  0.00     0.051 A 
ATOM    108  C   UNL A   1      32.118  29.132  26.232  1.00  0.00     0.028 A 
ATOM    109  C   UNL A   1      33.450  27.267  25.587  1.00  0.00     0.028 A 
ATOM    110  C   UNL A   1      33.110  29.559  27.123  1.00  0.00     0.022 A 
ATOM    111  C   UNL A   1      34.479  27.720  26.432  1.00  0.00     0.022 A 
ATOM    112  C   UNL A   1      34.321  28.892  27.161  1.00  0.00     0.041 A 
ATOM    113  Cl  UNL A   1      35.627  29.529  28.075  1.00  0.00    -0.084 Cl
ENDBRANCH  98 107
ENDBRANCH  95  96
ENDBRANCH  94  95
ENDBRANCH  92  94
ENDBRANCH  88  89
ENDBRANCH  81  83
ENDBRANCH  80  81
ENDBRANCH  79  80
ENDBRANCH  78  79
ENDBRANCH  77  78
ENDBRANCH  76  77
ENDBRANCH   1  76
TORSDOF 28
ENDMDL
MODEL 2
REMARK VINA RESULT:      -8.8      2.715      7.624
REMARK SMILES O=C(OCCOCCOCCOCCOC(=O)c1ccc(-n2cc(CSc3nc4ccccc4c(=O)n3-c3ccc(Cl)cc3)nn2)cc1)c1ccc(-c2c3nc(c(-c4cc(S(=O)(=O)[O-])ccc4F)c4ccc([nH]4)c(-c4cc(S(=O)(=O)[O-])ccc4F)c4nc(c(-c5cc(S(=O)(=O)[O-])ccc5F)c5ccc2[nH]5)C=C4)C=C3)cc1
REMARK SMILES IDX 10 1 9 2 8 3 7 4 6 5 5 6 4 7 3 8 2 9 1 10 49 11 50 12 111 13
REMARK SMILES IDX 51 14 110 15 52 16 53 17 54 18 104 19 55 20 109 21 103 22
REMARK SMILES IDX 105 23 56 24 108 25 102 26 101 27 57 29 89 30 69 31 88 32
REMARK SMILES IDX 70 33 73 34 87 35 106 36 71 37 72 38 86 40 107 41 74 42
REMARK SMILES IDX 58 43 59 44 67 45 60 46 66 47 68 48 65 49 61 50 62 51 63 52
REMARK SMILES IDX 64 53 90 54 91 55 99 56 92 57 98 58 100 59 97 60 93 61 94 62
REMARK SMILES IDX 95 63 96 64 75 65 76 66 84 67 77 68 83 69 85 70 82 71 78 72
REMARK SMILES IDX 79 73 80 74 81 75 11 76 12 77 13 78 14 79 15 80 16 81 17 82
REMARK SMILES IDX 18 83 19 84 48 85 20 86 47 87 21 88 22 89 23 90 46 91 24 92
REMARK SMILES IDX 45 93 25 94 26 95 27 96 28 97 37 98 29 99 35 100 30 101
REMARK SMILES IDX 34 102 36 103 31 104 33 105 32 106 38 107 39 108 44 109
REMARK SMILES IDX 40 110 43 111 41 112 42 113
REMARK H PARENT 105 28 73 39
REMARK Flexibility Score: inf
ROOT
ATOM      1  C   UNL A   1      41.243  26.311  28.415  1.00  0.00     0.188 C 
ENDROOT
BRANCH   1   2
ATOM      2  O   UNL A   1      40.572  26.424  27.179  1.00  0.00    -0.377 OA
BRANCH   2   3
ATOM      3  C   UNL A   1      39.836  25.261  26.832  1.00  0.00     0.188 C 
BRANCH   3   4
ATOM      4  C   UNL A   1      40.059  23.988  27.677  1.00  0.00     0.188 C 
BRANCH   4   5
ATOM      5  O   UNL A   1      39.852  22.656  27.230  1.00  0.00    -0.376 OA
BRANCH   5   6
ATOM      6  C   UNL A   1      40.762  21.692  26.738  1.00  0.00     0.202 C 
BRANCH   6   7
ATOM      7  C   UNL A   1      42.274  21.872  26.609  1.00  0.00     0.261 C 
BRANCH   7   8
ATOM      8  O   UNL A   1      42.828  21.443  25.378  1.00  0.00    -0.460 OA
BRANCH   8   9
ATOM      9  C   UNL A   1      44.034  21.752  24.864  1.00  0.00     0.338 C 
ATOM     10  O   UNL A   1      44.408  21.118  23.877  1.00  0.00    -0.246 OA
BRANCH   9  11
ATOM     11  C   UNL A   1      44.980  22.741  25.462  1.00  0.00     0.060 A 
ATOM     12  C   UNL A   1      45.631  22.651  26.697  1.00  0.00     0.016 A 
ATOM     13  C   UNL A   1      45.214  23.875  24.664  1.00  0.00     0.016 A 
ATOM     14  C   UNL A   1      46.291  23.746  27.219  1.00  0.00     0.010 A 
ATOM     15  C   UNL A   1      45.912  24.957  25.158  1.00  0.00     0.010 A 
ATOM     16  C   UNL A   1      46.351  24.915  26.472  1.00  0.00    -0.014 A 
BRANCH  16  17
ATOM     17  C   UNL A   1      46.924  26.082  27.108  1.00  0.00     0.031 A 
ATOM     18  C   UNL A   1      48.407  26.097  27.115  1.00  0.00     0.074 A 
ATOM     19  C   UNL A   1      46.129  27.056  27.593  1.00  0.00     0.049 A 
ATOM     20  N   UNL A   1      49.195  26.062  28.137  1.00  0.00    -0.248 NA
ATOM     21  C   UNL A   1      49.100  25.957  25.823  1.00  0.00     0.031 C 
ATOM     22  C   UNL A   1      44.678  27.198  27.437  1.00  0.00     0.029 A 
ATOM     23  N   UNL A   1      46.471  28.193  28.250  1.00  0.00    -0.354 N 
ATOM     24  C   UNL A   1      50.484  26.151  27.621  1.00  0.00     0.074 A 
ATOM     25  C   UNL A   1      50.373  25.883  26.212  1.00  0.00     0.031 C 
ATOM     26  C   UNL A   1      44.317  28.462  27.753  1.00  0.00     0.029 A 
ATOM     27  C   UNL A   1      45.480  29.171  28.257  1.00  0.00     0.049 A 
ATOM     28  H   UNL A   1      47.344  28.316  28.686  1.00  0.00     0.167 HD
ATOM     29  C   UNL A   1      51.495  26.697  28.351  1.00  0.00     0.034 A 
ATOM     30  C   UNL A   1      45.633  30.485  28.578  1.00  0.00     0.034 A 
ATOM     31  C   UNL A   1      51.198  26.651  29.763  1.00  0.00     0.049 A 
ATOM     32  C   UNL A   1      46.868  30.578  29.399  1.00  0.00     0.074 A 
ATOM     33  C   UNL A   1      50.921  25.626  30.649  1.00  0.00     0.029 A 
ATOM     34  N   UNL A   1      50.746  27.798  30.377  1.00  0.00    -0.354 N 
ATOM     35  N   UNL A   1      46.978  30.031  30.580  1.00  0.00    -0.248 NA
ATOM     36  C   UNL A   1      48.130  30.807  28.707  1.00  0.00     0.031 C 
ATOM     37  C   UNL A   1      49.870  26.129  31.471  1.00  0.00     0.029 A 
ATOM     38  C   UNL A   1      49.636  27.459  31.115  1.00  0.00     0.049 A 
ATOM     39  H   UNL A   1      51.145  28.696  30.303  1.00  0.00     0.167 HD
ATOM     40  C   UNL A   1      48.240  29.453  30.596  1.00  0.00     0.074 A 
ATOM     41  C   UNL A   1      48.935  30.037  29.447  1.00  0.00     0.031 C 
ATOM     42  C   UNL A   1      48.509  28.346  31.350  1.00  0.00     0.034 A 
BRANCH  29  43
ATOM     43  C   UNL A   1      52.560  27.592  27.760  1.00  0.00     0.023 A 
ATOM     44  C   UNL A   1      52.143  28.650  26.931  1.00  0.00     0.031 A 
ATOM     45  C   UNL A   1      53.944  27.296  27.730  1.00  0.00     0.131 A 
ATOM     46  C   UNL A   1      53.054  29.295  26.075  1.00  0.00     0.055 A 
ATOM     47  C   UNL A   1      54.856  27.985  26.929  1.00  0.00     0.041 A 
ATOM     48  F   UNL A   1      54.482  26.265  28.394  1.00  0.00    -0.206 F 
ATOM     49  C   UNL A   1      54.409  28.972  26.072  1.00  0.00     0.022 A 
BRANCH  46  50
ATOM     50  S   UNL A   1      52.409  30.447  24.836  1.00  0.00     0.124 S 
ATOM     51  O   UNL A   1      51.886  31.520  25.674  1.00  0.00    -0.237 OA
ATOM     52  O   UNL A   1      53.606  30.757  24.063  1.00  0.00    -0.237 OA
ATOM     53  O   UNL A   1      51.400  29.657  24.133  1.00  0.00    -0.744 OA
ENDBRANCH  46  50
ENDBRANCH  29  43
BRANCH  30  54
ATOM     54  C   UNL A   1      45.009  31.645  27.872  1.00  0.00     0.023 A 
ATOM     55  C   UNL A   1      44.256  32.640  28.534  1.00  0.00     0.031 A 
ATOM     56  C   UNL A   1      45.350  31.909  26.524  1.00  0.00     0.131 A 
ATOM     57  C   UNL A   1      43.876  33.823  27.849  1.00  0.00     0.055 A 
ATOM     58  C   UNL A   1      44.970  33.074  25.855  1.00  0.00     0.041 A 
ATOM     59  F   UNL A   1      46.143  31.078  25.830  1.00  0.00    -0.206 F 
ATOM     60  C   UNL A   1      44.237  34.042  26.518  1.00  0.00     0.022 A 
BRANCH  57  61
ATOM     61  S   UNL A   1      42.964  35.148  28.710  1.00  0.00     0.124 S 
ATOM     62  O   UNL A   1      42.396  34.444  29.853  1.00  0.00    -0.237 OA
ATOM     63  O   UNL A   1      44.015  36.116  29.001  1.00  0.00    -0.237 OA
ATOM     64  O   UNL A   1      41.985  35.592  27.716  1.00  0.00    -0.744 OA
ENDBRANCH  57  61
ENDBRANCH  30  54
BRANCH  42  65
ATOM     65  C   UNL A   1      47.477  27.892  32.371  1.00  0.00     0.023 A 
ATOM     66  C   UNL A   1      46.543  26.846  32.178  1.00  0.00     0.031 A 
ATOM     67  C   UNL A   1      47.538  28.477  33.648  1.00  0.00     0.131 A 
ATOM     68  C   UNL A   1      45.711  26.436  33.242  1.00  0.00     0.055 A 
ATOM     69  C   UNL A   1      46.730  28.055  34.703  1.00  0.00     0.041 A 
ATOM     70  F   UNL A   1      48.423  29.456  33.906  1.00  0.00    -0.206 F 
ATOM     71  C   UNL A   1      45.808  27.036  34.502  1.00  0.00     0.022 A 
BRANCH  68  72
ATOM     72  S   UNL A   1      44.467  25.121  33.010  1.00  0.00     0.124 S 
ATOM     73  O   UNL A   1      43.615  25.245  34.187  1.00  0.00    -0.237 OA
ATOM     74  O   UNL A   1      43.856  25.485  31.734  1.00  0.00    -0.237 OA
ATOM     75  O   UNL A   1      45.270  23.897  32.968  1.00  0.00    -0.744 OA
ENDBRANCH  68  72
ENDBRANCH  42  65
ENDBRANCH  16  17
ENDBRANCH   9  11
ENDBRANCH   8   9
ENDBRANCH   7   8
ENDBRANCH   6   7
ENDBRANCH   5   6
ENDBRANCH   4   5
ENDBRANCH   3   4
ENDBRANCH   2   3
ENDBRANCH   1   2
BRANCH   1  76
ATOM     76  C   UNL A   1      41.043  27.539  29.327  1.00  0.00     0.188 C 
BRANCH  76  77
ATOM     77  O   UNL A   1      41.767  27.679  30.537  1.00  0.00    -0.376 OA
BRANCH  77  78
ATOM     78  C   UNL A   1      41.455  28.723  31.444  1.00  0.00     0.202 C 
BRANCH  78  79
ATOM     79  C   UNL A   1      41.719  30.210  31.122  1.00  0.00     0.261 C 
BRANCH  79  80
ATOM     80  O   UNL A   1      40.929  30.810  30.086  1.00  0.00    -0.460 OA
BRANCH  80  81
ATOM     81  C   UNL A   1      39.787  31.422  30.471  1.00  0.00     0.338 C 
ATOM     82  O   UNL A   1      39.669  32.450  31.123  1.00  0.00    -0.246 OA
BRANCH  81  83
ATOM     83  C   UNL A   1      38.653  30.736  29.819  1.00  0.00     0.060 A 
ATOM     84  C   UNL A   1      38.836  30.180  28.539  1.00  0.00     0.018 A 
ATOM     85  C   UNL A   1      37.421  30.636  30.463  1.00  0.00     0.018 A 
ATOM     86  C   UNL A   1      37.810  29.485  27.909  1.00  0.00     0.029 A 
ATOM     87  C   UNL A   1      36.353  30.047  29.786  1.00  0.00     0.029 A 
ATOM     88  C   UNL A   1      36.555  29.481  28.511  1.00  0.00     0.066 A 
BRANCH  88  89
ATOM     89  N   UNL A   1      35.450  29.275  27.669  1.00  0.00    -0.220 N 
ATOM     90  C   UNL A   1      34.215  28.964  28.169  1.00  0.00     0.141 A 
ATOM     91  N   UNL A   1      35.326  29.697  26.396  1.00  0.00    -0.062 NA
ATOM     92  C   UNL A   1      33.327  29.179  27.148  1.00  0.00     0.093 A 
ATOM     93  N   UNL A   1      34.048  29.551  26.039  1.00  0.00    -0.134 NA
BRANCH  92  94
ATOM     94  C   UNL A   1      31.894  28.824  27.108  1.00  0.00     0.138 C 
BRANCH  94  95
ATOM     95  S   UNL A   1      31.268  27.164  26.894  1.00  0.00    -0.081 SA
BRANCH  95  96
ATOM     96  C   UNL A   1      31.479  26.467  25.309  1.00  0.00     0.176 A 
ATOM     97  N   UNL A   1      31.709  25.186  25.379  1.00  0.00    -0.223 NA
ATOM     98  N   UNL A   1      31.418  27.120  24.089  1.00  0.00    -0.255 N 
ATOM     99  C   UNL A   1      32.029  24.497  24.204  1.00  0.00     0.079 A 
ATOM    100  C   UNL A   1      32.344  26.650  23.147  1.00  0.00     0.266 A 
ATOM    101  C   UNL A   1      31.967  23.104  24.143  1.00  0.00     0.029 A 
ATOM    102  C   UNL A   1      32.522  25.190  23.109  1.00  0.00     0.066 A 
ATOM    103  O   UNL A   1      33.002  27.340  22.371  1.00  0.00    -0.268 OA
ATOM    104  C   UNL A   1      32.457  22.426  23.019  1.00  0.00     0.002 A 
ATOM    105  C   UNL A   1      33.066  24.530  22.004  1.00  0.00     0.016 A 
ATOM    106  C   UNL A   1      33.040  23.137  21.968  1.00  0.00     0.001 A 
BRANCH  98 107
ATOM    107  C   UNL A   1      30.520  28.186  23.701  1.00  0.00     0.051 A 
ATOM    108  C   UNL A   1      30.844  29.530  23.990  1.00  0.00     0.028 A 
ATOM    109  C   UNL A   1      29.315  27.988  23.015  1.00  0.00     0.028 A 
ATOM    110  C   UNL A   1      29.920  30.572  23.846  1.00  0.00     0.022 A 
ATOM    111  C   UNL A   1      28.355  29.012  22.921  1.00  0.00     0.022 A 
ATOM    112  C   UNL A   1      28.647  30.290  23.383  1.00  0.00     0.041 A 
ATOM    113  Cl  UNL A   1      27.433  31.502  23.410  1.00  0.00    -0.084 Cl
ENDBRANCH  98 107
ENDBRANCH  95  96
ENDBRANCH  94  95
ENDBRANCH  92  94
ENDBRANCH  88  89
ENDBRANCH  81  83
ENDBRANCH  80  81
ENDBRANCH  79  80
ENDBRANCH  78  79
ENDBRANCH  77  78
ENDBRANCH  76  77
ENDBRANCH   1  76
TORSDOF 28
ENDMDL
MODEL 3
REMARK VINA RESULT:      -8.7      2.937      7.831
REMARK SMILES O=C(OCCOCCOCCOCCOC(=O)c1ccc(-n2cc(CSc3nc4ccccc4c(=O)n3-c3ccc(Cl)cc3)nn2)cc1)c1ccc(-c2c3nc(c(-c4cc(S(=O)(=O)[O-])ccc4F)c4ccc([nH]4)c(-c4cc(S(=O)(=O)[O-])ccc4F)c4nc(c(-c5cc(S(=O)(=O)[O-])ccc5F)c5ccc2[nH]5)C=C4)C=C3)cc1
REMARK SMILES IDX 10 1 9 2 8 3 7 4 6 5 5 6 4 7 3 8 2 9 1 10 49 11 50 12 111 13
REMARK SMILES IDX 51 14 110 15 52 16 53 17 54 18 104 19 55 20 109 21 103 22
REMARK SMILES IDX 105 23 56 24 108 25 102 26 101 27 57 29 89 30 69 31 88 32
REMARK SMILES IDX 70 33 73 34 87 35 106 36 71 37 72 38 86 40 107 41 74 42
REMARK SMILES IDX 58 43 59 44 67 45 60 46 66 47 68 48 65 49 61 50 62 51 63 52
REMARK SMILES IDX 64 53 90 54 91 55 99 56 92 57 98 58 100 59 97 60 93 61 94 62
REMARK SMILES IDX 95 63 96 64 75 65 76 66 84 67 77 68 83 69 85 70 82 71 78 72
REMARK SMILES IDX 79 73 80 74 81 75 11 76 12 77 13 78 14 79 15 80 16 81 17 82
REMARK SMILES IDX 18 83 19 84 48 85 20 86 47 87 21 88 22 89 23 90 46 91 24 92
REMARK SMILES IDX 45 93 25 94 26 95 27 96 28 97 37 98 29 99 35 100 30 101
REMARK SMILES IDX 34 102 36 103 31 104 33 105 32 106 38 107 39 108 44 109
REMARK SMILES IDX 40 110 43 111 41 112 42 113
REMARK H PARENT 105 28 73 39
REMARK Flexibility Score: inf
ROOT
ATOM      1  C   UNL A   1      41.174  26.349  28.389  1.00  0.00     0.188 C 
ENDROOT
BRANCH   1   2
ATOM      2  O   UNL A   1      40.506  26.378  27.148  1.00  0.00    -0.377 OA
BRANCH   2   3
ATOM      3  C   UNL A   1      39.755  25.203  26.887  1.00  0.00     0.188 C 
BRANCH   3   4
ATOM      4  C   UNL A   1      40.094  23.935  27.700  1.00  0.00     0.188 C 
BRANCH   4   5
ATOM      5  O   UNL A   1      39.951  22.599  27.242  1.00  0.00    -0.376 OA
BRANCH   5   6
ATOM      6  C   UNL A   1      40.853  21.753  26.557  1.00  0.00     0.202 C 
BRANCH   6   7
ATOM      7  C   UNL A   1      42.350  22.002  26.373  1.00  0.00     0.261 C 
BRANCH   7   8
ATOM      8  O   UNL A   1      42.807  21.958  25.034  1.00  0.00    -0.460 OA
BRANCH   8   9
ATOM      9  C   UNL A   1      43.930  22.503  24.526  1.00  0.00     0.338 C 
ATOM     10  O   UNL A   1      44.207  22.241  23.356  1.00  0.00    -0.246 OA
BRANCH   9  11
ATOM     11  C   UNL A   1      44.901  23.321  25.311  1.00  0.00     0.060 A 
ATOM     12  C   UNL A   1      45.578  22.947  26.477  1.00  0.00     0.016 A 
ATOM     13  C   UNL A   1      45.133  24.606  24.787  1.00  0.00     0.016 A 
ATOM     14  C   UNL A   1      46.263  23.888  27.219  1.00  0.00     0.010 A 
ATOM     15  C   UNL A   1      45.855  25.541  25.498  1.00  0.00     0.010 A 
ATOM     16  C   UNL A   1      46.322  25.196  26.757  1.00  0.00    -0.014 A 
BRANCH  16  17
ATOM     17  C   UNL A   1      46.925  26.183  27.628  1.00  0.00     0.031 A 
ATOM     18  C   UNL A   1      48.402  26.089  27.714  1.00  0.00     0.074 A 
ATOM     19  C   UNL A   1      46.162  27.106  28.245  1.00  0.00     0.049 A 
ATOM     20  N   UNL A   1      49.120  25.811  28.750  1.00  0.00    -0.248 NA
ATOM     21  C   UNL A   1      49.167  26.138  26.456  1.00  0.00     0.031 C 
ATOM     22  C   UNL A   1      44.735  27.379  28.045  1.00  0.00     0.029 A 
ATOM     23  N   UNL A   1      46.530  28.077  29.120  1.00  0.00    -0.354 N 
ATOM     24  C   UNL A   1      50.442  25.900  28.326  1.00  0.00     0.074 A 
ATOM     25  C   UNL A   1      50.405  25.903  26.889  1.00  0.00     0.031 C 
ATOM     26  C   UNL A   1      44.433  28.587  28.571  1.00  0.00     0.029 A 
ATOM     27  C   UNL A   1      45.603  29.106  29.259  1.00  0.00     0.049 A 
ATOM     28  H   UNL A   1      47.380  28.055  29.615  1.00  0.00     0.167 HD
ATOM     29  C   UNL A   1      51.436  26.228  29.196  1.00  0.00     0.034 A 
ATOM     30  C   UNL A   1      45.816  30.325  29.826  1.00  0.00     0.034 A 
ATOM     31  C   UNL A   1      51.047  25.946  30.558  1.00  0.00     0.049 A 
ATOM     32  C   UNL A   1      47.000  30.176  30.712  1.00  0.00     0.074 A 
ATOM     33  C   UNL A   1      50.652  24.799  31.221  1.00  0.00     0.029 A 
ATOM     34  N   UNL A   1      50.629  26.991  31.352  1.00  0.00    -0.354 N 
ATOM     35  N   UNL A   1      47.001  29.416  31.775  1.00  0.00    -0.248 NA
ATOM     36  C   UNL A   1      48.315  30.435  30.142  1.00  0.00     0.031 C 
ATOM     37  C   UNL A   1      49.584  25.217  32.068  1.00  0.00     0.029 A 
ATOM     38  C   UNL A   1      49.455  26.604  31.955  1.00  0.00     0.049 A 
ATOM     39  H   UNL A   1      51.086  27.856  31.467  1.00  0.00     0.167 HD
ATOM     40  C   UNL A   1      48.221  28.755  31.747  1.00  0.00     0.074 A 
ATOM     41  C   UNL A   1      49.023  29.487  30.765  1.00  0.00     0.031 C 
ATOM     42  C   UNL A   1      48.373  27.512  32.294  1.00  0.00     0.034 A 
BRANCH  29  43
ATOM     43  C   UNL A   1      52.590  27.137  28.839  1.00  0.00     0.023 A 
ATOM     44  C   UNL A   1      52.444  28.513  29.091  1.00  0.00     0.031 A 
ATOM     45  C   UNL A   1      53.683  26.775  28.015  1.00  0.00     0.131 A 
ATOM     46  C   UNL A   1      53.296  29.451  28.479  1.00  0.00     0.055 A 
ATOM     47  C   UNL A   1      54.566  27.705  27.465  1.00  0.00     0.041 A 
ATOM     48  F   UNL A   1      53.905  25.518  27.612  1.00  0.00    -0.206 F 
ATOM     49  C   UNL A   1      54.359  29.055  27.671  1.00  0.00     0.022 A 
BRANCH  46  50
ATOM     50  S   UNL A   1      52.885  31.209  28.616  1.00  0.00     0.124 S 
ATOM     51  O   UNL A   1      53.703  31.786  27.554  1.00  0.00    -0.237 OA
ATOM     52  O   UNL A   1      51.445  31.198  28.387  1.00  0.00    -0.237 OA
ATOM     53  O   UNL A   1      53.298  31.548  29.976  1.00  0.00    -0.744 OA
ENDBRANCH  46  50
ENDBRANCH  29  43
BRANCH  30  54
ATOM     54  C   UNL A   1      45.311  31.636  29.319  1.00  0.00     0.023 A 
ATOM     55  C   UNL A   1      45.450  32.052  27.976  1.00  0.00     0.031 A 
ATOM     56  C   UNL A   1      44.459  32.420  30.133  1.00  0.00     0.131 A 
ATOM     57  C   UNL A   1      44.762  33.201  27.508  1.00  0.00     0.055 A 
ATOM     58  C   UNL A   1      43.788  33.553  29.668  1.00  0.00     0.041 A 
ATOM     59  F   UNL A   1      44.179  32.062  31.396  1.00  0.00    -0.206 F 
ATOM     60  C   UNL A   1      43.930  33.944  28.349  1.00  0.00     0.022 A 
BRANCH  57  61
ATOM     61  S   UNL A   1      44.876  33.711  25.760  1.00  0.00     0.124 S 
ATOM     62  O   UNL A   1      46.248  34.196  25.666  1.00  0.00    -0.237 OA
ATOM     63  O   UNL A   1      44.576  32.472  25.051  1.00  0.00    -0.237 OA
ATOM     64  O   UNL A   1      43.849  34.748  25.638  1.00  0.00    -0.744 OA
ENDBRANCH  57  61
ENDBRANCH  30  54
BRANCH  42  65
ATOM     65  C   UNL A   1      47.252  26.955  33.158  1.00  0.00     0.023 A 
ATOM     66  C   UNL A   1      47.033  27.277  34.520  1.00  0.00     0.031 A 
ATOM     67  C   UNL A   1      46.288  26.153  32.520  1.00  0.00     0.131 A 
ATOM     68  C   UNL A   1      45.889  26.788  35.187  1.00  0.00     0.055 A 
ATOM     69  C   UNL A   1      45.149  25.691  33.177  1.00  0.00     0.041 A 
ATOM     70  F   UNL A   1      46.421  25.835  31.221  1.00  0.00    -0.206 F 
ATOM     71  C   UNL A   1      44.948  26.001  34.515  1.00  0.00     0.022 A 
BRANCH  68  72
ATOM     72  S   UNL A   1      45.605  27.149  36.952  1.00  0.00     0.124 S 
ATOM     73  O   UNL A   1      46.777  27.925  37.337  1.00  0.00    -0.237 OA
ATOM     74  O   UNL A   1      44.336  27.874  36.926  1.00  0.00    -0.237 OA
ATOM     75  O   UNL A   1      45.528  25.820  37.563  1.00  0.00    -0.744 OA
ENDBRANCH  68  72
ENDBRANCH  42  65
ENDBRANCH  16  17
ENDBRANCH   9  11
ENDBRANCH   8   9
ENDBRANCH   7   8
ENDBRANCH   6   7
ENDBRANCH   5   6
ENDBRANCH   4   5
ENDBRANCH   3   4
ENDBRANCH   2   3
ENDBRANCH   1   2
BRANCH   1  76
ATOM     76  C   UNL A   1      40.943  27.619  29.233  1.00  0.00     0.188 C 
BRANCH  76  77
ATOM     77  O   UNL A   1      41.510  27.755  30.525  1.00  0.00    -0.376 OA
BRANCH  77  78
ATOM     78  C   UNL A   1      41.094  28.802  31.385  1.00  0.00     0.202 C 
BRANCH  78  79
ATOM     79  C   UNL A   1      41.512  30.272  31.168  1.00  0.00     0.261 C 
BRANCH  79  80
ATOM     80  O   UNL A   1      41.005  30.936  30.002  1.00  0.00    -0.460 OA
BRANCH  80  81
ATOM     81  C   UNL A   1      39.900  31.698  30.170  1.00  0.00     0.338 C 
ATOM     82  O   UNL A   1      39.840  32.857  30.554  1.00  0.00    -0.246 OA
BRANCH  81  83
ATOM     83  C   UNL A   1      38.741  30.954  29.636  1.00  0.00     0.060 A 
ATOM     84  C   UNL A   1      38.909  30.160  28.487  1.00  0.00     0.018 A 
ATOM     85  C   UNL A   1      37.499  31.034  30.265  1.00  0.00     0.018 A 
ATOM     86  C   UNL A   1      37.857  29.406  27.979  1.00  0.00     0.029 A 
ATOM     87  C   UNL A   1      36.410  30.378  29.689  1.00  0.00     0.029 A 
ATOM     88  C   UNL A   1      36.598  29.573  28.548  1.00  0.00     0.066 A 
BRANCH  88  89
ATOM     89  N   UNL A   1      35.492  29.264  27.739  1.00  0.00    -0.220 N 
ATOM     90  C   UNL A   1      34.236  29.123  28.263  1.00  0.00     0.141 A 
ATOM     91  N   UNL A   1      35.405  29.433  26.405  1.00  0.00    -0.062 NA
ATOM     92  C   UNL A   1      33.372  29.179  27.200  1.00  0.00     0.093 A 
ATOM     93  N   UNL A   1      34.125  29.287  26.056  1.00  0.00    -0.134 NA
BRANCH  92  94
ATOM     94  C   UNL A   1      31.923  28.898  27.200  1.00  0.00     0.138 C 
BRANCH  94  95
ATOM     95  S   UNL A   1      31.204  27.281  26.954  1.00  0.00    -0.081 SA
BRANCH  95  96
ATOM     96  C   UNL A   1      31.450  26.566  25.382  1.00  0.00     0.176 A 
ATOM     97  N   UNL A   1      31.683  25.287  25.471  1.00  0.00    -0.223 NA
ATOM     98  N   UNL A   1      31.412  27.205  24.153  1.00  0.00    -0.255 N 
ATOM     99  C   UNL A   1      32.029  24.587  24.311  1.00  0.00     0.079 A 
ATOM    100  C   UNL A   1      32.359  26.729  23.236  1.00  0.00     0.266 A 
ATOM    101  C   UNL A   1      31.974  23.193  24.264  1.00  0.00     0.029 A 
ATOM    102  C   UNL A   1      32.542  25.269  23.218  1.00  0.00     0.066 A 
ATOM    103  O   UNL A   1      33.029  27.412  22.466  1.00  0.00    -0.268 OA
ATOM    104  C   UNL A   1      32.489  22.503  23.158  1.00  0.00     0.002 A 
ATOM    105  C   UNL A   1      33.111  24.598  22.132  1.00  0.00     0.016 A 
ATOM    106  C   UNL A   1      33.091  23.205  22.111  1.00  0.00     0.001 A 
BRANCH  98 107
ATOM    107  C   UNL A   1      30.517  28.264  23.736  1.00  0.00     0.051 A 
ATOM    108  C   UNL A   1      30.783  29.603  24.096  1.00  0.00     0.028 A 
ATOM    109  C   UNL A   1      29.374  28.063  22.952  1.00  0.00     0.028 A 
ATOM    110  C   UNL A   1      29.846  30.627  23.919  1.00  0.00     0.022 A 
ATOM    111  C   UNL A   1      28.398  29.067  22.821  1.00  0.00     0.022 A 
ATOM    112  C   UNL A   1      28.620  30.333  23.349  1.00  0.00     0.041 A 
ATOM    113  Cl  UNL A   1      27.375  31.514  23.325  1.00  0.00    -0.084 Cl
ENDBRANCH  98 107
ENDBRANCH  95  96
ENDBRANCH  94  95
ENDBRANCH  92  94
ENDBRANCH  88  89
ENDBRANCH  81  83
ENDBRANCH  80  81
ENDBRANCH  79  80
ENDBRANCH  78  79
ENDBRANCH  77  78
ENDBRANCH  76  77
ENDBRANCH   1  76
TORSDOF 28
ENDMDL
