MODEL 1
REMARK VINA RESULT:      -9.5      0.000      0.000
REMARK SMILES O=C(OCCOCCOCCOCCOC(=O)[C@@H]1CC[C@@]2(CCN(C(=O)OCc3ccccc3)C2)C1)c1ccc(-c2c3nc(c(-c4cc(S(=O)(=O)[O-])ccc4F)c4ccc([nH]4)c(-c4cc(S(=O)(=O)[O-])ccc4F)c4nc(c(-c5cc(S(=O)(=O)[O-])ccc5F)c5ccc2[nH]5)C=C4)C=C3)cc1
REMARK SMILES IDX 10 1 9 2 8 3 7 4 6 5 5 6 4 7 3 8 2 9 1 10 37 11 38 12 99 13
REMARK SMILES IDX 39 14 98 15 40 16 41 17 42 18 92 19 43 20 97 21 91 22 93 23
REMARK SMILES IDX 44 24 96 25 90 26 89 27 45 29 77 30 57 31 76 32 58 33 61 34
REMARK SMILES IDX 75 35 94 36 59 37 60 38 74 40 95 41 62 42 46 43 47 44 55 45
REMARK SMILES IDX 48 46 54 47 56 48 53 49 49 50 50 51 51 52 52 53 78 54 79 55
REMARK SMILES IDX 87 56 80 57 86 58 88 59 85 60 81 61 82 62 83 63 84 64 63 65
REMARK SMILES IDX 64 66 72 67 65 68 71 69 73 70 70 71 66 72 67 73 68 74 69 75
REMARK SMILES IDX 11 76 12 77 13 78 14 79 15 80 16 81 17 82 18 83 19 84 36 85
REMARK SMILES IDX 20 86 21 87 22 88 35 89 23 90 24 91 25 92 26 93 27 94 28 95
REMARK SMILES IDX 29 96 30 97 34 98 31 99 33 100 32 101
REMARK H PARENT 93 28 61 39
REMARK Flexibility Score: inf
ROOT
ATOM      1  C   UNL A   1      36.646  32.245  28.705  1.00  0.00     0.188 C 
ENDROOT
BRANCH   1   2
ATOM      2  O   UNL A   1      35.719  33.298  28.953  1.00  0.00    -0.377 OA
BRANCH   2   3
ATOM      3  C   UNL A   1      34.336  32.935  28.957  1.00  0.00     0.188 C 
BRANCH   3   4
ATOM      4  C   UNL A   1      33.408  34.024  28.422  1.00  0.00     0.188 C 
BRANCH   4   5
ATOM      5  O   UNL A   1      32.774  34.710  29.502  1.00  0.00    -0.376 OA
BRANCH   5   6
ATOM      6  C   UNL A   1      33.296  36.006  29.804  1.00  0.00     0.202 C 
BRANCH   6   7
ATOM      7  C   UNL A   1      32.619  36.687  30.989  1.00  0.00     0.261 C 
BRANCH   7   8
ATOM      8  O   UNL A   1      32.793  35.944  32.201  1.00  0.00    -0.460 OA
BRANCH   8   9
ATOM      9  C   UNL A   1      33.722  36.158  33.165  1.00  0.00     0.338 C 
ATOM     10  O   UNL A   1      33.604  37.175  33.853  1.00  0.00    -0.246 OA
BRANCH   9  11
ATOM     11  C   UNL A   1      34.894  35.262  33.445  1.00  0.00     0.060 A 
ATOM     12  C   UNL A   1      34.990  34.318  34.473  1.00  0.00     0.016 A 
ATOM     13  C   UNL A   1      35.965  35.338  32.537  1.00  0.00     0.016 A 
ATOM     14  C   UNL A   1      36.086  33.483  34.614  1.00  0.00     0.010 A 
ATOM     15  C   UNL A   1      37.093  34.530  32.687  1.00  0.00     0.010 A 
ATOM     16  C   UNL A   1      37.157  33.618  33.746  1.00  0.00    -0.014 A 
BRANCH  16  17
ATOM     17  C   UNL A   1      38.431  33.012  34.155  1.00  0.00     0.031 A 
ATOM     18  C   UNL A   1      38.943  31.898  33.297  1.00  0.00     0.074 A 
ATOM     19  C   UNL A   1      39.145  33.529  35.165  1.00  0.00     0.049 A 
ATOM     20  N   UNL A   1      39.925  31.070  33.503  1.00  0.00    -0.248 NA
ATOM     21  C   UNL A   1      38.237  31.699  32.019  1.00  0.00     0.031 C 
ATOM     22  C   UNL A   1      38.794  34.737  35.912  1.00  0.00     0.029 A 
ATOM     23  N   UNL A   1      40.313  33.104  35.733  1.00  0.00    -0.354 N 
ATOM     24  C   UNL A   1      39.923  30.216  32.406  1.00  0.00     0.074 A 
ATOM     25  C   UNL A   1      38.848  30.634  31.536  1.00  0.00     0.031 C 
ATOM     26  C   UNL A   1      39.718  34.939  36.866  1.00  0.00     0.029 A 
ATOM     27  C   UNL A   1      40.667  33.830  36.844  1.00  0.00     0.049 A 
ATOM     28  H   UNL A   1      40.847  32.355  35.380  1.00  0.00     0.167 HD
ATOM     29  C   UNL A   1      40.739  29.160  32.178  1.00  0.00     0.034 A 
ATOM     30  C   UNL A   1      41.606  33.564  37.773  1.00  0.00     0.034 A 
ATOM     31  C   UNL A   1      41.767  28.783  33.112  1.00  0.00     0.049 A 
ATOM     32  C   UNL A   1      42.428  32.312  37.583  1.00  0.00     0.074 A 
ATOM     33  C   UNL A   1      42.613  27.692  33.091  1.00  0.00     0.029 A 
ATOM     34  N   UNL A   1      42.073  29.507  34.265  1.00  0.00    -0.354 N 
ATOM     35  N   UNL A   1      42.361  31.425  36.612  1.00  0.00    -0.248 NA
ATOM     36  C   UNL A   1      43.432  32.012  38.606  1.00  0.00     0.031 C 
ATOM     37  C   UNL A   1      43.380  27.721  34.264  1.00  0.00     0.029 A 
ATOM     38  C   UNL A   1      43.075  28.874  34.976  1.00  0.00     0.049 A 
ATOM     39  H   UNL A   1      41.638  30.348  34.533  1.00  0.00     0.167 HD
ATOM     40  C   UNL A   1      43.332  30.471  36.894  1.00  0.00     0.074 A 
ATOM     41  C   UNL A   1      43.969  30.896  38.129  1.00  0.00     0.031 C 
ATOM     42  C   UNL A   1      43.674  29.352  36.204  1.00  0.00     0.034 A 
BRANCH  29  43
ATOM     43  C   UNL A   1      40.419  28.310  30.970  1.00  0.00     0.023 A 
ATOM     44  C   UNL A   1      41.071  28.491  29.735  1.00  0.00     0.031 A 
ATOM     45  C   UNL A   1      39.327  27.424  31.008  1.00  0.00     0.131 A 
ATOM     46  C   UNL A   1      40.545  27.901  28.573  1.00  0.00     0.055 A 
ATOM     47  C   UNL A   1      38.873  26.761  29.867  1.00  0.00     0.041 A 
ATOM     48  F   UNL A   1      38.641  27.235  32.146  1.00  0.00    -0.206 F 
ATOM     49  C   UNL A   1      39.465  27.018  28.634  1.00  0.00     0.022 A 
BRANCH  46  50
ATOM     50  S   UNL A   1      41.144  28.483  26.959  1.00  0.00     0.124 S 
ATOM     51  O   UNL A   1      41.505  27.226  26.306  1.00  0.00    -0.237 OA
ATOM     52  O   UNL A   1      39.979  29.172  26.418  1.00  0.00    -0.237 OA
ATOM     53  O   UNL A   1      42.275  29.343  27.302  1.00  0.00    -0.744 OA
ENDBRANCH  46  50
ENDBRANCH  29  43
BRANCH  30  54
ATOM     54  C   UNL A   1      41.723  34.426  38.984  1.00  0.00     0.023 A 
ATOM     55  C   UNL A   1      42.503  35.592  38.993  1.00  0.00     0.031 A 
ATOM     56  C   UNL A   1      41.022  34.098  40.163  1.00  0.00     0.131 A 
ATOM     57  C   UNL A   1      42.569  36.381  40.157  1.00  0.00     0.055 A 
ATOM     58  C   UNL A   1      41.055  34.907  41.298  1.00  0.00     0.041 A 
ATOM     59  F   UNL A   1      40.263  32.992  40.215  1.00  0.00    -0.206 F 
ATOM     60  C   UNL A   1      41.838  36.056  41.302  1.00  0.00     0.022 A 
BRANCH  57  61
ATOM     61  S   UNL A   1      43.664  37.829  40.172  1.00  0.00     0.124 S 
ATOM     62  O   UNL A   1      44.793  37.339  40.956  1.00  0.00    -0.237 OA
ATOM     63  O   UNL A   1      43.912  38.037  38.749  1.00  0.00    -0.237 OA
ATOM     64  O   UNL A   1      42.857  38.860  40.820  1.00  0.00    -0.744 OA
ENDBRANCH  57  61
ENDBRANCH  30  54
BRANCH  42  65
ATOM     65  C   UNL A   1      44.830  28.553  36.740  1.00  0.00     0.023 A 
ATOM     66  C   UNL A   1      44.642  27.487  37.633  1.00  0.00     0.031 A 
ATOM     67  C   UNL A   1      46.133  28.834  36.292  1.00  0.00     0.131 A 
ATOM     68  C   UNL A   1      45.751  26.752  38.073  1.00  0.00     0.055 A 
ATOM     69  C   UNL A   1      47.224  28.067  36.693  1.00  0.00     0.041 A 
ATOM     70  F   UNL A   1      46.356  29.843  35.434  1.00  0.00    -0.206 F 
ATOM     71  C   UNL A   1      47.036  27.022  37.593  1.00  0.00     0.022 A 
BRANCH  68  72
ATOM     72  S   UNL A   1      45.500  25.462  39.321  1.00  0.00     0.124 S 
ATOM     73  O   UNL A   1      46.867  25.182  39.745  1.00  0.00    -0.237 OA
ATOM     74  O   UNL A   1      44.652  26.134  40.300  1.00  0.00    -0.237 OA
ATOM     75  O   UNL A   1      44.849  24.387  38.574  1.00  0.00    -0.744 OA
ENDBRANCH  68  72
ENDBRANCH  42  65
ENDBRANCH  16  17
ENDBRANCH   9  11
ENDBRANCH   8   9
ENDBRANCH   7   8
ENDBRANCH   6   7
ENDBRANCH   5   6
ENDBRANCH   4   5
ENDBRANCH   3   4
ENDBRANCH   2   3
ENDBRANCH   1   2
BRANCH   1  76
ATOM     76  C   UNL A   1      36.128  30.796  28.713  1.00  0.00     0.188 C 
BRANCH  76  77
ATOM     77  O   UNL A   1      35.922  30.285  27.409  1.00  0.00    -0.376 OA
BRANCH  77  78
ATOM     78  C   UNL A   1      35.052  29.166  27.284  1.00  0.00     0.202 C 
BRANCH  78  79
ATOM     79  C   UNL A   1      33.521  29.370  27.390  1.00  0.00     0.261 C 
BRANCH  79  80
ATOM     80  O   UNL A   1      32.795  29.001  26.212  1.00  0.00    -0.463 OA
BRANCH  80  81
ATOM     81  C   UNL A   1      31.927  29.877  25.637  1.00  0.00     0.309 C 
ATOM     82  O   UNL A   1      31.588  30.955  26.099  1.00  0.00    -0.252 OA
BRANCH  81  83
ATOM     83  C   UNL A   1      31.597  29.387  24.235  1.00  0.00     0.100 C 
ATOM     84  C   UNL A   1      30.147  29.480  23.779  1.00  0.00     0.016 C 
ATOM     85  C   UNL A   1      32.024  27.930  23.971  1.00  0.00     0.024 C 
ATOM     86  C   UNL A   1      30.083  28.440  22.663  1.00  0.00     0.010 C 
ATOM     87  C   UNL A   1      30.842  27.256  23.250  1.00  0.00    -0.009 C 
ATOM     88  C   UNL A   1      31.303  26.203  22.218  1.00  0.00     0.030 C 
ATOM     89  C   UNL A   1      30.023  26.433  24.250  1.00  0.00     0.130 C 
ATOM     90  C   UNL A   1      31.198  24.853  22.937  1.00  0.00     0.124 C 
ATOM     91  N   UNL A   1      30.761  25.191  24.277  1.00  0.00    -0.308 N 
BRANCH  91  92
ATOM     92  C   UNL A   1      31.327  24.714  25.432  1.00  0.00     0.410 C 
ATOM     93  O   UNL A   1      30.853  24.918  26.559  1.00  0.00    -0.224 OA
BRANCH  92  94
ATOM     94  O   UNL A   1      32.477  24.045  25.204  1.00  0.00    -0.445 OA
BRANCH  94  95
ATOM     95  C   UNL A   1      32.786  22.967  26.097  1.00  0.00     0.270 C 
BRANCH  95  96
ATOM     96  C   UNL A   1      32.717  21.630  25.388  1.00  0.00    -0.011 A 
ATOM     97  C   UNL A   1      33.060  20.429  26.028  1.00  0.00     0.007 A 
ATOM     98  C   UNL A   1      32.357  21.585  24.032  1.00  0.00     0.007 A 
ATOM     99  C   UNL A   1      33.033  19.217  25.336  1.00  0.00     0.000 A 
ATOM    100  C   UNL A   1      32.326  20.370  23.342  1.00  0.00     0.000 A 
ATOM    101  C   UNL A   1      32.667  19.188  23.992  1.00  0.00     0.000 A 
ENDBRANCH  95  96
ENDBRANCH  94  95
ENDBRANCH  92  94
ENDBRANCH  91  92
ENDBRANCH  81  83
ENDBRANCH  80  81
ENDBRANCH  79  80
ENDBRANCH  78  79
ENDBRANCH  77  78
ENDBRANCH  76  77
ENDBRANCH   1  76
TORSDOF 27
ENDMDL
MODEL 2
REMARK VINA RESULT:      -9.1      2.793      3.328
REMARK SMILES O=C(OCCOCCOCCOCCOC(=O)[C@@H]1CC[C@@]2(CCN(C(=O)OCc3ccccc3)C2)C1)c1ccc(-c2c3nc(c(-c4cc(S(=O)(=O)[O-])ccc4F)c4ccc([nH]4)c(-c4cc(S(=O)(=O)[O-])ccc4F)c4nc(c(-c5cc(S(=O)(=O)[O-])ccc5F)c5ccc2[nH]5)C=C4)C=C3)cc1
REMARK SMILES IDX 10 1 9 2 8 3 7 4 6 5 5 6 4 7 3 8 2 9 1 10 37 11 38 12 99 13
REMARK SMILES IDX 39 14 98 15 40 16 41 17 42 18 92 19 43 20 97 21 91 22 93 23
REMARK SMILES IDX 44 24 96 25 90 26 89 27 45 29 77 30 57 31 76 32 58 33 61 34
REMARK SMILES IDX 75 35 94 36 59 37 60 38 74 40 95 41 62 42 46 43 47 44 55 45
REMARK SMILES IDX 48 46 54 47 56 48 53 49 49 50 50 51 51 52 52 53 78 54 79 55
REMARK SMILES IDX 87 56 80 57 86 58 88 59 85 60 81 61 82 62 83 63 84 64 63 65
REMARK SMILES IDX 64 66 72 67 65 68 71 69 73 70 70 71 66 72 67 73 68 74 69 75
REMARK SMILES IDX 11 76 12 77 13 78 14 79 15 80 16 81 17 82 18 83 19 84 36 85
REMARK SMILES IDX 20 86 21 87 22 88 35 89 23 90 24 91 25 92 26 93 27 94 28 95
REMARK SMILES IDX 29 96 30 97 34 98 31 99 33 100 32 101
REMARK H PARENT 93 28 61 39
REMARK Flexibility Score: inf
ROOT
ATOM      1  C   UNL A   1      36.106  32.084  28.320  1.00  0.00     0.188 C 
ENDROOT
BRANCH   1   2
ATOM      2  O   UNL A   1      35.273  33.168  28.721  1.00  0.00    -0.377 OA
BRANCH   2   3
ATOM      3  C   UNL A   1      33.918  33.126  28.268  1.00  0.00     0.188 C 
BRANCH   3   4
ATOM      4  C   UNL A   1      33.195  34.468  28.349  1.00  0.00     0.188 C 
BRANCH   4   5
ATOM      5  O   UNL A   1      32.685  34.680  29.665  1.00  0.00    -0.376 OA
BRANCH   5   6
ATOM      6  C   UNL A   1      32.951  35.964  30.234  1.00  0.00     0.202 C 
BRANCH   6   7
ATOM      7  C   UNL A   1      32.601  36.070  31.715  1.00  0.00     0.261 C 
BRANCH   7   8
ATOM      8  O   UNL A   1      33.288  35.087  32.497  1.00  0.00    -0.460 OA
BRANCH   8   9
ATOM      9  C   UNL A   1      34.401  35.274  33.251  1.00  0.00     0.338 C 
ATOM     10  O   UNL A   1      34.408  36.231  34.027  1.00  0.00    -0.246 OA
BRANCH   9  11
ATOM     11  C   UNL A   1      35.631  34.414  33.195  1.00  0.00     0.060 A 
ATOM     12  C   UNL A   1      35.754  33.109  33.685  1.00  0.00     0.016 A 
ATOM     13  C   UNL A   1      36.739  34.957  32.522  1.00  0.00     0.016 A 
ATOM     14  C   UNL A   1      36.910  32.364  33.528  1.00  0.00     0.010 A 
ATOM     15  C   UNL A   1      37.925  34.233  32.388  1.00  0.00     0.010 A 
ATOM     16  C   UNL A   1      38.012  32.941  32.917  1.00  0.00    -0.014 A 
BRANCH  16  17
ATOM     17  C   UNL A   1      39.310  32.284  33.118  1.00  0.00     0.031 A 
ATOM     18  C   UNL A   1      39.781  31.392  32.013  1.00  0.00     0.074 A 
ATOM     19  C   UNL A   1      40.075  32.584  34.177  1.00  0.00     0.049 A 
ATOM     20  N   UNL A   1      40.778  30.557  31.983  1.00  0.00    -0.248 NA
ATOM     21  C   UNL A   1      39.007  31.461  30.762  1.00  0.00     0.031 C 
ATOM     22  C   UNL A   1      39.758  33.595  35.185  1.00  0.00     0.029 A 
ATOM     23  N   UNL A   1      41.276  32.068  34.577  1.00  0.00    -0.354 N 
ATOM     24  C   UNL A   1      40.722  29.960  30.728  1.00  0.00     0.074 A 
ATOM     25  C   UNL A   1      39.598  30.537  30.027  1.00  0.00     0.031 C 
ATOM     26  C   UNL A   1      40.732  33.603  36.111  1.00  0.00     0.029 A 
ATOM     27  C   UNL A   1      41.686  32.543  35.799  1.00  0.00     0.049 A 
ATOM     28  H   UNL A   1      41.794  31.423  34.043  1.00  0.00     0.167 HD
ATOM     29  C   UNL A   1      41.531  28.994  30.234  1.00  0.00     0.034 A 
ATOM     30  C   UNL A   1      42.676  32.100  36.598  1.00  0.00     0.034 A 
ATOM     31  C   UNL A   1      42.612  28.443  31.010  1.00  0.00     0.049 A 
ATOM     32  C   UNL A   1      43.494  30.934  36.099  1.00  0.00     0.074 A 
ATOM     33  C   UNL A   1      43.462  27.398  30.709  1.00  0.00     0.029 A 
ATOM     34  N   UNL A   1      42.976  28.906  32.275  1.00  0.00    -0.354 N 
ATOM     35  N   UNL A   1      43.380  30.277  34.963  1.00  0.00    -0.248 NA
ATOM     36  C   UNL A   1      44.555  30.438  36.979  1.00  0.00     0.031 C 
ATOM     37  C   UNL A   1      44.292  27.187  31.818  1.00  0.00     0.029 A 
ATOM     38  C   UNL A   1      44.019  28.153  32.778  1.00  0.00     0.049 A 
ATOM     39  H   UNL A   1      42.550  29.661  32.741  1.00  0.00     0.167 HD
ATOM     40  C   UNL A   1      44.371  29.302  34.981  1.00  0.00     0.074 A 
ATOM     41  C   UNL A   1      45.073  29.462  36.243  1.00  0.00     0.031 C 
ATOM     42  C   UNL A   1      44.682  28.365  34.048  1.00  0.00     0.034 A 
BRANCH  29  43
ATOM     43  C   UNL A   1      41.150  28.419  28.890  1.00  0.00     0.023 A 
ATOM     44  C   UNL A   1      40.424  27.218  28.769  1.00  0.00     0.031 A 
ATOM     45  C   UNL A   1      41.669  28.989  27.713  1.00  0.00     0.131 A 
ATOM     46  C   UNL A   1      40.352  26.566  27.527  1.00  0.00     0.055 A 
ATOM     47  C   UNL A   1      41.505  28.386  26.465  1.00  0.00     0.041 A 
ATOM     48  F   UNL A   1      42.400  30.113  27.765  1.00  0.00    -0.206 F 
ATOM     49  C   UNL A   1      40.867  27.153  26.369  1.00  0.00     0.022 A 
BRANCH  46  50
ATOM     50  S   UNL A   1      39.784  24.840  27.487  1.00  0.00     0.124 S 
ATOM     51  O   UNL A   1      41.032  24.112  27.707  1.00  0.00    -0.237 OA
ATOM     52  O   UNL A   1      38.820  24.798  28.580  1.00  0.00    -0.237 OA
ATOM     53  O   UNL A   1      39.217  24.695  26.148  1.00  0.00    -0.744 OA
ENDBRANCH  46  50
ENDBRANCH  29  43
BRANCH  30  54
ATOM     54  C   UNL A   1      42.854  32.682  37.960  1.00  0.00     0.023 A 
ATOM     55  C   UNL A   1      42.189  32.163  39.081  1.00  0.00     0.031 A 
ATOM     56  C   UNL A   1      43.725  33.772  38.161  1.00  0.00     0.131 A 
ATOM     57  C   UNL A   1      42.401  32.739  40.348  1.00  0.00     0.055 A 
ATOM     58  C   UNL A   1      43.965  34.309  39.425  1.00  0.00     0.041 A 
ATOM     59  F   UNL A   1      44.384  34.314  37.124  1.00  0.00    -0.206 F 
ATOM     60  C   UNL A   1      43.297  33.795  40.530  1.00  0.00     0.022 A 
BRANCH  57  61
ATOM     61  S   UNL A   1      41.454  32.111  41.764  1.00  0.00     0.124 S 
ATOM     62  O   UNL A   1      42.221  30.927  42.134  1.00  0.00    -0.237 OA
ATOM     63  O   UNL A   1      41.518  33.235  42.693  1.00  0.00    -0.237 OA
ATOM     64  O   UNL A   1      40.132  31.846  41.200  1.00  0.00    -0.744 OA
ENDBRANCH  57  61
ENDBRANCH  30  54
BRANCH  42  65
ATOM     65  C   UNL A   1      45.871  27.490  34.336  1.00  0.00     0.023 A 
ATOM     66  C   UNL A   1      47.172  27.864  33.966  1.00  0.00     0.031 A 
ATOM     67  C   UNL A   1      45.692  26.291  35.049  1.00  0.00     0.131 A 
ATOM     68  C   UNL A   1      48.248  27.028  34.290  1.00  0.00     0.055 A 
ATOM     69  C   UNL A   1      46.772  25.491  35.414  1.00  0.00     0.041 A 
ATOM     70  F   UNL A   1      44.464  25.899  35.425  1.00  0.00    -0.206 F 
ATOM     71  C   UNL A   1      48.059  25.856  35.029  1.00  0.00     0.022 A 
BRANCH  68  72
ATOM     72  S   UNL A   1      49.902  27.469  33.693  1.00  0.00     0.124 S 
ATOM     73  O   UNL A   1      50.432  26.172  33.287  1.00  0.00    -0.237 OA
ATOM     74  O   UNL A   1      49.607  28.405  32.614  1.00  0.00    -0.237 OA
ATOM     75  O   UNL A   1      50.542  28.061  34.867  1.00  0.00    -0.744 OA
ENDBRANCH  68  72
ENDBRANCH  42  65
ENDBRANCH  16  17
ENDBRANCH   9  11
ENDBRANCH   8   9
ENDBRANCH   7   8
ENDBRANCH   6   7
ENDBRANCH   5   6
ENDBRANCH   4   5
ENDBRANCH   3   4
ENDBRANCH   2   3
ENDBRANCH   1   2
BRANCH   1  76
ATOM     76  C   UNL A   1      35.519  30.661  28.344  1.00  0.00     0.188 C 
BRANCH  76  77
ATOM     77  O   UNL A   1      34.863  30.324  27.137  1.00  0.00    -0.376 OA
BRANCH  77  78
ATOM     78  C   UNL A   1      34.455  28.970  26.981  1.00  0.00     0.202 C 
BRANCH  78  79
ATOM     79  C   UNL A   1      33.032  28.544  27.415  1.00  0.00     0.261 C 
BRANCH  79  80
ATOM     80  O   UNL A   1      32.279  27.878  26.394  1.00  0.00    -0.463 OA
BRANCH  80  81
ATOM     81  C   UNL A   1      31.744  28.585  25.362  1.00  0.00     0.309 C 
ATOM     82  O   UNL A   1      31.442  29.768  25.387  1.00  0.00    -0.252 OA
BRANCH  81  83
ATOM     83  C   UNL A   1      31.765  27.717  24.113  1.00  0.00     0.100 C 
ATOM     84  C   UNL A   1      30.462  27.562  23.341  1.00  0.00     0.016 C 
ATOM     85  C   UNL A   1      32.275  26.284  24.362  1.00  0.00     0.024 C 
ATOM     86  C   UNL A   1      30.686  26.263  22.569  1.00  0.00     0.010 C 
ATOM     87  C   UNL A   1      31.311  25.345  23.613  1.00  0.00    -0.009 C 
ATOM     88  C   UNL A   1      32.026  24.101  23.040  1.00  0.00     0.030 C 
ATOM     89  C   UNL A   1      30.298  24.747  24.595  1.00  0.00     0.130 C 
ATOM     90  C   UNL A   1      31.784  22.985  24.062  1.00  0.00     0.124 C 
ATOM     91  N   UNL A   1      31.037  23.624  25.126  1.00  0.00    -0.308 N 
BRANCH  91  92
ATOM     92  C   UNL A   1      31.324  23.519  26.463  1.00  0.00     0.410 C 
ATOM     93  O   UNL A   1      30.462  23.343  27.334  1.00  0.00    -0.224 OA
BRANCH  92  94
ATOM     94  O   UNL A   1      32.641  23.678  26.720  1.00  0.00    -0.445 OA
BRANCH  94  95
ATOM     95  C   UNL A   1      33.408  22.484  26.923  1.00  0.00     0.270 C 
BRANCH  95  96
ATOM     96  C   UNL A   1      34.650  22.477  26.056  1.00  0.00    -0.011 A 
ATOM     97  C   UNL A   1      35.519  21.376  26.008  1.00  0.00     0.007 A 
ATOM     98  C   UNL A   1      34.984  23.623  25.317  1.00  0.00     0.007 A 
ATOM     99  C   UNL A   1      36.681  21.415  25.237  1.00  0.00     0.000 A 
ATOM    100  C   UNL A   1      36.146  23.659  24.542  1.00  0.00     0.000 A 
ATOM    101  C   UNL A   1      36.996  22.557  24.504  1.00  0.00     0.000 A 
ENDBRANCH  95  96
ENDBRANCH  94  95
ENDBRANCH  92  94
ENDBRANCH  91  92
ENDBRANCH  81  83
ENDBRANCH  80  81
ENDBRANCH  79  80
ENDBRANCH  78  79
ENDBRANCH  77  78
ENDBRANCH  76  77
ENDBRANCH   1  76
TORSDOF 27
ENDMDL
MODEL 3
REMARK VINA RESULT:      -8.9      5.819      9.858
REMARK SMILES O=C(OCCOCCOCCOCCOC(=O)[C@@H]1CC[C@@]2(CCN(C(=O)OCc3ccccc3)C2)C1)c1ccc(-c2c3nc(c(-c4cc(S(=O)(=O)[O-])ccc4F)c4ccc([nH]4)c(-c4cc(S(=O)(=O)[O-])ccc4F)c4nc(c(-c5cc(S(=O)(=O)[O-])ccc5F)c5ccc2[nH]5)C=C4)C=C3)cc1
REMARK SMILES IDX 10 1 9 2 8 3 7 4 6 5 5 6 4 7 3 8 2 9 1 10 37 11 38 12 99 13
REMARK SMILES IDX 39 14 98 15 40 16 41 17 42 18 92 19 43 20 97 21 91 22 93 23
REMARK SMILES IDX 44 24 96 25 90 26 89 27 45 29 77 30 57 31 76 32 58 33 61 34
REMARK SMILES IDX 75 35 94 36 59 37 60 38 74 40 95 41 62 42 46 43 47 44 55 45
REMARK SMILES IDX 48 46 54 47 56 48 53 49 49 50 50 51 51 52 52 53 78 54 79 55
REMARK SMILES IDX 87 56 80 57 86 58 88 59 85 60 81 61 82 62 83 63 84 64 63 65
REMARK SMILES IDX 64 66 72 67 65 68 71 69 73 70 70 71 66 72 67 73 68 74 69 75
REMARK SMILES IDX 11 76 12 77 13 78 14 79 15 80 16 81 17 82 18 83 19 84 36 85
REMARK SMILES IDX 20 86 21 87 22 88 35 89 23 90 24 91 25 92 26 93 27 94 28 95
REMARK SMILES IDX 29 96 30 97 34 98 31 99 33 100 32 101
REMARK H PARENT 93 28 61 39
REMARK Flexibility Score: inf
ROOT
ATOM      1  C   UNL A   1      38.120  30.181  29.232  1.00  0.00     0.188 C 
ENDROOT
BRANCH   1   2
ATOM      2  O   UNL A   1      37.094  30.494  28.294  1.00  0.00    -0.377 OA
BRANCH   2   3
ATOM      3  C   UNL A   1      36.536  31.807  28.381  1.00  0.00     0.188 C 
BRANCH   3   4
ATOM      4  C   UNL A   1      36.523  32.383  29.795  1.00  0.00     0.188 C 
BRANCH   4   5
ATOM      5  O   UNL A   1      35.226  32.245  30.375  1.00  0.00    -0.376 OA
BRANCH   5   6
ATOM      6  C   UNL A   1      34.881  33.222  31.361  1.00  0.00     0.202 C 
BRANCH   6   7
ATOM      7  C   UNL A   1      35.015  32.728  32.797  1.00  0.00     0.261 C 
BRANCH   7   8
ATOM      8  O   UNL A   1      36.133  33.326  33.463  1.00  0.00    -0.460 OA
BRANCH   8   9
ATOM      9  C   UNL A   1      37.007  32.716  34.302  1.00  0.00     0.338 C 
ATOM     10  O   UNL A   1      36.744  32.727  35.506  1.00  0.00    -0.246 OA
BRANCH   9  11
ATOM     11  C   UNL A   1      38.283  32.046  33.876  1.00  0.00     0.060 A 
ATOM     12  C   UNL A   1      39.569  32.339  34.341  1.00  0.00     0.016 A 
ATOM     13  C   UNL A   1      38.150  30.976  32.973  1.00  0.00     0.016 A 
ATOM     14  C   UNL A   1      40.684  31.620  33.941  1.00  0.00     0.010 A 
ATOM     15  C   UNL A   1      39.269  30.266  32.532  1.00  0.00     0.010 A 
ATOM     16  C   UNL A   1      40.539  30.610  33.003  1.00  0.00    -0.014 A 
BRANCH  16  17
ATOM     17  C   UNL A   1      41.756  30.150  32.323  1.00  0.00     0.031 A 
ATOM     18  C   UNL A   1      42.361  28.879  32.830  1.00  0.00     0.074 A 
ATOM     19  C   UNL A   1      42.210  30.774  31.227  1.00  0.00     0.049 A 
ATOM     20  N   UNL A   1      43.509  28.332  32.555  1.00  0.00    -0.248 NA
ATOM     21  C   UNL A   1      41.540  28.119  33.789  1.00  0.00     0.031 C 
ATOM     22  C   UNL A   1      41.550  31.901  30.567  1.00  0.00     0.029 A 
ATOM     23  N   UNL A   1      43.328  30.547  30.475  1.00  0.00    -0.354 N 
ATOM     24  C   UNL A   1      43.573  27.190  33.345  1.00  0.00     0.074 A 
ATOM     25  C   UNL A   1      42.345  27.120  34.102  1.00  0.00     0.031 C 
ATOM     26  C   UNL A   1      42.298  32.288  29.520  1.00  0.00     0.029 A 
ATOM     27  C   UNL A   1      43.521  31.491  29.497  1.00  0.00     0.049 A 
ATOM     28  H   UNL A   1      43.934  29.784  30.621  1.00  0.00     0.167 HD
ATOM     29  C   UNL A   1      44.593  26.304  33.438  1.00  0.00     0.034 A 
ATOM     30  C   UNL A   1      44.608  31.719  28.733  1.00  0.00     0.034 A 
ATOM     31  C   UNL A   1      45.803  26.461  32.674  1.00  0.00     0.049 A 
ATOM     32  C   UNL A   1      45.794  30.807  28.934  1.00  0.00     0.074 A 
ATOM     33  C   UNL A   1      46.968  25.722  32.717  1.00  0.00     0.029 A 
ATOM     34  N   UNL A   1      45.998  27.463  31.722  1.00  0.00    -0.354 N 
ATOM     35  N   UNL A   1      45.918  29.792  29.762  1.00  0.00    -0.248 NA
ATOM     36  C   UNL A   1      46.983  31.071  28.120  1.00  0.00     0.031 C 
ATOM     37  C   UNL A   1      47.886  26.317  31.842  1.00  0.00     0.029 A 
ATOM     38  C   UNL A   1      47.270  27.377  31.190  1.00  0.00     0.049 A 
ATOM     39  H   UNL A   1      45.324  28.134  31.467  1.00  0.00     0.167 HD
ATOM     40  C   UNL A   1      47.193  29.278  29.554  1.00  0.00     0.074 A 
ATOM     41  C   UNL A   1      47.795  30.100  28.519  1.00  0.00     0.031 C 
ATOM     42  C   UNL A   1      47.813  28.228  30.152  1.00  0.00     0.034 A 
BRANCH  29  43
ATOM     43  C   UNL A   1      44.457  25.229  34.491  1.00  0.00     0.023 A 
ATOM     44  C   UNL A   1      44.836  25.443  35.830  1.00  0.00     0.031 A 
ATOM     45  C   UNL A   1      44.105  23.921  34.113  1.00  0.00     0.131 A 
ATOM     46  C   UNL A   1      44.980  24.349  36.700  1.00  0.00     0.055 A 
ATOM     47  C   UNL A   1      44.151  22.854  35.013  1.00  0.00     0.041 A 
ATOM     48  F   UNL A   1      43.768  23.644  32.844  1.00  0.00    -0.206 F 
ATOM     49  C   UNL A   1      44.616  23.059  36.308  1.00  0.00     0.022 A 
BRANCH  46  50
ATOM     50  S   UNL A   1      45.863  24.601  38.269  1.00  0.00     0.124 S 
ATOM     51  O   UNL A   1      44.906  25.411  39.021  1.00  0.00    -0.237 OA
ATOM     52  O   UNL A   1      46.057  23.237  38.745  1.00  0.00    -0.237 OA
ATOM     53  O   UNL A   1      47.080  25.303  37.870  1.00  0.00    -0.744 OA
ENDBRANCH  46  50
ENDBRANCH  29  43
BRANCH  30  54
ATOM     54  C   UNL A   1      44.647  32.901  27.824  1.00  0.00     0.023 A 
ATOM     55  C   UNL A   1      45.152  34.142  28.242  1.00  0.00     0.031 A 
ATOM     56  C   UNL A   1      44.190  32.793  26.495  1.00  0.00     0.131 A 
ATOM     57  C   UNL A   1      45.181  35.223  27.342  1.00  0.00     0.055 A 
ATOM     58  C   UNL A   1      44.263  33.856  25.594  1.00  0.00     0.041 A 
ATOM     59  F   UNL A   1      43.692  31.632  26.041  1.00  0.00    -0.206 F 
ATOM     60  C   UNL A   1      44.757  35.084  26.018  1.00  0.00     0.022 A 
BRANCH  57  61
ATOM     61  S   UNL A   1      45.747  36.843  27.937  1.00  0.00     0.124 S 
ATOM     62  O   UNL A   1      45.333  36.806  29.335  1.00  0.00    -0.237 OA
ATOM     63  O   UNL A   1      47.183  36.771  27.690  1.00  0.00    -0.237 OA
ATOM     64  O   UNL A   1      45.017  37.789  27.096  1.00  0.00    -0.744 OA
ENDBRANCH  57  61
ENDBRANCH  30  54
BRANCH  42  65
ATOM     65  C   UNL A   1      49.185  27.875  29.649  1.00  0.00     0.023 A 
ATOM     66  C   UNL A   1      49.377  26.966  28.597  1.00  0.00     0.031 A 
ATOM     67  C   UNL A   1      50.311  28.514  30.200  1.00  0.00     0.131 A 
ATOM     68  C   UNL A   1      50.676  26.700  28.144  1.00  0.00     0.055 A 
ATOM     69  C   UNL A   1      51.594  28.284  29.709  1.00  0.00     0.041 A 
ATOM     70  F   UNL A   1      50.171  29.393  31.206  1.00  0.00    -0.206 F 
ATOM     71  C   UNL A   1      51.781  27.367  28.678  1.00  0.00     0.022 A 
BRANCH  68  72
ATOM     72  S   UNL A   1      50.909  25.431  26.870  1.00  0.00     0.124 S 
ATOM     73  O   UNL A   1      50.445  26.118  25.670  1.00  0.00    -0.237 OA
ATOM     74  O   UNL A   1      52.343  25.171  26.945  1.00  0.00    -0.237 OA
ATOM     75  O   UNL A   1      50.058  24.332  27.324  1.00  0.00    -0.744 OA
ENDBRANCH  68  72
ENDBRANCH  42  65
ENDBRANCH  16  17
ENDBRANCH   9  11
ENDBRANCH   8   9
ENDBRANCH   7   8
ENDBRANCH   6   7
ENDBRANCH   5   6
ENDBRANCH   4   5
ENDBRANCH   3   4
ENDBRANCH   2   3
ENDBRANCH   1   2
BRANCH   1  76
ATOM     76  C   UNL A   1      39.366  29.428  28.732  1.00  0.00     0.188 C 
BRANCH  76  77
ATOM     77  O   UNL A   1      39.362  28.063  29.106  1.00  0.00    -0.376 OA
BRANCH  77  78
ATOM     78  C   UNL A   1      39.400  27.106  28.054  1.00  0.00     0.202 C 
BRANCH  78  79
ATOM     79  C   UNL A   1      40.515  26.032  28.035  1.00  0.00     0.261 C 
BRANCH  79  80
ATOM     80  O   UNL A   1      41.819  26.542  27.733  1.00  0.00    -0.463 OA
BRANCH  80  81
ATOM     81  C   UNL A   1      42.605  27.047  28.722  1.00  0.00     0.309 C 
ATOM     82  O   UNL A   1      42.437  26.887  29.921  1.00  0.00    -0.252 OA
BRANCH  81  83
ATOM     83  C   UNL A   1      43.839  27.676  28.091  1.00  0.00     0.100 C 
ATOM     84  C   UNL A   1      43.643  28.485  26.817  1.00  0.00     0.016 C 
ATOM     85  C   UNL A   1      44.957  26.665  27.775  1.00  0.00     0.024 C 
ATOM     86  C   UNL A   1      45.035  28.460  26.190  1.00  0.00     0.010 C 
ATOM     87  C   UNL A   1      45.463  27.007  26.361  1.00  0.00    -0.009 C 
ATOM     88  C   UNL A   1      46.978  26.753  26.199  1.00  0.00     0.030 C 
ATOM     89  C   UNL A   1      44.836  26.054  25.338  1.00  0.00     0.130 C 
ATOM     90  C   UNL A   1      47.093  25.373  25.541  1.00  0.00     0.124 C 
ATOM     91  N   UNL A   1      45.723  24.916  25.420  1.00  0.00    -0.308 N 
BRANCH  91  92
ATOM     92  C   UNL A   1      45.271  23.676  25.792  1.00  0.00     0.410 C 
ATOM     93  O   UNL A   1      45.647  23.094  26.819  1.00  0.00    -0.224 OA
BRANCH  92  94
ATOM     94  O   UNL A   1      44.414  23.148  24.892  1.00  0.00    -0.445 OA
BRANCH  94  95
ATOM     95  C   UNL A   1      43.015  23.336  25.145  1.00  0.00     0.270 C 
BRANCH  95  96
ATOM     96  C   UNL A   1      42.455  22.208  25.987  1.00  0.00    -0.011 A 
ATOM     97  C   UNL A   1      42.713  20.861  25.692  1.00  0.00     0.007 A 
ATOM     98  C   UNL A   1      41.603  22.505  27.062  1.00  0.00     0.007 A 
ATOM     99  C   UNL A   1      42.145  19.840  26.457  1.00  0.00     0.000 A 
ATOM    100  C   UNL A   1      41.038  21.483  27.829  1.00  0.00     0.000 A 
ATOM    101  C   UNL A   1      41.306  20.151  27.525  1.00  0.00     0.000 A 
ENDBRANCH  95  96
ENDBRANCH  94  95
ENDBRANCH  92  94
ENDBRANCH  91  92
ENDBRANCH  81  83
ENDBRANCH  80  81
ENDBRANCH  79  80
ENDBRANCH  78  79
ENDBRANCH  77  78
ENDBRANCH  76  77
ENDBRANCH   1  76
TORSDOF 27
ENDMDL
