MODEL 1
REMARK VINA RESULT:      -9.3      0.000      0.000
REMARK SMILES CC(C)Cc1cc2c(cc1Cl)C=C(C(=O)OCCOCCOCCOCCOC(=O)c1ccc(-c3c4nc(c(-c5cc(S(=O)(=O)[O-])ccc5F)c5ccc([nH]5)c(-c5cc(S(=O)(=O)[O-])ccc5F)c5nc(c(-c6cc(S(=O)(=O)[O-])ccc6F)c6ccc3[nH]6)C=C5)C=C4)cc1)[C@H](C(F)(F)F)O2
REMARK SMILES IDX 23 1 22 2 21 3 20 4 19 5 18 6 17 7 16 8 14 9 15 10 13 11
REMARK SMILES IDX 5 12 6 13 10 14 7 15 9 16 11 17 8 18 99 19 12 20 94 21 4 22
REMARK SMILES IDX 2 23 1 24 3 25 95 26 96 27 97 28 98 29 24 30 25 31 26 32
REMARK SMILES IDX 27 33 28 34 29 35 30 36 31 37 32 38 93 39 33 40 92 41 34 42
REMARK SMILES IDX 35 43 36 44 86 45 37 46 91 47 85 48 87 49 38 50 90 51 84 52
REMARK SMILES IDX 83 53 39 55 71 56 51 57 70 58 52 59 55 60 69 61 88 62 53 63
REMARK SMILES IDX 54 64 68 66 89 67 56 68 40 69 41 70 49 71 42 72 48 73 50 74
REMARK SMILES IDX 47 75 43 76 44 77 45 78 46 79 72 80 73 81 81 82 74 83 80 84
REMARK SMILES IDX 82 85 79 86 75 87 76 88 77 89 78 90 57 91 58 92 66 93 59 94
REMARK SMILES IDX 65 95 67 96 64 97 60 98 61 99 62 100 63 101
REMARK H PARENT 87 54 55 65
REMARK Flexibility Score: inf
ROOT
ATOM      1  C   UNL A   1      36.511  21.591  24.518  1.00  0.00     0.188 C 
ENDROOT
BRANCH   1   2
ATOM      2  O   UNL A   1      35.295  22.277  24.766  1.00  0.00    -0.377 OA
BRANCH   2   3
ATOM      3  C   UNL A   1      34.213  22.060  23.873  1.00  0.00     0.188 C 
BRANCH   3   4
ATOM      4  C   UNL A   1      32.824  21.570  24.332  1.00  0.00     0.188 C 
BRANCH   4   5
ATOM      5  O   UNL A   1      32.735  21.189  25.702  1.00  0.00    -0.376 OA
BRANCH   5   6
ATOM      6  C   UNL A   1      32.529  22.219  26.658  1.00  0.00     0.202 C 
BRANCH   6   7
ATOM      7  C   UNL A   1      31.708  23.394  26.116  1.00  0.00     0.261 C 
BRANCH   7   8
ATOM      8  O   UNL A   1      32.098  24.667  26.655  1.00  0.00    -0.460 OA
BRANCH   8   9
ATOM      9  C   UNL A   1      33.049  25.334  25.979  1.00  0.00     0.338 C 
ATOM     10  O   UNL A   1      34.189  24.954  25.769  1.00  0.00    -0.246 OA
BRANCH   9  11
ATOM     11  C   UNL A   1      32.458  26.535  25.365  1.00  0.00     0.087 C 
ATOM     12  C   UNL A   1      29.527  29.487  22.565  1.00  0.00    -0.025 A 
ATOM     13  C   UNL A   1      30.900  29.470  22.879  1.00  0.00     0.052 A 
ATOM     14  C   UNL A   1      28.679  28.570  23.209  1.00  0.00     0.045 A 
ATOM     15  C   UNL A   1      31.420  28.512  23.748  1.00  0.00     0.128 A 
ATOM     16  C   UNL A   1      29.203  27.606  24.072  1.00  0.00     0.032 A 
ATOM     17  Cl  UNL A   1      26.973  28.530  22.925  1.00  0.00    -0.084 Cl
ATOM     18  C   UNL A   1      30.578  27.554  24.311  1.00  0.00     0.019 A 
ATOM     19  O   UNL A   1      32.781  28.502  23.920  1.00  0.00    -0.475 OA
ATOM     20  C   UNL A   1      31.165  26.437  25.030  1.00  0.00     0.027 C 
ATOM     21  C   UNL A   1      33.288  27.761  25.075  1.00  0.00     0.316 C 
BRANCH  12  22
ATOM     22  C   UNL A   1      29.059  30.408  21.459  1.00  0.00     0.040 C 
BRANCH  22  23
ATOM     23  C   UNL A   1      28.125  31.524  21.982  1.00  0.00    -0.013 C 
ATOM     24  C   UNL A   1      28.694  32.258  23.200  1.00  0.00     0.008 C 
ATOM     25  C   UNL A   1      27.837  32.533  20.869  1.00  0.00     0.008 C 
ENDBRANCH  22  23
ENDBRANCH  12  22
BRANCH  21  26
ATOM     26  C   UNL A   1      33.478  28.741  26.254  1.00  0.00     0.430 C 
ATOM     27  F   UNL A   1      34.633  28.511  26.921  1.00  0.00    -0.167 F 
ATOM     28  F   UNL A   1      33.475  30.032  25.861  1.00  0.00    -0.167 F 
ATOM     29  F   UNL A   1      32.468  28.610  27.150  1.00  0.00    -0.167 F 
ENDBRANCH  21  26
ENDBRANCH   9  11
ENDBRANCH   8   9
ENDBRANCH   7   8
ENDBRANCH   6   7
ENDBRANCH   5   6
ENDBRANCH   4   5
ENDBRANCH   3   4
ENDBRANCH   2   3
ENDBRANCH   1   2
BRANCH   1  30
ATOM     30  C   UNL A   1      37.688  22.211  25.290  1.00  0.00     0.188 C 
BRANCH  30  31
ATOM     31  O   UNL A   1      38.838  21.364  25.294  1.00  0.00    -0.376 OA
BRANCH  31  32
ATOM     32  C   UNL A   1      39.750  21.548  26.372  1.00  0.00     0.202 C 
BRANCH  32  33
ATOM     33  C   UNL A   1      41.173  22.036  26.054  1.00  0.00     0.261 C 
BRANCH  33  34
ATOM     34  O   UNL A   1      41.412  23.451  26.137  1.00  0.00    -0.460 OA
BRANCH  34  35
ATOM     35  C   UNL A   1      42.598  23.949  25.722  1.00  0.00     0.338 C 
ATOM     36  O   UNL A   1      43.310  23.510  24.838  1.00  0.00    -0.246 OA
BRANCH  35  37
ATOM     37  C   UNL A   1      42.767  25.254  26.404  1.00  0.00     0.060 A 
ATOM     38  C   UNL A   1      42.825  26.433  25.657  1.00  0.00     0.016 A 
ATOM     39  C   UNL A   1      42.951  25.288  27.792  1.00  0.00     0.016 A 
ATOM     40  C   UNL A   1      43.054  27.652  26.301  1.00  0.00     0.010 A 
ATOM     41  C   UNL A   1      43.194  26.508  28.433  1.00  0.00     0.010 A 
ATOM     42  C   UNL A   1      43.230  27.700  27.694  1.00  0.00    -0.014 A 
BRANCH  42  43
ATOM     43  C   UNL A   1      43.241  29.014  28.385  1.00  0.00     0.031 A 
ATOM     44  C   UNL A   1      42.014  29.611  29.004  1.00  0.00     0.074 A 
ATOM     45  C   UNL A   1      44.414  29.675  28.436  1.00  0.00     0.049 A 
ATOM     46  N   UNL A   1      41.909  30.707  29.712  1.00  0.00    -0.248 NA
ATOM     47  C   UNL A   1      40.745  28.899  28.804  1.00  0.00     0.031 C 
ATOM     48  C   UNL A   1      45.659  29.192  27.839  1.00  0.00     0.029 A 
ATOM     49  N   UNL A   1      44.756  30.874  29.006  1.00  0.00    -0.354 N 
ATOM     50  C   UNL A   1      40.569  30.810  30.066  1.00  0.00     0.074 A 
ATOM     51  C   UNL A   1      39.892  29.686  29.451  1.00  0.00     0.031 C 
ATOM     52  C   UNL A   1      46.633  30.078  28.085  1.00  0.00     0.029 A 
ATOM     53  C   UNL A   1      46.079  31.205  28.832  1.00  0.00     0.049 A 
ATOM     54  H   UNL A   1      44.117  31.444  29.492  1.00  0.00     0.167 HD
ATOM     55  C   UNL A   1      39.975  31.748  30.846  1.00  0.00     0.034 A 
ATOM     56  C   UNL A   1      46.776  32.288  29.232  1.00  0.00     0.034 A 
ATOM     57  C   UNL A   1      40.673  32.867  31.434  1.00  0.00     0.049 A 
ATOM     58  C   UNL A   1      46.087  33.328  30.074  1.00  0.00     0.074 A 
ATOM     59  C   UNL A   1      40.168  33.836  32.285  1.00  0.00     0.029 A 
ATOM     60  N   UNL A   1      42.010  33.181  31.232  1.00  0.00    -0.354 N 
ATOM     61  N   UNL A   1      44.846  33.350  30.499  1.00  0.00    -0.248 NA
ATOM     62  C   UNL A   1      46.889  34.478  30.511  1.00  0.00     0.031 C 
ATOM     63  C   UNL A   1      41.172  34.772  32.534  1.00  0.00     0.029 A 
ATOM     64  C   UNL A   1      42.334  34.347  31.908  1.00  0.00     0.049 A 
ATOM     65  H   UNL A   1      42.637  32.652  30.687  1.00  0.00     0.167 HD
ATOM     66  C   UNL A   1      44.726  34.498  31.276  1.00  0.00     0.074 A 
ATOM     67  C   UNL A   1      46.028  35.133  31.279  1.00  0.00     0.031 C 
ATOM     68  C   UNL A   1      43.635  34.977  31.925  1.00  0.00     0.034 A 
BRANCH  55  69
ATOM     69  C   UNL A   1      38.503  31.615  31.159  1.00  0.00     0.023 A 
ATOM     70  C   UNL A   1      37.538  32.154  30.285  1.00  0.00     0.031 A 
ATOM     71  C   UNL A   1      38.068  31.117  32.400  1.00  0.00     0.131 A 
ATOM     72  C   UNL A   1      36.196  32.218  30.680  1.00  0.00     0.055 A 
ATOM     73  C   UNL A   1      36.722  31.150  32.774  1.00  0.00     0.041 A 
ATOM     74  F   UNL A   1      38.946  30.602  33.275  1.00  0.00    -0.206 F 
ATOM     75  C   UNL A   1      35.782  31.716  31.919  1.00  0.00     0.022 A 
BRANCH  72  76
ATOM     76  S   UNL A   1      34.945  33.026  29.643  1.00  0.00     0.124 S 
ATOM     77  O   UNL A   1      34.409  31.894  28.888  1.00  0.00    -0.237 OA
ATOM     78  O   UNL A   1      34.041  33.593  30.639  1.00  0.00    -0.237 OA
ATOM     79  O   UNL A   1      35.708  33.990  28.859  1.00  0.00    -0.744 OA
ENDBRANCH  72  76
ENDBRANCH  55  69
BRANCH  56  80
ATOM     80  C   UNL A   1      48.226  32.370  28.893  1.00  0.00     0.023 A 
ATOM     81  C   UNL A   1      48.663  33.089  27.764  1.00  0.00     0.031 A 
ATOM     82  C   UNL A   1      49.175  31.620  29.608  1.00  0.00     0.131 A 
ATOM     83  C   UNL A   1      49.994  32.983  27.343  1.00  0.00     0.055 A 
ATOM     84  C   UNL A   1      50.517  31.577  29.226  1.00  0.00     0.041 A 
ATOM     85  F   UNL A   1      48.802  30.903  30.679  1.00  0.00    -0.206 F 
ATOM     86  C   UNL A   1      50.928  32.245  28.077  1.00  0.00     0.022 A 
BRANCH  83  87
ATOM     87  S   UNL A   1      50.523  33.677  25.753  1.00  0.00     0.124 S 
ATOM     88  O   UNL A   1      49.288  34.275  25.256  1.00  0.00    -0.237 OA
ATOM     89  O   UNL A   1      51.557  34.622  26.169  1.00  0.00    -0.237 OA
ATOM     90  O   UNL A   1      51.006  32.517  25.013  1.00  0.00    -0.744 OA
ENDBRANCH  83  87
ENDBRANCH  56  80
BRANCH  68  91
ATOM     91  C   UNL A   1      43.764  36.260  32.714  1.00  0.00     0.023 A 
ATOM     92  C   UNL A   1      43.611  37.503  32.069  1.00  0.00     0.031 A 
ATOM     93  C   UNL A   1      44.194  36.257  34.053  1.00  0.00     0.131 A 
ATOM     94  C   UNL A   1      43.930  38.686  32.745  1.00  0.00     0.055 A 
ATOM     95  C   UNL A   1      44.461  37.443  34.739  1.00  0.00     0.041 A 
ATOM     96  F   UNL A   1      44.365  35.100  34.711  1.00  0.00    -0.206 F 
ATOM     97  C   UNL A   1      44.347  38.664  34.080  1.00  0.00     0.022 A 
BRANCH  94  98
ATOM     98  S   UNL A   1      43.912  40.289  31.894  1.00  0.00     0.124 S 
ATOM     99  O   UNL A   1      42.559  40.766  32.178  1.00  0.00    -0.237 OA
ATOM    100  O   UNL A   1      44.984  41.011  32.573  1.00  0.00    -0.237 OA
ATOM    101  O   UNL A   1      44.169  39.950  30.498  1.00  0.00    -0.744 OA
ENDBRANCH  94  98
ENDBRANCH  68  91
ENDBRANCH  42  43
ENDBRANCH  35  37
ENDBRANCH  34  35
ENDBRANCH  33  34
ENDBRANCH  32  33
ENDBRANCH  31  32
ENDBRANCH  30  31
ENDBRANCH   1  30
TORSDOF 26
ENDMDL
MODEL 2
REMARK VINA RESULT:      -9.2      3.221      8.547
REMARK SMILES CC(C)Cc1cc2c(cc1Cl)C=C(C(=O)OCCOCCOCCOCCOC(=O)c1ccc(-c3c4nc(c(-c5cc(S(=O)(=O)[O-])ccc5F)c5ccc([nH]5)c(-c5cc(S(=O)(=O)[O-])ccc5F)c5nc(c(-c6cc(S(=O)(=O)[O-])ccc6F)c6ccc3[nH]6)C=C5)C=C4)cc1)[C@H](C(F)(F)F)O2
REMARK SMILES IDX 23 1 22 2 21 3 20 4 19 5 18 6 17 7 16 8 14 9 15 10 13 11
REMARK SMILES IDX 5 12 6 13 10 14 7 15 9 16 11 17 8 18 99 19 12 20 94 21 4 22
REMARK SMILES IDX 2 23 1 24 3 25 95 26 96 27 97 28 98 29 24 30 25 31 26 32
REMARK SMILES IDX 27 33 28 34 29 35 30 36 31 37 32 38 93 39 33 40 92 41 34 42
REMARK SMILES IDX 35 43 36 44 86 45 37 46 91 47 85 48 87 49 38 50 90 51 84 52
REMARK SMILES IDX 83 53 39 55 71 56 51 57 70 58 52 59 55 60 69 61 88 62 53 63
REMARK SMILES IDX 54 64 68 66 89 67 56 68 40 69 41 70 49 71 42 72 48 73 50 74
REMARK SMILES IDX 47 75 43 76 44 77 45 78 46 79 72 80 73 81 81 82 74 83 80 84
REMARK SMILES IDX 82 85 79 86 75 87 76 88 77 89 78 90 57 91 58 92 66 93 59 94
REMARK SMILES IDX 65 95 67 96 64 97 60 98 61 99 62 100 63 101
REMARK H PARENT 87 54 55 65
REMARK Flexibility Score: inf
ROOT
ATOM      1  C   UNL A   1      34.051  23.584  26.806  1.00  0.00     0.188 C 
ENDROOT
BRANCH   1   2
ATOM      2  O   UNL A   1      33.956  24.411  25.658  1.00  0.00    -0.377 OA
BRANCH   2   3
ATOM      3  C   UNL A   1      34.714  25.611  25.637  1.00  0.00     0.188 C 
BRANCH   3   4
ATOM      4  C   UNL A   1      34.192  26.948  26.202  1.00  0.00     0.188 C 
BRANCH   4   5
ATOM      5  O   UNL A   1      34.300  28.065  25.325  1.00  0.00    -0.376 OA
BRANCH   5   6
ATOM      6  C   UNL A   1      34.073  29.355  25.872  1.00  0.00     0.202 C 
BRANCH   6   7
ATOM      7  C   UNL A   1      33.382  29.321  27.240  1.00  0.00     0.261 C 
BRANCH   7   8
ATOM      8  O   UNL A   1      31.979  29.624  27.184  1.00  0.00    -0.460 OA
BRANCH   8   9
ATOM      9  C   UNL A   1      31.469  29.855  25.962  1.00  0.00     0.338 C 
ATOM     10  O   UNL A   1      31.355  30.941  25.418  1.00  0.00    -0.246 OA
BRANCH   9  11
ATOM     11  C   UNL A   1      31.221  28.569  25.288  1.00  0.00     0.087 C 
ATOM     12  C   UNL A   1      30.936  23.639  24.417  1.00  0.00    -0.025 A 
ATOM     13  C   UNL A   1      31.345  24.755  23.659  1.00  0.00     0.052 A 
ATOM     14  C   UNL A   1      30.368  23.859  25.683  1.00  0.00     0.045 A 
ATOM     15  C   UNL A   1      31.264  26.042  24.187  1.00  0.00     0.128 A 
ATOM     16  C   UNL A   1      30.297  25.148  26.213  1.00  0.00     0.032 A 
ATOM     17  Cl  UNL A   1      29.800  22.564  26.679  1.00  0.00    -0.084 Cl
ATOM     18  C   UNL A   1      30.779  26.234  25.481  1.00  0.00     0.019 A 
ATOM     19  O   UNL A   1      31.777  27.060  23.424  1.00  0.00    -0.475 OA
ATOM     20  C   UNL A   1      30.910  27.545  26.093  1.00  0.00     0.027 C 
ATOM     21  C   UNL A   1      31.381  28.419  23.796  1.00  0.00     0.316 C 
BRANCH  12  22
ATOM     22  C   UNL A   1      31.244  22.259  23.878  1.00  0.00     0.040 C 
BRANCH  22  23
ATOM     23  C   UNL A   1      32.038  22.310  22.552  1.00  0.00    -0.013 C 
ATOM     24  C   UNL A   1      33.516  22.662  22.755  1.00  0.00     0.008 C 
ATOM     25  C   UNL A   1      31.930  20.970  21.822  1.00  0.00     0.008 C 
ENDBRANCH  22  23
ENDBRANCH  12  22
BRANCH  21  26
ATOM     26  C   UNL A   1      30.164  28.836  22.941  1.00  0.00     0.430 C 
ATOM     27  F   UNL A   1      30.439  29.903  22.156  1.00  0.00    -0.167 F 
ATOM     28  F   UNL A   1      29.722  27.839  22.146  1.00  0.00    -0.167 F 
ATOM     29  F   UNL A   1      29.121  29.185  23.735  1.00  0.00    -0.167 F 
ENDBRANCH  21  26
ENDBRANCH   9  11
ENDBRANCH   8   9
ENDBRANCH   7   8
ENDBRANCH   6   7
ENDBRANCH   5   6
ENDBRANCH   4   5
ENDBRANCH   3   4
ENDBRANCH   2   3
ENDBRANCH   1   2
BRANCH   1  30
ATOM     30  C   UNL A   1      33.684  22.124  26.494  1.00  0.00     0.188 C 
BRANCH  30  31
ATOM     31  O   UNL A   1      34.825  21.263  26.515  1.00  0.00    -0.376 OA
BRANCH  31  32
ATOM     32  C   UNL A   1      35.177  20.656  25.276  1.00  0.00     0.202 C 
BRANCH  32  33
ATOM     33  C   UNL A   1      36.665  20.405  24.978  1.00  0.00     0.261 C 
BRANCH  33  34
ATOM     34  O   UNL A   1      37.593  21.423  25.387  1.00  0.00    -0.460 OA
BRANCH  34  35
ATOM     35  C   UNL A   1      38.789  21.062  25.902  1.00  0.00     0.338 C 
ATOM     36  O   UNL A   1      39.327  19.974  25.818  1.00  0.00    -0.246 OA
BRANCH  35  37
ATOM     37  C   UNL A   1      39.419  22.304  26.410  1.00  0.00     0.060 A 
ATOM     38  C   UNL A   1      40.479  22.232  27.318  1.00  0.00     0.016 A 
ATOM     39  C   UNL A   1      38.891  23.548  26.040  1.00  0.00     0.016 A 
ATOM     40  C   UNL A   1      41.021  23.407  27.846  1.00  0.00     0.010 A 
ATOM     41  C   UNL A   1      39.426  24.722  26.580  1.00  0.00     0.010 A 
ATOM     42  C   UNL A   1      40.506  24.660  27.474  1.00  0.00    -0.014 A 
BRANCH  42  43
ATOM     43  C   UNL A   1      41.236  25.894  27.859  1.00  0.00     0.031 A 
ATOM     44  C   UNL A   1      42.663  26.142  27.474  1.00  0.00     0.074 A 
ATOM     45  C   UNL A   1      40.564  26.806  28.587  1.00  0.00     0.049 A 
ATOM     46  N   UNL A   1      43.386  27.216  27.671  1.00  0.00    -0.248 NA
ATOM     47  C   UNL A   1      43.373  25.055  26.788  1.00  0.00     0.031 C 
ATOM     48  C   UNL A   1      39.181  26.646  29.037  1.00  0.00     0.029 A 
ATOM     49  N   UNL A   1      40.936  28.032  29.075  1.00  0.00    -0.354 N 
ATOM     50  C   UNL A   1      44.630  26.949  27.116  1.00  0.00     0.074 A 
ATOM     51  C   UNL A   1      44.577  25.590  26.615  1.00  0.00     0.031 C 
ATOM     52  C   UNL A   1      38.816  27.738  29.723  1.00  0.00     0.029 A 
ATOM     53  C   UNL A   1      39.944  28.664  29.786  1.00  0.00     0.049 A 
ATOM     54  H   UNL A   1      41.829  28.423  28.931  1.00  0.00     0.167 HD
ATOM     55  C   UNL A   1      45.703  27.774  27.020  1.00  0.00     0.034 A 
ATOM     56  C   UNL A   1      39.933  29.857  30.415  1.00  0.00     0.034 A 
ATOM     57  C   UNL A   1      45.733  29.121  27.543  1.00  0.00     0.049 A 
ATOM     58  C   UNL A   1      41.147  30.743  30.318  1.00  0.00     0.074 A 
ATOM     59  C   UNL A   1      46.755  30.051  27.444  1.00  0.00     0.029 A 
ATOM     60  N   UNL A   1      44.716  29.728  28.266  1.00  0.00    -0.354 N 
ATOM     61  N   UNL A   1      42.275  30.523  29.686  1.00  0.00    -0.248 NA
ATOM     62  C   UNL A   1      41.084  32.044  30.995  1.00  0.00     0.031 C 
ATOM     63  C   UNL A   1      46.388  31.186  28.168  1.00  0.00     0.029 A 
ATOM     64  C   UNL A   1      45.102  31.003  28.652  1.00  0.00     0.049 A 
ATOM     65  H   UNL A   1      43.848  29.314  28.476  1.00  0.00     0.167 HD
ATOM     66  C   UNL A   1      43.045  31.668  29.865  1.00  0.00     0.074 A 
ATOM     67  C   UNL A   1      42.244  32.587  30.647  1.00  0.00     0.031 C 
ATOM     68  C   UNL A   1      44.301  31.928  29.421  1.00  0.00     0.034 A 
BRANCH  55  69
ATOM     69  C   UNL A   1      46.940  27.289  26.301  1.00  0.00     0.023 A 
ATOM     70  C   UNL A   1      48.002  26.709  27.023  1.00  0.00     0.031 A 
ATOM     71  C   UNL A   1      47.138  27.562  24.935  1.00  0.00     0.131 A 
ATOM     72  C   UNL A   1      49.224  26.459  26.386  1.00  0.00     0.055 A 
ATOM     73  C   UNL A   1      48.347  27.276  24.297  1.00  0.00     0.041 A 
ATOM     74  F   UNL A   1      46.163  28.123  24.203  1.00  0.00    -0.206 F 
ATOM     75  C   UNL A   1      49.402  26.736  25.027  1.00  0.00     0.022 A 
BRANCH  72  76
ATOM     76  S   UNL A   1      50.659  25.840  27.310  1.00  0.00     0.124 S 
ATOM     77  O   UNL A   1      50.618  26.669  28.513  1.00  0.00    -0.237 OA
ATOM     78  O   UNL A   1      50.312  24.435  27.509  1.00  0.00    -0.237 OA
ATOM     79  O   UNL A   1      51.785  26.092  26.418  1.00  0.00    -0.744 OA
ENDBRANCH  72  76
ENDBRANCH  55  69
BRANCH  56  80
ATOM     80  C   UNL A   1      38.688  30.285  31.114  1.00  0.00     0.023 A 
ATOM     81  C   UNL A   1      37.666  30.959  30.419  1.00  0.00     0.031 A 
ATOM     82  C   UNL A   1      38.563  30.151  32.507  1.00  0.00     0.131 A 
ATOM     83  C   UNL A   1      36.605  31.535  31.127  1.00  0.00     0.055 A 
ATOM     84  C   UNL A   1      37.466  30.664  33.200  1.00  0.00     0.041 A 
ATOM     85  F   UNL A   1      39.522  29.533  33.214  1.00  0.00    -0.206 F 
ATOM     86  C   UNL A   1      36.489  31.378  32.511  1.00  0.00     0.022 A 
BRANCH  83  87
ATOM     87  S   UNL A   1      35.421  32.631  30.297  1.00  0.00     0.124 S 
ATOM     88  O   UNL A   1      35.211  31.946  29.026  1.00  0.00    -0.237 OA
ATOM     89  O   UNL A   1      34.290  32.603  31.222  1.00  0.00    -0.237 OA
ATOM     90  O   UNL A   1      36.125  33.906  30.219  1.00  0.00    -0.744 OA
ENDBRANCH  83  87
ENDBRANCH  56  80
BRANCH  68  91
ATOM     91  C   UNL A   1      44.925  33.265  29.750  1.00  0.00     0.023 A 
ATOM     92  C   UNL A   1      45.595  33.447  30.976  1.00  0.00     0.031 A 
ATOM     93  C   UNL A   1      44.721  34.391  28.934  1.00  0.00     0.131 A 
ATOM     94  C   UNL A   1      45.993  34.729  31.372  1.00  0.00     0.055 A 
ATOM     95  C   UNL A   1      45.166  35.660  29.309  1.00  0.00     0.041 A 
ATOM     96  F   UNL A   1      44.080  34.274  27.760  1.00  0.00    -0.206 F 
ATOM     97  C   UNL A   1      45.789  35.836  30.541  1.00  0.00     0.022 A 
BRANCH  94  98
ATOM     98  S   UNL A   1      46.700  35.028  33.016  1.00  0.00     0.124 S 
ATOM     99  O   UNL A   1      45.649  34.517  33.894  1.00  0.00    -0.237 OA
ATOM    100  O   UNL A   1      47.922  34.229  32.976  1.00  0.00    -0.237 OA
ATOM    101  O   UNL A   1      46.896  36.473  33.059  1.00  0.00    -0.744 OA
ENDBRANCH  94  98
ENDBRANCH  68  91
ENDBRANCH  42  43
ENDBRANCH  35  37
ENDBRANCH  34  35
ENDBRANCH  33  34
ENDBRANCH  32  33
ENDBRANCH  31  32
ENDBRANCH  30  31
ENDBRANCH   1  30
TORSDOF 26
ENDMDL
MODEL 3
REMARK VINA RESULT:      -9.0      6.191     10.731
REMARK SMILES CC(C)Cc1cc2c(cc1Cl)C=C(C(=O)OCCOCCOCCOCCOC(=O)c1ccc(-c3c4nc(c(-c5cc(S(=O)(=O)[O-])ccc5F)c5ccc([nH]5)c(-c5cc(S(=O)(=O)[O-])ccc5F)c5nc(c(-c6cc(S(=O)(=O)[O-])ccc6F)c6ccc3[nH]6)C=C5)C=C4)cc1)[C@H](C(F)(F)F)O2
REMARK SMILES IDX 23 1 22 2 21 3 20 4 19 5 18 6 17 7 16 8 14 9 15 10 13 11
REMARK SMILES IDX 5 12 6 13 10 14 7 15 9 16 11 17 8 18 99 19 12 20 94 21 4 22
REMARK SMILES IDX 2 23 1 24 3 25 95 26 96 27 97 28 98 29 24 30 25 31 26 32
REMARK SMILES IDX 27 33 28 34 29 35 30 36 31 37 32 38 93 39 33 40 92 41 34 42
REMARK SMILES IDX 35 43 36 44 86 45 37 46 91 47 85 48 87 49 38 50 90 51 84 52
REMARK SMILES IDX 83 53 39 55 71 56 51 57 70 58 52 59 55 60 69 61 88 62 53 63
REMARK SMILES IDX 54 64 68 66 89 67 56 68 40 69 41 70 49 71 42 72 48 73 50 74
REMARK SMILES IDX 47 75 43 76 44 77 45 78 46 79 72 80 73 81 81 82 74 83 80 84
REMARK SMILES IDX 82 85 79 86 75 87 76 88 77 89 78 90 57 91 58 92 66 93 59 94
REMARK SMILES IDX 65 95 67 96 64 97 60 98 61 99 62 100 63 101
REMARK H PARENT 87 54 55 65
REMARK Flexibility Score: inf
ROOT
ATOM      1  C   UNL A   1      52.506  28.150  23.842  1.00  0.00     0.188 C 
ENDROOT
BRANCH   1   2
ATOM      2  O   UNL A   1      51.120  28.421  23.975  1.00  0.00    -0.377 OA
BRANCH   2   3
ATOM      3  C   UNL A   1      50.211  27.346  23.793  1.00  0.00     0.188 C 
BRANCH   3   4
ATOM      4  C   UNL A   1      48.804  27.526  23.186  1.00  0.00     0.188 C 
BRANCH   4   5
ATOM      5  O   UNL A   1      47.995  26.353  23.166  1.00  0.00    -0.376 OA
BRANCH   5   6
ATOM      6  C   UNL A   1      47.563  25.832  24.414  1.00  0.00     0.202 C 
BRANCH   6   7
ATOM      7  C   UNL A   1      47.403  24.307  24.413  1.00  0.00     0.261 C 
BRANCH   7   8
ATOM      8  O   UNL A   1      46.046  23.870  24.244  1.00  0.00    -0.460 OA
BRANCH   8   9
ATOM      9  C   UNL A   1      45.604  22.948  25.116  1.00  0.00     0.338 C 
ATOM     10  O   UNL A   1      46.109  21.859  25.336  1.00  0.00    -0.246 OA
BRANCH   9  11
ATOM     11  C   UNL A   1      44.504  23.518  25.911  1.00  0.00     0.087 C 
ATOM     12  C   UNL A   1      41.568  26.826  28.274  1.00  0.00    -0.025 A 
ATOM     13  C   UNL A   1      42.057  25.541  28.584  1.00  0.00     0.052 A 
ATOM     14  C   UNL A   1      41.820  27.351  26.996  1.00  0.00     0.045 A 
ATOM     15  C   UNL A   1      42.844  24.840  27.671  1.00  0.00     0.128 A 
ATOM     16  C   UNL A   1      42.616  26.651  26.087  1.00  0.00     0.032 A 
ATOM     17  Cl  UNL A   1      41.235  28.901  26.501  1.00  0.00    -0.084 Cl
ATOM     18  C   UNL A   1      43.158  25.414  26.439  1.00  0.00     0.019 A 
ATOM     19  O   UNL A   1      43.363  23.642  28.090  1.00  0.00    -0.475 OA
ATOM     20  C   UNL A   1      44.153  24.772  25.598  1.00  0.00     0.027 C 
ATOM     21  C   UNL A   1      43.874  22.751  27.047  1.00  0.00     0.316 C 
BRANCH  12  22
ATOM     22  C   UNL A   1      40.904  27.621  29.377  1.00  0.00     0.040 C 
BRANCH  22  23
ATOM     23  C   UNL A   1      39.370  27.422  29.402  1.00  0.00    -0.013 C 
ATOM     24  C   UNL A   1      38.909  26.226  28.563  1.00  0.00     0.008 C 
ATOM     25  C   UNL A   1      38.886  27.250  30.843  1.00  0.00     0.008 C 
ENDBRANCH  22  23
ENDBRANCH  12  22
BRANCH  21  26
ATOM     26  C   UNL A   1      42.762  21.754  26.653  1.00  0.00     0.430 C 
ATOM     27  F   UNL A   1      41.774  22.351  25.947  1.00  0.00    -0.167 F 
ATOM     28  F   UNL A   1      43.228  20.719  25.922  1.00  0.00    -0.167 F 
ATOM     29  F   UNL A   1      42.190  21.216  27.760  1.00  0.00    -0.167 F 
ENDBRANCH  21  26
ENDBRANCH   9  11
ENDBRANCH   8   9
ENDBRANCH   7   8
ENDBRANCH   6   7
ENDBRANCH   5   6
ENDBRANCH   4   5
ENDBRANCH   3   4
ENDBRANCH   2   3
ENDBRANCH   1   2
BRANCH   1  30
ATOM     30  C   UNL A   1      52.765  26.731  23.308  1.00  0.00     0.188 C 
BRANCH  30  31
ATOM     31  O   UNL A   1      53.914  26.129  23.906  1.00  0.00    -0.376 OA
BRANCH  31  32
ATOM     32  C   UNL A   1      53.677  24.960  24.685  1.00  0.00     0.202 C 
BRANCH  32  33
ATOM     33  C   UNL A   1      53.842  25.050  26.212  1.00  0.00     0.261 C 
BRANCH  33  34
ATOM     34  O   UNL A   1      52.727  25.562  26.960  1.00  0.00    -0.460 OA
BRANCH  34  35
ATOM     35  C   UNL A   1      52.730  26.855  27.354  1.00  0.00     0.338 C 
ATOM     36  O   UNL A   1      53.584  27.691  27.123  1.00  0.00    -0.246 OA
BRANCH  35  37
ATOM     37  C   UNL A   1      51.395  27.118  27.941  1.00  0.00     0.060 A 
ATOM     38  C   UNL A   1      51.283  27.827  29.140  1.00  0.00     0.016 A 
ATOM     39  C   UNL A   1      50.254  26.580  27.331  1.00  0.00     0.016 A 
ATOM     40  C   UNL A   1      50.027  28.011  29.723  1.00  0.00     0.010 A 
ATOM     41  C   UNL A   1      48.999  26.753  27.924  1.00  0.00     0.010 A 
ATOM     42  C   UNL A   1      48.874  27.484  29.115  1.00  0.00    -0.014 A 
BRANCH  42  43
ATOM     43  C   UNL A   1      47.536  27.881  29.619  1.00  0.00     0.031 A 
ATOM     44  C   UNL A   1      46.790  27.086  30.647  1.00  0.00     0.074 A 
ATOM     45  C   UNL A   1      46.993  29.003  29.108  1.00  0.00     0.049 A 
ATOM     46  N   UNL A   1      45.656  27.371  31.234  1.00  0.00    -0.248 NA
ATOM     47  C   UNL A   1      47.383  25.809  31.069  1.00  0.00     0.031 C 
ATOM     48  C   UNL A   1      47.625  29.832  28.082  1.00  0.00     0.029 A 
ATOM     49  N   UNL A   1      45.807  29.639  29.371  1.00  0.00    -0.354 N 
ATOM     50  C   UNL A   1      45.404  26.326  32.114  1.00  0.00     0.074 A 
ATOM     51  C   UNL A   1      46.484  25.375  31.947  1.00  0.00     0.031 C 
ATOM     52  C   UNL A   1      46.828  30.875  27.811  1.00  0.00     0.029 A 
ATOM     53  C   UNL A   1      45.617  30.776  28.623  1.00  0.00     0.049 A 
ATOM     54  H   UNL A   1      45.153  29.312  30.031  1.00  0.00     0.167 HD
ATOM     55  C   UNL A   1      44.375  26.193  32.988  1.00  0.00     0.034 A 
ATOM     56  C   UNL A   1      44.590  31.650  28.592  1.00  0.00     0.034 A 
ATOM     57  C   UNL A   1      43.302  27.151  33.123  1.00  0.00     0.049 A 
ATOM     58  C   UNL A   1      43.447  31.464  29.553  1.00  0.00     0.074 A 
ATOM     59  C   UNL A   1      42.248  27.130  34.021  1.00  0.00     0.029 A 
ATOM     60  N   UNL A   1      43.133  28.287  32.344  1.00  0.00    -0.354 N 
ATOM     61  N   UNL A   1      43.281  30.533  30.462  1.00  0.00    -0.248 NA
ATOM     62  C   UNL A   1      42.362  32.453  29.505  1.00  0.00     0.031 C 
ATOM     63  C   UNL A   1      41.405  28.204  33.736  1.00  0.00     0.029 A 
ATOM     64  C   UNL A   1      41.973  28.950  32.715  1.00  0.00     0.049 A 
ATOM     65  H   UNL A   1      43.747  28.580  31.632  1.00  0.00     0.167 HD
ATOM     66  C   UNL A   1      42.091  30.839  31.113  1.00  0.00     0.074 A 
ATOM     67  C   UNL A   1      41.588  32.054  30.507  1.00  0.00     0.031 C 
ATOM     68  C   UNL A   1      41.475  30.170  32.121  1.00  0.00     0.034 A 
BRANCH  55  69
ATOM     69  C   UNL A   1      44.346  24.995  33.909  1.00  0.00     0.023 A 
ATOM     70  C   UNL A   1      44.743  25.122  35.255  1.00  0.00     0.031 A 
ATOM     71  C   UNL A   1      44.099  23.703  33.410  1.00  0.00     0.131 A 
ATOM     72  C   UNL A   1      44.918  23.977  36.042  1.00  0.00     0.055 A 
ATOM     73  C   UNL A   1      44.239  22.567  34.210  1.00  0.00     0.041 A 
ATOM     74  F   UNL A   1      43.727  23.525  32.132  1.00  0.00    -0.206 F 
ATOM     75  C   UNL A   1      44.665  22.700  35.528  1.00  0.00     0.022 A 
BRANCH  72  76
ATOM     76  S   UNL A   1      45.557  24.086  37.737  1.00  0.00     0.124 S 
ATOM     77  O   UNL A   1      45.660  22.675  38.107  1.00  0.00    -0.237 OA
ATOM     78  O   UNL A   1      46.831  24.772  37.541  1.00  0.00    -0.237 OA
ATOM     79  O   UNL A   1      44.534  24.843  38.449  1.00  0.00    -0.744 OA
ENDBRANCH  72  76
ENDBRANCH  55  69
BRANCH  56  80
ATOM     80  C   UNL A   1      44.668  32.813  27.661  1.00  0.00     0.023 A 
ATOM     81  C   UNL A   1      45.134  34.064  28.108  1.00  0.00     0.031 A 
ATOM     82  C   UNL A   1      44.152  32.725  26.358  1.00  0.00     0.131 A 
ATOM     83  C   UNL A   1      45.005  35.189  27.285  1.00  0.00     0.055 A 
ATOM     84  C   UNL A   1      44.093  33.836  25.515  1.00  0.00     0.041 A 
ATOM     85  F   UNL A   1      43.679  31.558  25.895  1.00  0.00    -0.206 F 
ATOM     86  C   UNL A   1      44.503  35.080  25.985  1.00  0.00     0.022 A 
BRANCH  83  87
ATOM     87  S   UNL A   1      45.346  36.852  27.926  1.00  0.00     0.124 S 
ATOM     88  O   UNL A   1      46.185  37.417  26.875  1.00  0.00    -0.237 OA
ATOM     89  O   UNL A   1      44.001  37.413  28.029  1.00  0.00    -0.237 OA
ATOM     90  O   UNL A   1      46.011  36.601  29.200  1.00  0.00    -0.744 OA
ENDBRANCH  83  87
ENDBRANCH  56  80
BRANCH  68  91
ATOM     91  C   UNL A   1      40.173  30.715  32.665  1.00  0.00     0.023 A 
ATOM     92  C   UNL A   1      38.975  30.523  31.950  1.00  0.00     0.031 A 
ATOM     93  C   UNL A   1      40.144  31.552  33.794  1.00  0.00     0.131 A 
ATOM     94  C   UNL A   1      37.812  31.196  32.341  1.00  0.00     0.055 A 
ATOM     95  C   UNL A   1      38.969  32.179  34.211  1.00  0.00     0.041 A 
ATOM     96  F   UNL A   1      41.260  31.775  34.506  1.00  0.00    -0.206 F 
ATOM     97  C   UNL A   1      37.800  32.017  33.474  1.00  0.00     0.022 A 
BRANCH  94  98
ATOM     98  S   UNL A   1      36.297  31.111  31.345  1.00  0.00     0.124 S 
ATOM     99  O   UNL A   1      35.414  32.030  32.060  1.00  0.00    -0.237 OA
ATOM    100  O   UNL A   1      36.759  31.576  30.041  1.00  0.00    -0.237 OA
ATOM    101  O   UNL A   1      35.911  29.705  31.409  1.00  0.00    -0.744 OA
ENDBRANCH  94  98
ENDBRANCH  68  91
ENDBRANCH  42  43
ENDBRANCH  35  37
ENDBRANCH  34  35
ENDBRANCH  33  34
ENDBRANCH  32  33
ENDBRANCH  31  32
ENDBRANCH  30  31
ENDBRANCH   1  30
TORSDOF 26
ENDMDL
