MODEL 1
REMARK VINA RESULT:     -10.1      0.000      0.000
REMARK SMILES Nc1oc2ccc(F)cc2c(=O)c1[C@@H]1[NH2+][C@H](C(=O)OCCOCCOCCOCCOC(=O)c2ccc(-c3c4nc(c(-c5cc(S(=O)(=O)[O-])ccc5F)c5ccc([nH]5)c(-c5cc(S(=O)(=O)[O-])ccc5F)c5nc(c(-c6cc(S(=O)(=O)[O-])ccc6F)c6ccc3[nH]6)C=C5)C=C4)cc2)CS1
REMARK SMILES IDX 26 1 25 2 24 3 23 4 22 5 21 6 20 7 19 8 17 9 18 10 16 11
REMARK SMILES IDX 14 12 15 13 98 14 97 17 13 18 2 19 3 20 4 21 11 22 5 23
REMARK SMILES IDX 10 24 12 25 6 26 9 27 7 28 8 29 1 30 27 33 28 34 29 35 30 36
REMARK SMILES IDX 31 37 32 38 33 39 34 40 35 41 96 42 36 43 95 44 37 45 38 46
REMARK SMILES IDX 39 47 89 48 40 49 94 50 88 51 90 52 41 53 93 54 87 55 86 56
REMARK SMILES IDX 42 58 74 59 54 60 73 61 55 62 58 63 72 64 91 65 56 66 57 67
REMARK SMILES IDX 71 69 92 70 59 71 43 72 44 73 52 74 45 75 51 76 53 77 50 78
REMARK SMILES IDX 46 79 47 80 48 81 49 82 75 83 76 84 84 85 77 86 83 87 85 88
REMARK SMILES IDX 82 89 78 90 79 91 80 92 81 93 60 94 61 95 69 96 62 97 68 98
REMARK SMILES IDX 70 99 67 100 63 101 64 102 65 103 66 104
REMARK H PARENT 15 15 15 16 1 31 1 32 90 57 58 68
REMARK Flexibility Score: inf
ROOT
ATOM      1  C   UNL A   1      32.500  29.330  24.792  1.00  0.00     0.188 C 
ENDROOT
BRANCH   1   2
ATOM      2  O   UNL A   1      33.777  28.741  25.000  1.00  0.00    -0.377 OA
BRANCH   2   3
ATOM      3  C   UNL A   1      33.952  28.078  26.239  1.00  0.00     0.188 C 
BRANCH   3   4
ATOM      4  C   UNL A   1      33.077  26.820  26.422  1.00  0.00     0.188 C 
BRANCH   4   5
ATOM      5  O   UNL A   1      33.611  25.514  26.200  1.00  0.00    -0.376 OA
BRANCH   5   6
ATOM      6  C   UNL A   1      34.838  25.368  25.491  1.00  0.00     0.202 C 
BRANCH   6   7
ATOM      7  C   UNL A   1      35.611  24.045  25.569  1.00  0.00     0.261 C 
BRANCH   7   8
ATOM      8  O   UNL A   1      34.903  22.997  26.247  1.00  0.00    -0.459 OA
BRANCH   8   9
ATOM      9  C   UNL A   1      35.059  21.736  25.790  1.00  0.00     0.365 C 
ATOM     10  O   UNL A   1      36.104  21.300  25.309  1.00  0.00    -0.245 OA
BRANCH   9  11
ATOM     11  C   UNL A   1      33.842  20.824  26.009  1.00  0.00     0.304 C 
ATOM     12  C   UNL A   1      31.841  21.630  24.903  1.00  0.00     0.283 C 
ATOM     13  N   UNL A   1      32.520  21.466  26.192  1.00  0.00    -0.319 N 
ATOM     14  S   UNL A   1      32.374  20.259  23.841  1.00  0.00    -0.087 SA
ATOM     15  H   UNL A   1      31.945  20.882  26.800  1.00  0.00     0.348 HD
ATOM     16  H   UNL A   1      32.656  22.386  26.610  1.00  0.00     0.348 HD
ATOM     17  C   UNL A   1      33.755  19.778  24.908  1.00  0.00     0.153 C 
BRANCH  12  18
ATOM     18  C   UNL A   1      31.973  23.001  24.298  1.00  0.00     0.128 A 
ATOM     19  C   UNL A   1      32.765  23.408  23.281  1.00  0.00     0.205 A 
ATOM     20  O   UNL A   1      32.835  24.725  22.856  1.00  0.00    -0.440 OA
ATOM     21  C   UNL A   1      31.762  25.527  23.102  1.00  0.00     0.140 A 
ATOM     22  C   UNL A   1      31.042  24.019  24.883  1.00  0.00     0.205 A 
ATOM     23  C   UNL A   1      31.573  26.616  22.263  1.00  0.00     0.051 A 
ATOM     24  C   UNL A   1      30.850  25.251  24.111  1.00  0.00     0.068 A 
ATOM     25  O   UNL A   1      30.373  23.812  25.891  1.00  0.00    -0.288 OA
ATOM     26  C   UNL A   1      30.435  27.405  22.420  1.00  0.00     0.043 A 
ATOM     27  C   UNL A   1      29.737  26.072  24.307  1.00  0.00     0.055 A 
ATOM     28  C   UNL A   1      29.537  27.139  23.443  1.00  0.00     0.124 A 
ATOM     29  F   UNL A   1      28.457  27.915  23.589  1.00  0.00    -0.207 F 
BRANCH  19  30
ATOM     30  N   UNL A   1      33.590  22.606  22.547  1.00  0.00    -0.369 N 
ATOM     31  H   UNL A   1      34.424  22.265  22.944  1.00  0.00     0.159 HD
ATOM     32  H   UNL A   1      33.351  22.369  21.622  1.00  0.00     0.159 HD
ENDBRANCH  19  30
ENDBRANCH  12  18
ENDBRANCH   9  11
ENDBRANCH   8   9
ENDBRANCH   7   8
ENDBRANCH   6   7
ENDBRANCH   5   6
ENDBRANCH   4   5
ENDBRANCH   3   4
ENDBRANCH   2   3
ENDBRANCH   1   2
BRANCH   1  33
ATOM     33  C   UNL A   1      31.828  29.980  26.020  1.00  0.00     0.188 C 
BRANCH  33  34
ATOM     34  O   UNL A   1      31.125  31.184  25.725  1.00  0.00    -0.376 OA
BRANCH  34  35
ATOM     35  C   UNL A   1      31.376  32.327  26.533  1.00  0.00     0.202 C 
BRANCH  35  36
ATOM     36  C   UNL A   1      32.718  32.397  27.281  1.00  0.00     0.261 C 
BRANCH  36  37
ATOM     37  O   UNL A   1      33.407  33.657  27.258  1.00  0.00    -0.460 OA
BRANCH  37  38
ATOM     38  C   UNL A   1      33.522  34.350  28.411  1.00  0.00     0.338 C 
ATOM     39  O   UNL A   1      32.765  35.215  28.816  1.00  0.00    -0.246 OA
BRANCH  38  40
ATOM     40  C   UNL A   1      34.600  33.722  29.214  1.00  0.00     0.060 A 
ATOM     41  C   UNL A   1      34.317  33.073  30.416  1.00  0.00     0.016 A 
ATOM     42  C   UNL A   1      35.923  33.804  28.759  1.00  0.00     0.016 A 
ATOM     43  C   UNL A   1      35.356  32.463  31.130  1.00  0.00     0.010 A 
ATOM     44  C   UNL A   1      36.961  33.197  29.479  1.00  0.00     0.010 A 
ATOM     45  C   UNL A   1      36.686  32.494  30.658  1.00  0.00    -0.014 A 
BRANCH  45  46
ATOM     46  C   UNL A   1      37.695  31.588  31.272  1.00  0.00     0.031 A 
ATOM     47  C   UNL A   1      38.212  30.340  30.621  1.00  0.00     0.074 A 
ATOM     48  C   UNL A   1      38.175  31.919  32.487  1.00  0.00     0.049 A 
ATOM     49  N   UNL A   1      39.346  29.727  30.852  1.00  0.00    -0.248 NA
ATOM     50  C   UNL A   1      37.394  29.704  29.579  1.00  0.00     0.031 C 
ATOM     51  C   UNL A   1      37.682  33.028  33.305  1.00  0.00     0.029 A 
ATOM     52  N   UNL A   1      39.168  31.356  33.247  1.00  0.00    -0.354 N 
ATOM     53  C   UNL A   1      39.451  28.736  29.885  1.00  0.00     0.074 A 
ATOM     54  C   UNL A   1      38.199  28.728  29.160  1.00  0.00     0.031 C 
ATOM     55  C   UNL A   1      38.372  33.062  34.453  1.00  0.00     0.029 A 
ATOM     56  C   UNL A   1      39.353  31.979  34.457  1.00  0.00     0.049 A 
ATOM     57  H   UNL A   1      39.698  30.579  32.953  1.00  0.00     0.167 HD
ATOM     58  C   UNL A   1      40.534  27.980  29.592  1.00  0.00     0.034 A 
ATOM     59  C   UNL A   1      40.216  31.716  35.458  1.00  0.00     0.034 A 
ATOM     60  C   UNL A   1      41.686  27.870  30.449  1.00  0.00     0.049 A 
ATOM     61  C   UNL A   1      41.276  30.666  35.252  1.00  0.00     0.074 A 
ATOM     62  C   UNL A   1      42.831  27.119  30.252  1.00  0.00     0.029 A 
ATOM     63  N   UNL A   1      41.799  28.445  31.706  1.00  0.00    -0.354 N 
ATOM     64  N   UNL A   1      41.540  29.963  34.175  1.00  0.00    -0.248 NA
ATOM     65  C   UNL A   1      42.175  30.390  36.380  1.00  0.00     0.031 C 
ATOM     66  C   UNL A   1      43.565  27.132  31.440  1.00  0.00     0.029 A 
ATOM     67  C   UNL A   1      42.936  27.974  32.343  1.00  0.00     0.049 A 
ATOM     68  H   UNL A   1      41.164  29.093  32.090  1.00  0.00     0.167 HD
ATOM     69  C   UNL A   1      42.657  29.190  34.483  1.00  0.00     0.074 A 
ATOM     70  C   UNL A   1      43.026  29.524  35.843  1.00  0.00     0.031 C 
ATOM     71  C   UNL A   1      43.313  28.294  33.702  1.00  0.00     0.034 A 
BRANCH  58  72
ATOM     72  C   UNL A   1      40.582  27.244  28.278  1.00  0.00     0.023 A 
ATOM     73  C   UNL A   1      40.430  25.851  28.218  1.00  0.00     0.031 A 
ATOM     74  C   UNL A   1      41.010  27.917  27.118  1.00  0.00     0.131 A 
ATOM     75  C   UNL A   1      40.727  25.174  27.026  1.00  0.00     0.055 A 
ATOM     76  C   UNL A   1      41.273  27.243  25.924  1.00  0.00     0.041 A 
ATOM     77  F   UNL A   1      41.234  29.239  27.140  1.00  0.00    -0.206 F 
ATOM     78  C   UNL A   1      41.142  25.862  25.879  1.00  0.00     0.022 A 
BRANCH  75  79
ATOM     79  S   UNL A   1      40.669  23.364  26.935  1.00  0.00     0.124 S 
ATOM     80  O   UNL A   1      41.707  23.084  25.944  1.00  0.00    -0.237 OA
ATOM     81  O   UNL A   1      40.994  22.978  28.305  1.00  0.00    -0.237 OA
ATOM     82  O   UNL A   1      39.306  23.081  26.502  1.00  0.00    -0.744 OA
ENDBRANCH  75  79
ENDBRANCH  58  72
BRANCH  59  83
ATOM     83  C   UNL A   1      40.116  32.516  36.713  1.00  0.00     0.023 A 
ATOM     84  C   UNL A   1      39.198  32.148  37.716  1.00  0.00     0.031 A 
ATOM     85  C   UNL A   1      40.834  33.710  36.882  1.00  0.00     0.131 A 
ATOM     86  C   UNL A   1      38.967  33.002  38.800  1.00  0.00     0.055 A 
ATOM     87  C   UNL A   1      40.657  34.520  38.004  1.00  0.00     0.041 A 
ATOM     88  F   UNL A   1      41.709  34.111  35.947  1.00  0.00    -0.206 F 
ATOM     89  C   UNL A   1      39.705  34.177  38.961  1.00  0.00     0.022 A 
BRANCH  86  90
ATOM     90  S   UNL A   1      37.606  32.683  39.956  1.00  0.00     0.124 S 
ATOM     91  O   UNL A   1      37.503  33.955  40.664  1.00  0.00    -0.237 OA
ATOM     92  O   UNL A   1      36.507  32.376  39.045  1.00  0.00    -0.237 OA
ATOM     93  O   UNL A   1      38.084  31.557  40.752  1.00  0.00    -0.744 OA
ENDBRANCH  86  90
ENDBRANCH  59  83
BRANCH  71  94
ATOM     94  C   UNL A   1      44.510  27.564  34.272  1.00  0.00     0.023 A 
ATOM     95  C   UNL A   1      44.337  26.320  34.910  1.00  0.00     0.031 A 
ATOM     96  C   UNL A   1      45.778  28.167  34.333  1.00  0.00     0.131 A 
ATOM     97  C   UNL A   1      45.393  25.752  35.634  1.00  0.00     0.055 A 
ATOM     98  C   UNL A   1      46.848  27.563  34.997  1.00  0.00     0.041 A 
ATOM     99  F   UNL A   1      45.997  29.358  33.753  1.00  0.00    -0.206 F 
ATOM    100  C   UNL A   1      46.651  26.360  35.669  1.00  0.00     0.022 A 
BRANCH  97 101
ATOM    101  S   UNL A   1      45.138  24.272  36.652  1.00  0.00     0.124 S 
ATOM    102  O   UNL A   1      46.497  23.747  36.768  1.00  0.00    -0.237 OA
ATOM    103  O   UNL A   1      44.582  24.836  37.879  1.00  0.00    -0.237 OA
ATOM    104  O   UNL A   1      44.220  23.456  35.865  1.00  0.00    -0.744 OA
ENDBRANCH  97 101
ENDBRANCH  71  94
ENDBRANCH  45  46
ENDBRANCH  38  40
ENDBRANCH  37  38
ENDBRANCH  36  37
ENDBRANCH  35  36
ENDBRANCH  34  35
ENDBRANCH  33  34
ENDBRANCH   1  33
TORSDOF 25
ENDMDL
MODEL 2
REMARK VINA RESULT:      -9.8      4.773      6.687
REMARK SMILES Nc1oc2ccc(F)cc2c(=O)c1[C@@H]1[NH2+][C@H](C(=O)OCCOCCOCCOCCOC(=O)c2ccc(-c3c4nc(c(-c5cc(S(=O)(=O)[O-])ccc5F)c5ccc([nH]5)c(-c5cc(S(=O)(=O)[O-])ccc5F)c5nc(c(-c6cc(S(=O)(=O)[O-])ccc6F)c6ccc3[nH]6)C=C5)C=C4)cc2)CS1
REMARK SMILES IDX 26 1 25 2 24 3 23 4 22 5 21 6 20 7 19 8 17 9 18 10 16 11
REMARK SMILES IDX 14 12 15 13 98 14 97 17 13 18 2 19 3 20 4 21 11 22 5 23
REMARK SMILES IDX 10 24 12 25 6 26 9 27 7 28 8 29 1 30 27 33 28 34 29 35 30 36
REMARK SMILES IDX 31 37 32 38 33 39 34 40 35 41 96 42 36 43 95 44 37 45 38 46
REMARK SMILES IDX 39 47 89 48 40 49 94 50 88 51 90 52 41 53 93 54 87 55 86 56
REMARK SMILES IDX 42 58 74 59 54 60 73 61 55 62 58 63 72 64 91 65 56 66 57 67
REMARK SMILES IDX 71 69 92 70 59 71 43 72 44 73 52 74 45 75 51 76 53 77 50 78
REMARK SMILES IDX 46 79 47 80 48 81 49 82 75 83 76 84 84 85 77 86 83 87 85 88
REMARK SMILES IDX 82 89 78 90 79 91 80 92 81 93 60 94 61 95 69 96 62 97 68 98
REMARK SMILES IDX 70 99 67 100 63 101 64 102 65 103 66 104
REMARK H PARENT 15 15 15 16 1 31 1 32 90 57 58 68
REMARK Flexibility Score: inf
ROOT
ATOM      1  C   UNL A   1      34.314  32.797  28.320  1.00  0.00     0.188 C 
ENDROOT
BRANCH   1   2
ATOM      2  O   UNL A   1      33.661  31.581  27.983  1.00  0.00    -0.377 OA
BRANCH   2   3
ATOM      3  C   UNL A   1      34.397  30.699  27.155  1.00  0.00     0.188 C 
BRANCH   3   4
ATOM      4  C   UNL A   1      33.662  29.389  26.800  1.00  0.00     0.188 C 
BRANCH   4   5
ATOM      5  O   UNL A   1      32.353  29.121  27.301  1.00  0.00    -0.376 OA
BRANCH   5   6
ATOM      6  C   UNL A   1      32.022  27.805  27.736  1.00  0.00     0.202 C 
BRANCH   6   7
ATOM      7  C   UNL A   1      31.205  26.883  26.821  1.00  0.00     0.261 C 
BRANCH   7   8
ATOM      8  O   UNL A   1      30.816  27.489  25.580  1.00  0.00    -0.459 OA
BRANCH   8   9
ATOM      9  C   UNL A   1      30.883  26.734  24.464  1.00  0.00     0.365 C 
ATOM     10  O   UNL A   1      30.145  25.778  24.232  1.00  0.00    -0.245 OA
BRANCH   9  11
ATOM     11  C   UNL A   1      31.904  27.222  23.424  1.00  0.00     0.304 C 
ATOM     12  C   UNL A   1      33.333  25.449  22.593  1.00  0.00     0.283 C 
ATOM     13  N   UNL A   1      33.262  26.631  23.457  1.00  0.00    -0.319 N 
ATOM     14  S   UNL A   1      32.173  25.716  21.225  1.00  0.00    -0.087 SA
ATOM     15  H   UNL A   1      33.936  27.324  23.131  1.00  0.00     0.348 HD
ATOM     16  H   UNL A   1      33.476  26.352  24.414  1.00  0.00     0.348 HD
ATOM     17  C   UNL A   1      31.331  27.107  22.020  1.00  0.00     0.153 C 
BRANCH  12  18
ATOM     18  C   UNL A   1      33.184  24.138  23.316  1.00  0.00     0.128 A 
ATOM     19  C   UNL A   1      32.113  23.316  23.372  1.00  0.00     0.205 A 
ATOM     20  O   UNL A   1      32.087  22.156  24.130  1.00  0.00    -0.440 OA
ATOM     21  C   UNL A   1      33.279  21.564  24.421  1.00  0.00     0.140 A 
ATOM     22  C   UNL A   1      34.431  23.678  24.009  1.00  0.00     0.205 A 
ATOM     23  C   UNL A   1      33.267  20.201  24.680  1.00  0.00     0.051 A 
ATOM     24  C   UNL A   1      34.475  22.267  24.408  1.00  0.00     0.068 A 
ATOM     25  O   UNL A   1      35.422  24.388  24.144  1.00  0.00    -0.288 OA
ATOM     26  C   UNL A   1      34.476  19.538  24.886  1.00  0.00     0.043 A 
ATOM     27  C   UNL A   1      35.683  21.617  24.669  1.00  0.00     0.055 A 
ATOM     28  C   UNL A   1      35.668  20.249  24.894  1.00  0.00     0.124 A 
ATOM     29  F   UNL A   1      36.818  19.600  25.108  1.00  0.00    -0.207 F 
BRANCH  19  30
ATOM     30  N   UNL A   1      30.933  23.504  22.713  1.00  0.00    -0.369 N 
ATOM     31  H   UNL A   1      30.376  22.729  22.470  1.00  0.00     0.159 HD
ATOM     32  H   UNL A   1      30.639  24.414  22.480  1.00  0.00     0.159 HD
ENDBRANCH  19  30
ENDBRANCH  12  18
ENDBRANCH   9  11
ENDBRANCH   8   9
ENDBRANCH   7   8
ENDBRANCH   6   7
ENDBRANCH   5   6
ENDBRANCH   4   5
ENDBRANCH   3   4
ENDBRANCH   2   3
ENDBRANCH   1   2
BRANCH   1  33
ATOM     33  C   UNL A   1      33.446  34.073  28.327  1.00  0.00     0.188 C 
BRANCH  33  34
ATOM     34  O   UNL A   1      34.053  35.184  28.981  1.00  0.00    -0.376 OA
BRANCH  34  35
ATOM     35  C   UNL A   1      33.514  35.614  30.224  1.00  0.00     0.202 C 
BRANCH  35  36
ATOM     36  C   UNL A   1      34.022  34.928  31.503  1.00  0.00     0.261 C 
BRANCH  36  37
ATOM     37  O   UNL A   1      35.166  34.070  31.367  1.00  0.00    -0.460 OA
BRANCH  37  38
ATOM     38  C   UNL A   1      35.096  32.819  31.873  1.00  0.00     0.338 C 
ATOM     39  O   UNL A   1      34.183  32.354  32.534  1.00  0.00    -0.246 OA
BRANCH  38  40
ATOM     40  C   UNL A   1      36.214  32.031  31.297  1.00  0.00     0.060 A 
ATOM     41  C   UNL A   1      36.874  32.456  30.144  1.00  0.00     0.016 A 
ATOM     42  C   UNL A   1      36.594  30.835  31.919  1.00  0.00     0.016 A 
ATOM     43  C   UNL A   1      37.946  31.705  29.649  1.00  0.00     0.010 A 
ATOM     44  C   UNL A   1      37.665  30.082  31.418  1.00  0.00     0.010 A 
ATOM     45  C   UNL A   1      38.373  30.523  30.293  1.00  0.00    -0.014 A 
BRANCH  45  46
ATOM     46  C   UNL A   1      39.687  29.929  29.924  1.00  0.00     0.031 A 
ATOM     47  C   UNL A   1      39.888  28.484  29.578  1.00  0.00     0.074 A 
ATOM     48  C   UNL A   1      40.757  30.747  29.895  1.00  0.00     0.049 A 
ATOM     49  N   UNL A   1      40.852  27.959  28.862  1.00  0.00    -0.248 NA
ATOM     50  C   UNL A   1      38.904  27.504  30.059  1.00  0.00     0.031 C 
ATOM     51  C   UNL A   1      40.750  32.145  30.328  1.00  0.00     0.029 A 
ATOM     52  N   UNL A   1      42.050  30.524  29.498  1.00  0.00    -0.354 N 
ATOM     53  C   UNL A   1      40.508  26.627  28.674  1.00  0.00     0.074 A 
ATOM     54  C   UNL A   1      39.328  26.384  29.475  1.00  0.00     0.031 C 
ATOM     55  C   UNL A   1      41.980  32.654  30.175  1.00  0.00     0.029 A 
ATOM     56  C   UNL A   1      42.865  31.621  29.639  1.00  0.00     0.049 A 
ATOM     57  H   UNL A   1      42.365  29.659  29.147  1.00  0.00     0.167 HD
ATOM     58  C   UNL A   1      41.084  25.736  27.835  1.00  0.00     0.034 A 
ATOM     59  C   UNL A   1      44.174  31.785  29.364  1.00  0.00     0.034 A 
ATOM     60  C   UNL A   1      42.364  25.945  27.207  1.00  0.00     0.049 A 
ATOM     61  C   UNL A   1      44.918  30.677  28.666  1.00  0.00     0.074 A 
ATOM     62  C   UNL A   1      43.045  25.097  26.351  1.00  0.00     0.029 A 
ATOM     63  N   UNL A   1      43.198  27.027  27.443  1.00  0.00    -0.354 N 
ATOM     64  N   UNL A   1      44.457  29.535  28.210  1.00  0.00    -0.248 NA
ATOM     65  C   UNL A   1      46.350  30.886  28.414  1.00  0.00     0.031 C 
ATOM     66  C   UNL A   1      44.336  25.602  26.182  1.00  0.00     0.029 A 
ATOM     67  C   UNL A   1      44.429  26.816  26.844  1.00  0.00     0.049 A 
ATOM     68  H   UNL A   1      42.951  27.828  27.959  1.00  0.00     0.167 HD
ATOM     69  C   UNL A   1      45.532  28.906  27.587  1.00  0.00     0.074 A 
ATOM     70  C   UNL A   1      46.662  29.804  27.711  1.00  0.00     0.031 C 
ATOM     71  C   UNL A   1      45.568  27.699  26.965  1.00  0.00     0.034 A 
BRANCH  58  72
ATOM     72  C   UNL A   1      40.344  24.472  27.483  1.00  0.00     0.023 A 
ATOM     73  C   UNL A   1      40.946  23.213  27.623  1.00  0.00     0.031 A 
ATOM     74  C   UNL A   1      39.120  24.551  26.792  1.00  0.00     0.131 A 
ATOM     75  C   UNL A   1      40.331  22.086  27.057  1.00  0.00     0.055 A 
ATOM     76  C   UNL A   1      38.495  23.422  26.259  1.00  0.00     0.041 A 
ATOM     77  F   UNL A   1      38.536  25.738  26.573  1.00  0.00    -0.206 F 
ATOM     78  C   UNL A   1      39.108  22.183  26.382  1.00  0.00     0.022 A 
BRANCH  75  79
ATOM     79  S   UNL A   1      41.131  20.459  27.100  1.00  0.00     0.124 S 
ATOM     80  O   UNL A   1      42.540  20.819  26.953  1.00  0.00    -0.237 OA
ATOM     81  O   UNL A   1      40.747  19.963  28.418  1.00  0.00    -0.237 OA
ATOM     82  O   UNL A   1      40.549  19.756  25.962  1.00  0.00    -0.744 OA
ENDBRANCH  75  79
ENDBRANCH  58  72
BRANCH  59  83
ATOM     83  C   UNL A   1      44.818  33.082  29.719  1.00  0.00     0.023 A 
ATOM     84  C   UNL A   1      45.492  33.225  30.947  1.00  0.00     0.031 A 
ATOM     85  C   UNL A   1      44.675  34.219  28.909  1.00  0.00     0.131 A 
ATOM     86  C   UNL A   1      45.927  34.488  31.363  1.00  0.00     0.055 A 
ATOM     87  C   UNL A   1      45.179  35.463  29.294  1.00  0.00     0.041 A 
ATOM     88  F   UNL A   1      44.027  34.137  27.737  1.00  0.00    -0.206 F 
ATOM     89  C   UNL A   1      45.793  35.605  30.536  1.00  0.00     0.022 A 
BRANCH  86  90
ATOM     90  S   UNL A   1      46.552  34.744  33.047  1.00  0.00     0.124 S 
ATOM     91  O   UNL A   1      45.448  34.249  33.862  1.00  0.00    -0.237 OA
ATOM     92  O   UNL A   1      47.757  33.918  33.046  1.00  0.00    -0.237 OA
ATOM     93  O   UNL A   1      46.789  36.183  33.114  1.00  0.00    -0.744 OA
ENDBRANCH  86  90
ENDBRANCH  59  83
BRANCH  71  94
ATOM     94  C   UNL A   1      46.873  27.224  26.364  1.00  0.00     0.023 A 
ATOM     95  C   UNL A   1      47.810  26.542  27.165  1.00  0.00     0.031 A 
ATOM     96  C   UNL A   1      47.259  27.588  25.062  1.00  0.00     0.131 A 
ATOM     97  C   UNL A   1      49.102  26.302  26.681  1.00  0.00     0.055 A 
ATOM     98  C   UNL A   1      48.525  27.286  24.559  1.00  0.00     0.041 A 
ATOM     99  F   UNL A   1      46.411  28.251  24.259  1.00  0.00    -0.206 F 
ATOM    100  C   UNL A   1      49.461  26.658  25.378  1.00  0.00     0.022 A 
BRANCH  97 101
ATOM    101  S   UNL A   1      50.396  25.634  27.763  1.00  0.00     0.124 S 
ATOM    102  O   UNL A   1      50.121  26.321  29.023  1.00  0.00    -0.237 OA
ATOM    103  O   UNL A   1      50.094  24.205  27.755  1.00  0.00    -0.237 OA
ATOM    104  O   UNL A   1      51.640  26.015  27.103  1.00  0.00    -0.744 OA
ENDBRANCH  97 101
ENDBRANCH  71  94
ENDBRANCH  45  46
ENDBRANCH  38  40
ENDBRANCH  37  38
ENDBRANCH  36  37
ENDBRANCH  35  36
ENDBRANCH  34  35
ENDBRANCH  33  34
ENDBRANCH   1  33
TORSDOF 25
ENDMDL
MODEL 3
REMARK VINA RESULT:      -9.6      6.461     11.686
REMARK SMILES Nc1oc2ccc(F)cc2c(=O)c1[C@@H]1[NH2+][C@H](C(=O)OCCOCCOCCOCCOC(=O)c2ccc(-c3c4nc(c(-c5cc(S(=O)(=O)[O-])ccc5F)c5ccc([nH]5)c(-c5cc(S(=O)(=O)[O-])ccc5F)c5nc(c(-c6cc(S(=O)(=O)[O-])ccc6F)c6ccc3[nH]6)C=C5)C=C4)cc2)CS1
REMARK SMILES IDX 26 1 25 2 24 3 23 4 22 5 21 6 20 7 19 8 17 9 18 10 16 11
REMARK SMILES IDX 14 12 15 13 98 14 97 17 13 18 2 19 3 20 4 21 11 22 5 23
REMARK SMILES IDX 10 24 12 25 6 26 9 27 7 28 8 29 1 30 27 33 28 34 29 35 30 36
REMARK SMILES IDX 31 37 32 38 33 39 34 40 35 41 96 42 36 43 95 44 37 45 38 46
REMARK SMILES IDX 39 47 89 48 40 49 94 50 88 51 90 52 41 53 93 54 87 55 86 56
REMARK SMILES IDX 42 58 74 59 54 60 73 61 55 62 58 63 72 64 91 65 56 66 57 67
REMARK SMILES IDX 71 69 92 70 59 71 43 72 44 73 52 74 45 75 51 76 53 77 50 78
REMARK SMILES IDX 46 79 47 80 48 81 49 82 75 83 76 84 84 85 77 86 83 87 85 88
REMARK SMILES IDX 82 89 78 90 79 91 80 92 81 93 60 94 61 95 69 96 62 97 68 98
REMARK SMILES IDX 70 99 67 100 63 101 64 102 65 103 66 104
REMARK H PARENT 15 15 15 16 1 31 1 32 90 57 58 68
REMARK Flexibility Score: inf
ROOT
ATOM      1  C   UNL A   1      40.218  22.112  26.509  1.00  0.00     0.188 C 
ENDROOT
BRANCH   1   2
ATOM      2  O   UNL A   1      39.188  21.447  25.791  1.00  0.00    -0.377 OA
BRANCH   2   3
ATOM      3  C   UNL A   1      37.981  22.173  25.636  1.00  0.00     0.188 C 
BRANCH   3   4
ATOM      4  C   UNL A   1      36.735  21.299  25.382  1.00  0.00     0.188 C 
BRANCH   4   5
ATOM      5  O   UNL A   1      35.849  21.577  24.298  1.00  0.00    -0.376 OA
BRANCH   5   6
ATOM      6  C   UNL A   1      35.923  22.837  23.636  1.00  0.00     0.202 C 
BRANCH   6   7
ATOM      7  C   UNL A   1      35.109  24.026  24.166  1.00  0.00     0.261 C 
BRANCH   7   8
ATOM      8  O   UNL A   1      34.381  24.730  23.150  1.00  0.00    -0.459 OA
BRANCH   8   9
ATOM      9  C   UNL A   1      33.633  25.787  23.533  1.00  0.00     0.365 C 
ATOM     10  O   UNL A   1      34.033  26.686  24.271  1.00  0.00    -0.245 OA
BRANCH   9  11
ATOM     11  C   UNL A   1      32.241  25.849  22.886  1.00  0.00     0.304 C 
ATOM     12  C   UNL A   1      30.871  23.915  23.395  1.00  0.00     0.283 C 
ATOM     13  N   UNL A   1      31.664  24.590  22.362  1.00  0.00    -0.319 N 
ATOM     14  S   UNL A   1      30.169  25.206  24.458  1.00  0.00    -0.087 SA
ATOM     15  H   UNL A   1      31.063  24.802  21.566  1.00  0.00     0.348 HD
ATOM     16  H   UNL A   1      32.424  23.973  22.077  1.00  0.00     0.348 HD
ATOM     17  C   UNL A   1      31.246  26.516  23.824  1.00  0.00     0.153 C 
BRANCH  12  18
ATOM     18  C   UNL A   1      31.596  22.811  24.116  1.00  0.00     0.128 A 
ATOM     19  C   UNL A   1      31.769  22.634  25.444  1.00  0.00     0.205 A 
ATOM     20  O   UNL A   1      32.515  21.597  25.980  1.00  0.00    -0.440 OA
ATOM     21  C   UNL A   1      32.660  20.470  25.229  1.00  0.00     0.140 A 
ATOM     22  C   UNL A   1      32.134  21.743  23.212  1.00  0.00     0.205 A 
ATOM     23  C   UNL A   1      32.907  19.282  25.903  1.00  0.00     0.051 A 
ATOM     24  C   UNL A   1      32.514  20.477  23.849  1.00  0.00     0.068 A 
ATOM     25  O   UNL A   1      32.159  21.850  21.990  1.00  0.00    -0.288 OA
ATOM     26  C   UNL A   1      32.965  18.091  25.181  1.00  0.00     0.043 A 
ATOM     27  C   UNL A   1      32.627  19.294  23.116  1.00  0.00     0.055 A 
ATOM     28  C   UNL A   1      32.840  18.106  23.800  1.00  0.00     0.124 A 
ATOM     29  F   UNL A   1      32.913  16.955  23.121  1.00  0.00    -0.207 F 
BRANCH  19  30
ATOM     30  N   UNL A   1      31.253  23.432  26.424  1.00  0.00    -0.369 N 
ATOM     31  H   UNL A   1      30.278  23.538  26.510  1.00  0.00     0.159 HD
ATOM     32  H   UNL A   1      31.856  23.902  27.045  1.00  0.00     0.159 HD
ENDBRANCH  19  30
ENDBRANCH  12  18
ENDBRANCH   9  11
ENDBRANCH   8   9
ENDBRANCH   7   8
ENDBRANCH   6   7
ENDBRANCH   5   6
ENDBRANCH   4   5
ENDBRANCH   3   4
ENDBRANCH   2   3
ENDBRANCH   1   2
BRANCH   1  33
ATOM     33  C   UNL A   1      41.667  21.674  26.209  1.00  0.00     0.188 C 
BRANCH  33  34
ATOM     34  O   UNL A   1      42.189  20.728  27.138  1.00  0.00    -0.376 OA
BRANCH  34  35
ATOM     35  C   UNL A   1      41.985  19.345  26.880  1.00  0.00     0.202 C 
BRANCH  35  36
ATOM     36  C   UNL A   1      43.009  18.621  25.989  1.00  0.00     0.261 C 
BRANCH  36  37
ATOM     37  O   UNL A   1      43.254  19.186  24.691  1.00  0.00    -0.460 OA
BRANCH  37  38
ATOM     38  C   UNL A   1      44.533  19.375  24.303  1.00  0.00     0.338 C 
ATOM     39  O   UNL A   1      45.226  18.588  23.682  1.00  0.00    -0.246 OA
BRANCH  38  40
ATOM     40  C   UNL A   1      44.882  20.794  24.559  1.00  0.00     0.060 A 
ATOM     41  C   UNL A   1      44.692  21.770  23.580  1.00  0.00     0.016 A 
ATOM     42  C   UNL A   1      45.426  21.148  25.801  1.00  0.00     0.016 A 
ATOM     43  C   UNL A   1      45.002  23.104  23.870  1.00  0.00     0.010 A 
ATOM     44  C   UNL A   1      45.740  22.484  26.085  1.00  0.00     0.010 A 
ATOM     45  C   UNL A   1      45.504  23.483  25.133  1.00  0.00    -0.014 A 
BRANCH  45  46
ATOM     46  C   UNL A   1      45.529  24.925  25.503  1.00  0.00     0.031 A 
ATOM     47  C   UNL A   1      44.316  25.714  25.894  1.00  0.00     0.074 A 
ATOM     48  C   UNL A   1      46.721  25.553  25.488  1.00  0.00     0.049 A 
ATOM     49  N   UNL A   1      44.269  26.809  26.612  1.00  0.00    -0.248 NA
ATOM     50  C   UNL A   1      42.997  25.232  25.461  1.00  0.00     0.031 C 
ATOM     51  C   UNL A   1      47.970  24.960  25.009  1.00  0.00     0.029 A 
ATOM     52  N   UNL A   1      47.076  26.820  25.872  1.00  0.00    -0.354 N 
ATOM     53  C   UNL A   1      42.924  27.055  26.850  1.00  0.00     0.074 A 
ATOM     54  C   UNL A   1      42.180  26.087  26.075  1.00  0.00     0.031 C 
ATOM     55  C   UNL A   1      48.953  25.863  25.126  1.00  0.00     0.029 A 
ATOM     56  C   UNL A   1      48.407  27.099  25.683  1.00  0.00     0.049 A 
ATOM     57  H   UNL A   1      46.436  27.469  26.248  1.00  0.00     0.167 HD
ATOM     58  C   UNL A   1      42.388  27.953  27.709  1.00  0.00     0.034 A 
ATOM     59  C   UNL A   1      49.115  28.218  25.932  1.00  0.00     0.034 A 
ATOM     60  C   UNL A   1      43.137  29.026  28.311  1.00  0.00     0.049 A 
ATOM     61  C   UNL A   1      48.448  29.359  26.656  1.00  0.00     0.074 A 
ATOM     62  C   UNL A   1      42.686  30.000  29.184  1.00  0.00     0.029 A 
ATOM     63  N   UNL A   1      44.460  29.329  28.026  1.00  0.00    -0.354 N 
ATOM     64  N   UNL A   1      47.236  29.419  27.156  1.00  0.00    -0.248 NA
ATOM     65  C   UNL A   1      49.247  30.570  26.879  1.00  0.00     0.031 C 
ATOM     66  C   UNL A   1      43.692  30.960  29.316  1.00  0.00     0.029 A 
ATOM     67  C   UNL A   1      44.808  30.535  28.612  1.00  0.00     0.049 A 
ATOM     68  H   UNL A   1      45.065  28.769  27.487  1.00  0.00     0.167 HD
ATOM     69  C   UNL A   1      47.139  30.659  27.784  1.00  0.00     0.074 A 
ATOM     70  C   UNL A   1      48.422  31.308  27.613  1.00  0.00     0.031 C 
ATOM     71  C   UNL A   1      46.082  31.198  28.445  1.00  0.00     0.034 A 
BRANCH  58  72
ATOM     72  C   UNL A   1      40.945  27.811  28.114  1.00  0.00     0.023 A 
ATOM     73  C   UNL A   1      40.038  28.870  27.959  1.00  0.00     0.031 A 
ATOM     74  C   UNL A   1      40.539  26.692  28.867  1.00  0.00     0.131 A 
ATOM     75  C   UNL A   1      38.777  28.795  28.569  1.00  0.00     0.055 A 
ATOM     76  C   UNL A   1      39.271  26.608  29.445  1.00  0.00     0.041 A 
ATOM     77  F   UNL A   1      41.389  25.683  29.101  1.00  0.00    -0.206 F 
ATOM     78  C   UNL A   1      38.387  27.670  29.305  1.00  0.00     0.022 A 
BRANCH  75  79
ATOM     79  S   UNL A   1      37.619  30.189  28.505  1.00  0.00     0.124 S 
ATOM     80  O   UNL A   1      38.507  31.323  28.748  1.00  0.00    -0.237 OA
ATOM     81  O   UNL A   1      37.093  30.088  27.147  1.00  0.00    -0.237 OA
ATOM     82  O   UNL A   1      36.671  29.903  29.576  1.00  0.00    -0.744 OA
ENDBRANCH  75  79
ENDBRANCH  58  72
BRANCH  59  83
ATOM     83  C   UNL A   1      50.549  28.259  25.525  1.00  0.00     0.023 A 
ATOM     84  C   UNL A   1      50.898  28.561  24.194  1.00  0.00     0.031 A 
ATOM     85  C   UNL A   1      51.574  27.888  26.408  1.00  0.00     0.131 A 
ATOM     86  C   UNL A   1      52.223  28.411  23.768  1.00  0.00     0.055 A 
ATOM     87  C   UNL A   1      52.906  27.814  25.997  1.00  0.00     0.041 A 
ATOM     88  F   UNL A   1      51.290  27.576  27.682  1.00  0.00    -0.206 F 
ATOM     89  C   UNL A   1      53.233  28.058  24.666  1.00  0.00     0.022 A 
BRANCH  86  90
ATOM     90  S   UNL A   1      52.648  28.531  22.009  1.00  0.00     0.124 S 
ATOM     91  O   UNL A   1      54.052  28.928  22.060  1.00  0.00    -0.237 OA
ATOM     92  O   UNL A   1      52.393  27.169  21.546  1.00  0.00    -0.237 OA
ATOM     93  O   UNL A   1      51.727  29.541  21.498  1.00  0.00    -0.744 OA
ENDBRANCH  86  90
ENDBRANCH  59  83
BRANCH  71  94
ATOM     94  C   UNL A   1      46.220  32.581  29.042  1.00  0.00     0.023 A 
ATOM     95  C   UNL A   1      45.894  33.716  28.273  1.00  0.00     0.031 A 
ATOM     96  C   UNL A   1      46.825  32.785  30.294  1.00  0.00     0.131 A 
ATOM     97  C   UNL A   1      46.232  34.995  28.733  1.00  0.00     0.055 A 
ATOM     98  C   UNL A   1      47.098  34.066  30.779  1.00  0.00     0.041 A 
ATOM     99  F   UNL A   1      47.169  31.740  31.064  1.00  0.00    -0.206 F 
ATOM    100  C   UNL A   1      46.820  35.177  29.988  1.00  0.00     0.022 A 
BRANCH  97 101
ATOM    101  S   UNL A   1      46.034  36.453  27.671  1.00  0.00     0.124 S 
ATOM    102  O   UNL A   1      47.348  36.548  27.040  1.00  0.00    -0.237 OA
ATOM    103  O   UNL A   1      44.947  36.041  26.786  1.00  0.00    -0.237 OA
ATOM    104  O   UNL A   1      45.710  37.527  28.603  1.00  0.00    -0.744 OA
ENDBRANCH  97 101
ENDBRANCH  71  94
ENDBRANCH  45  46
ENDBRANCH  38  40
ENDBRANCH  37  38
ENDBRANCH  36  37
ENDBRANCH  35  36
ENDBRANCH  34  35
ENDBRANCH  33  34
ENDBRANCH   1  33
TORSDOF 25
ENDMDL
