MODEL 1
REMARK VINA RESULT:      -9.7      0.000      0.000
REMARK SMILES C/C=C/C[N@H+]1CCC[C@H](C(=O)OCCOCCOCCOCCOC(=O)c2ccc(-c3c4nc(c(-c5cc(S(=O)(=O)[O-])ccc5F)c5ccc([nH]5)c(-c5cc(S(=O)(=O)[O-])ccc5F)c5nc(c(-c6cc(S(=O)(=O)[O-])ccc6F)c6ccc3[nH]6)C=C5)C=C4)cc2)C1
REMARK SMILES IDX 19 1 18 2 17 3 16 4 15 5 14 6 13 7 12 8 10 9 11 10 9 11 5 12
REMARK SMILES IDX 6 13 90 14 7 16 8 17 4 18 3 19 1 20 2 21 20 22 21 23 22 24
REMARK SMILES IDX 23 25 24 26 25 27 26 28 27 29 28 30 89 31 29 32 88 33 30 34
REMARK SMILES IDX 31 35 32 36 82 37 33 38 87 39 81 40 83 41 34 42 86 43 80 44
REMARK SMILES IDX 79 45 35 47 67 48 47 49 66 50 48 51 51 52 65 53 84 54 49 55
REMARK SMILES IDX 50 56 64 58 85 59 52 60 36 61 37 62 45 63 38 64 44 65 46 66
REMARK SMILES IDX 43 67 39 68 40 69 41 70 42 71 68 72 69 73 77 74 70 75 76 76
REMARK SMILES IDX 78 77 75 78 71 79 72 80 73 81 74 82 53 83 54 84 62 85 55 86
REMARK SMILES IDX 61 87 63 88 60 89 56 90 57 91 58 92 59 93
REMARK H PARENT 5 15 83 46 51 57
REMARK Flexibility Score: inf
ROOT
ATOM      1  C   UNL A   1      31.792  28.369  25.549  1.00  0.00     0.188 C 
ENDROOT
BRANCH   1   2
ATOM      2  O   UNL A   1      31.257  29.212  24.532  1.00  0.00    -0.377 OA
BRANCH   2   3
ATOM      3  C   UNL A   1      30.925  28.676  23.263  1.00  0.00     0.188 C 
BRANCH   3   4
ATOM      4  C   UNL A   1      29.944  27.502  23.170  1.00  0.00     0.188 C 
BRANCH   4   5
ATOM      5  O   UNL A   1      30.499  26.229  22.965  1.00  0.00    -0.376 OA
BRANCH   5   6
ATOM      6  C   UNL A   1      31.687  26.050  22.216  1.00  0.00     0.202 C 
BRANCH   6   7
ATOM      7  C   UNL A   1      33.069  25.641  22.767  1.00  0.00     0.261 C 
BRANCH   7   8
ATOM      8  O   UNL A   1      33.808  24.606  22.110  1.00  0.00    -0.463 OA
BRANCH   8   9
ATOM      9  C   UNL A   1      33.811  23.401  22.719  1.00  0.00     0.314 C 
ATOM     10  O   UNL A   1      32.902  22.576  22.611  1.00  0.00    -0.252 OA
BRANCH   9  11
ATOM     11  C   UNL A   1      35.013  23.125  23.616  1.00  0.00     0.154 C 
ATOM     12  N   UNL A   1      33.764  21.906  25.361  1.00  0.00    -0.331 N 
ATOM     13  C   UNL A   1      34.245  22.807  26.419  1.00  0.00     0.262 C 
ATOM     14  C   UNL A   1      34.750  21.774  24.276  1.00  0.00     0.277 C 
ATOM     15  H   UNL A   1      32.919  22.343  24.992  1.00  0.00     0.348 HD
ATOM     16  C   UNL A   1      34.554  24.199  25.876  1.00  0.00     0.062 C 
ATOM     17  C   UNL A   1      35.486  24.120  24.680  1.00  0.00     0.027 C 
BRANCH  12  18
ATOM     18  C   UNL A   1      33.382  20.583  25.857  1.00  0.00     0.290 C 
BRANCH  18  19
ATOM     19  C   UNL A   1      33.432  19.539  24.783  1.00  0.00     0.029 C 
ATOM     20  C   UNL A   1      32.543  18.234  22.857  1.00  0.00     0.035 C 
ATOM     21  C   UNL A   1      32.467  19.321  23.878  1.00  0.00    -0.029 C 
ENDBRANCH  18  19
ENDBRANCH  12  18
ENDBRANCH   9  11
ENDBRANCH   8   9
ENDBRANCH   7   8
ENDBRANCH   6   7
ENDBRANCH   5   6
ENDBRANCH   4   5
ENDBRANCH   3   4
ENDBRANCH   2   3
ENDBRANCH   1   2
BRANCH   1  22
ATOM     22  C   UNL A   1      31.722  28.780  27.033  1.00  0.00     0.188 C 
BRANCH  22  23
ATOM     23  O   UNL A   1      32.807  29.571  27.486  1.00  0.00    -0.376 OA
BRANCH  23  24
ATOM     24  C   UNL A   1      32.917  30.899  26.998  1.00  0.00     0.202 C 
BRANCH  24  25
ATOM     25  C   UNL A   1      33.657  31.932  27.864  1.00  0.00     0.261 C 
BRANCH  25  26
ATOM     26  O   UNL A   1      33.461  33.314  27.529  1.00  0.00    -0.460 OA
BRANCH  26  27
ATOM     27  C   UNL A   1      33.398  34.205  28.545  1.00  0.00     0.338 C 
ATOM     28  O   UNL A   1      32.509  34.998  28.771  1.00  0.00    -0.246 OA
BRANCH  27  29
ATOM     29  C   UNL A   1      34.529  33.920  29.454  1.00  0.00     0.060 A 
ATOM     30  C   UNL A   1      35.830  34.231  29.040  1.00  0.00     0.016 A 
ATOM     31  C   UNL A   1      34.303  33.335  30.702  1.00  0.00     0.016 A 
ATOM     32  C   UNL A   1      36.916  33.921  29.858  1.00  0.00     0.010 A 
ATOM     33  C   UNL A   1      35.392  33.005  31.511  1.00  0.00     0.010 A 
ATOM     34  C   UNL A   1      36.705  33.262  31.077  1.00  0.00    -0.014 A 
BRANCH  34  35
ATOM     35  C   UNL A   1      37.858  32.656  31.790  1.00  0.00     0.031 A 
ATOM     36  C   UNL A   1      38.570  31.503  31.135  1.00  0.00     0.074 A 
ATOM     37  C   UNL A   1      38.284  33.133  32.973  1.00  0.00     0.049 A 
ATOM     38  N   UNL A   1      39.557  30.771  31.580  1.00  0.00    -0.248 NA
ATOM     39  C   UNL A   1      38.096  31.123  29.793  1.00  0.00     0.031 C 
ATOM     40  C   UNL A   1      37.710  34.281  33.675  1.00  0.00     0.029 A 
ATOM     41  N   UNL A   1      39.295  32.706  33.796  1.00  0.00    -0.354 N 
ATOM     42  C   UNL A   1      39.817  29.838  30.581  1.00  0.00     0.074 A 
ATOM     43  C   UNL A   1      38.859  30.077  29.523  1.00  0.00     0.031 C 
ATOM     44  C   UNL A   1      38.374  34.457  34.831  1.00  0.00     0.029 A 
ATOM     45  C   UNL A   1      39.386  33.412  34.973  1.00  0.00     0.049 A 
ATOM     46  H   UNL A   1      39.900  31.964  33.565  1.00  0.00     0.167 HD
ATOM     47  C   UNL A   1      40.770  28.875  30.549  1.00  0.00     0.034 A 
ATOM     48  C   UNL A   1      40.173  33.215  36.051  1.00  0.00     0.034 A 
ATOM     49  C   UNL A   1      41.709  28.647  31.619  1.00  0.00     0.049 A 
ATOM     50  C   UNL A   1      41.167  32.075  36.034  1.00  0.00     0.074 A 
ATOM     51  C   UNL A   1      42.726  27.710  31.686  1.00  0.00     0.029 A 
ATOM     52  N   UNL A   1      41.739  29.349  32.818  1.00  0.00    -0.354 N 
ATOM     53  N   UNL A   1      41.406  31.200  35.083  1.00  0.00    -0.248 NA
ATOM     54  C   UNL A   1      42.000  31.902  37.231  1.00  0.00     0.031 C 
ATOM     55  C   UNL A   1      43.309  27.786  32.954  1.00  0.00     0.029 A 
ATOM     56  C   UNL A   1      42.727  28.838  33.646  1.00  0.00     0.049 A 
ATOM     57  H   UNL A   1      41.144  30.100  33.046  1.00  0.00     0.167 HD
ATOM     58  C   UNL A   1      42.443  30.397  35.557  1.00  0.00     0.074 A 
ATOM     59  C   UNL A   1      42.789  30.901  36.870  1.00  0.00     0.031 C 
ATOM     60  C   UNL A   1      43.057  29.343  34.959  1.00  0.00     0.034 A 
BRANCH  47  61
ATOM     61  C   UNL A   1      40.797  27.960  29.349  1.00  0.00     0.023 A 
ATOM     62  C   UNL A   1      41.706  28.140  28.292  1.00  0.00     0.031 A 
ATOM     63  C   UNL A   1      39.877  26.900  29.249  1.00  0.00     0.131 A 
ATOM     64  C   UNL A   1      41.632  27.319  27.156  1.00  0.00     0.055 A 
ATOM     65  C   UNL A   1      39.864  26.034  28.155  1.00  0.00     0.041 A 
ATOM     66  F   UNL A   1      38.964  26.696  30.212  1.00  0.00    -0.206 F 
ATOM     67  C   UNL A   1      40.736  26.249  27.093  1.00  0.00     0.022 A 
BRANCH  64  68
ATOM     68  S   UNL A   1      42.622  27.758  25.700  1.00  0.00     0.124 S 
ATOM     69  O   UNL A   1      43.981  27.663  26.229  1.00  0.00    -0.237 OA
ATOM     70  O   UNL A   1      42.238  26.733  24.737  1.00  0.00    -0.237 OA
ATOM     71  O   UNL A   1      42.180  29.113  25.381  1.00  0.00    -0.744 OA
ENDBRANCH  64  68
ENDBRANCH  47  61
BRANCH  48  72
ATOM     72  C   UNL A   1      40.026  34.075  37.263  1.00  0.00     0.023 A 
ATOM     73  C   UNL A   1      39.328  33.630  38.397  1.00  0.00     0.031 A 
ATOM     74  C   UNL A   1      40.536  35.388  37.279  1.00  0.00     0.131 A 
ATOM     75  C   UNL A   1      39.120  34.502  39.478  1.00  0.00     0.055 A 
ATOM     76  C   UNL A   1      40.378  36.229  38.381  1.00  0.00     0.041 A 
ATOM     77  F   UNL A   1      41.202  35.871  36.219  1.00  0.00    -0.206 F 
ATOM     78  C   UNL A   1      39.654  35.793  39.484  1.00  0.00     0.022 A 
BRANCH  75  79
ATOM     79  S   UNL A   1      38.053  33.959  40.841  1.00  0.00     0.124 S 
ATOM     80  O   UNL A   1      36.994  33.254  40.126  1.00  0.00    -0.237 OA
ATOM     81  O   UNL A   1      38.961  33.129  41.626  1.00  0.00    -0.237 OA
ATOM     82  O   UNL A   1      37.650  35.211  41.478  1.00  0.00    -0.744 OA
ENDBRANCH  75  79
ENDBRANCH  48  72
BRANCH  60  83
ATOM     83  C   UNL A   1      44.207  28.698  35.699  1.00  0.00     0.023 A 
ATOM     84  C   UNL A   1      44.023  27.588  36.542  1.00  0.00     0.031 A 
ATOM     85  C   UNL A   1      45.511  29.207  35.556  1.00  0.00     0.131 A 
ATOM     86  C   UNL A   1      45.113  27.063  37.256  1.00  0.00     0.055 A 
ATOM     87  C   UNL A   1      46.602  28.635  36.211  1.00  0.00     0.041 A 
ATOM     88  F   UNL A   1      45.749  30.268  34.768  1.00  0.00    -0.206 F 
ATOM     89  C   UNL A   1      46.403  27.566  37.079  1.00  0.00     0.022 A 
BRANCH  86  90
ATOM     90  S   UNL A   1      44.801  25.783  38.502  1.00  0.00     0.124 S 
ATOM     91  O   UNL A   1      43.880  24.895  37.802  1.00  0.00    -0.237 OA
ATOM     92  O   UNL A   1      46.138  25.252  38.746  1.00  0.00    -0.237 OA
ATOM     93  O   UNL A   1      44.217  26.526  39.618  1.00  0.00    -0.744 OA
ENDBRANCH  86  90
ENDBRANCH  60  83
ENDBRANCH  34  35
ENDBRANCH  27  29
ENDBRANCH  26  27
ENDBRANCH  25  26
ENDBRANCH  24  25
ENDBRANCH  23  24
ENDBRANCH  22  23
ENDBRANCH   1  22
TORSDOF 25
ENDMDL
MODEL 2
REMARK VINA RESULT:      -9.0      6.752     11.252
REMARK SMILES C/C=C/C[N@H+]1CCC[C@H](C(=O)OCCOCCOCCOCCOC(=O)c2ccc(-c3c4nc(c(-c5cc(S(=O)(=O)[O-])ccc5F)c5ccc([nH]5)c(-c5cc(S(=O)(=O)[O-])ccc5F)c5nc(c(-c6cc(S(=O)(=O)[O-])ccc6F)c6ccc3[nH]6)C=C5)C=C4)cc2)C1
REMARK SMILES IDX 19 1 18 2 17 3 16 4 15 5 14 6 13 7 12 8 10 9 11 10 9 11 5 12
REMARK SMILES IDX 6 13 90 14 7 16 8 17 4 18 3 19 1 20 2 21 20 22 21 23 22 24
REMARK SMILES IDX 23 25 24 26 25 27 26 28 27 29 28 30 89 31 29 32 88 33 30 34
REMARK SMILES IDX 31 35 32 36 82 37 33 38 87 39 81 40 83 41 34 42 86 43 80 44
REMARK SMILES IDX 79 45 35 47 67 48 47 49 66 50 48 51 51 52 65 53 84 54 49 55
REMARK SMILES IDX 50 56 64 58 85 59 52 60 36 61 37 62 45 63 38 64 44 65 46 66
REMARK SMILES IDX 43 67 39 68 40 69 41 70 42 71 68 72 69 73 77 74 70 75 76 76
REMARK SMILES IDX 78 77 75 78 71 79 72 80 73 81 74 82 53 83 54 84 62 85 55 86
REMARK SMILES IDX 61 87 63 88 60 89 56 90 57 91 58 92 59 93
REMARK H PARENT 5 15 83 46 51 57
REMARK Flexibility Score: inf
ROOT
ATOM      1  C   UNL A   1      40.756  22.639  27.454  1.00  0.00     0.188 C 
ENDROOT
BRANCH   1   2
ATOM      2  O   UNL A   1      40.036  23.382  26.474  1.00  0.00    -0.377 OA
BRANCH   2   3
ATOM      3  C   UNL A   1      38.622  23.451  26.528  1.00  0.00     0.188 C 
BRANCH   3   4
ATOM      4  C   UNL A   1      37.783  22.477  25.692  1.00  0.00     0.188 C 
BRANCH   4   5
ATOM      5  O   UNL A   1      36.407  22.741  25.606  1.00  0.00    -0.376 OA
BRANCH   5   6
ATOM      6  C   UNL A   1      35.916  24.049  25.376  1.00  0.00     0.202 C 
BRANCH   6   7
ATOM      7  C   UNL A   1      34.457  24.443  25.067  1.00  0.00     0.261 C 
BRANCH   7   8
ATOM      8  O   UNL A   1      33.655  25.029  26.098  1.00  0.00    -0.463 OA
BRANCH   8   9
ATOM      9  C   UNL A   1      32.373  25.300  25.770  1.00  0.00     0.314 C 
ATOM     10  O   UNL A   1      31.624  24.497  25.213  1.00  0.00    -0.252 OA
BRANCH   9  11
ATOM     11  C   UNL A   1      31.903  26.715  26.091  1.00  0.00     0.154 C 
ATOM     12  N   UNL A   1      31.463  27.381  23.756  1.00  0.00    -0.331 N 
ATOM     13  C   UNL A   1      32.344  28.554  23.861  1.00  0.00     0.262 C 
ATOM     14  C   UNL A   1      30.840  27.056  25.049  1.00  0.00     0.277 C 
ATOM     15  H   UNL A   1      32.068  26.609  23.473  1.00  0.00     0.348 HD
ATOM     16  C   UNL A   1      33.451  28.336  24.888  1.00  0.00     0.062 C 
ATOM     17  C   UNL A   1      32.875  27.891  26.221  1.00  0.00     0.027 C 
BRANCH  12  18
ATOM     18  C   UNL A   1      30.434  27.521  22.724  1.00  0.00     0.290 C 
BRANCH  18  19
ATOM     19  C   UNL A   1      29.267  28.333  23.195  1.00  0.00     0.029 C 
ATOM     20  C   UNL A   1      27.657  30.232  23.118  1.00  0.00     0.035 C 
ATOM     21  C   UNL A   1      28.794  29.428  22.581  1.00  0.00    -0.029 C 
ENDBRANCH  18  19
ENDBRANCH  12  18
ENDBRANCH   9  11
ENDBRANCH   8   9
ENDBRANCH   7   8
ENDBRANCH   6   7
ENDBRANCH   5   6
ENDBRANCH   4   5
ENDBRANCH   3   4
ENDBRANCH   2   3
ENDBRANCH   1   2
BRANCH   1  22
ATOM     22  C   UNL A   1      40.795  21.098  27.405  1.00  0.00     0.188 C 
BRANCH  22  23
ATOM     23  O   UNL A   1      42.086  20.528  27.533  1.00  0.00    -0.376 OA
BRANCH  23  24
ATOM     24  C   UNL A   1      42.219  19.126  27.362  1.00  0.00     0.202 C 
BRANCH  24  25
ATOM     25  C   UNL A   1      42.673  18.602  25.990  1.00  0.00     0.261 C 
BRANCH  25  26
ATOM     26  O   UNL A   1      42.988  19.587  24.995  1.00  0.00    -0.460 OA
BRANCH  26  27
ATOM     27  C   UNL A   1      44.270  19.665  24.570  1.00  0.00     0.338 C 
ATOM     28  O   UNL A   1      44.885  18.831  23.939  1.00  0.00    -0.246 OA
BRANCH  27  29
ATOM     29  C   UNL A   1      44.747  21.036  24.848  1.00  0.00     0.060 A 
ATOM     30  C   UNL A   1      45.224  21.343  26.130  1.00  0.00     0.016 A 
ATOM     31  C   UNL A   1      44.709  22.015  23.853  1.00  0.00     0.016 A 
ATOM     32  C   UNL A   1      45.628  22.644  26.431  1.00  0.00     0.010 A 
ATOM     33  C   UNL A   1      45.093  23.321  24.162  1.00  0.00     0.010 A 
ATOM     34  C   UNL A   1      45.519  23.650  25.462  1.00  0.00    -0.014 A 
BRANCH  34  35
ATOM     35  C   UNL A   1      45.645  25.072  25.868  1.00  0.00     0.031 A 
ATOM     36  C   UNL A   1      47.013  25.701  25.833  1.00  0.00     0.074 A 
ATOM     37  C   UNL A   1      44.573  25.799  26.230  1.00  0.00     0.049 A 
ATOM     38  N   UNL A   1      47.389  26.898  26.196  1.00  0.00    -0.248 NA
ATOM     39  C   UNL A   1      48.104  24.855  25.322  1.00  0.00     0.031 C 
ATOM     40  C   UNL A   1      43.193  25.315  26.246  1.00  0.00     0.029 A 
ATOM     41  N   UNL A   1      44.479  27.099  26.659  1.00  0.00    -0.354 N 
ATOM     42  C   UNL A   1      48.761  26.949  25.967  1.00  0.00     0.074 A 
ATOM     43  C   UNL A   1      49.152  25.649  25.469  1.00  0.00     0.031 C 
ATOM     44  C   UNL A   1      42.392  26.305  26.678  1.00  0.00     0.029 A 
ATOM     45  C   UNL A   1      43.203  27.475  27.010  1.00  0.00     0.049 A 
ATOM     46  H   UNL A   1      45.253  27.706  26.711  1.00  0.00     0.167 HD
ATOM     47  C   UNL A   1      49.613  27.987  26.153  1.00  0.00     0.034 A 
ATOM     48  C   UNL A   1      42.751  28.619  27.565  1.00  0.00     0.034 A 
ATOM     49  C   UNL A   1      49.203  29.273  26.662  1.00  0.00     0.049 A 
ATOM     50  C   UNL A   1      43.735  29.732  27.852  1.00  0.00     0.074 A 
ATOM     51  C   UNL A   1      49.979  30.399  26.875  1.00  0.00     0.029 A 
ATOM     52  N   UNL A   1      47.911  29.601  27.053  1.00  0.00    -0.354 N 
ATOM     53  N   UNL A   1      45.030  29.770  27.631  1.00  0.00    -0.248 NA
ATOM     54  C   UNL A   1      43.194  30.956  28.457  1.00  0.00     0.031 C 
ATOM     55  C   UNL A   1      49.178  31.375  27.476  1.00  0.00     0.029 A 
ATOM     56  C   UNL A   1      47.878  30.897  27.547  1.00  0.00     0.049 A 
ATOM     57  H   UNL A   1      47.133  29.001  26.991  1.00  0.00     0.167 HD
ATOM     58  C   UNL A   1      45.448  31.037  28.037  1.00  0.00     0.074 A 
ATOM     59  C   UNL A   1      44.267  31.732  28.503  1.00  0.00     0.031 C 
ATOM     60  C   UNL A   1      46.694  31.578  28.019  1.00  0.00     0.034 A 
BRANCH  47  61
ATOM     61  C   UNL A   1      51.075  27.748  25.866  1.00  0.00     0.023 A 
ATOM     62  C   UNL A   1      51.606  27.836  24.567  1.00  0.00     0.031 A 
ATOM     63  C   UNL A   1      51.951  27.403  26.911  1.00  0.00     0.131 A 
ATOM     64  C   UNL A   1      52.954  27.517  24.338  1.00  0.00     0.055 A 
ATOM     65  C   UNL A   1      53.309  27.169  26.689  1.00  0.00     0.041 A 
ATOM     66  F   UNL A   1      51.498  27.274  28.168  1.00  0.00    -0.206 F 
ATOM     67  C   UNL A   1      53.816  27.212  25.394  1.00  0.00     0.022 A 
BRANCH  64  68
ATOM     68  S   UNL A   1      53.531  27.362  22.625  1.00  0.00     0.124 S 
ATOM     69  O   UNL A   1      54.932  27.757  22.749  1.00  0.00    -0.237 OA
ATOM     70  O   UNL A   1      53.287  25.954  22.336  1.00  0.00    -0.237 OA
ATOM     71  O   UNL A   1      52.689  28.306  21.893  1.00  0.00    -0.744 OA
ENDBRANCH  64  68
ENDBRANCH  47  61
BRANCH  48  72
ATOM     72  C   UNL A   1      41.313  28.762  27.940  1.00  0.00     0.023 A 
ATOM     73  C   UNL A   1      40.873  28.535  29.254  1.00  0.00     0.031 A 
ATOM     74  C   UNL A   1      40.344  29.072  26.968  1.00  0.00     0.131 A 
ATOM     75  C   UNL A   1      39.501  28.576  29.550  1.00  0.00     0.055 A 
ATOM     76  C   UNL A   1      38.988  29.171  27.280  1.00  0.00     0.041 A 
ATOM     77  F   UNL A   1      40.705  29.289  25.693  1.00  0.00    -0.206 F 
ATOM     78  C   UNL A   1      38.557  28.909  28.575  1.00  0.00     0.022 A 
BRANCH  75  79
ATOM     79  S   UNL A   1      38.953  28.090  31.210  1.00  0.00     0.124 S 
ATOM     80  O   UNL A   1      37.892  29.057  31.467  1.00  0.00    -0.237 OA
ATOM     81  O   UNL A   1      38.527  26.710  30.997  1.00  0.00    -0.237 OA
ATOM     82  O   UNL A   1      40.155  28.249  32.026  1.00  0.00    -0.744 OA
ENDBRANCH  75  79
ENDBRANCH  48  72
BRANCH  60  83
ATOM     83  C   UNL A   1      46.834  33.014  28.469  1.00  0.00     0.023 A 
ATOM     84  C   UNL A   1      47.104  33.355  29.806  1.00  0.00     0.031 A 
ATOM     85  C   UNL A   1      46.692  34.061  27.538  1.00  0.00     0.131 A 
ATOM     86  C   UNL A   1      47.163  34.706  30.185  1.00  0.00     0.055 A 
ATOM     87  C   UNL A   1      46.825  35.400  27.908  1.00  0.00     0.041 A 
ATOM     88  F   UNL A   1      46.429  33.799  26.248  1.00  0.00    -0.206 F 
ATOM     89  C   UNL A   1      47.046  35.729  29.242  1.00  0.00     0.022 A 
BRANCH  86  90
ATOM     90  S   UNL A   1      47.287  35.110  31.949  1.00  0.00     0.124 S 
ATOM     91  O   UNL A   1      45.948  34.785  32.429  1.00  0.00    -0.237 OA
ATOM     92  O   UNL A   1      48.357  34.226  32.398  1.00  0.00    -0.237 OA
ATOM     93  O   UNL A   1      47.617  36.534  31.952  1.00  0.00    -0.744 OA
ENDBRANCH  86  90
ENDBRANCH  60  83
ENDBRANCH  34  35
ENDBRANCH  27  29
ENDBRANCH  26  27
ENDBRANCH  25  26
ENDBRANCH  24  25
ENDBRANCH  23  24
ENDBRANCH  22  23
ENDBRANCH   1  22
TORSDOF 25
ENDMDL
MODEL 3
REMARK VINA RESULT:      -8.9      6.370     12.143
REMARK SMILES C/C=C/C[N@H+]1CCC[C@H](C(=O)OCCOCCOCCOCCOC(=O)c2ccc(-c3c4nc(c(-c5cc(S(=O)(=O)[O-])ccc5F)c5ccc([nH]5)c(-c5cc(S(=O)(=O)[O-])ccc5F)c5nc(c(-c6cc(S(=O)(=O)[O-])ccc6F)c6ccc3[nH]6)C=C5)C=C4)cc2)C1
REMARK SMILES IDX 19 1 18 2 17 3 16 4 15 5 14 6 13 7 12 8 10 9 11 10 9 11 5 12
REMARK SMILES IDX 6 13 90 14 7 16 8 17 4 18 3 19 1 20 2 21 20 22 21 23 22 24
REMARK SMILES IDX 23 25 24 26 25 27 26 28 27 29 28 30 89 31 29 32 88 33 30 34
REMARK SMILES IDX 31 35 32 36 82 37 33 38 87 39 81 40 83 41 34 42 86 43 80 44
REMARK SMILES IDX 79 45 35 47 67 48 47 49 66 50 48 51 51 52 65 53 84 54 49 55
REMARK SMILES IDX 50 56 64 58 85 59 52 60 36 61 37 62 45 63 38 64 44 65 46 66
REMARK SMILES IDX 43 67 39 68 40 69 41 70 42 71 68 72 69 73 77 74 70 75 76 76
REMARK SMILES IDX 78 77 75 78 71 79 72 80 73 81 74 82 53 83 54 84 62 85 55 86
REMARK SMILES IDX 61 87 63 88 60 89 56 90 57 91 58 92 59 93
REMARK H PARENT 5 15 83 46 51 57
REMARK Flexibility Score: inf
ROOT
ATOM      1  C   UNL A   1      41.212  21.521  27.801  1.00  0.00     0.188 C 
ENDROOT
BRANCH   1   2
ATOM      2  O   UNL A   1      41.049  22.512  26.790  1.00  0.00    -0.377 OA
BRANCH   2   3
ATOM      3  C   UNL A   1      39.902  23.344  26.785  1.00  0.00     0.188 C 
BRANCH   3   4
ATOM      4  C   UNL A   1      38.598  22.834  26.159  1.00  0.00     0.188 C 
BRANCH   4   5
ATOM      5  O   UNL A   1      37.819  23.774  25.466  1.00  0.00    -0.376 OA
BRANCH   5   6
ATOM      6  C   UNL A   1      36.640  23.397  24.779  1.00  0.00     0.202 C 
BRANCH   6   7
ATOM      7  C   UNL A   1      35.359  24.242  24.621  1.00  0.00     0.261 C 
BRANCH   7   8
ATOM      8  O   UNL A   1      34.101  23.582  24.443  1.00  0.00    -0.463 OA
BRANCH   8   9
ATOM      9  C   UNL A   1      33.819  23.170  23.188  1.00  0.00     0.314 C 
ATOM     10  O   UNL A   1      34.523  23.424  22.210  1.00  0.00    -0.252 OA
BRANCH   9  11
ATOM     11  C   UNL A   1      32.518  22.390  23.033  1.00  0.00     0.154 C 
ATOM     12  N   UNL A   1      31.343  23.465  24.918  1.00  0.00    -0.331 N 
ATOM     13  C   UNL A   1      31.059  22.171  25.558  1.00  0.00     0.262 C 
ATOM     14  C   UNL A   1      31.400  23.342  23.453  1.00  0.00     0.277 C 
ATOM     15  H   UNL A   1      32.260  23.747  25.266  1.00  0.00     0.348 HD
ATOM     16  C   UNL A   1      32.112  21.125  25.202  1.00  0.00     0.062 C 
ATOM     17  C   UNL A   1      32.295  21.029  23.699  1.00  0.00     0.027 C 
BRANCH  12  18
ATOM     18  C   UNL A   1      30.398  24.517  25.297  1.00  0.00     0.290 C 
BRANCH  18  19
ATOM     19  C   UNL A   1      30.413  25.666  24.335  1.00  0.00     0.029 C 
ATOM     20  C   UNL A   1      29.476  27.676  23.201  1.00  0.00     0.035 C 
ATOM     21  C   UNL A   1      29.437  26.577  24.211  1.00  0.00    -0.029 C 
ENDBRANCH  18  19
ENDBRANCH  12  18
ENDBRANCH   9  11
ENDBRANCH   8   9
ENDBRANCH   7   8
ENDBRANCH   6   7
ENDBRANCH   5   6
ENDBRANCH   4   5
ENDBRANCH   3   4
ENDBRANCH   2   3
ENDBRANCH   1   2
BRANCH   1  22
ATOM     22  C   UNL A   1      41.249  20.023  27.438  1.00  0.00     0.188 C 
BRANCH  22  23
ATOM     23  O   UNL A   1      42.513  19.402  27.594  1.00  0.00    -0.376 OA
BRANCH  23  24
ATOM     24  C   UNL A   1      42.771  18.215  26.859  1.00  0.00     0.202 C 
BRANCH  24  25
ATOM     25  C   UNL A   1      43.412  18.347  25.467  1.00  0.00     0.261 C 
BRANCH  25  26
ATOM     26  O   UNL A   1      43.374  19.648  24.861  1.00  0.00    -0.460 OA
BRANCH  26  27
ATOM     27  C   UNL A   1      44.555  20.230  24.547  1.00  0.00     0.338 C 
ATOM     28  O   UNL A   1      45.410  19.798  23.804  1.00  0.00    -0.246 OA
BRANCH  27  29
ATOM     29  C   UNL A   1      44.548  21.589  25.129  1.00  0.00     0.060 A 
ATOM     30  C   UNL A   1      44.269  22.683  24.299  1.00  0.00     0.016 A 
ATOM     31  C   UNL A   1      44.829  21.780  26.483  1.00  0.00     0.016 A 
ATOM     32  C   UNL A   1      44.311  23.978  24.815  1.00  0.00     0.010 A 
ATOM     33  C   UNL A   1      44.891  23.078  26.994  1.00  0.00     0.010 A 
ATOM     34  C   UNL A   1      44.669  24.185  26.153  1.00  0.00    -0.014 A 
BRANCH  34  35
ATOM     35  C   UNL A   1      45.018  25.552  26.614  1.00  0.00     0.031 A 
ATOM     36  C   UNL A   1      43.920  26.410  27.185  1.00  0.00     0.074 A 
ATOM     37  C   UNL A   1      46.280  26.014  26.557  1.00  0.00     0.049 A 
ATOM     38  N   UNL A   1      43.958  27.650  27.594  1.00  0.00    -0.248 NA
ATOM     39  C   UNL A   1      42.596  25.777  27.303  1.00  0.00     0.031 C 
ATOM     40  C   UNL A   1      47.434  25.255  26.078  1.00  0.00     0.029 A 
ATOM     41  N   UNL A   1      46.799  27.238  26.899  1.00  0.00    -0.354 N 
ATOM     42  C   UNL A   1      42.665  27.952  28.010  1.00  0.00     0.074 A 
ATOM     43  C   UNL A   1      41.860  26.774  27.768  1.00  0.00     0.031 C 
ATOM     44  C   UNL A   1      48.526  26.038  26.146  1.00  0.00     0.029 A 
ATOM     45  C   UNL A   1      48.142  27.363  26.629  1.00  0.00     0.049 A 
ATOM     46  H   UNL A   1      46.261  27.958  27.300  1.00  0.00     0.167 HD
ATOM     47  C   UNL A   1      42.195  29.104  28.548  1.00  0.00     0.034 A 
ATOM     48  C   UNL A   1      48.957  28.434  26.730  1.00  0.00     0.034 A 
ATOM     49  C   UNL A   1      43.013  30.271  28.771  1.00  0.00     0.049 A 
ATOM     50  C   UNL A   1      48.391  29.739  27.245  1.00  0.00     0.074 A 
ATOM     51  C   UNL A   1      42.644  31.485  29.323  1.00  0.00     0.029 A 
ATOM     52  N   UNL A   1      44.358  30.378  28.440  1.00  0.00    -0.354 N 
ATOM     53  N   UNL A   1      47.166  30.013  27.637  1.00  0.00    -0.248 NA
ATOM     54  C   UNL A   1      49.316  30.875  27.336  1.00  0.00     0.031 C 
ATOM     55  C   UNL A   1      43.738  32.352  29.244  1.00  0.00     0.029 A 
ATOM     56  C   UNL A   1      44.821  31.651  28.736  1.00  0.00     0.049 A 
ATOM     57  H   UNL A   1      44.902  29.656  28.050  1.00  0.00     0.167 HD
ATOM     58  C   UNL A   1      47.189  31.343  28.055  1.00  0.00     0.074 A 
ATOM     59  C   UNL A   1      48.549  31.808  27.878  1.00  0.00     0.031 C 
ATOM     60  C   UNL A   1      46.179  32.108  28.546  1.00  0.00     0.034 A 
BRANCH  47  61
ATOM     61  C   UNL A   1      40.721  29.174  28.867  1.00  0.00     0.023 A 
ATOM     62  C   UNL A   1      40.236  29.075  30.183  1.00  0.00     0.031 A 
ATOM     63  C   UNL A   1      39.782  29.318  27.830  1.00  0.00     0.131 A 
ATOM     64  C   UNL A   1      38.853  29.056  30.419  1.00  0.00     0.055 A 
ATOM     65  C   UNL A   1      38.410  29.383  28.080  1.00  0.00     0.041 A 
ATOM     66  F   UNL A   1      40.182  29.387  26.551  1.00  0.00    -0.206 F 
ATOM     67  C   UNL A   1      37.937  29.238  29.380  1.00  0.00     0.022 A 
BRANCH  64  68
ATOM     68  S   UNL A   1      38.262  28.642  32.084  1.00  0.00     0.124 S 
ATOM     69  O   UNL A   1      38.382  27.186  32.086  1.00  0.00    -0.237 OA
ATOM     70  O   UNL A   1      39.198  29.362  32.939  1.00  0.00    -0.237 OA
ATOM     71  O   UNL A   1      36.890  29.145  32.096  1.00  0.00    -0.744 OA
ENDBRANCH  64  68
ENDBRANCH  47  61
BRANCH  48  72
ATOM     72  C   UNL A   1      50.380  28.346  26.290  1.00  0.00     0.023 A 
ATOM     73  C   UNL A   1      50.735  28.434  24.934  1.00  0.00     0.031 A 
ATOM     74  C   UNL A   1      51.409  28.112  27.223  1.00  0.00     0.131 A 
ATOM     75  C   UNL A   1      52.071  28.244  24.545  1.00  0.00     0.055 A 
ATOM     76  C   UNL A   1      52.743  27.984  26.837  1.00  0.00     0.041 A 
ATOM     77  F   UNL A   1      51.128  28.008  28.532  1.00  0.00    -0.206 F 
ATOM     78  C   UNL A   1      53.079  28.036  25.489  1.00  0.00     0.022 A 
BRANCH  75  79
ATOM     79  S   UNL A   1      52.460  28.173  22.775  1.00  0.00     0.124 S 
ATOM     80  O   UNL A   1      53.733  27.459  22.780  1.00  0.00    -0.237 OA
ATOM     81  O   UNL A   1      51.316  27.442  22.241  1.00  0.00    -0.237 OA
ATOM     82  O   UNL A   1      52.534  29.580  22.385  1.00  0.00    -0.744 OA
ENDBRANCH  75  79
ENDBRANCH  48  72
BRANCH  60  83
ATOM     83  C   UNL A   1      46.521  33.515  28.980  1.00  0.00     0.023 A 
ATOM     84  C   UNL A   1      46.552  34.589  28.073  1.00  0.00     0.031 A 
ATOM     85  C   UNL A   1      46.824  33.782  30.328  1.00  0.00     0.131 A 
ATOM     86  C   UNL A   1      46.937  35.866  28.514  1.00  0.00     0.055 A 
ATOM     87  C   UNL A   1      47.133  35.068  30.774  1.00  0.00     0.041 A 
ATOM     88  F   UNL A   1      46.815  32.797  31.240  1.00  0.00    -0.206 F 
ATOM     89  C   UNL A   1      47.206  36.116  29.861  1.00  0.00     0.022 A 
BRANCH  86  90
ATOM     90  S   UNL A   1      47.185  37.173  27.282  1.00  0.00     0.124 S 
ATOM     91  O   UNL A   1      48.628  37.123  27.073  1.00  0.00    -0.237 OA
ATOM     92  O   UNL A   1      46.363  36.714  26.168  1.00  0.00    -0.237 OA
ATOM     93  O   UNL A   1      46.699  38.376  27.956  1.00  0.00    -0.744 OA
ENDBRANCH  86  90
ENDBRANCH  60  83
ENDBRANCH  34  35
ENDBRANCH  27  29
ENDBRANCH  26  27
ENDBRANCH  25  26
ENDBRANCH  24  25
ENDBRANCH  23  24
ENDBRANCH  22  23
ENDBRANCH   1  22
TORSDOF 25
ENDMDL
