MODEL 1
REMARK VINA RESULT:     -10.5      0.000      0.000
REMARK SMILES CO[C@H]1C[C@@H](C(=O)OCCOCCOCCOCCOC(=O)c2ccc(-c3c4nc(c(-c5cc(S(=O)(=O)[O-])ccc5F)c5ccc([nH]5)c(-c5cc(S(=O)(=O)[O-])ccc5F)c5nc(c(-c6cc(S(=O)(=O)[O-])ccc6F)c6ccc3[nH]6)C=C5)C=C4)cc2)N(C(=O)Nc2cc(C)cc(F)c2)C1
REMARK SMILES IDX 15 1 14 2 13 3 12 4 11 5 10 6 9 7 8 8 6 9 7 10 5 11 3 12
REMARK SMILES IDX 4 13 98 14 86 15 2 16 1 17 87 18 88 19 89 20 90 22 91 23
REMARK SMILES IDX 97 24 92 25 95 26 93 27 94 28 96 29 16 30 17 31 18 32 19 33
REMARK SMILES IDX 20 34 21 35 22 36 23 37 24 38 85 39 25 40 84 41 26 42 27 43
REMARK SMILES IDX 28 44 78 45 29 46 83 47 77 48 79 49 30 50 82 51 76 52 75 53
REMARK SMILES IDX 31 55 63 56 43 57 62 58 44 59 47 60 61 61 80 62 45 63 46 64
REMARK SMILES IDX 60 66 81 67 48 68 32 69 33 70 41 71 34 72 40 73 42 74 39 75
REMARK SMILES IDX 35 76 36 77 37 78 38 79 64 80 65 81 73 82 66 83 72 84 74 85
REMARK SMILES IDX 71 86 67 87 68 88 69 89 70 90 49 91 50 92 58 93 51 94 57 95
REMARK SMILES IDX 59 96 56 97 52 98 53 99 54 100 55 101
REMARK H PARENT 89 21 79 54 47 65
REMARK Flexibility Score: inf
ROOT
ATOM      1  C   UNL A   1      35.286  20.527  25.047  1.00  0.00     0.188 C 
ENDROOT
BRANCH   1   2
ATOM      2  O   UNL A   1      34.456  21.619  25.401  1.00  0.00    -0.377 OA
BRANCH   2   3
ATOM      3  C   UNL A   1      33.075  21.349  25.608  1.00  0.00     0.188 C 
BRANCH   3   4
ATOM      4  C   UNL A   1      32.048  21.642  24.504  1.00  0.00     0.188 C 
BRANCH   4   5
ATOM      5  O   UNL A   1      31.183  22.739  24.750  1.00  0.00    -0.376 OA
BRANCH   5   6
ATOM      6  C   UNL A   1      31.090  23.168  26.097  1.00  0.00     0.202 C 
BRANCH   6   7
ATOM      7  C   UNL A   1      31.393  24.663  26.238  1.00  0.00     0.261 C 
BRANCH   7   8
ATOM      8  O   UNL A   1      32.128  25.178  25.099  1.00  0.00    -0.462 OA
BRANCH   8   9
ATOM      9  C   UNL A   1      33.410  25.516  25.367  1.00  0.00     0.329 C 
ATOM     10  O   UNL A   1      34.198  24.790  25.971  1.00  0.00    -0.250 OA
BRANCH   9  11
ATOM     11  C   UNL A   1      33.792  26.950  24.986  1.00  0.00     0.199 C 
ATOM     12  C   UNL A   1      33.915  29.131  25.883  1.00  0.00     0.140 C 
ATOM     13  C   UNL A   1      33.734  27.696  26.328  1.00  0.00     0.071 C 
ATOM     14  C   UNL A   1      32.912  29.162  24.734  1.00  0.00     0.154 C 
ATOM     15  N   UNL A   1      33.110  27.870  24.048  1.00  0.00    -0.308 N 
BRANCH  12  16
ATOM     16  O   UNL A   1      33.648  30.041  26.933  1.00  0.00    -0.380 OA
ATOM     17  C   UNL A   1      32.248  30.282  27.071  1.00  0.00     0.195 C 
ENDBRANCH  12  16
BRANCH  15  18
ATOM     18  C   UNL A   1      32.896  27.902  22.710  1.00  0.00     0.322 C 
ATOM     19  O   UNL A   1      33.833  27.621  21.944  1.00  0.00    -0.248 OA
ATOM     20  N   UNL A   1      31.777  28.221  22.044  1.00  0.00    -0.308 N 
ATOM     21  H   UNL A   1      31.975  28.221  21.080  1.00  0.00     0.171 HD
BRANCH  20  22
ATOM     22  C   UNL A   1      30.426  28.556  22.222  1.00  0.00     0.046 A 
ATOM     23  C   UNL A   1      30.066  29.882  21.894  1.00  0.00     0.029 A 
ATOM     24  C   UNL A   1      29.457  27.750  22.783  1.00  0.00     0.065 A 
ATOM     25  C   UNL A   1      28.845  30.436  22.326  1.00  0.00    -0.046 A 
ATOM     26  C   UNL A   1      28.254  28.292  23.222  1.00  0.00     0.125 A 
ATOM     27  C   UNL A   1      28.515  31.880  22.096  1.00  0.00     0.044 C 
ATOM     28  C   UNL A   1      27.950  29.628  23.025  1.00  0.00     0.042 A 
ATOM     29  F   UNL A   1      27.394  27.510  23.886  1.00  0.00    -0.207 F 
ENDBRANCH  20  22
ENDBRANCH  15  18
ENDBRANCH   9  11
ENDBRANCH   8   9
ENDBRANCH   7   8
ENDBRANCH   6   7
ENDBRANCH   5   6
ENDBRANCH   4   5
ENDBRANCH   3   4
ENDBRANCH   2   3
ENDBRANCH   1   2
BRANCH   1  30
ATOM     30  C   UNL A   1      36.797  20.842  25.024  1.00  0.00     0.188 C 
BRANCH  30  31
ATOM     31  O   UNL A   1      37.597  19.753  24.560  1.00  0.00    -0.376 OA
BRANCH  31  32
ATOM     32  C   UNL A   1      38.609  19.279  25.432  1.00  0.00     0.202 C 
BRANCH  32  33
ATOM     33  C   UNL A   1      39.504  20.350  26.068  1.00  0.00     0.261 C 
BRANCH  33  34
ATOM     34  O   UNL A   1      40.910  20.162  25.886  1.00  0.00    -0.460 OA
BRANCH  34  35
ATOM     35  C   UNL A   1      41.709  20.255  26.980  1.00  0.00     0.338 C 
ATOM     36  O   UNL A   1      42.359  19.374  27.483  1.00  0.00    -0.246 OA
BRANCH  35  37
ATOM     37  C   UNL A   1      41.845  21.712  27.245  1.00  0.00     0.060 A 
ATOM     38  C   UNL A   1      41.479  22.608  26.229  1.00  0.00     0.016 A 
ATOM     39  C   UNL A   1      42.130  22.177  28.535  1.00  0.00     0.016 A 
ATOM     40  C   UNL A   1      41.366  23.970  26.513  1.00  0.00     0.010 A 
ATOM     41  C   UNL A   1      42.062  23.543  28.807  1.00  0.00     0.010 A 
ATOM     42  C   UNL A   1      41.695  24.443  27.793  1.00  0.00    -0.014 A 
BRANCH  42  43
ATOM     43  C   UNL A   1      41.988  25.883  27.972  1.00  0.00     0.031 A 
ATOM     44  C   UNL A   1      43.320  26.351  27.456  1.00  0.00     0.074 A 
ATOM     45  C   UNL A   1      41.130  26.730  28.567  1.00  0.00     0.049 A 
ATOM     46  N   UNL A   1      43.873  27.530  27.519  1.00  0.00    -0.248 NA
ATOM     47  C   UNL A   1      44.142  25.333  26.777  1.00  0.00     0.031 C 
ATOM     48  C   UNL A   1      39.799  26.386  29.062  1.00  0.00     0.029 A 
ATOM     49  N   UNL A   1      41.264  28.064  28.861  1.00  0.00    -0.354 N 
ATOM     50  C   UNL A   1      45.100  27.397  26.880  1.00  0.00     0.074 A 
ATOM     51  C   UNL A   1      45.227  26.018  26.472  1.00  0.00     0.031 C 
ATOM     52  C   UNL A   1      39.244  27.482  29.614  1.00  0.00     0.029 A 
ATOM     53  C   UNL A   1      40.194  28.592  29.547  1.00  0.00     0.049 A 
ATOM     54  H   UNL A   1      42.052  28.595  28.606  1.00  0.00     0.167 HD
ATOM     55  C   UNL A   1      46.040  28.343  26.654  1.00  0.00     0.034 A 
ATOM     56  C   UNL A   1      40.028  29.820  30.080  1.00  0.00     0.034 A 
ATOM     57  C   UNL A   1      45.917  29.697  27.122  1.00  0.00     0.049 A 
ATOM     58  C   UNL A   1      41.142  30.833  29.916  1.00  0.00     0.074 A 
ATOM     59  C   UNL A   1      46.806  30.745  26.974  1.00  0.00     0.029 A 
ATOM     60  N   UNL A   1      44.842  30.183  27.858  1.00  0.00    -0.354 N 
ATOM     61  N   UNL A   1      42.294  30.707  29.296  1.00  0.00    -0.248 NA
ATOM     62  C   UNL A   1      40.932  32.155  30.522  1.00  0.00     0.031 C 
ATOM     63  C   UNL A   1      46.307  31.839  27.687  1.00  0.00     0.029 A 
ATOM     64  C   UNL A   1      45.062  31.505  28.203  1.00  0.00     0.049 A 
ATOM     65  H   UNL A   1      44.042  29.663  28.098  1.00  0.00     0.167 HD
ATOM     66  C   UNL A   1      42.930  31.942  29.409  1.00  0.00     0.074 A 
ATOM     67  C   UNL A   1      42.025  32.802  30.145  1.00  0.00     0.031 C 
ATOM     68  C   UNL A   1      44.145  32.337  28.947  1.00  0.00     0.034 A 
BRANCH  55  69
ATOM     69  C   UNL A   1      47.294  27.905  25.941  1.00  0.00     0.023 A 
ATOM     70  C   UNL A   1      47.440  28.044  24.549  1.00  0.00     0.031 A 
ATOM     71  C   UNL A   1      48.326  27.270  26.653  1.00  0.00     0.131 A 
ATOM     72  C   UNL A   1      48.556  27.488  23.904  1.00  0.00     0.055 A 
ATOM     73  C   UNL A   1      49.474  26.796  26.015  1.00  0.00     0.041 A 
ATOM     74  F   UNL A   1      48.224  27.074  27.977  1.00  0.00    -0.206 F 
ATOM     75  C   UNL A   1      49.586  26.889  24.631  1.00  0.00     0.022 A 
BRANCH  72  76
ATOM     76  S   UNL A   1      48.565  27.420  22.091  1.00  0.00     0.124 S 
ATOM     77  O   UNL A   1      48.535  25.979  21.850  1.00  0.00    -0.237 OA
ATOM     78  O   UNL A   1      47.353  28.151  21.740  1.00  0.00    -0.237 OA
ATOM     79  O   UNL A   1      49.818  28.078  21.729  1.00  0.00    -0.744 OA
ENDBRANCH  72  76
ENDBRANCH  55  69
BRANCH  56  80
ATOM     80  C   UNL A   1      38.799  30.161  30.859  1.00  0.00     0.023 A 
ATOM     81  C   UNL A   1      37.787  30.970  30.314  1.00  0.00     0.031 A 
ATOM     82  C   UNL A   1      38.651  29.740  32.193  1.00  0.00     0.131 A 
ATOM     83  C   UNL A   1      36.699  31.368  31.109  1.00  0.00     0.055 A 
ATOM     84  C   UNL A   1      37.540  30.092  32.964  1.00  0.00     0.041 A 
ATOM     85  F   UNL A   1      39.590  28.975  32.773  1.00  0.00    -0.206 F 
ATOM     86  C   UNL A   1      36.561  30.923  32.426  1.00  0.00     0.022 A 
BRANCH  83  87
ATOM     87  S   UNL A   1      35.507  32.555  30.428  1.00  0.00     0.124 S 
ATOM     88  O   UNL A   1      35.315  32.041  29.077  1.00  0.00    -0.237 OA
ATOM     89  O   UNL A   1      34.377  32.405  31.339  1.00  0.00    -0.237 OA
ATOM     90  O   UNL A   1      36.210  33.833  30.517  1.00  0.00    -0.744 OA
ENDBRANCH  83  87
ENDBRANCH  56  80
BRANCH  68  91
ATOM     91  C   UNL A   1      44.539  33.775  29.182  1.00  0.00     0.023 A 
ATOM     92  C   UNL A   1      44.050  34.820  28.381  1.00  0.00     0.031 A 
ATOM     93  C   UNL A   1      45.413  34.102  30.235  1.00  0.00     0.131 A 
ATOM     94  C   UNL A   1      44.483  36.134  28.607  1.00  0.00     0.055 A 
ATOM     95  C   UNL A   1      45.785  35.420  30.500  1.00  0.00     0.041 A 
ATOM     96  F   UNL A   1      45.912  33.144  31.033  1.00  0.00    -0.206 F 
ATOM     97  C   UNL A   1      45.330  36.444  29.675  1.00  0.00     0.022 A 
BRANCH  94  98
ATOM     98  S   UNL A   1      44.003  37.425  27.427  1.00  0.00     0.124 S 
ATOM     99  O   UNL A   1      43.100  36.700  26.538  1.00  0.00    -0.237 OA
ATOM    100  O   UNL A   1      43.383  38.424  28.291  1.00  0.00    -0.237 OA
ATOM    101  O   UNL A   1      45.273  37.828  26.826  1.00  0.00    -0.744 OA
ENDBRANCH  94  98
ENDBRANCH  68  91
ENDBRANCH  42  43
ENDBRANCH  35  37
ENDBRANCH  34  35
ENDBRANCH  33  34
ENDBRANCH  32  33
ENDBRANCH  31  32
ENDBRANCH  30  31
ENDBRANCH   1  30
TORSDOF 26
ENDMDL
MODEL 2
REMARK VINA RESULT:     -10.1      4.981      8.897
REMARK SMILES CO[C@H]1C[C@@H](C(=O)OCCOCCOCCOCCOC(=O)c2ccc(-c3c4nc(c(-c5cc(S(=O)(=O)[O-])ccc5F)c5ccc([nH]5)c(-c5cc(S(=O)(=O)[O-])ccc5F)c5nc(c(-c6cc(S(=O)(=O)[O-])ccc6F)c6ccc3[nH]6)C=C5)C=C4)cc2)N(C(=O)Nc2cc(C)cc(F)c2)C1
REMARK SMILES IDX 15 1 14 2 13 3 12 4 11 5 10 6 9 7 8 8 6 9 7 10 5 11 3 12
REMARK SMILES IDX 4 13 98 14 86 15 2 16 1 17 87 18 88 19 89 20 90 22 91 23
REMARK SMILES IDX 97 24 92 25 95 26 93 27 94 28 96 29 16 30 17 31 18 32 19 33
REMARK SMILES IDX 20 34 21 35 22 36 23 37 24 38 85 39 25 40 84 41 26 42 27 43
REMARK SMILES IDX 28 44 78 45 29 46 83 47 77 48 79 49 30 50 82 51 76 52 75 53
REMARK SMILES IDX 31 55 63 56 43 57 62 58 44 59 47 60 61 61 80 62 45 63 46 64
REMARK SMILES IDX 60 66 81 67 48 68 32 69 33 70 41 71 34 72 40 73 42 74 39 75
REMARK SMILES IDX 35 76 36 77 37 78 38 79 64 80 65 81 73 82 66 83 72 84 74 85
REMARK SMILES IDX 71 86 67 87 68 88 69 89 70 90 49 91 50 92 58 93 51 94 57 95
REMARK SMILES IDX 59 96 56 97 52 98 53 99 54 100 55 101
REMARK H PARENT 89 21 79 54 47 65
REMARK Flexibility Score: inf
ROOT
ATOM      1  C   UNL A   1      34.044  23.014  23.113  1.00  0.00     0.188 C 
ENDROOT
BRANCH   1   2
ATOM      2  O   UNL A   1      32.931  22.141  23.029  1.00  0.00    -0.377 OA
BRANCH   2   3
ATOM      3  C   UNL A   1      32.872  21.068  23.960  1.00  0.00     0.188 C 
BRANCH   3   4
ATOM      4  C   UNL A   1      31.842  21.076  25.099  1.00  0.00     0.188 C 
BRANCH   4   5
ATOM      5  O   UNL A   1      31.199  22.320  25.333  1.00  0.00    -0.376 OA
BRANCH   5   6
ATOM      6  C   UNL A   1      31.424  22.905  26.604  1.00  0.00     0.202 C 
BRANCH   6   7
ATOM      7  C   UNL A   1      32.239  24.196  26.497  1.00  0.00     0.261 C 
BRANCH   7   8
ATOM      8  O   UNL A   1      31.465  25.362  26.882  1.00  0.00    -0.462 OA
BRANCH   8   9
ATOM      9  C   UNL A   1      31.164  26.196  25.861  1.00  0.00     0.329 C 
ATOM     10  O   UNL A   1      30.085  26.195  25.271  1.00  0.00    -0.250 OA
BRANCH   9  11
ATOM     11  C   UNL A   1      32.326  27.068  25.376  1.00  0.00     0.199 C 
ATOM     12  C   UNL A   1      33.729  28.835  26.075  1.00  0.00     0.140 C 
ATOM     13  C   UNL A   1      32.727  27.849  26.637  1.00  0.00     0.071 C 
ATOM     14  C   UNL A   1      32.940  29.325  24.864  1.00  0.00     0.154 C 
ATOM     15  N   UNL A   1      32.326  28.100  24.314  1.00  0.00    -0.308 N 
BRANCH  12  16
ATOM     16  O   UNL A   1      34.059  29.838  27.017  1.00  0.00    -0.380 OA
ATOM     17  C   UNL A   1      33.027  30.819  27.119  1.00  0.00     0.195 C 
ENDBRANCH  12  16
BRANCH  15  18
ATOM     18  C   UNL A   1      32.172  28.101  22.968  1.00  0.00     0.322 C 
ATOM     19  O   UNL A   1      33.089  27.656  22.256  1.00  0.00    -0.248 OA
ATOM     20  N   UNL A   1      31.136  28.543  22.240  1.00  0.00    -0.308 N 
ATOM     21  H   UNL A   1      31.370  28.471  21.286  1.00  0.00     0.171 HD
BRANCH  20  22
ATOM     22  C   UNL A   1      29.841  29.071  22.343  1.00  0.00     0.046 A 
ATOM     23  C   UNL A   1      29.712  30.455  22.090  1.00  0.00     0.029 A 
ATOM     24  C   UNL A   1      28.718  28.391  22.769  1.00  0.00     0.065 A 
ATOM     25  C   UNL A   1      28.556  31.163  22.472  1.00  0.00    -0.046 A 
ATOM     26  C   UNL A   1      27.578  29.086  23.159  1.00  0.00     0.125 A 
ATOM     27  C   UNL A   1      28.466  32.653  22.327  1.00  0.00     0.044 C 
ATOM     28  C   UNL A   1      27.494  30.462  23.041  1.00  0.00     0.042 A 
ATOM     29  F   UNL A   1      26.558  28.406  23.698  1.00  0.00    -0.207 F 
ENDBRANCH  20  22
ENDBRANCH  15  18
ENDBRANCH   9  11
ENDBRANCH   8   9
ENDBRANCH   7   8
ENDBRANCH   6   7
ENDBRANCH   5   6
ENDBRANCH   4   5
ENDBRANCH   3   4
ENDBRANCH   2   3
ENDBRANCH   1   2
BRANCH   1  30
ATOM     30  C   UNL A   1      34.975  22.762  24.318  1.00  0.00     0.188 C 
BRANCH  30  31
ATOM     31  O   UNL A   1      36.251  22.234  23.949  1.00  0.00    -0.376 OA
BRANCH  31  32
ATOM     32  C   UNL A   1      36.687  21.068  24.627  1.00  0.00     0.202 C 
BRANCH  32  33
ATOM     33  C   UNL A   1      37.673  21.290  25.780  1.00  0.00     0.261 C 
BRANCH  33  34
ATOM     34  O   UNL A   1      39.039  21.464  25.395  1.00  0.00    -0.460 OA
BRANCH  34  35
ATOM     35  C   UNL A   1      39.952  20.583  25.878  1.00  0.00     0.338 C 
ATOM     36  O   UNL A   1      39.938  19.385  25.764  1.00  0.00    -0.246 OA
BRANCH  35  37
ATOM     37  C   UNL A   1      41.106  21.415  26.315  1.00  0.00     0.060 A 
ATOM     38  C   UNL A   1      42.367  20.804  26.406  1.00  0.00     0.016 A 
ATOM     39  C   UNL A   1      40.978  22.805  26.431  1.00  0.00     0.016 A 
ATOM     40  C   UNL A   1      43.507  21.590  26.580  1.00  0.00     0.010 A 
ATOM     41  C   UNL A   1      42.112  23.585  26.651  1.00  0.00     0.010 A 
ATOM     42  C   UNL A   1      43.376  22.979  26.742  1.00  0.00    -0.014 A 
BRANCH  42  43
ATOM     43  C   UNL A   1      44.495  23.740  27.340  1.00  0.00     0.031 A 
ATOM     44  C   UNL A   1      44.447  23.911  28.833  1.00  0.00     0.074 A 
ATOM     45  C   UNL A   1      45.494  24.260  26.607  1.00  0.00     0.049 A 
ATOM     46  N   UNL A   1      45.248  24.569  29.624  1.00  0.00    -0.248 NA
ATOM     47  C   UNL A   1      43.328  23.245  29.523  1.00  0.00     0.031 C 
ATOM     48  C   UNL A   1      45.656  24.114  25.162  1.00  0.00     0.029 A 
ATOM     49  N   UNL A   1      46.565  25.030  26.989  1.00  0.00    -0.354 N 
ATOM     50  C   UNL A   1      44.735  24.387  30.903  1.00  0.00     0.074 A 
ATOM     51  C   UNL A   1      43.537  23.592  30.779  1.00  0.00     0.031 C 
ATOM     52  C   UNL A   1      46.756  24.788  24.777  1.00  0.00     0.029 A 
ATOM     53  C   UNL A   1      47.353  25.445  25.940  1.00  0.00     0.049 A 
ATOM     54  H   UNL A   1      46.752  25.264  27.926  1.00  0.00     0.167 HD
ATOM     55  C   UNL A   1      45.221  24.844  32.080  1.00  0.00     0.034 A 
ATOM     56  C   UNL A   1      48.411  26.282  25.930  1.00  0.00     0.034 A 
ATOM     57  C   UNL A   1      46.385  25.684  32.174  1.00  0.00     0.049 A 
ATOM     58  C   UNL A   1      48.871  26.877  27.244  1.00  0.00     0.074 A 
ATOM     59  C   UNL A   1      46.967  26.227  33.302  1.00  0.00     0.029 A 
ATOM     60  N   UNL A   1      47.128  26.126  31.085  1.00  0.00    -0.354 N 
ATOM     61  N   UNL A   1      48.391  26.688  28.454  1.00  0.00    -0.248 NA
ATOM     62  C   UNL A   1      50.016  27.796  27.193  1.00  0.00     0.031 C 
ATOM     63  C   UNL A   1      48.012  27.061  32.891  1.00  0.00     0.029 A 
ATOM     64  C   UNL A   1      48.142  26.966  31.513  1.00  0.00     0.049 A 
ATOM     65  H   UNL A   1      46.958  25.878  30.147  1.00  0.00     0.167 HD
ATOM     66  C   UNL A   1      49.198  27.438  29.309  1.00  0.00     0.074 A 
ATOM     67  C   UNL A   1      50.201  28.070  28.476  1.00  0.00     0.031 C 
ATOM     68  C   UNL A   1      49.124  27.591  30.657  1.00  0.00     0.034 A 
BRANCH  55  69
ATOM     69  C   UNL A   1      44.440  24.500  33.322  1.00  0.00     0.023 A 
ATOM     70  C   UNL A   1      43.465  25.369  33.846  1.00  0.00     0.031 A 
ATOM     71  C   UNL A   1      44.728  23.324  34.036  1.00  0.00     0.131 A 
ATOM     72  C   UNL A   1      42.868  25.085  35.083  1.00  0.00     0.055 A 
ATOM     73  C   UNL A   1      44.067  23.006  35.223  1.00  0.00     0.041 A 
ATOM     74  F   UNL A   1      45.675  22.478  33.605  1.00  0.00    -0.206 F 
ATOM     75  C   UNL A   1      43.143  23.896  35.762  1.00  0.00     0.022 A 
BRANCH  72  76
ATOM     76  S   UNL A   1      41.849  26.364  35.869  1.00  0.00     0.124 S 
ATOM     77  O   UNL A   1      41.940  27.452  34.897  1.00  0.00    -0.237 OA
ATOM     78  O   UNL A   1      40.549  25.712  35.977  1.00  0.00    -0.237 OA
ATOM     79  O   UNL A   1      42.530  26.615  37.137  1.00  0.00    -0.744 OA
ENDBRANCH  72  76
ENDBRANCH  55  69
BRANCH  56  80
ATOM     80  C   UNL A   1      49.082  26.659  24.649  1.00  0.00     0.023 A 
ATOM     81  C   UNL A   1      50.441  26.380  24.425  1.00  0.00     0.031 A 
ATOM     82  C   UNL A   1      48.389  27.371  23.653  1.00  0.00     0.131 A 
ATOM     83  C   UNL A   1      51.073  26.848  23.260  1.00  0.00     0.055 A 
ATOM     84  C   UNL A   1      49.007  27.786  22.471  1.00  0.00     0.041 A 
ATOM     85  F   UNL A   1      47.092  27.677  23.815  1.00  0.00    -0.206 F 
ATOM     86  C   UNL A   1      50.362  27.536  22.275  1.00  0.00     0.022 A 
BRANCH  83  87
ATOM     87  S   UNL A   1      52.866  26.624  23.088  1.00  0.00     0.124 S 
ATOM     88  O   UNL A   1      52.986  26.256  21.682  1.00  0.00    -0.237 OA
ATOM     89  O   UNL A   1      53.372  27.943  23.453  1.00  0.00    -0.237 OA
ATOM     90  O   UNL A   1      53.169  25.558  24.041  1.00  0.00    -0.744 OA
ENDBRANCH  83  87
ENDBRANCH  56  80
BRANCH  68  91
ATOM     91  C   UNL A   1      50.189  28.434  31.315  1.00  0.00     0.023 A 
ATOM     92  C   UNL A   1      51.431  27.901  31.693  1.00  0.00     0.031 A 
ATOM     93  C   UNL A   1      49.954  29.800  31.557  1.00  0.00     0.131 A 
ATOM     94  C   UNL A   1      52.370  28.712  32.346  1.00  0.00     0.055 A 
ATOM     95  C   UNL A   1      50.918  30.621  32.143  1.00  0.00     0.041 A 
ATOM     96  F   UNL A   1      48.784  30.365  31.216  1.00  0.00    -0.206 F 
ATOM     97  C   UNL A   1      52.131  30.074  32.554  1.00  0.00     0.022 A 
BRANCH  94  98
ATOM     98  S   UNL A   1      53.872  27.945  33.011  1.00  0.00     0.124 S 
ATOM     99  O   UNL A   1      53.323  26.903  33.873  1.00  0.00    -0.237 OA
ATOM    100  O   UNL A   1      54.549  27.483  31.803  1.00  0.00    -0.237 OA
ATOM    101  O   UNL A   1      54.536  29.043  33.712  1.00  0.00    -0.744 OA
ENDBRANCH  94  98
ENDBRANCH  68  91
ENDBRANCH  42  43
ENDBRANCH  35  37
ENDBRANCH  34  35
ENDBRANCH  33  34
ENDBRANCH  32  33
ENDBRANCH  31  32
ENDBRANCH  30  31
ENDBRANCH   1  30
TORSDOF 26
ENDMDL
MODEL 3
REMARK VINA RESULT:      -9.8      2.689      8.073
REMARK SMILES CO[C@H]1C[C@@H](C(=O)OCCOCCOCCOCCOC(=O)c2ccc(-c3c4nc(c(-c5cc(S(=O)(=O)[O-])ccc5F)c5ccc([nH]5)c(-c5cc(S(=O)(=O)[O-])ccc5F)c5nc(c(-c6cc(S(=O)(=O)[O-])ccc6F)c6ccc3[nH]6)C=C5)C=C4)cc2)N(C(=O)Nc2cc(C)cc(F)c2)C1
REMARK SMILES IDX 15 1 14 2 13 3 12 4 11 5 10 6 9 7 8 8 6 9 7 10 5 11 3 12
REMARK SMILES IDX 4 13 98 14 86 15 2 16 1 17 87 18 88 19 89 20 90 22 91 23
REMARK SMILES IDX 97 24 92 25 95 26 93 27 94 28 96 29 16 30 17 31 18 32 19 33
REMARK SMILES IDX 20 34 21 35 22 36 23 37 24 38 85 39 25 40 84 41 26 42 27 43
REMARK SMILES IDX 28 44 78 45 29 46 83 47 77 48 79 49 30 50 82 51 76 52 75 53
REMARK SMILES IDX 31 55 63 56 43 57 62 58 44 59 47 60 61 61 80 62 45 63 46 64
REMARK SMILES IDX 60 66 81 67 48 68 32 69 33 70 41 71 34 72 40 73 42 74 39 75
REMARK SMILES IDX 35 76 36 77 37 78 38 79 64 80 65 81 73 82 66 83 72 84 74 85
REMARK SMILES IDX 71 86 67 87 68 88 69 89 70 90 49 91 50 92 58 93 51 94 57 95
REMARK SMILES IDX 59 96 56 97 52 98 53 99 54 100 55 101
REMARK H PARENT 89 21 79 54 47 65
REMARK Flexibility Score: inf
ROOT
ATOM      1  C   UNL A   1      39.715  21.881  26.197  1.00  0.00     0.188 C 
ENDROOT
BRANCH   1   2
ATOM      2  O   UNL A   1      38.782  20.930  25.713  1.00  0.00    -0.377 OA
BRANCH   2   3
ATOM      3  C   UNL A   1      37.517  21.417  25.285  1.00  0.00     0.188 C 
BRANCH   3   4
ATOM      4  C   UNL A   1      37.367  22.853  24.763  1.00  0.00     0.188 C 
BRANCH   4   5
ATOM      5  O   UNL A   1      36.450  23.024  23.694  1.00  0.00    -0.376 OA
BRANCH   5   6
ATOM      6  C   UNL A   1      35.161  22.467  23.887  1.00  0.00     0.202 C 
BRANCH   6   7
ATOM      7  C   UNL A   1      34.075  23.301  23.202  1.00  0.00     0.261 C 
BRANCH   7   8
ATOM      8  O   UNL A   1      34.349  24.723  23.284  1.00  0.00    -0.462 OA
BRANCH   8   9
ATOM      9  C   UNL A   1      34.052  25.282  24.478  1.00  0.00     0.329 C 
ATOM     10  O   UNL A   1      34.780  25.215  25.467  1.00  0.00    -0.250 OA
BRANCH   9  11
ATOM     11  C   UNL A   1      32.653  25.900  24.571  1.00  0.00     0.199 C 
ATOM     12  C   UNL A   1      30.588  25.643  25.686  1.00  0.00     0.140 C 
ATOM     13  C   UNL A   1      32.019  25.157  25.756  1.00  0.00     0.071 C 
ATOM     14  C   UNL A   1      30.332  25.448  24.194  1.00  0.00     0.154 C 
ATOM     15  N   UNL A   1      31.578  25.910  23.552  1.00  0.00    -0.308 N 
BRANCH  12  16
ATOM     16  O   UNL A   1      29.740  24.898  26.539  1.00  0.00    -0.380 OA
ATOM     17  C   UNL A   1      30.200  23.554  26.687  1.00  0.00     0.195 C 
ENDBRANCH  12  16
BRANCH  15  18
ATOM     18  C   UNL A   1      31.409  26.475  22.332  1.00  0.00     0.322 C 
ATOM     19  O   UNL A   1      31.615  25.789  21.316  1.00  0.00    -0.248 OA
ATOM     20  N   UNL A   1      31.046  27.730  22.029  1.00  0.00    -0.308 N 
ATOM     21  H   UNL A   1      31.090  27.841  21.051  1.00  0.00     0.171 HD
BRANCH  20  22
ATOM     22  C   UNL A   1      30.629  28.942  22.598  1.00  0.00     0.046 A 
ATOM     23  C   UNL A   1      31.306  29.344  23.771  1.00  0.00     0.029 A 
ATOM     24  C   UNL A   1      29.560  29.709  22.181  1.00  0.00     0.065 A 
ATOM     25  C   UNL A   1      30.781  30.345  24.611  1.00  0.00    -0.046 A 
ATOM     26  C   UNL A   1      29.030  30.691  23.011  1.00  0.00     0.125 A 
ATOM     27  C   UNL A   1      31.424  30.683  25.923  1.00  0.00     0.044 C 
ATOM     28  C   UNL A   1      29.610  30.998  24.229  1.00  0.00     0.042 A 
ATOM     29  F   UNL A   1      27.909  31.321  22.636  1.00  0.00    -0.207 F 
ENDBRANCH  20  22
ENDBRANCH  15  18
ENDBRANCH   9  11
ENDBRANCH   8   9
ENDBRANCH   7   8
ENDBRANCH   6   7
ENDBRANCH   5   6
ENDBRANCH   4   5
ENDBRANCH   3   4
ENDBRANCH   2   3
ENDBRANCH   1   2
BRANCH   1  30
ATOM     30  C   UNL A   1      41.004  21.278  26.794  1.00  0.00     0.188 C 
BRANCH  30  31
ATOM     31  O   UNL A   1      41.076  19.856  26.669  1.00  0.00    -0.376 OA
BRANCH  31  32
ATOM     32  C   UNL A   1      42.332  19.249  26.925  1.00  0.00     0.202 C 
BRANCH  32  33
ATOM     33  C   UNL A   1      43.099  18.749  25.696  1.00  0.00     0.261 C 
BRANCH  33  34
ATOM     34  O   UNL A   1      43.318  19.721  24.670  1.00  0.00    -0.460 OA
BRANCH  34  35
ATOM     35  C   UNL A   1      44.600  19.994  24.317  1.00  0.00     0.338 C 
ATOM     36  O   UNL A   1      45.291  19.375  23.550  1.00  0.00    -0.246 OA
BRANCH  35  37
ATOM     37  C   UNL A   1      44.869  21.361  24.840  1.00  0.00     0.060 A 
ATOM     38  C   UNL A   1      44.615  22.455  23.998  1.00  0.00     0.016 A 
ATOM     39  C   UNL A   1      45.166  21.559  26.195  1.00  0.00     0.016 A 
ATOM     40  C   UNL A   1      44.627  23.749  24.521  1.00  0.00     0.010 A 
ATOM     41  C   UNL A   1      45.223  22.854  26.706  1.00  0.00     0.010 A 
ATOM     42  C   UNL A   1      44.969  23.952  25.867  1.00  0.00    -0.014 A 
BRANCH  42  43
ATOM     43  C   UNL A   1      45.394  25.301  26.304  1.00  0.00     0.031 A 
ATOM     44  C   UNL A   1      44.301  26.202  26.807  1.00  0.00     0.074 A 
ATOM     45  C   UNL A   1      46.672  25.712  26.251  1.00  0.00     0.049 A 
ATOM     46  N   UNL A   1      44.357  27.444  27.201  1.00  0.00    -0.248 NA
ATOM     47  C   UNL A   1      42.952  25.610  26.865  1.00  0.00     0.031 C 
ATOM     48  C   UNL A   1      47.811  24.903  25.821  1.00  0.00     0.029 A 
ATOM     49  N   UNL A   1      47.224  26.932  26.559  1.00  0.00    -0.354 N 
ATOM     50  C   UNL A   1      43.057  27.776  27.562  1.00  0.00     0.074 A 
ATOM     51  C   UNL A   1      42.229  26.622  27.305  1.00  0.00     0.031 C 
ATOM     52  C   UNL A   1      48.926  25.656  25.879  1.00  0.00     0.029 A 
ATOM     53  C   UNL A   1      48.575  27.009  26.310  1.00  0.00     0.049 A 
ATOM     54  H   UNL A   1      46.701  27.681  26.923  1.00  0.00     0.167 HD
ATOM     55  C   UNL A   1      42.593  28.943  28.065  1.00  0.00     0.034 A 
ATOM     56  C   UNL A   1      49.412  28.064  26.396  1.00  0.00     0.034 A 
ATOM     57  C   UNL A   1      43.426  30.099  28.258  1.00  0.00     0.049 A 
ATOM     58  C   UNL A   1      48.851  29.394  26.851  1.00  0.00     0.074 A 
ATOM     59  C   UNL A   1      43.074  31.344  28.741  1.00  0.00     0.029 A 
ATOM     60  N   UNL A   1      44.780  30.156  27.947  1.00  0.00    -0.354 N 
ATOM     61  N   UNL A   1      47.622  29.698  27.207  1.00  0.00    -0.248 NA
ATOM     62  C   UNL A   1      49.788  30.524  26.917  1.00  0.00     0.031 C 
ATOM     63  C   UNL A   1      44.194  32.177  28.648  1.00  0.00     0.029 A 
ATOM     64  C   UNL A   1      45.270  31.427  28.194  1.00  0.00     0.049 A 
ATOM     65  H   UNL A   1      45.312  29.403  27.602  1.00  0.00     0.167 HD
ATOM     66  C   UNL A   1      47.649  31.044  27.571  1.00  0.00     0.074 A 
ATOM     67  C   UNL A   1      49.019  31.485  27.403  1.00  0.00     0.031 C 
ATOM     68  C   UNL A   1      46.641  31.843  28.008  1.00  0.00     0.034 A 
BRANCH  55  69
ATOM     69  C   UNL A   1      41.116  29.024  28.354  1.00  0.00     0.023 A 
ATOM     70  C   UNL A   1      40.608  28.873  29.657  1.00  0.00     0.031 A 
ATOM     71  C   UNL A   1      40.197  29.177  27.302  1.00  0.00     0.131 A 
ATOM     72  C   UNL A   1      39.222  28.805  29.864  1.00  0.00     0.055 A 
ATOM     73  C   UNL A   1      38.820  29.194  27.527  1.00  0.00     0.041 A 
ATOM     74  F   UNL A   1      40.622  29.286  26.034  1.00  0.00    -0.206 F 
ATOM     75  C   UNL A   1      38.325  28.992  28.812  1.00  0.00     0.022 A 
BRANCH  72  76
ATOM     76  S   UNL A   1      38.613  28.311  31.501  1.00  0.00     0.124 S 
ATOM     77  O   UNL A   1      38.559  26.856  31.369  1.00  0.00    -0.237 OA
ATOM     78  O   UNL A   1      39.641  28.833  32.393  1.00  0.00    -0.237 OA
ATOM     79  O   UNL A   1      37.312  28.969  31.595  1.00  0.00    -0.744 OA
ENDBRANCH  72  76
ENDBRANCH  55  69
BRANCH  56  80
ATOM     80  C   UNL A   1      50.849  27.940  26.001  1.00  0.00     0.023 A 
ATOM     81  C   UNL A   1      51.241  27.945  24.652  1.00  0.00     0.031 A 
ATOM     82  C   UNL A   1      51.849  27.742  26.972  1.00  0.00     0.131 A 
ATOM     83  C   UNL A   1      52.584  27.711  24.308  1.00  0.00     0.055 A 
ATOM     84  C   UNL A   1      53.191  27.565  26.629  1.00  0.00     0.041 A 
ATOM     85  F   UNL A   1      51.534  27.716  28.276  1.00  0.00    -0.206 F 
ATOM     86  C   UNL A   1      53.564  27.536  25.288  1.00  0.00     0.022 A 
BRANCH  83  87
ATOM     87  S   UNL A   1      53.021  27.547  22.555  1.00  0.00     0.124 S 
ATOM     88  O   UNL A   1      51.708  27.427  21.932  1.00  0.00    -0.237 OA
ATOM     89  O   UNL A   1      53.739  28.792  22.304  1.00  0.00    -0.237 OA
ATOM     90  O   UNL A   1      53.842  26.339  22.520  1.00  0.00    -0.744 OA
ENDBRANCH  83  87
ENDBRANCH  56  80
BRANCH  68  91
ATOM     91  C   UNL A   1      46.998  33.261  28.382  1.00  0.00     0.023 A 
ATOM     92  C   UNL A   1      47.099  34.281  27.422  1.00  0.00     0.031 A 
ATOM     93  C   UNL A   1      47.230  33.596  29.729  1.00  0.00     0.131 A 
ATOM     94  C   UNL A   1      47.480  35.573  27.812  1.00  0.00     0.055 A 
ATOM     95  C   UNL A   1      47.540  34.898  30.121  1.00  0.00     0.041 A 
ATOM     96  F   UNL A   1      47.147  32.662  30.691  1.00  0.00    -0.206 F 
ATOM     97  C   UNL A   1      47.681  35.893  29.159  1.00  0.00     0.022 A 
BRANCH  94  98
ATOM     98  S   UNL A   1      47.809  36.809  26.527  1.00  0.00     0.124 S 
ATOM     99  O   UNL A   1      48.856  37.616  27.146  1.00  0.00    -0.237 OA
ATOM    100  O   UNL A   1      48.224  35.983  25.398  1.00  0.00    -0.237 OA
ATOM    101  O   UNL A   1      46.522  37.483  26.363  1.00  0.00    -0.744 OA
ENDBRANCH  94  98
ENDBRANCH  68  91
ENDBRANCH  42  43
ENDBRANCH  35  37
ENDBRANCH  34  35
ENDBRANCH  33  34
ENDBRANCH  32  33
ENDBRANCH  31  32
ENDBRANCH  30  31
ENDBRANCH   1  30
TORSDOF 26
ENDMDL
