MODEL 1
REMARK VINA RESULT:      -9.6      0.000      0.000
REMARK SMILES O=C(OCCOCCOCCOCCOC(=O)[C@@H](c1cccc(O)c1)[NH+]1CC[NH+](C2CCCC2)CC1)c1ccc(-c2c3nc(c(-c4cc(S(=O)(=O)[O-])ccc4F)c4ccc([nH]4)c(-c4cc(S(=O)(=O)[O-])ccc4F)c4nc(c(-c5cc(S(=O)(=O)[O-])ccc5F)c5ccc2[nH]5)C=C4)C=C3)cc1
REMARK SMILES IDX 8 1 7 2 6 3 5 4 4 5 3 6 2 7 1 8 37 9 38 10 99 11 39 12 98 13
REMARK SMILES IDX 40 14 41 15 42 16 92 17 43 18 97 19 91 20 93 21 44 22 96 23
REMARK SMILES IDX 90 24 89 25 45 27 77 28 57 29 76 30 58 31 61 32 75 33 94 34
REMARK SMILES IDX 59 35 60 36 74 38 95 39 62 40 46 41 47 42 55 43 48 44 54 45
REMARK SMILES IDX 56 46 53 47 49 48 50 49 51 50 52 51 78 52 79 53 87 54 80 55
REMARK SMILES IDX 86 56 88 57 85 58 81 59 82 60 83 61 84 62 63 63 64 64 72 65
REMARK SMILES IDX 65 66 71 67 73 68 70 69 66 70 67 71 68 72 69 73 9 74 10 75
REMARK SMILES IDX 11 76 12 77 13 78 14 79 15 80 16 81 17 82 18 83 19 84 20 85
REMARK SMILES IDX 25 86 21 87 23 88 22 89 24 90 26 92 27 93 36 94 28 96 35 97
REMARK SMILES IDX 29 98 30 100 31 101 34 102 32 103 33 104
REMARK H PARENT 93 26 61 37 24 91 26 95 29 99
REMARK Flexibility Score: inf
ROOT
ATOM      1  C   UNL A   1      35.089  23.834  24.920  1.00  0.00     0.188 C 
ENDROOT
BRANCH   1   2
ATOM      2  C   UNL A   1      35.556  23.366  23.552  1.00  0.00     0.188 C 
BRANCH   2   3
ATOM      3  O   UNL A   1      36.496  22.303  23.679  1.00  0.00    -0.376 OA
BRANCH   3   4
ATOM      4  C   UNL A   1      37.108  22.178  24.955  1.00  0.00     0.202 C 
BRANCH   4   5
ATOM      5  C   UNL A   1      37.523  20.744  25.294  1.00  0.00     0.261 C 
BRANCH   5   6
ATOM      6  O   UNL A   1      38.956  20.638  25.398  1.00  0.00    -0.460 OA
BRANCH   6   7
ATOM      7  C   UNL A   1      39.767  20.923  26.444  1.00  0.00     0.338 C 
ATOM      8  O   UNL A   1      40.108  19.992  27.176  1.00  0.00    -0.246 OA
BRANCH   7   9
ATOM      9  C   UNL A   1      40.237  22.302  26.809  1.00  0.00     0.060 A 
ATOM     10  C   UNL A   1      39.840  23.489  26.191  1.00  0.00     0.016 A 
ATOM     11  C   UNL A   1      41.105  22.405  27.912  1.00  0.00     0.016 A 
ATOM     12  C   UNL A   1      40.328  24.724  26.592  1.00  0.00     0.010 A 
ATOM     13  C   UNL A   1      41.601  23.646  28.330  1.00  0.00     0.010 A 
ATOM     14  C   UNL A   1      41.238  24.805  27.638  1.00  0.00    -0.014 A 
BRANCH  14  15
ATOM     15  C   UNL A   1      41.955  26.082  27.805  1.00  0.00     0.031 A 
ATOM     16  C   UNL A   1      41.310  27.121  28.677  1.00  0.00     0.074 A 
ATOM     17  C   UNL A   1      43.214  26.216  27.354  1.00  0.00     0.049 A 
ATOM     18  N   UNL A   1      41.721  28.319  28.985  1.00  0.00    -0.248 NA
ATOM     19  C   UNL A   1      40.031  26.741  29.306  1.00  0.00     0.031 C 
ATOM     20  C   UNL A   1      43.965  25.183  26.637  1.00  0.00     0.029 A 
ATOM     21  N   UNL A   1      44.096  27.257  27.462  1.00  0.00    -0.354 N 
ATOM     22  C   UNL A   1      40.750  28.840  29.835  1.00  0.00     0.074 A 
ATOM     23  C   UNL A   1      39.722  27.836  29.979  1.00  0.00     0.031 C 
ATOM     24  C   UNL A   1      45.201  25.643  26.377  1.00  0.00     0.029 A 
ATOM     25  C   UNL A   1      45.306  27.020  26.850  1.00  0.00     0.049 A 
ATOM     26  H   UNL A   1      43.884  28.095  27.932  1.00  0.00     0.167 HD
ATOM     27  C   UNL A   1      40.727  30.053  30.436  1.00  0.00     0.034 A 
ATOM     28  C   UNL A   1      46.354  27.848  26.667  1.00  0.00     0.034 A 
ATOM     29  C   UNL A   1      41.761  31.036  30.240  1.00  0.00     0.049 A 
ATOM     30  C   UNL A   1      46.243  29.245  27.234  1.00  0.00     0.074 A 
ATOM     31  C   UNL A   1      41.813  32.345  30.681  1.00  0.00     0.029 A 
ATOM     32  N   UNL A   1      42.938  30.804  29.534  1.00  0.00    -0.354 N 
ATOM     33  N   UNL A   1      45.272  29.773  27.950  1.00  0.00    -0.248 NA
ATOM     34  C   UNL A   1      47.358  30.159  26.968  1.00  0.00     0.031 C 
ATOM     35  C   UNL A   1      42.995  32.918  30.196  1.00  0.00     0.029 A 
ATOM     36  C   UNL A   1      43.714  31.949  29.512  1.00  0.00     0.049 A 
ATOM     37  H   UNL A   1      43.182  29.950  29.112  1.00  0.00     0.167 HD
ATOM     38  C   UNL A   1      45.670  31.076  28.229  1.00  0.00     0.074 A 
ATOM     39  C   UNL A   1      46.984  31.238  27.637  1.00  0.00     0.031 C 
ATOM     40  C   UNL A   1      45.016  32.062  28.898  1.00  0.00     0.034 A 
BRANCH  27  41
ATOM     41  C   UNL A   1      39.506  30.385  31.254  1.00  0.00     0.023 A 
ATOM     42  C   UNL A   1      38.547  31.316  30.813  1.00  0.00     0.031 A 
ATOM     43  C   UNL A   1      39.348  29.835  32.538  1.00  0.00     0.131 A 
ATOM     44  C   UNL A   1      37.516  31.720  31.676  1.00  0.00     0.055 A 
ATOM     45  C   UNL A   1      38.278  30.185  33.362  1.00  0.00     0.041 A 
ATOM     46  F   UNL A   1      40.252  28.971  33.026  1.00  0.00    -0.206 F 
ATOM     47  C   UNL A   1      37.362  31.144  32.939  1.00  0.00     0.022 A 
BRANCH  44  48
ATOM     48  S   UNL A   1      36.460  33.110  31.177  1.00  0.00     0.124 S 
ATOM     49  O   UNL A   1      35.144  32.468  31.112  1.00  0.00    -0.237 OA
ATOM     50  O   UNL A   1      36.655  34.064  32.247  1.00  0.00    -0.237 OA
ATOM     51  O   UNL A   1      37.011  33.504  29.874  1.00  0.00    -0.744 OA
ENDBRANCH  44  48
ENDBRANCH  27  41
BRANCH  28  52
ATOM     52  C   UNL A   1      47.538  27.432  25.855  1.00  0.00     0.023 A 
ATOM     53  C   UNL A   1      48.674  26.857  26.447  1.00  0.00     0.031 A 
ATOM     54  C   UNL A   1      47.586  27.688  24.470  1.00  0.00     0.131 A 
ATOM     55  C   UNL A   1      49.823  26.614  25.674  1.00  0.00     0.055 A 
ATOM     56  C   UNL A   1      48.705  27.382  23.694  1.00  0.00     0.041 A 
ATOM     57  F   UNL A   1      46.538  28.252  23.845  1.00  0.00    -0.206 F 
ATOM     58  C   UNL A   1      49.840  26.858  24.300  1.00  0.00     0.022 A 
BRANCH  55  59
ATOM     59  S   UNL A   1      51.347  26.095  26.515  1.00  0.00     0.124 S 
ATOM     60  O   UNL A   1      50.938  24.833  27.120  1.00  0.00    -0.237 OA
ATOM     61  O   UNL A   1      52.288  25.999  25.405  1.00  0.00    -0.237 OA
ATOM     62  O   UNL A   1      51.603  27.183  27.458  1.00  0.00    -0.744 OA
ENDBRANCH  55  59
ENDBRANCH  28  52
BRANCH  40  63
ATOM     63  C   UNL A   1      45.743  33.374  29.034  1.00  0.00     0.023 A 
ATOM     64  C   UNL A   1      45.754  34.314  27.989  1.00  0.00     0.031 A 
ATOM     65  C   UNL A   1      46.449  33.676  30.211  1.00  0.00     0.131 A 
ATOM     66  C   UNL A   1      46.515  35.484  28.115  1.00  0.00     0.055 A 
ATOM     67  C   UNL A   1      47.153  34.871  30.355  1.00  0.00     0.041 A 
ATOM     68  F   UNL A   1      46.466  32.811  31.238  1.00  0.00    -0.206 F 
ATOM     69  C   UNL A   1      47.201  35.775  29.297  1.00  0.00     0.022 A 
BRANCH  66  70
ATOM     70  S   UNL A   1      46.680  36.567  26.673  1.00  0.00     0.124 S 
ATOM     71  O   UNL A   1      46.296  35.679  25.580  1.00  0.00    -0.237 OA
ATOM     72  O   UNL A   1      45.740  37.641  26.980  1.00  0.00    -0.237 OA
ATOM     73  O   UNL A   1      48.089  36.953  26.693  1.00  0.00    -0.744 OA
ENDBRANCH  66  70
ENDBRANCH  40  63
ENDBRANCH  14  15
ENDBRANCH   7   9
ENDBRANCH   6   7
ENDBRANCH   5   6
ENDBRANCH   4   5
ENDBRANCH   3   4
ENDBRANCH   2   3
ENDBRANCH   1   2
BRANCH   1  74
ATOM     74  O   UNL A   1      33.775  23.381  25.225  1.00  0.00    -0.377 OA
BRANCH  74  75
ATOM     75  C   UNL A   1      33.692  22.608  26.423  1.00  0.00     0.188 C 
BRANCH  75  76
ATOM     76  C   UNL A   1      32.726  23.278  27.400  1.00  0.00     0.188 C 
BRANCH  76  77
ATOM     77  O   UNL A   1      31.429  22.694  27.531  1.00  0.00    -0.376 OA
BRANCH  77  78
ATOM     78  C   UNL A   1      30.376  23.117  26.672  1.00  0.00     0.202 C 
BRANCH  78  79
ATOM     79  C   UNL A   1      30.362  24.584  26.204  1.00  0.00     0.261 C 
BRANCH  79  80
ATOM     80  O   UNL A   1      31.244  24.919  25.107  1.00  0.00    -0.459 OA
BRANCH  80  81
ATOM     81  C   UNL A   1      30.636  25.523  24.055  1.00  0.00     0.369 C 
ATOM     82  O   UNL A   1      29.949  24.902  23.237  1.00  0.00    -0.245 OA
BRANCH  81  83
ATOM     83  C   UNL A   1      31.011  26.993  23.776  1.00  0.00     0.326 C 
BRANCH  83  84
ATOM     84  C   UNL A   1      30.010  28.081  23.370  1.00  0.00     0.025 A 
ATOM     85  C   UNL A   1      28.636  27.783  23.563  1.00  0.00     0.011 A 
ATOM     86  C   UNL A   1      30.319  29.211  22.606  1.00  0.00     0.056 A 
ATOM     87  C   UNL A   1      27.620  28.535  22.968  1.00  0.00     0.004 A 
ATOM     88  C   UNL A   1      29.290  29.971  22.031  1.00  0.00     0.116 A 
ATOM     89  C   UNL A   1      27.949  29.635  22.190  1.00  0.00     0.046 A 
BRANCH  88  90
ATOM     90  O   UNL A   1      29.628  31.067  21.287  1.00  0.00    -0.508 OA
ATOM     91  H   UNL A   1      28.958  31.592  20.895  1.00  0.00     0.293 HD
ENDBRANCH  88  90
ENDBRANCH  83  84
BRANCH  83  92
ATOM     92  N   UNL A   1      31.949  27.385  24.860  1.00  0.00    -0.310 N 
ATOM     93  C   UNL A   1      33.294  27.729  24.353  1.00  0.00     0.325 C 
ATOM     94  C   UNL A   1      31.473  28.247  25.938  1.00  0.00     0.325 C 
ATOM     95  H   UNL A   1      32.022  26.513  25.383  1.00  0.00     0.349 HD
ATOM     96  C   UNL A   1      33.739  29.215  24.460  1.00  0.00     0.324 C 
ATOM     97  C   UNL A   1      31.774  29.732  25.705  1.00  0.00     0.324 C 
ATOM     98  N   UNL A   1      33.214  29.997  25.596  1.00  0.00    -0.323 N 
ATOM     99  H   UNL A   1      33.342  30.990  25.407  1.00  0.00     0.348 HD
BRANCH  98 100
ATOM    100  C   UNL A   1      33.982  29.869  26.843  1.00  0.00     0.184 C 
ATOM    101  C   UNL A   1      35.231  28.972  26.781  1.00  0.00     0.065 C 
ATOM    102  C   UNL A   1      34.462  31.124  27.604  1.00  0.00     0.065 C 
ATOM    103  C   UNL A   1      35.929  29.250  28.101  1.00  0.00     0.006 C 
ATOM    104  C   UNL A   1      35.795  30.754  28.256  1.00  0.00     0.006 C 
ENDBRANCH  98 100
ENDBRANCH  83  92
ENDBRANCH  81  83
ENDBRANCH  80  81
ENDBRANCH  79  80
ENDBRANCH  78  79
ENDBRANCH  77  78
ENDBRANCH  76  77
ENDBRANCH  75  76
ENDBRANCH  74  75
ENDBRANCH   1  74
TORSDOF 27
ENDMDL
MODEL 2
REMARK VINA RESULT:      -8.6      2.847      8.165
REMARK SMILES O=C(OCCOCCOCCOCCOC(=O)[C@@H](c1cccc(O)c1)[NH+]1CC[NH+](C2CCCC2)CC1)c1ccc(-c2c3nc(c(-c4cc(S(=O)(=O)[O-])ccc4F)c4ccc([nH]4)c(-c4cc(S(=O)(=O)[O-])ccc4F)c4nc(c(-c5cc(S(=O)(=O)[O-])ccc5F)c5ccc2[nH]5)C=C4)C=C3)cc1
REMARK SMILES IDX 8 1 7 2 6 3 5 4 4 5 3 6 2 7 1 8 37 9 38 10 99 11 39 12 98 13
REMARK SMILES IDX 40 14 41 15 42 16 92 17 43 18 97 19 91 20 93 21 44 22 96 23
REMARK SMILES IDX 90 24 89 25 45 27 77 28 57 29 76 30 58 31 61 32 75 33 94 34
REMARK SMILES IDX 59 35 60 36 74 38 95 39 62 40 46 41 47 42 55 43 48 44 54 45
REMARK SMILES IDX 56 46 53 47 49 48 50 49 51 50 52 51 78 52 79 53 87 54 80 55
REMARK SMILES IDX 86 56 88 57 85 58 81 59 82 60 83 61 84 62 63 63 64 64 72 65
REMARK SMILES IDX 65 66 71 67 73 68 70 69 66 70 67 71 68 72 69 73 9 74 10 75
REMARK SMILES IDX 11 76 12 77 13 78 14 79 15 80 16 81 17 82 18 83 19 84 20 85
REMARK SMILES IDX 25 86 21 87 23 88 22 89 24 90 26 92 27 93 36 94 28 96 35 97
REMARK SMILES IDX 29 98 30 100 31 101 34 102 32 103 33 104
REMARK H PARENT 93 26 61 37 24 91 26 95 29 99
REMARK Flexibility Score: inf
ROOT
ATOM      1  C   UNL A   1      36.322  23.534  26.059  1.00  0.00     0.188 C 
ENDROOT
BRANCH   1   2
ATOM      2  C   UNL A   1      37.090  23.276  24.773  1.00  0.00     0.188 C 
BRANCH   2   3
ATOM      3  O   UNL A   1      37.920  22.127  24.905  1.00  0.00    -0.376 OA
BRANCH   3   4
ATOM      4  C   UNL A   1      39.016  22.264  25.800  1.00  0.00     0.202 C 
BRANCH   4   5
ATOM      5  C   UNL A   1      39.512  20.931  26.366  1.00  0.00     0.261 C 
BRANCH   5   6
ATOM      6  O   UNL A   1      40.830  20.626  25.873  1.00  0.00    -0.460 OA
BRANCH   6   7
ATOM      7  C   UNL A   1      42.034  20.795  26.470  1.00  0.00     0.338 C 
ATOM      8  O   UNL A   1      42.756  19.804  26.595  1.00  0.00    -0.246 OA
BRANCH   7   9
ATOM      9  C   UNL A   1      42.529  22.092  27.042  1.00  0.00     0.060 A 
ATOM     10  C   UNL A   1      42.846  22.325  28.382  1.00  0.00     0.016 A 
ATOM     11  C   UNL A   1      42.752  23.143  26.132  1.00  0.00     0.016 A 
ATOM     12  C   UNL A   1      43.295  23.560  28.826  1.00  0.00     0.010 A 
ATOM     13  C   UNL A   1      43.210  24.393  26.566  1.00  0.00     0.010 A 
ATOM     14  C   UNL A   1      43.445  24.609  27.928  1.00  0.00    -0.014 A 
BRANCH  14  15
ATOM     15  C   UNL A   1      43.612  25.958  28.496  1.00  0.00     0.031 A 
ATOM     16  C   UNL A   1      44.999  26.532  28.503  1.00  0.00     0.074 A 
ATOM     17  C   UNL A   1      42.534  26.701  28.805  1.00  0.00     0.049 A 
ATOM     18  N   UNL A   1      45.420  27.685  28.943  1.00  0.00    -0.248 NA
ATOM     19  C   UNL A   1      46.054  25.692  27.908  1.00  0.00     0.031 C 
ATOM     20  C   UNL A   1      41.143  26.263  28.669  1.00  0.00     0.029 A 
ATOM     21  N   UNL A   1      42.437  27.988  29.260  1.00  0.00    -0.354 N 
ATOM     22  C   UNL A   1      46.787  27.707  28.687  1.00  0.00     0.074 A 
ATOM     23  C   UNL A   1      47.129  26.445  28.071  1.00  0.00     0.031 C 
ATOM     24  C   UNL A   1      40.331  27.272  29.026  1.00  0.00     0.029 A 
ATOM     25  C   UNL A   1      41.142  28.399  29.476  1.00  0.00     0.049 A 
ATOM     26  H   UNL A   1      43.219  28.563  29.418  1.00  0.00     0.167 HD
ATOM     27  C   UNL A   1      47.673  28.696  28.950  1.00  0.00     0.034 A 
ATOM     28  C   UNL A   1      40.682  29.547  30.015  1.00  0.00     0.034 A 
ATOM     29  C   UNL A   1      47.293  29.927  29.594  1.00  0.00     0.049 A 
ATOM     30  C   UNL A   1      41.706  30.581  30.425  1.00  0.00     0.074 A 
ATOM     31  C   UNL A   1      48.095  30.963  30.034  1.00  0.00     0.029 A 
ATOM     32  N   UNL A   1      45.980  30.282  29.891  1.00  0.00    -0.354 N 
ATOM     33  N   UNL A   1      43.014  30.553  30.279  1.00  0.00    -0.248 NA
ATOM     34  C   UNL A   1      41.200  31.794  31.075  1.00  0.00     0.031 C 
ATOM     35  C   UNL A   1      47.271  31.918  30.642  1.00  0.00     0.029 A 
ATOM     36  C   UNL A   1      45.951  31.512  30.523  1.00  0.00     0.049 A 
ATOM     37  H   UNL A   1      45.188  29.737  29.682  1.00  0.00     0.167 HD
ATOM     38  C   UNL A   1      43.482  31.752  30.807  1.00  0.00     0.074 A 
ATOM     39  C   UNL A   1      42.312  32.493  31.238  1.00  0.00     0.031 C 
ATOM     40  C   UNL A   1      44.756  32.206  30.943  1.00  0.00     0.034 A 
BRANCH  27  41
ATOM     41  C   UNL A   1      49.119  28.419  28.630  1.00  0.00     0.023 A 
ATOM     42  C   UNL A   1      49.940  27.671  29.494  1.00  0.00     0.031 A 
ATOM     43  C   UNL A   1      49.711  28.993  27.492  1.00  0.00     0.131 A 
ATOM     44  C   UNL A   1      51.319  27.579  29.243  1.00  0.00     0.055 A 
ATOM     45  C   UNL A   1      51.068  28.834  27.208  1.00  0.00     0.041 A 
ATOM     46  F   UNL A   1      48.984  29.748  26.653  1.00  0.00    -0.206 F 
ATOM     47  C   UNL A   1      51.883  28.136  28.094  1.00  0.00     0.022 A 
BRANCH  44  48
ATOM     48  S   UNL A   1      52.385  26.836  30.512  1.00  0.00     0.124 S 
ATOM     49  O   UNL A   1      52.757  28.012  31.303  1.00  0.00    -0.237 OA
ATOM     50  O   UNL A   1      51.506  25.884  31.155  1.00  0.00    -0.237 OA
ATOM     51  O   UNL A   1      53.485  26.253  29.732  1.00  0.00    -0.744 OA
ENDBRANCH  44  48
ENDBRANCH  27  41
BRANCH  28  52
ATOM     52  C   UNL A   1      39.226  29.749  30.283  1.00  0.00     0.023 A 
ATOM     53  C   UNL A   1      38.429  30.561  29.459  1.00  0.00     0.031 A 
ATOM     54  C   UNL A   1      38.623  29.197  31.431  1.00  0.00     0.131 A 
ATOM     55  C   UNL A   1      37.101  30.844  29.824  1.00  0.00     0.055 A 
ATOM     56  C   UNL A   1      37.284  29.428  31.753  1.00  0.00     0.041 A 
ATOM     57  F   UNL A   1      39.334  28.425  32.270  1.00  0.00    -0.206 F 
ATOM     58  C   UNL A   1      36.519  30.271  30.956  1.00  0.00     0.022 A 
BRANCH  55  59
ATOM     59  S   UNL A   1      36.179  32.082  28.868  1.00  0.00     0.124 S 
ATOM     60  O   UNL A   1      37.170  33.142  28.718  1.00  0.00    -0.237 OA
ATOM     61  O   UNL A   1      35.844  31.342  27.656  1.00  0.00    -0.237 OA
ATOM     62  O   UNL A   1      35.046  32.407  29.733  1.00  0.00    -0.744 OA
ENDBRANCH  55  59
ENDBRANCH  28  52
BRANCH  40  63
ATOM     63  C   UNL A   1      44.918  33.572  31.556  1.00  0.00     0.023 A 
ATOM     64  C   UNL A   1      45.091  33.734  32.941  1.00  0.00     0.031 A 
ATOM     65  C   UNL A   1      44.876  34.721  30.749  1.00  0.00     0.131 A 
ATOM     66  C   UNL A   1      45.147  35.023  33.488  1.00  0.00     0.055 A 
ATOM     67  C   UNL A   1      44.996  36.000  31.292  1.00  0.00     0.041 A 
ATOM     68  F   UNL A   1      44.715  34.618  29.420  1.00  0.00    -0.206 F 
ATOM     69  C   UNL A   1      45.116  36.156  32.670  1.00  0.00     0.022 A 
BRANCH  66  70
ATOM     70  S   UNL A   1      45.153  35.198  35.291  1.00  0.00     0.124 S 
ATOM     71  O   UNL A   1      46.540  34.884  35.622  1.00  0.00    -0.237 OA
ATOM     72  O   UNL A   1      44.755  36.591  35.471  1.00  0.00    -0.237 OA
ATOM     73  O   UNL A   1      44.172  34.210  35.735  1.00  0.00    -0.744 OA
ENDBRANCH  66  70
ENDBRANCH  40  63
ENDBRANCH  14  15
ENDBRANCH   7   9
ENDBRANCH   6   7
ENDBRANCH   5   6
ENDBRANCH   4   5
ENDBRANCH   3   4
ENDBRANCH   2   3
ENDBRANCH   1   2
BRANCH   1  74
ATOM     74  O   UNL A   1      34.957  23.853  25.818  1.00  0.00    -0.377 OA
BRANCH  74  75
ATOM     75  C   UNL A   1      34.058  23.333  26.797  1.00  0.00     0.188 C 
BRANCH  75  76
ATOM     76  C   UNL A   1      32.623  23.719  26.434  1.00  0.00     0.188 C 
BRANCH  76  77
ATOM     77  O   UNL A   1      31.706  22.649  26.198  1.00  0.00    -0.376 OA
BRANCH  77  78
ATOM     78  C   UNL A   1      31.058  22.543  24.935  1.00  0.00     0.202 C 
BRANCH  78  79
ATOM     79  C   UNL A   1      30.942  23.809  24.066  1.00  0.00     0.261 C 
BRANCH  79  80
ATOM     80  O   UNL A   1      32.183  24.388  23.602  1.00  0.00    -0.459 OA
BRANCH  80  81
ATOM     81  C   UNL A   1      32.067  25.636  23.081  1.00  0.00     0.369 C 
ATOM     82  O   UNL A   1      32.584  25.958  22.006  1.00  0.00    -0.245 OA
BRANCH  81  83
ATOM     83  C   UNL A   1      31.451  26.721  23.987  1.00  0.00     0.326 C 
BRANCH  83  84
ATOM     84  C   UNL A   1      32.099  27.246  25.273  1.00  0.00     0.025 A 
ATOM     85  C   UNL A   1      31.239  27.437  26.385  1.00  0.00     0.011 A 
ATOM     86  C   UNL A   1      33.388  27.783  25.361  1.00  0.00     0.056 A 
ATOM     87  C   UNL A   1      31.620  28.184  27.503  1.00  0.00     0.004 A 
ATOM     88  C   UNL A   1      33.767  28.512  26.497  1.00  0.00     0.116 A 
ATOM     89  C   UNL A   1      32.893  28.732  27.558  1.00  0.00     0.046 A 
BRANCH  88  90
ATOM     90  O   UNL A   1      35.033  29.026  26.548  1.00  0.00    -0.508 OA
ATOM     91  H   UNL A   1      35.238  29.815  26.086  1.00  0.00     0.293 HD
ENDBRANCH  88  90
ENDBRANCH  83  84
BRANCH  83  92
ATOM     92  N   UNL A   1      30.948  27.778  23.069  1.00  0.00    -0.310 N 
ATOM     93  C   UNL A   1      29.506  27.638  22.776  1.00  0.00     0.325 C 
ATOM     94  C   UNL A   1      31.396  29.154  23.254  1.00  0.00     0.325 C 
ATOM     95  H   UNL A   1      31.466  27.562  22.217  1.00  0.00     0.349 HD
ATOM     96  C   UNL A   1      28.555  28.732  23.340  1.00  0.00     0.324 C 
ATOM     97  C   UNL A   1      30.427  30.000  24.091  1.00  0.00     0.324 C 
ATOM     98  N   UNL A   1      29.099  30.097  23.473  1.00  0.00    -0.323 N 
ATOM     99  H   UNL A   1      28.498  30.638  24.094  1.00  0.00     0.348 HD
BRANCH  98 100
ATOM    100  C   UNL A   1      29.019  30.916  22.255  1.00  0.00     0.184 C 
ATOM    101  C   UNL A   1      28.036  30.431  21.176  1.00  0.00     0.065 C 
ATOM    102  C   UNL A   1      28.755  32.435  22.345  1.00  0.00     0.065 C 
ATOM    103  C   UNL A   1      27.988  31.591  20.197  1.00  0.00     0.006 C 
ATOM    104  C   UNL A   1      27.945  32.809  21.102  1.00  0.00     0.006 C 
ENDBRANCH  98 100
ENDBRANCH  83  92
ENDBRANCH  81  83
ENDBRANCH  80  81
ENDBRANCH  79  80
ENDBRANCH  78  79
ENDBRANCH  77  78
ENDBRANCH  76  77
ENDBRANCH  75  76
ENDBRANCH  74  75
ENDBRANCH   1  74
TORSDOF 27
ENDMDL
MODEL 3
REMARK VINA RESULT:      -8.6      5.189     11.796
REMARK SMILES O=C(OCCOCCOCCOCCOC(=O)[C@@H](c1cccc(O)c1)[NH+]1CC[NH+](C2CCCC2)CC1)c1ccc(-c2c3nc(c(-c4cc(S(=O)(=O)[O-])ccc4F)c4ccc([nH]4)c(-c4cc(S(=O)(=O)[O-])ccc4F)c4nc(c(-c5cc(S(=O)(=O)[O-])ccc5F)c5ccc2[nH]5)C=C4)C=C3)cc1
REMARK SMILES IDX 8 1 7 2 6 3 5 4 4 5 3 6 2 7 1 8 37 9 38 10 99 11 39 12 98 13
REMARK SMILES IDX 40 14 41 15 42 16 92 17 43 18 97 19 91 20 93 21 44 22 96 23
REMARK SMILES IDX 90 24 89 25 45 27 77 28 57 29 76 30 58 31 61 32 75 33 94 34
REMARK SMILES IDX 59 35 60 36 74 38 95 39 62 40 46 41 47 42 55 43 48 44 54 45
REMARK SMILES IDX 56 46 53 47 49 48 50 49 51 50 52 51 78 52 79 53 87 54 80 55
REMARK SMILES IDX 86 56 88 57 85 58 81 59 82 60 83 61 84 62 63 63 64 64 72 65
REMARK SMILES IDX 65 66 71 67 73 68 70 69 66 70 67 71 68 72 69 73 9 74 10 75
REMARK SMILES IDX 11 76 12 77 13 78 14 79 15 80 16 81 17 82 18 83 19 84 20 85
REMARK SMILES IDX 25 86 21 87 23 88 22 89 24 90 26 92 27 93 36 94 28 96 35 97
REMARK SMILES IDX 29 98 30 100 31 101 34 102 32 103 33 104
REMARK H PARENT 93 26 61 37 24 91 26 95 29 99
REMARK Flexibility Score: inf
ROOT
ATOM      1  C   UNL A   1      33.436  26.852  25.850  1.00  0.00     0.188 C 
ENDROOT
BRANCH   1   2
ATOM      2  C   UNL A   1      33.128  28.229  25.284  1.00  0.00     0.188 C 
BRANCH   2   3
ATOM      3  O   UNL A   1      32.655  29.097  26.309  1.00  0.00    -0.376 OA
BRANCH   3   4
ATOM      4  C   UNL A   1      33.596  30.049  26.786  1.00  0.00     0.202 C 
BRANCH   4   5
ATOM      5  C   UNL A   1      32.962  31.379  27.203  1.00  0.00     0.261 C 
BRANCH   5   6
ATOM      6  O   UNL A   1      33.975  32.339  27.557  1.00  0.00    -0.460 OA
BRANCH   6   7
ATOM      7  C   UNL A   1      34.063  33.136  28.649  1.00  0.00     0.338 C 
ATOM      8  O   UNL A   1      33.271  34.076  28.737  1.00  0.00    -0.246 OA
BRANCH   7   9
ATOM      9  C   UNL A   1      35.091  32.990  29.733  1.00  0.00     0.060 A 
ATOM     10  C   UNL A   1      35.923  34.005  30.210  1.00  0.00     0.016 A 
ATOM     11  C   UNL A   1      35.176  31.734  30.362  1.00  0.00     0.016 A 
ATOM     12  C   UNL A   1      36.852  33.781  31.216  1.00  0.00     0.010 A 
ATOM     13  C   UNL A   1      36.105  31.496  31.382  1.00  0.00     0.010 A 
ATOM     14  C   UNL A   1      36.972  32.518  31.781  1.00  0.00    -0.014 A 
BRANCH  14  15
ATOM     15  C   UNL A   1      38.170  32.263  32.601  1.00  0.00     0.031 A 
ATOM     16  C   UNL A   1      39.408  31.809  31.882  1.00  0.00     0.074 A 
ATOM     17  C   UNL A   1      38.191  32.615  33.898  1.00  0.00     0.049 A 
ATOM     18  N   UNL A   1      40.585  31.515  32.359  1.00  0.00    -0.248 NA
ATOM     19  C   UNL A   1      39.305  31.695  30.416  1.00  0.00     0.031 C 
ATOM     20  C   UNL A   1      37.070  33.216  34.625  1.00  0.00     0.029 A 
ATOM     21  N   UNL A   1      39.196  32.556  34.824  1.00  0.00    -0.354 N 
ATOM     22  C   UNL A   1      41.361  31.172  31.256  1.00  0.00     0.074 A 
ATOM     23  C   UNL A   1      40.516  31.277  30.088  1.00  0.00     0.031 C 
ATOM     24  C   UNL A   1      37.456  33.477  35.885  1.00  0.00     0.029 A 
ATOM     25  C   UNL A   1      38.825  33.004  36.071  1.00  0.00     0.049 A 
ATOM     26  H   UNL A   1      40.100  32.224  34.617  1.00  0.00     0.167 HD
ATOM     27  C   UNL A   1      42.662  30.800  31.230  1.00  0.00     0.034 A 
ATOM     28  C   UNL A   1      39.513  32.991  37.230  1.00  0.00     0.034 A 
ATOM     29  C   UNL A   1      43.459  30.680  32.423  1.00  0.00     0.049 A 
ATOM     30  C   UNL A   1      40.921  32.443  37.196  1.00  0.00     0.074 A 
ATOM     31  C   UNL A   1      44.747  30.199  32.565  1.00  0.00     0.029 A 
ATOM     32  N   UNL A   1      43.027  31.052  33.693  1.00  0.00    -0.354 N 
ATOM     33  N   UNL A   1      41.619  32.016  36.164  1.00  0.00    -0.248 NA
ATOM     34  C   UNL A   1      41.634  32.366  38.475  1.00  0.00     0.031 C 
ATOM     35  C   UNL A   1      45.073  30.232  33.927  1.00  0.00     0.029 A 
ATOM     36  C   UNL A   1      44.016  30.796  34.626  1.00  0.00     0.049 A 
ATOM     37  H   UNL A   1      42.147  31.440  33.897  1.00  0.00     0.167 HD
ATOM     38  C   UNL A   1      42.857  31.636  36.671  1.00  0.00     0.074 A 
ATOM     39  C   UNL A   1      42.820  31.919  38.093  1.00  0.00     0.031 C 
ATOM     40  C   UNL A   1      43.927  31.089  36.037  1.00  0.00     0.034 A 
BRANCH  27  41
ATOM     41  C   UNL A   1      43.232  30.411  29.890  1.00  0.00     0.023 A 
ATOM     42  C   UNL A   1      43.992  31.309  29.118  1.00  0.00     0.031 A 
ATOM     43  C   UNL A   1      42.929  29.156  29.334  1.00  0.00     0.131 A 
ATOM     44  C   UNL A   1      44.361  30.965  27.807  1.00  0.00     0.055 A 
ATOM     45  C   UNL A   1      43.363  28.793  28.058  1.00  0.00     0.041 A 
ATOM     46  F   UNL A   1      42.176  28.274  30.010  1.00  0.00    -0.206 F 
ATOM     47  C   UNL A   1      44.071  29.705  27.281  1.00  0.00     0.022 A 
BRANCH  44  48
ATOM     48  S   UNL A   1      45.105  32.242  26.751  1.00  0.00     0.124 S 
ATOM     49  O   UNL A   1      46.242  32.670  27.569  1.00  0.00    -0.237 OA
ATOM     50  O   UNL A   1      45.425  31.514  25.542  1.00  0.00    -0.237 OA
ATOM     51  O   UNL A   1      44.036  33.240  26.621  1.00  0.00    -0.744 OA
ENDBRANCH  44  48
ENDBRANCH  27  41
BRANCH  28  52
ATOM     52  C   UNL A   1      38.875  33.412  38.515  1.00  0.00     0.023 A 
ATOM     53  C   UNL A   1      37.909  32.617  39.154  1.00  0.00     0.031 A 
ATOM     54  C   UNL A   1      39.162  34.670  39.082  1.00  0.00     0.131 A 
ATOM     55  C   UNL A   1      37.226  33.110  40.280  1.00  0.00     0.055 A 
ATOM     56  C   UNL A   1      38.529  35.126  40.240  1.00  0.00     0.041 A 
ATOM     57  F   UNL A   1      40.064  35.485  38.511  1.00  0.00    -0.206 F 
ATOM     58  C   UNL A   1      37.541  34.352  40.836  1.00  0.00     0.022 A 
BRANCH  55  59
ATOM     59  S   UNL A   1      35.823  32.161  40.935  1.00  0.00     0.124 S 
ATOM     60  O   UNL A   1      35.188  33.137  41.814  1.00  0.00    -0.237 OA
ATOM     61  O   UNL A   1      35.092  31.823  39.719  1.00  0.00    -0.237 OA
ATOM     62  O   UNL A   1      36.461  31.034  41.613  1.00  0.00    -0.744 OA
ENDBRANCH  55  59
ENDBRANCH  28  52
BRANCH  40  63
ATOM     63  C   UNL A   1      45.134  30.800  36.890  1.00  0.00     0.023 A 
ATOM     64  C   UNL A   1      45.214  29.635  37.671  1.00  0.00     0.031 A 
ATOM     65  C   UNL A   1      46.203  31.711  36.937  1.00  0.00     0.131 A 
ATOM     66  C   UNL A   1      46.311  29.444  38.523  1.00  0.00     0.055 A 
ATOM     67  C   UNL A   1      47.322  31.483  37.738  1.00  0.00     0.041 A 
ATOM     68  F   UNL A   1      46.175  32.837  36.206  1.00  0.00    -0.206 F 
ATOM     69  C   UNL A   1      47.372  30.352  38.548  1.00  0.00     0.022 A 
BRANCH  66  70
ATOM     70  S   UNL A   1      46.280  28.043  39.671  1.00  0.00     0.124 S 
ATOM     71  O   UNL A   1      47.373  27.215  39.172  1.00  0.00    -0.237 OA
ATOM     72  O   UNL A   1      46.508  28.690  40.959  1.00  0.00    -0.237 OA
ATOM     73  O   UNL A   1      44.943  27.480  39.489  1.00  0.00    -0.744 OA
ENDBRANCH  66  70
ENDBRANCH  40  63
ENDBRANCH  14  15
ENDBRANCH   7   9
ENDBRANCH   6   7
ENDBRANCH   5   6
ENDBRANCH   4   5
ENDBRANCH   3   4
ENDBRANCH   2   3
ENDBRANCH   1   2
BRANCH   1  74
ATOM     74  O   UNL A   1      34.273  26.090  24.987  1.00  0.00    -0.377 OA
BRANCH  74  75
ATOM     75  C   UNL A   1      34.441  24.731  25.393  1.00  0.00     0.188 C 
BRANCH  75  76
ATOM     76  C   UNL A   1      35.158  23.951  24.291  1.00  0.00     0.188 C 
BRANCH  76  77
ATOM     77  O   UNL A   1      36.548  23.687  24.486  1.00  0.00    -0.376 OA
BRANCH  77  78
ATOM     78  C   UNL A   1      37.014  23.269  25.764  1.00  0.00     0.202 C 
BRANCH  78  79
ATOM     79  C   UNL A   1      38.402  23.748  26.227  1.00  0.00     0.261 C 
BRANCH  79  80
ATOM     80  O   UNL A   1      39.358  22.718  26.571  1.00  0.00    -0.459 OA
BRANCH  80  81
ATOM     81  C   UNL A   1      40.416  23.148  27.304  1.00  0.00     0.369 C 
ATOM     82  O   UNL A   1      40.786  22.578  28.335  1.00  0.00    -0.245 OA
BRANCH  81  83
ATOM     83  C   UNL A   1      41.019  24.518  26.931  1.00  0.00     0.326 C 
BRANCH  83  84
ATOM     84  C   UNL A   1      40.567  25.854  27.530  1.00  0.00     0.025 A 
ATOM     85  C   UNL A   1      39.952  25.802  28.808  1.00  0.00     0.011 A 
ATOM     86  C   UNL A   1      40.479  27.061  26.827  1.00  0.00     0.056 A 
ATOM     87  C   UNL A   1      39.227  26.876  29.331  1.00  0.00     0.004 A 
ATOM     88  C   UNL A   1      39.768  28.139  27.371  1.00  0.00     0.116 A 
ATOM     89  C   UNL A   1      39.128  28.053  28.605  1.00  0.00     0.046 A 
BRANCH  88  90
ATOM     90  O   UNL A   1      39.699  29.302  26.655  1.00  0.00    -0.508 OA
ATOM     91  H   UNL A   1      39.040  29.409  25.997  1.00  0.00     0.293 HD
ENDBRANCH  88  90
ENDBRANCH  83  84
BRANCH  83  92
ATOM     92  N   UNL A   1      42.492  24.318  26.900  1.00  0.00    -0.310 N 
ATOM     93  C   UNL A   1      42.900  23.240  25.975  1.00  0.00     0.325 C 
ATOM     94  C   UNL A   1      43.369  25.484  26.892  1.00  0.00     0.325 C 
ATOM     95  H   UNL A   1      42.668  24.000  27.853  1.00  0.00     0.349 HD
ATOM     96  C   UNL A   1      43.687  23.655  24.699  1.00  0.00     0.324 C 
ATOM     97  C   UNL A   1      43.812  25.901  25.484  1.00  0.00     0.324 C 
ATOM     98  N   UNL A   1      44.560  24.840  24.801  1.00  0.00    -0.323 N 
ATOM     99  H   UNL A   1      44.792  25.167  23.863  1.00  0.00     0.348 HD
BRANCH  98 100
ATOM    100  C   UNL A   1      45.909  24.572  25.321  1.00  0.00     0.184 C 
ATOM    101  C   UNL A   1      46.839  25.791  25.452  1.00  0.00     0.065 C 
ATOM    102  C   UNL A   1      46.103  23.811  26.651  1.00  0.00     0.065 C 
ATOM    103  C   UNL A   1      48.019  25.250  26.240  1.00  0.00     0.006 C 
ATOM    104  C   UNL A   1      47.363  24.385  27.301  1.00  0.00     0.006 C 
ENDBRANCH  98 100
ENDBRANCH  83  92
ENDBRANCH  81  83
ENDBRANCH  80  81
ENDBRANCH  79  80
ENDBRANCH  78  79
ENDBRANCH  77  78
ENDBRANCH  76  77
ENDBRANCH  75  76
ENDBRANCH  74  75
ENDBRANCH   1  74
TORSDOF 27
ENDMDL
