MODEL 1
REMARK VINA RESULT:      -8.9      0.000      0.000
REMARK SMILES Nc1cc([N+](=O)[O-])ccc1[C@H]([NH3+])C(=O)OCCOCCOCCOCCOC(=O)c1ccc(-c2c3nc(c(-c4cc(S(=O)(=O)[O-])ccc4F)c4ccc([nH]4)c(-c4cc(S(=O)(=O)[O-])ccc4F)c4nc(c(-c5cc(S(=O)(=O)[O-])ccc5F)c5ccc2[nH]5)C=C4)C=C3)cc1
REMARK SMILES IDX 22 1 21 2 20 3 19 4 18 5 17 6 16 7 15 8 13 9 14 10 11 11
REMARK SMILES IDX 10 12 2 13 3 14 4 15 9 16 8 17 1 18 5 21 6 22 7 23 12 24
REMARK SMILES IDX 23 28 24 29 25 30 26 31 27 32 28 33 29 34 30 35 31 36 92 37
REMARK SMILES IDX 32 38 91 39 33 40 34 41 35 42 85 43 36 44 90 45 84 46 86 47
REMARK SMILES IDX 37 48 89 49 83 50 82 51 38 53 70 54 50 55 69 56 51 57 54 58
REMARK SMILES IDX 68 59 87 60 52 61 53 62 67 64 88 65 55 66 39 67 40 68 48 69
REMARK SMILES IDX 41 70 47 71 49 72 46 73 42 74 43 75 44 76 45 77 71 78 72 79
REMARK SMILES IDX 80 80 73 81 79 82 81 83 78 84 74 85 75 86 76 87 77 88 56 89
REMARK SMILES IDX 57 90 65 91 58 92 64 93 66 94 63 95 59 96 60 97 61 98 62 99
REMARK H PARENT 1 19 1 20 12 25 12 26 12 27 86 52 54 63
REMARK Flexibility Score: inf
ROOT
ATOM      1  C   UNL A   1      41.296  22.356  28.124  1.00  0.00     0.188 C 
ENDROOT
BRANCH   1   2
ATOM      2  O   UNL A   1      40.260  21.587  27.525  1.00  0.00    -0.377 OA
BRANCH   2   3
ATOM      3  C   UNL A   1      39.575  22.208  26.461  1.00  0.00     0.188 C 
BRANCH   3   4
ATOM      4  C   UNL A   1      38.557  21.305  25.745  1.00  0.00     0.188 C 
BRANCH   4   5
ATOM      5  O   UNL A   1      37.408  21.813  25.075  1.00  0.00    -0.376 OA
BRANCH   5   6
ATOM      6  C   UNL A   1      36.129  21.206  25.164  1.00  0.00     0.202 C 
BRANCH   6   7
ATOM      7  C   UNL A   1      34.822  21.995  24.991  1.00  0.00     0.261 C 
BRANCH   7   8
ATOM      8  O   UNL A   1      34.120  21.816  23.762  1.00  0.00    -0.459 OA
BRANCH   8   9
ATOM      9  C   UNL A   1      32.787  22.073  23.812  1.00  0.00     0.369 C 
ATOM     10  O   UNL A   1      32.295  23.073  24.333  1.00  0.00    -0.245 OA
BRANCH   9  11
ATOM     11  C   UNL A   1      31.931  20.937  23.186  1.00  0.00     0.325 C 
BRANCH  11  12
ATOM     12  C   UNL A   1      32.388  19.545  23.622  1.00  0.00     0.044 A 
ATOM     13  C   UNL A   1      32.494  18.439  22.746  1.00  0.00     0.048 A 
ATOM     14  C   UNL A   1      32.874  17.192  23.261  1.00  0.00     0.111 A 
ATOM     15  C   UNL A   1      33.190  17.039  24.613  1.00  0.00     0.271 A 
ATOM     16  C   UNL A   1      32.673  19.341  24.994  1.00  0.00     0.020 A 
ATOM     17  C   UNL A   1      33.086  18.111  25.489  1.00  0.00     0.086 A 
BRANCH  13  18
ATOM     18  N   UNL A   1      32.091  18.473  21.414  1.00  0.00    -0.398 N 
ATOM     19  H   UNL A   1      32.233  19.286  20.877  1.00  0.00     0.156 HD
ATOM     20  H   UNL A   1      31.664  17.684  21.008  1.00  0.00     0.156 HD
ENDBRANCH  13  18
BRANCH  15  21
ATOM     21  N   UNL A   1      33.606  15.732  25.119  1.00  0.00     0.062 N 
ATOM     22  O   UNL A   1      32.757  15.039  25.698  1.00  0.00    -0.258 OA
ATOM     23  O   UNL A   1      34.789  15.399  24.952  1.00  0.00    -0.258 OA
ENDBRANCH  15  21
ENDBRANCH  11  12
BRANCH  11  24
ATOM     24  N   UNL A   1      31.857  21.109  21.731  1.00  0.00    -0.342 N 
ATOM     25  H   UNL A   1      31.454  22.021  21.516  1.00  0.00     0.345 HD
ATOM     26  H   UNL A   1      31.271  20.376  21.331  1.00  0.00     0.345 HD
ATOM     27  H   UNL A   1      32.794  21.050  21.333  1.00  0.00     0.345 HD
ENDBRANCH  11  24
ENDBRANCH   9  11
ENDBRANCH   8   9
ENDBRANCH   7   8
ENDBRANCH   6   7
ENDBRANCH   5   6
ENDBRANCH   4   5
ENDBRANCH   3   4
ENDBRANCH   2   3
ENDBRANCH   1   2
BRANCH   1  28
ATOM     28  C   UNL A   1      42.750  21.862  27.944  1.00  0.00     0.188 C 
BRANCH  28  29
ATOM     29  O   UNL A   1      43.239  21.926  26.607  1.00  0.00    -0.376 OA
BRANCH  29  30
ATOM     30  C   UNL A   1      43.907  23.101  26.175  1.00  0.00     0.202 C 
BRANCH  30  31
ATOM     31  C   UNL A   1      43.299  23.900  25.006  1.00  0.00     0.261 C 
BRANCH  31  32
ATOM     32  O   UNL A   1      43.261  25.327  25.153  1.00  0.00    -0.460 OA
BRANCH  32  33
ATOM     33  C   UNL A   1      42.167  25.865  25.732  1.00  0.00     0.338 C 
ATOM     34  O   UNL A   1      41.100  25.306  25.928  1.00  0.00    -0.246 OA
BRANCH  33  35
ATOM     35  C   UNL A   1      42.551  27.177  26.294  1.00  0.00     0.060 A 
ATOM     36  C   UNL A   1      43.471  27.214  27.351  1.00  0.00     0.016 A 
ATOM     37  C   UNL A   1      42.023  28.362  25.777  1.00  0.00     0.016 A 
ATOM     38  C   UNL A   1      43.833  28.435  27.922  1.00  0.00     0.010 A 
ATOM     39  C   UNL A   1      42.364  29.582  26.369  1.00  0.00     0.010 A 
ATOM     40  C   UNL A   1      43.240  29.618  27.469  1.00  0.00    -0.014 A 
BRANCH  40  41
ATOM     41  C   UNL A   1      43.349  30.846  28.294  1.00  0.00     0.031 A 
ATOM     42  C   UNL A   1      44.463  31.808  27.982  1.00  0.00     0.074 A 
ATOM     43  C   UNL A   1      42.469  31.122  29.272  1.00  0.00     0.049 A 
ATOM     44  N   UNL A   1      44.809  32.911  28.591  1.00  0.00    -0.248 NA
ATOM     45  C   UNL A   1      45.305  31.464  26.827  1.00  0.00     0.031 C 
ATOM     46  C   UNL A   1      41.321  30.294  29.632  1.00  0.00     0.029 A 
ATOM     47  N   UNL A   1      42.416  32.176  30.149  1.00  0.00    -0.354 N 
ATOM     48  C   UNL A   1      45.912  33.394  27.894  1.00  0.00     0.074 A 
ATOM     49  C   UNL A   1      46.205  32.432  26.853  1.00  0.00     0.031 C 
ATOM     50  C   UNL A   1      40.687  30.863  30.672  1.00  0.00     0.029 A 
ATOM     51  C   UNL A   1      41.408  32.070  31.077  1.00  0.00     0.049 A 
ATOM     52  H   UNL A   1      43.041  32.938  30.117  1.00  0.00     0.167 HD
ATOM     53  C   UNL A   1      46.607  34.542  28.093  1.00  0.00     0.034 A 
ATOM     54  C   UNL A   1      41.125  32.835  32.151  1.00  0.00     0.034 A 
ATOM     55  C   UNL A   1      46.316  35.474  29.155  1.00  0.00     0.049 A 
ATOM     56  C   UNL A   1      41.975  34.053  32.429  1.00  0.00     0.074 A 
ATOM     57  C   UNL A   1      46.952  36.664  29.457  1.00  0.00     0.029 A 
ATOM     58  N   UNL A   1      45.316  35.308  30.107  1.00  0.00    -0.354 N 
ATOM     59  N   UNL A   1      43.014  34.506  31.764  1.00  0.00    -0.248 NA
ATOM     60  C   UNL A   1      41.607  34.866  33.595  1.00  0.00     0.031 C 
ATOM     61  C   UNL A   1      46.396  37.172  30.636  1.00  0.00     0.029 A 
ATOM     62  C   UNL A   1      45.345  36.353  31.018  1.00  0.00     0.049 A 
ATOM     63  H   UNL A   1      44.679  34.558  30.130  1.00  0.00     0.167 HD
ATOM     64  C   UNL A   1      43.406  35.674  32.417  1.00  0.00     0.074 A 
ATOM     65  C   UNL A   1      42.483  35.858  33.519  1.00  0.00     0.031 C 
ATOM     66  C   UNL A   1      44.430  36.519  32.127  1.00  0.00     0.034 A 
BRANCH  53  67
ATOM     67  C   UNL A   1      47.782  34.799  27.178  1.00  0.00     0.023 A 
ATOM     68  C   UNL A   1      49.088  34.407  27.524  1.00  0.00     0.031 A 
ATOM     69  C   UNL A   1      47.609  35.513  25.978  1.00  0.00     0.131 A 
ATOM     70  C   UNL A   1      50.176  34.823  26.741  1.00  0.00     0.055 A 
ATOM     71  C   UNL A   1      48.687  35.835  25.150  1.00  0.00     0.041 A 
ATOM     72  F   UNL A   1      46.393  35.939  25.605  1.00  0.00    -0.206 F 
ATOM     73  C   UNL A   1      49.983  35.510  25.542  1.00  0.00     0.022 A 
BRANCH  70  74
ATOM     74  S   UNL A   1      51.848  34.632  27.419  1.00  0.00     0.124 S 
ATOM     75  O   UNL A   1      52.052  33.190  27.297  1.00  0.00    -0.237 OA
ATOM     76  O   UNL A   1      52.646  35.468  26.531  1.00  0.00    -0.237 OA
ATOM     77  O   UNL A   1      51.720  35.119  28.791  1.00  0.00    -0.744 OA
ENDBRANCH  70  74
ENDBRANCH  53  67
BRANCH  54  78
ATOM     78  C   UNL A   1      40.024  32.440  33.076  1.00  0.00     0.023 A 
ATOM     79  C   UNL A   1      38.747  33.014  32.990  1.00  0.00     0.031 A 
ATOM     80  C   UNL A   1      40.251  31.484  34.086  1.00  0.00     0.131 A 
ATOM     81  C   UNL A   1      37.753  32.649  33.913  1.00  0.00     0.055 A 
ATOM     82  C   UNL A   1      39.245  31.087  34.966  1.00  0.00     0.041 A 
ATOM     83  F   UNL A   1      41.457  30.909  34.216  1.00  0.00    -0.206 F 
ATOM     84  C   UNL A   1      37.989  31.676  34.889  1.00  0.00     0.022 A 
BRANCH  81  85
ATOM     85  S   UNL A   1      36.157  33.511  33.864  1.00  0.00     0.124 S 
ATOM     86  O   UNL A   1      35.748  33.457  35.262  1.00  0.00    -0.237 OA
ATOM     87  O   UNL A   1      36.539  34.825  33.356  1.00  0.00    -0.237 OA
ATOM     88  O   UNL A   1      35.360  32.699  32.948  1.00  0.00    -0.744 OA
ENDBRANCH  81  85
ENDBRANCH  54  78
BRANCH  66  89
ATOM     89  C   UNL A   1      44.578  37.752  32.990  1.00  0.00     0.023 A 
ATOM     90  C   UNL A   1      43.807  38.910  32.776  1.00  0.00     0.031 A 
ATOM     91  C   UNL A   1      45.506  37.767  34.047  1.00  0.00     0.131 A 
ATOM     92  C   UNL A   1      44.020  40.049  33.569  1.00  0.00     0.055 A 
ATOM     93  C   UNL A   1      45.663  38.878  34.877  1.00  0.00     0.041 A 
ATOM     94  F   UNL A   1      46.274  36.695  34.298  1.00  0.00    -0.206 F 
ATOM     95  C   UNL A   1      44.927  40.033  34.631  1.00  0.00     0.022 A 
BRANCH  92  96
ATOM     96  S   UNL A   1      43.171  41.590  33.127  1.00  0.00     0.124 S 
ATOM     97  O   UNL A   1      43.858  42.565  33.968  1.00  0.00    -0.237 OA
ATOM     98  O   UNL A   1      43.429  41.689  31.695  1.00  0.00    -0.237 OA
ATOM     99  O   UNL A   1      41.778  41.331  33.489  1.00  0.00    -0.744 OA
ENDBRANCH  92  96
ENDBRANCH  66  89
ENDBRANCH  40  41
ENDBRANCH  33  35
ENDBRANCH  32  33
ENDBRANCH  31  32
ENDBRANCH  30  31
ENDBRANCH  29  30
ENDBRANCH  28  29
ENDBRANCH   1  28
TORSDOF 27
ENDMDL
MODEL 2
REMARK VINA RESULT:      -8.7      2.102      3.507
REMARK SMILES Nc1cc([N+](=O)[O-])ccc1[C@H]([NH3+])C(=O)OCCOCCOCCOCCOC(=O)c1ccc(-c2c3nc(c(-c4cc(S(=O)(=O)[O-])ccc4F)c4ccc([nH]4)c(-c4cc(S(=O)(=O)[O-])ccc4F)c4nc(c(-c5cc(S(=O)(=O)[O-])ccc5F)c5ccc2[nH]5)C=C4)C=C3)cc1
REMARK SMILES IDX 22 1 21 2 20 3 19 4 18 5 17 6 16 7 15 8 13 9 14 10 11 11
REMARK SMILES IDX 10 12 2 13 3 14 4 15 9 16 8 17 1 18 5 21 6 22 7 23 12 24
REMARK SMILES IDX 23 28 24 29 25 30 26 31 27 32 28 33 29 34 30 35 31 36 92 37
REMARK SMILES IDX 32 38 91 39 33 40 34 41 35 42 85 43 36 44 90 45 84 46 86 47
REMARK SMILES IDX 37 48 89 49 83 50 82 51 38 53 70 54 50 55 69 56 51 57 54 58
REMARK SMILES IDX 68 59 87 60 52 61 53 62 67 64 88 65 55 66 39 67 40 68 48 69
REMARK SMILES IDX 41 70 47 71 49 72 46 73 42 74 43 75 44 76 45 77 71 78 72 79
REMARK SMILES IDX 80 80 73 81 79 82 81 83 78 84 74 85 75 86 76 87 77 88 56 89
REMARK SMILES IDX 57 90 65 91 58 92 64 93 66 94 63 95 59 96 60 97 61 98 62 99
REMARK H PARENT 1 19 1 20 12 25 12 26 12 27 86 52 54 63
REMARK Flexibility Score: inf
ROOT
ATOM      1  C   UNL A   1      41.360  22.628  28.135  1.00  0.00     0.188 C 
ENDROOT
BRANCH   1   2
ATOM      2  O   UNL A   1      40.275  21.863  27.623  1.00  0.00    -0.377 OA
BRANCH   2   3
ATOM      3  C   UNL A   1      39.613  22.414  26.506  1.00  0.00     0.188 C 
BRANCH   3   4
ATOM      4  C   UNL A   1      38.555  21.496  25.875  1.00  0.00     0.188 C 
BRANCH   4   5
ATOM      5  O   UNL A   1      37.197  21.885  25.700  1.00  0.00    -0.376 OA
BRANCH   5   6
ATOM      6  C   UNL A   1      36.211  21.028  25.147  1.00  0.00     0.202 C 
BRANCH   6   7
ATOM      7  C   UNL A   1      34.770  20.971  25.677  1.00  0.00     0.261 C 
BRANCH   7   8
ATOM      8  O   UNL A   1      33.750  21.497  24.829  1.00  0.00    -0.459 OA
BRANCH   8   9
ATOM      9  C   UNL A   1      32.476  21.253  25.234  1.00  0.00     0.369 C 
ATOM     10  O   UNL A   1      31.940  20.148  25.201  1.00  0.00    -0.245 OA
BRANCH   9  11
ATOM     11  C   UNL A   1      31.737  22.539  25.699  1.00  0.00     0.325 C 
BRANCH  11  12
ATOM     12  C   UNL A   1      32.206  23.791  24.960  1.00  0.00     0.044 A 
ATOM     13  C   UNL A   1      31.747  24.170  23.676  1.00  0.00     0.048 A 
ATOM     14  C   UNL A   1      32.283  25.312  23.066  1.00  0.00     0.111 A 
ATOM     15  C   UNL A   1      33.229  26.102  23.725  1.00  0.00     0.271 A 
ATOM     16  C   UNL A   1      33.198  24.592  25.578  1.00  0.00     0.020 A 
ATOM     17  C   UNL A   1      33.696  25.744  24.982  1.00  0.00     0.086 A 
BRANCH  13  18
ATOM     18  N   UNL A   1      30.897  23.384  22.903  1.00  0.00    -0.398 N 
ATOM     19  H   UNL A   1      30.852  23.518  21.928  1.00  0.00     0.156 HD
ATOM     20  H   UNL A   1      30.339  22.694  23.330  1.00  0.00     0.156 HD
ENDBRANCH  13  18
BRANCH  15  21
ATOM     21  N   UNL A   1      33.754  27.301  23.074  1.00  0.00     0.062 N 
ATOM     22  O   UNL A   1      33.703  27.356  21.837  1.00  0.00    -0.258 OA
ATOM     23  O   UNL A   1      34.231  28.188  23.798  1.00  0.00    -0.258 OA
ENDBRANCH  15  21
ENDBRANCH  11  12
BRANCH  11  24
ATOM     24  N   UNL A   1      31.802  22.654  27.161  1.00  0.00    -0.342 N 
ATOM     25  H   UNL A   1      31.005  22.171  27.576  1.00  0.00     0.345 HD
ATOM     26  H   UNL A   1      31.778  23.639  27.426  1.00  0.00     0.345 HD
ATOM     27  H   UNL A   1      32.668  22.233  27.497  1.00  0.00     0.345 HD
ENDBRANCH  11  24
ENDBRANCH   9  11
ENDBRANCH   8   9
ENDBRANCH   7   8
ENDBRANCH   6   7
ENDBRANCH   5   6
ENDBRANCH   4   5
ENDBRANCH   3   4
ENDBRANCH   2   3
ENDBRANCH   1   2
BRANCH   1  28
ATOM     28  C   UNL A   1      42.782  22.037  27.991  1.00  0.00     0.188 C 
BRANCH  28  29
ATOM     29  O   UNL A   1      43.253  21.942  26.651  1.00  0.00    -0.376 OA
BRANCH  29  30
ATOM     30  C   UNL A   1      44.015  23.010  26.111  1.00  0.00     0.202 C 
BRANCH  30  31
ATOM     31  C   UNL A   1      43.435  23.795  24.919  1.00  0.00     0.261 C 
BRANCH  31  32
ATOM     32  O   UNL A   1      43.363  25.220  25.059  1.00  0.00    -0.460 OA
BRANCH  32  33
ATOM     33  C   UNL A   1      42.247  25.737  25.616  1.00  0.00     0.338 C 
ATOM     34  O   UNL A   1      41.158  25.192  25.698  1.00  0.00    -0.246 OA
BRANCH  33  35
ATOM     35  C   UNL A   1      42.624  26.986  26.311  1.00  0.00     0.060 A 
ATOM     36  C   UNL A   1      43.255  26.898  27.559  1.00  0.00     0.016 A 
ATOM     37  C   UNL A   1      42.371  28.233  25.735  1.00  0.00     0.016 A 
ATOM     38  C   UNL A   1      43.598  28.058  28.254  1.00  0.00     0.010 A 
ATOM     39  C   UNL A   1      42.688  29.394  26.445  1.00  0.00     0.010 A 
ATOM     40  C   UNL A   1      43.267  29.310  27.724  1.00  0.00    -0.014 A 
BRANCH  40  41
ATOM     41  C   UNL A   1      43.305  30.503  28.605  1.00  0.00     0.031 A 
ATOM     42  C   UNL A   1      44.572  31.314  28.639  1.00  0.00     0.074 A 
ATOM     43  C   UNL A   1      42.239  30.880  29.332  1.00  0.00     0.049 A 
ATOM     44  N   UNL A   1      44.878  32.355  29.367  1.00  0.00    -0.248 NA
ATOM     45  C   UNL A   1      45.640  30.876  27.727  1.00  0.00     0.031 C 
ATOM     46  C   UNL A   1      40.944  30.206  29.342  1.00  0.00     0.029 A 
ATOM     47  N   UNL A   1      42.087  31.922  30.213  1.00  0.00    -0.354 N 
ATOM     48  C   UNL A   1      46.177  32.698  29.004  1.00  0.00     0.074 A 
ATOM     49  C   UNL A   1      46.613  31.717  28.032  1.00  0.00     0.031 C 
ATOM     50  C   UNL A   1      40.133  30.840  30.206  1.00  0.00     0.029 A 
ATOM     51  C   UNL A   1      40.864  31.937  30.840  1.00  0.00     0.049 A 
ATOM     52  H   UNL A   1      42.787  32.595  30.379  1.00  0.00     0.167 HD
ATOM     53  C   UNL A   1      46.930  33.742  29.429  1.00  0.00     0.034 A 
ATOM     54  C   UNL A   1      40.404  32.720  31.837  1.00  0.00     0.034 A 
ATOM     55  C   UNL A   1      46.486  34.691  30.421  1.00  0.00     0.049 A 
ATOM     56  C   UNL A   1      41.294  33.813  32.382  1.00  0.00     0.074 A 
ATOM     57  C   UNL A   1      47.162  35.784  30.932  1.00  0.00     0.029 A 
ATOM     58  N   UNL A   1      45.258  34.647  31.070  1.00  0.00    -0.354 N 
ATOM     59  N   UNL A   1      42.520  34.133  32.032  1.00  0.00    -0.248 NA
ATOM     60  C   UNL A   1      40.734  34.653  33.449  1.00  0.00     0.031 C 
ATOM     61  C   UNL A   1      46.381  36.347  31.948  1.00  0.00     0.029 A 
ATOM     62  C   UNL A   1      45.173  35.668  32.005  1.00  0.00     0.049 A 
ATOM     63  H   UNL A   1      44.550  33.986  30.893  1.00  0.00     0.167 HD
ATOM     64  C   UNL A   1      42.866  35.232  32.819  1.00  0.00     0.074 A 
ATOM     65  C   UNL A   1      41.715  35.522  33.649  1.00  0.00     0.031 C 
ATOM     66  C   UNL A   1      44.026  35.939  32.844  1.00  0.00     0.034 A 
BRANCH  53  67
ATOM     67  C   UNL A   1      48.328  33.854  28.864  1.00  0.00     0.023 A 
ATOM     68  C   UNL A   1      48.577  34.474  27.626  1.00  0.00     0.031 A 
ATOM     69  C   UNL A   1      49.417  33.265  29.532  1.00  0.00     0.131 A 
ATOM     70  C   UNL A   1      49.853  34.397  27.048  1.00  0.00     0.055 A 
ATOM     71  C   UNL A   1      50.707  33.283  28.998  1.00  0.00     0.041 A 
ATOM     72  F   UNL A   1      49.241  32.634  30.703  1.00  0.00    -0.206 F 
ATOM     73  C   UNL A   1      50.926  33.831  27.737  1.00  0.00     0.022 A 
BRANCH  70  74
ATOM     74  S   UNL A   1      50.038  34.863  25.304  1.00  0.00     0.124 S 
ATOM     75  O   UNL A   1      50.768  36.125  25.412  1.00  0.00    -0.237 OA
ATOM     76  O   UNL A   1      50.785  33.738  24.754  1.00  0.00    -0.237 OA
ATOM     77  O   UNL A   1      48.660  34.990  24.835  1.00  0.00    -0.744 OA
ENDBRANCH  70  74
ENDBRANCH  53  67
BRANCH  54  78
ATOM     78  C   UNL A   1      39.058  32.461  32.425  1.00  0.00     0.023 A 
ATOM     79  C   UNL A   1      37.892  32.999  31.861  1.00  0.00     0.031 A 
ATOM     80  C   UNL A   1      38.927  31.678  33.588  1.00  0.00     0.131 A 
ATOM     81  C   UNL A   1      36.649  32.771  32.475  1.00  0.00     0.055 A 
ATOM     82  C   UNL A   1      37.686  31.411  34.164  1.00  0.00     0.041 A 
ATOM     83  F   UNL A   1      40.013  31.145  34.172  1.00  0.00    -0.206 F 
ATOM     84  C   UNL A   1      36.537  31.966  33.612  1.00  0.00     0.022 A 
BRANCH  81  85
ATOM     85  S   UNL A   1      35.179  33.595  31.803  1.00  0.00     0.124 S 
ATOM     86  O   UNL A   1      35.683  34.114  30.537  1.00  0.00    -0.237 OA
ATOM     87  O   UNL A   1      34.228  32.492  31.712  1.00  0.00    -0.237 OA
ATOM     88  O   UNL A   1      34.864  34.604  32.811  1.00  0.00    -0.744 OA
ENDBRANCH  81  85
ENDBRANCH  54  78
BRANCH  66  89
ATOM     89  C   UNL A   1      44.092  37.132  33.771  1.00  0.00     0.023 A 
ATOM     90  C   UNL A   1      43.655  38.409  33.376  1.00  0.00     0.031 A 
ATOM     91  C   UNL A   1      44.599  36.985  35.075  1.00  0.00     0.131 A 
ATOM     92  C   UNL A   1      43.787  39.497  34.254  1.00  0.00     0.055 A 
ATOM     93  C   UNL A   1      44.661  38.056  35.969  1.00  0.00     0.041 A 
ATOM     94  F   UNL A   1      45.035  35.792  35.509  1.00  0.00    -0.206 F 
ATOM     95  C   UNL A   1      44.267  39.325  35.555  1.00  0.00     0.022 A 
BRANCH  92  96
ATOM     96  S   UNL A   1      43.423  41.165  33.639  1.00  0.00     0.124 S 
ATOM     97  O   UNL A   1      41.970  41.224  33.768  1.00  0.00    -0.237 OA
ATOM     98  O   UNL A   1      44.179  42.008  34.558  1.00  0.00    -0.237 OA
ATOM     99  O   UNL A   1      43.924  41.141  32.266  1.00  0.00    -0.744 OA
ENDBRANCH  92  96
ENDBRANCH  66  89
ENDBRANCH  40  41
ENDBRANCH  33  35
ENDBRANCH  32  33
ENDBRANCH  31  32
ENDBRANCH  30  31
ENDBRANCH  29  30
ENDBRANCH  28  29
ENDBRANCH   1  28
TORSDOF 27
ENDMDL
MODEL 3
REMARK VINA RESULT:      -8.6      1.714      3.048
REMARK SMILES Nc1cc([N+](=O)[O-])ccc1[C@H]([NH3+])C(=O)OCCOCCOCCOCCOC(=O)c1ccc(-c2c3nc(c(-c4cc(S(=O)(=O)[O-])ccc4F)c4ccc([nH]4)c(-c4cc(S(=O)(=O)[O-])ccc4F)c4nc(c(-c5cc(S(=O)(=O)[O-])ccc5F)c5ccc2[nH]5)C=C4)C=C3)cc1
REMARK SMILES IDX 22 1 21 2 20 3 19 4 18 5 17 6 16 7 15 8 13 9 14 10 11 11
REMARK SMILES IDX 10 12 2 13 3 14 4 15 9 16 8 17 1 18 5 21 6 22 7 23 12 24
REMARK SMILES IDX 23 28 24 29 25 30 26 31 27 32 28 33 29 34 30 35 31 36 92 37
REMARK SMILES IDX 32 38 91 39 33 40 34 41 35 42 85 43 36 44 90 45 84 46 86 47
REMARK SMILES IDX 37 48 89 49 83 50 82 51 38 53 70 54 50 55 69 56 51 57 54 58
REMARK SMILES IDX 68 59 87 60 52 61 53 62 67 64 88 65 55 66 39 67 40 68 48 69
REMARK SMILES IDX 41 70 47 71 49 72 46 73 42 74 43 75 44 76 45 77 71 78 72 79
REMARK SMILES IDX 80 80 73 81 79 82 81 83 78 84 74 85 75 86 76 87 77 88 56 89
REMARK SMILES IDX 57 90 65 91 58 92 64 93 66 94 63 95 59 96 60 97 61 98 62 99
REMARK H PARENT 1 19 1 20 12 25 12 26 12 27 86 52 54 63
REMARK Flexibility Score: inf
ROOT
ATOM      1  C   UNL A   1      41.469  22.789  28.324  1.00  0.00     0.188 C 
ENDROOT
BRANCH   1   2
ATOM      2  O   UNL A   1      40.445  21.917  27.861  1.00  0.00    -0.377 OA
BRANCH   2   3
ATOM      3  C   UNL A   1      39.960  22.180  26.564  1.00  0.00     0.188 C 
BRANCH   3   4
ATOM      4  C   UNL A   1      39.378  20.955  25.840  1.00  0.00     0.188 C 
BRANCH   4   5
ATOM      5  O   UNL A   1      38.063  20.928  25.297  1.00  0.00    -0.376 OA
BRANCH   5   6
ATOM      6  C   UNL A   1      37.292  22.098  25.077  1.00  0.00     0.202 C 
BRANCH   6   7
ATOM      7  C   UNL A   1      36.226  22.195  23.975  1.00  0.00     0.261 C 
BRANCH   7   8
ATOM      8  O   UNL A   1      34.866  22.269  24.399  1.00  0.00    -0.459 OA
BRANCH   8   9
ATOM      9  C   UNL A   1      34.403  21.175  25.058  1.00  0.00     0.369 C 
ATOM     10  O   UNL A   1      34.470  20.026  24.624  1.00  0.00    -0.245 OA
BRANCH   9  11
ATOM     11  C   UNL A   1      33.723  21.530  26.410  1.00  0.00     0.325 C 
BRANCH  11  12
ATOM     12  C   UNL A   1      32.948  22.846  26.353  1.00  0.00     0.044 A 
ATOM     13  C   UNL A   1      31.539  22.930  26.264  1.00  0.00     0.048 A 
ATOM     14  C   UNL A   1      30.933  24.190  26.166  1.00  0.00     0.111 A 
ATOM     15  C   UNL A   1      31.696  25.360  26.200  1.00  0.00     0.271 A 
ATOM     16  C   UNL A   1      33.692  24.052  26.340  1.00  0.00     0.020 A 
ATOM     17  C   UNL A   1      33.081  25.298  26.282  1.00  0.00     0.086 A 
BRANCH  13  18
ATOM     18  N   UNL A   1      30.712  21.821  26.109  1.00  0.00    -0.398 N 
ATOM     19  H   UNL A   1      30.623  21.167  26.841  1.00  0.00     0.156 HD
ATOM     20  H   UNL A   1      30.216  21.688  25.269  1.00  0.00     0.156 HD
ENDBRANCH  13  18
BRANCH  15  21
ATOM     21  N   UNL A   1      31.036  26.662  26.120  1.00  0.00     0.062 N 
ATOM     22  O   UNL A   1      30.396  26.922  25.091  1.00  0.00    -0.258 OA
ATOM     23  O   UNL A   1      31.166  27.434  27.081  1.00  0.00    -0.258 OA
ENDBRANCH  15  21
ENDBRANCH  11  12
BRANCH  11  24
ATOM     24  N   UNL A   1      34.706  21.466  27.497  1.00  0.00    -0.342 N 
ATOM     25  H   UNL A   1      35.493  20.884  27.210  1.00  0.00     0.345 HD
ATOM     26  H   UNL A   1      34.270  21.062  28.326  1.00  0.00     0.345 HD
ATOM     27  H   UNL A   1      35.038  22.406  27.712  1.00  0.00     0.345 HD
ENDBRANCH  11  24
ENDBRANCH   9  11
ENDBRANCH   8   9
ENDBRANCH   7   8
ENDBRANCH   6   7
ENDBRANCH   5   6
ENDBRANCH   4   5
ENDBRANCH   3   4
ENDBRANCH   2   3
ENDBRANCH   1   2
BRANCH   1  28
ATOM     28  C   UNL A   1      42.928  22.280  28.255  1.00  0.00     0.188 C 
BRANCH  28  29
ATOM     29  O   UNL A   1      43.443  22.130  26.936  1.00  0.00    -0.376 OA
BRANCH  29  30
ATOM     30  C   UNL A   1      44.084  23.235  26.317  1.00  0.00     0.202 C 
BRANCH  30  31
ATOM     31  C   UNL A   1      43.430  23.856  25.068  1.00  0.00     0.261 C 
BRANCH  31  32
ATOM     32  O   UNL A   1      43.269  25.281  25.066  1.00  0.00    -0.460 OA
BRANCH  32  33
ATOM     33  C   UNL A   1      42.192  25.788  25.702  1.00  0.00     0.338 C 
ATOM     34  O   UNL A   1      41.152  25.200  25.951  1.00  0.00    -0.246 OA
BRANCH  33  35
ATOM     35  C   UNL A   1      42.567  27.110  26.246  1.00  0.00     0.060 A 
ATOM     36  C   UNL A   1      43.508  27.170  27.283  1.00  0.00     0.016 A 
ATOM     37  C   UNL A   1      42.010  28.283  25.731  1.00  0.00     0.016 A 
ATOM     38  C   UNL A   1      43.863  28.400  27.838  1.00  0.00     0.010 A 
ATOM     39  C   UNL A   1      42.344  29.512  26.307  1.00  0.00     0.010 A 
ATOM     40  C   UNL A   1      43.242  29.570  27.388  1.00  0.00    -0.014 A 
BRANCH  40  41
ATOM     41  C   UNL A   1      43.349  30.806  28.202  1.00  0.00     0.031 A 
ATOM     42  C   UNL A   1      44.485  31.748  27.906  1.00  0.00     0.074 A 
ATOM     43  C   UNL A   1      42.451  31.106  29.156  1.00  0.00     0.049 A 
ATOM     44  N   UNL A   1      44.832  32.853  28.511  1.00  0.00    -0.248 NA
ATOM     45  C   UNL A   1      45.349  31.379  26.776  1.00  0.00     0.031 C 
ATOM     46  C   UNL A   1      41.282  30.299  29.496  1.00  0.00     0.029 A 
ATOM     47  N   UNL A   1      42.392  32.171  30.019  1.00  0.00    -0.354 N 
ATOM     48  C   UNL A   1      45.959  33.312  27.836  1.00  0.00     0.074 A 
ATOM     49  C   UNL A   1      46.263  32.333  26.813  1.00  0.00     0.031 C 
ATOM     50  C   UNL A   1      40.631  30.889  30.514  1.00  0.00     0.029 A 
ATOM     51  C   UNL A   1      41.360  32.090  30.923  1.00  0.00     0.049 A 
ATOM     52  H   UNL A   1      43.028  32.923  29.993  1.00  0.00     0.167 HD
ATOM     53  C   UNL A   1      46.665  34.452  28.039  1.00  0.00     0.034 A 
ATOM     54  C   UNL A   1      41.062  32.872  31.981  1.00  0.00     0.034 A 
ATOM     55  C   UNL A   1      46.362  35.400  29.083  1.00  0.00     0.049 A 
ATOM     56  C   UNL A   1      41.923  34.080  32.266  1.00  0.00     0.074 A 
ATOM     57  C   UNL A   1      47.008  36.585  29.387  1.00  0.00     0.029 A 
ATOM     58  N   UNL A   1      45.337  35.260  30.012  1.00  0.00    -0.354 N 
ATOM     59  N   UNL A   1      42.985  34.510  31.621  1.00  0.00    -0.248 NA
ATOM     60  C   UNL A   1      41.539  34.912  33.413  1.00  0.00     0.031 C 
ATOM     61  C   UNL A   1      46.432  37.115  30.546  1.00  0.00     0.029 A 
ATOM     62  C   UNL A   1      45.359  36.315  30.912  1.00  0.00     0.049 A 
ATOM     63  H   UNL A   1      44.689  34.519  30.028  1.00  0.00     0.167 HD
ATOM     64  C   UNL A   1      43.378  35.680  32.271  1.00  0.00     0.074 A 
ATOM     65  C   UNL A   1      42.432  35.890  33.347  1.00  0.00     0.031 C 
ATOM     66  C   UNL A   1      44.421  36.507  31.996  1.00  0.00     0.034 A 
BRANCH  53  67
ATOM     67  C   UNL A   1      47.866  34.681  27.149  1.00  0.00     0.023 A 
ATOM     68  C   UNL A   1      49.161  34.298  27.543  1.00  0.00     0.031 A 
ATOM     69  C   UNL A   1      47.728  35.361  25.926  1.00  0.00     0.131 A 
ATOM     70  C   UNL A   1      50.271  34.691  26.779  1.00  0.00     0.055 A 
ATOM     71  C   UNL A   1      48.828  35.658  25.119  1.00  0.00     0.041 A 
ATOM     72  F   UNL A   1      46.523  35.777  25.506  1.00  0.00    -0.206 F 
ATOM     73  C   UNL A   1      50.112  35.343  25.555  1.00  0.00     0.022 A 
BRANCH  70  74
ATOM     74  S   UNL A   1      51.923  34.517  27.508  1.00  0.00     0.124 S 
ATOM     75  O   UNL A   1      52.401  35.898  27.487  1.00  0.00    -0.237 OA
ATOM     76  O   UNL A   1      51.631  33.962  28.824  1.00  0.00    -0.237 OA
ATOM     77  O   UNL A   1      52.612  33.616  26.586  1.00  0.00    -0.744 OA
ENDBRANCH  70  74
ENDBRANCH  53  67
BRANCH  54  78
ATOM     78  C   UNL A   1      39.934  32.503  32.884  1.00  0.00     0.023 A 
ATOM     79  C   UNL A   1      38.658  33.067  32.737  1.00  0.00     0.031 A 
ATOM     80  C   UNL A   1      40.132  31.584  33.933  1.00  0.00     0.131 A 
ATOM     81  C   UNL A   1      37.636  32.729  33.640  1.00  0.00     0.055 A 
ATOM     82  C   UNL A   1      39.100  31.212  34.794  1.00  0.00     0.041 A 
ATOM     83  F   UNL A   1      41.335  31.020  34.122  1.00  0.00    -0.206 F 
ATOM     84  C   UNL A   1      37.844  31.792  34.655  1.00  0.00     0.022 A 
BRANCH  81  85
ATOM     85  S   UNL A   1      36.039  33.580  33.509  1.00  0.00     0.124 S 
ATOM     86  O   UNL A   1      35.408  33.223  34.774  1.00  0.00    -0.237 OA
ATOM     87  O   UNL A   1      36.450  34.974  33.366  1.00  0.00    -0.237 OA
ATOM     88  O   UNL A   1      35.434  32.987  32.319  1.00  0.00    -0.744 OA
ENDBRANCH  81  85
ENDBRANCH  54  78
BRANCH  66  89
ATOM     89  C   UNL A   1      44.566  37.748  32.848  1.00  0.00     0.023 A 
ATOM     90  C   UNL A   1      43.768  38.889  32.647  1.00  0.00     0.031 A 
ATOM     91  C   UNL A   1      45.520  37.787  33.882  1.00  0.00     0.131 A 
ATOM     92  C   UNL A   1      43.978  40.036  33.429  1.00  0.00     0.055 A 
ATOM     93  C   UNL A   1      45.675  38.906  34.702  1.00  0.00     0.041 A 
ATOM     94  F   UNL A   1      46.314  36.731  34.119  1.00  0.00    -0.206 F 
ATOM     95  C   UNL A   1      44.911  40.045  34.468  1.00  0.00     0.022 A 
BRANCH  92  96
ATOM     96  S   UNL A   1      43.088  41.559  33.000  1.00  0.00     0.124 S 
ATOM     97  O   UNL A   1      42.420  41.882  34.256  1.00  0.00    -0.237 OA
ATOM     98  O   UNL A   1      44.172  42.452  32.606  1.00  0.00    -0.237 OA
ATOM     99  O   UNL A   1      42.202  41.144  31.914  1.00  0.00    -0.744 OA
ENDBRANCH  92  96
ENDBRANCH  66  89
ENDBRANCH  40  41
ENDBRANCH  33  35
ENDBRANCH  32  33
ENDBRANCH  31  32
ENDBRANCH  30  31
ENDBRANCH  29  30
ENDBRANCH  28  29
ENDBRANCH   1  28
TORSDOF 27
ENDMDL
