MODEL 1
REMARK VINA RESULT:      -8.6      0.000      0.000
REMARK SMILES COc1cc2c(cc1OC)[C@H](C(=O)OCCOCCOCCOCCOC(=O)c1ccc(-c3c4nc(c(-c5cc(S(=O)(=O)[O-])ccc5F)c5ccc([nH]5)c(-c5cc(S(=O)(=O)[O-])ccc5F)c5nc(c(-c6cc(S(=O)(=O)[O-])ccc6F)c6ccc3[nH]6)C=C5)C=C4)cc1)[C@H](c1cccc(Cl)c1)N(C)C2=O
REMARK SMILES IDX 21 1 20 2 19 3 18 4 17 5 16 6 15 7 14 8 12 9 13 10 11 11
REMARK SMILES IDX 3 12 4 13 8 14 5 15 7 16 6 17 102 18 100 19 103 20 92 21
REMARK SMILES IDX 101 22 2 23 1 24 9 25 10 26 93 27 94 28 99 29 95 30 97 31
REMARK SMILES IDX 96 32 98 33 22 34 23 35 24 36 25 37 26 38 27 39 28 40 29 41
REMARK SMILES IDX 30 42 91 43 31 44 90 45 32 46 33 47 34 48 84 49 35 50 89 51
REMARK SMILES IDX 83 52 85 53 36 54 88 55 82 56 81 57 37 59 69 60 49 61 68 62
REMARK SMILES IDX 50 63 53 64 67 65 86 66 51 67 52 68 66 70 87 71 54 72 38 73
REMARK SMILES IDX 39 74 47 75 40 76 46 77 48 78 45 79 41 80 42 81 43 82 44 83
REMARK SMILES IDX 70 84 71 85 79 86 72 87 78 88 80 89 77 90 73 91 74 92 75 93
REMARK SMILES IDX 76 94 55 95 56 96 64 97 57 98 63 99 65 100 62 101 58 102
REMARK SMILES IDX 59 103 60 104 61 105
REMARK H PARENT 85 58 53 69
REMARK Flexibility Score: inf
ROOT
ATOM      1  C   UNL A   1      34.741  32.936  30.739  1.00  0.00     0.188 C 
ENDROOT
BRANCH   1   2
ATOM      2  O   UNL A   1      35.076  33.319  29.417  1.00  0.00    -0.377 OA
BRANCH   2   3
ATOM      3  C   UNL A   1      34.324  32.721  28.391  1.00  0.00     0.188 C 
BRANCH   3   4
ATOM      4  C   UNL A   1      34.958  31.459  27.787  1.00  0.00     0.188 C 
BRANCH   4   5
ATOM      5  O   UNL A   1      34.237  30.547  26.963  1.00  0.00    -0.376 OA
BRANCH   5   6
ATOM      6  C   UNL A   1      33.911  29.232  27.390  1.00  0.00     0.202 C 
BRANCH   6   7
ATOM      7  C   UNL A   1      34.264  28.061  26.463  1.00  0.00     0.261 C 
BRANCH   7   8
ATOM      8  O   UNL A   1      33.355  27.886  25.364  1.00  0.00    -0.463 OA
BRANCH   8   9
ATOM      9  C   UNL A   1      33.872  27.820  24.122  1.00  0.00     0.316 C 
ATOM     10  O   UNL A   1      34.567  28.710  23.632  1.00  0.00    -0.251 OA
BRANCH   9  11
ATOM     11  C   UNL A   1      33.634  26.513  23.383  1.00  0.00     0.157 C 
ATOM     12  C   UNL A   1      33.221  22.485  25.054  1.00  0.00     0.161 A 
ATOM     13  C   UNL A   1      33.144  22.737  23.685  1.00  0.00     0.064 A 
ATOM     14  C   UNL A   1      33.403  23.564  25.929  1.00  0.00     0.161 A 
ATOM     15  C   UNL A   1      33.244  24.052  23.197  1.00  0.00     0.048 A 
ATOM     16  C   UNL A   1      33.507  24.875  25.428  1.00  0.00     0.056 A 
ATOM     17  C   UNL A   1      33.457  25.148  24.058  1.00  0.00    -0.015 A 
ATOM     18  C   UNL A   1      33.036  24.284  21.738  1.00  0.00     0.254 C 
ATOM     19  N   UNL A   1      32.682  25.578  21.346  1.00  0.00    -0.333 N 
ATOM     20  O   UNL A   1      33.162  23.351  20.951  1.00  0.00    -0.269 OA
ATOM     21  C   UNL A   1      32.526  26.683  22.322  1.00  0.00     0.134 C 
ATOM     22  C   UNL A   1      32.448  25.839  19.940  1.00  0.00     0.147 C 
BRANCH  12  23
ATOM     23  O   UNL A   1      32.985  21.241  25.573  1.00  0.00    -0.493 OA
ATOM     24  C   UNL A   1      32.316  20.320  24.720  1.00  0.00     0.278 C 
ENDBRANCH  12  23
BRANCH  14  25
ATOM     25  O   UNL A   1      33.482  23.515  27.295  1.00  0.00    -0.493 OA
ATOM     26  C   UNL A   1      34.289  22.491  27.855  1.00  0.00     0.278 C 
ENDBRANCH  14  25
BRANCH  21  27
ATOM     27  C   UNL A   1      31.163  26.785  23.009  1.00  0.00    -0.023 A 
ATOM     28  C   UNL A   1      30.600  25.621  23.571  1.00  0.00     0.006 A 
ATOM     29  C   UNL A   1      30.358  27.927  22.916  1.00  0.00     0.026 A 
ATOM     30  C   UNL A   1      29.237  25.540  23.846  1.00  0.00     0.002 A 
ATOM     31  C   UNL A   1      29.000  27.853  23.227  1.00  0.00     0.041 A 
ATOM     32  C   UNL A   1      28.430  26.654  23.649  1.00  0.00     0.020 A 
ATOM     33  Cl  UNL A   1      28.012  29.246  23.032  1.00  0.00    -0.084 Cl
ENDBRANCH  21  27
ENDBRANCH   9  11
ENDBRANCH   8   9
ENDBRANCH   7   8
ENDBRANCH   6   7
ENDBRANCH   5   6
ENDBRANCH   4   5
ENDBRANCH   3   4
ENDBRANCH   2   3
ENDBRANCH   1   2
BRANCH   1  34
ATOM     34  C   UNL A   1      34.029  34.015  31.572  1.00  0.00     0.188 C 
BRANCH  34  35
ATOM     35  O   UNL A   1      34.686  34.314  32.801  1.00  0.00    -0.376 OA
BRANCH  35  36
ATOM     36  C   UNL A   1      35.930  35.004  32.756  1.00  0.00     0.202 C 
BRANCH  36  37
ATOM     37  C   UNL A   1      37.109  34.467  33.593  1.00  0.00     0.261 C 
BRANCH  37  38
ATOM     38  O   UNL A   1      38.424  34.510  33.012  1.00  0.00    -0.460 OA
BRANCH  38  39
ATOM     39  C   UNL A   1      38.778  33.560  32.119  1.00  0.00     0.338 C 
ATOM     40  O   UNL A   1      38.091  32.627  31.740  1.00  0.00    -0.246 OA
BRANCH  39  41
ATOM     41  C   UNL A   1      40.077  33.957  31.529  1.00  0.00     0.060 A 
ATOM     42  C   UNL A   1      40.165  34.214  30.154  1.00  0.00     0.016 A 
ATOM     43  C   UNL A   1      41.209  34.082  32.336  1.00  0.00     0.016 A 
ATOM     44  C   UNL A   1      41.386  34.584  29.577  1.00  0.00     0.010 A 
ATOM     45  C   UNL A   1      42.434  34.426  31.752  1.00  0.00     0.010 A 
ATOM     46  C   UNL A   1      42.540  34.660  30.364  1.00  0.00    -0.014 A 
BRANCH  46  47
ATOM     47  C   UNL A   1      43.888  34.768  29.733  1.00  0.00     0.031 A 
ATOM     48  C   UNL A   1      44.441  36.154  29.518  1.00  0.00     0.074 A 
ATOM     49  C   UNL A   1      44.617  33.696  29.361  1.00  0.00     0.049 A 
ATOM     50  N   UNL A   1      45.527  36.536  28.898  1.00  0.00    -0.248 NA
ATOM     51  C   UNL A   1      43.645  37.261  30.076  1.00  0.00     0.031 C 
ATOM     52  C   UNL A   1      44.247  32.296  29.567  1.00  0.00     0.029 A 
ATOM     53  N   UNL A   1      45.827  33.622  28.709  1.00  0.00    -0.354 N 
ATOM     54  C   UNL A   1      45.539  37.925  28.985  1.00  0.00     0.074 A 
ATOM     55  C   UNL A   1      44.320  38.317  29.656  1.00  0.00     0.031 C 
ATOM     56  C   UNL A   1      45.190  31.505  29.021  1.00  0.00     0.029 A 
ATOM     57  C   UNL A   1      46.228  32.335  28.415  1.00  0.00     0.049 A 
ATOM     58  H   UNL A   1      46.360  34.415  28.474  1.00  0.00     0.167 HD
ATOM     59  C   UNL A   1      46.492  38.795  28.573  1.00  0.00     0.034 A 
ATOM     60  C   UNL A   1      47.298  31.882  27.726  1.00  0.00     0.034 A 
ATOM     61  C   UNL A   1      47.706  38.401  27.908  1.00  0.00     0.049 A 
ATOM     62  C   UNL A   1      48.294  32.881  27.173  1.00  0.00     0.074 A 
ATOM     63  C   UNL A   1      48.738  39.204  27.453  1.00  0.00     0.029 A 
ATOM     64  N   UNL A   1      48.053  37.093  27.597  1.00  0.00    -0.354 N 
ATOM     65  N   UNL A   1      48.296  34.190  27.273  1.00  0.00    -0.248 NA
ATOM     66  C   UNL A   1      49.440  32.336  26.429  1.00  0.00     0.031 C 
ATOM     67  C   UNL A   1      49.669  38.391  26.800  1.00  0.00     0.029 A 
ATOM     68  C   UNL A   1      49.266  37.071  26.928  1.00  0.00     0.049 A 
ATOM     69  H   UNL A   1      47.516  36.298  27.819  1.00  0.00     0.167 HD
ATOM     70  C   UNL A   1      49.468  34.617  26.648  1.00  0.00     0.074 A 
ATOM     71  C   UNL A   1      50.150  33.428  26.187  1.00  0.00     0.031 C 
ATOM     72  C   UNL A   1      49.944  35.878  26.479  1.00  0.00     0.034 A 
BRANCH  59  73
ATOM     73  C   UNL A   1      46.229  40.263  28.804  1.00  0.00     0.023 A 
ATOM     74  C   UNL A   1      45.793  41.104  27.766  1.00  0.00     0.031 A 
ATOM     75  C   UNL A   1      46.458  40.838  30.066  1.00  0.00     0.131 A 
ATOM     76  C   UNL A   1      45.679  42.484  27.984  1.00  0.00     0.055 A 
ATOM     77  C   UNL A   1      46.253  42.199  30.300  1.00  0.00     0.041 A 
ATOM     78  F   UNL A   1      46.902  40.090  31.087  1.00  0.00    -0.206 F 
ATOM     79  C   UNL A   1      45.877  43.034  29.252  1.00  0.00     0.022 A 
BRANCH  76  80
ATOM     80  S   UNL A   1      45.426  43.567  26.552  1.00  0.00     0.124 S 
ATOM     81  O   UNL A   1      46.610  43.272  25.748  1.00  0.00    -0.237 OA
ATOM     82  O   UNL A   1      44.156  43.092  26.016  1.00  0.00    -0.237 OA
ATOM     83  O   UNL A   1      45.397  44.906  27.135  1.00  0.00    -0.744 OA
ENDBRANCH  76  80
ENDBRANCH  59  73
BRANCH  60  84
ATOM     84  C   UNL A   1      47.502  30.420  27.483  1.00  0.00     0.023 A 
ATOM     85  C   UNL A   1      46.847  29.761  26.428  1.00  0.00     0.031 A 
ATOM     86  C   UNL A   1      48.268  29.637  28.365  1.00  0.00     0.131 A 
ATOM     87  C   UNL A   1      46.911  28.362  26.323  1.00  0.00     0.055 A 
ATOM     88  C   UNL A   1      48.383  28.253  28.217  1.00  0.00     0.041 A 
ATOM     89  F   UNL A   1      48.909  30.208  29.397  1.00  0.00    -0.206 F 
ATOM     90  C   UNL A   1      47.686  27.604  27.203  1.00  0.00     0.022 A 
BRANCH  87  91
ATOM     91  S   UNL A   1      45.859  27.532  25.098  1.00  0.00     0.124 S 
ATOM     92  O   UNL A   1      46.578  27.805  23.859  1.00  0.00    -0.237 OA
ATOM     93  O   UNL A   1      45.884  26.149  25.564  1.00  0.00    -0.237 OA
ATOM     94  O   UNL A   1      44.573  28.212  25.236  1.00  0.00    -0.744 OA
ENDBRANCH  87  91
ENDBRANCH  60  84
BRANCH  72  95
ATOM     95  C   UNL A   1      51.297  36.034  25.824  1.00  0.00     0.023 A 
ATOM     96  C   UNL A   1      52.496  35.848  26.532  1.00  0.00     0.031 A 
ATOM     97  C   UNL A   1      51.382  36.368  24.459  1.00  0.00     0.131 A 
ATOM     98  C   UNL A   1      53.727  36.051  25.888  1.00  0.00     0.055 A 
ATOM     99  C   UNL A   1      52.608  36.499  23.807  1.00  0.00     0.041 A 
ATOM    100  F   UNL A   1      50.270  36.562  23.731  1.00  0.00    -0.206 F 
ATOM    101  C   UNL A   1      53.791  36.354  24.526  1.00  0.00     0.022 A 
BRANCH  98 102
ATOM    102  S   UNL A   1      55.246  36.008  26.879  1.00  0.00     0.124 S 
ATOM    103  O   UNL A   1      55.072  37.166  27.751  1.00  0.00    -0.237 OA
ATOM    104  O   UNL A   1      55.159  34.704  27.528  1.00  0.00    -0.237 OA
ATOM    105  O   UNL A   1      56.309  36.136  25.884  1.00  0.00    -0.744 OA
ENDBRANCH  98 102
ENDBRANCH  72  95
ENDBRANCH  46  47
ENDBRANCH  39  41
ENDBRANCH  38  39
ENDBRANCH  37  38
ENDBRANCH  36  37
ENDBRANCH  35  36
ENDBRANCH  34  35
ENDBRANCH   1  34
TORSDOF 26
ENDMDL
MODEL 2
REMARK VINA RESULT:      -8.6      5.338      8.778
REMARK SMILES COc1cc2c(cc1OC)[C@H](C(=O)OCCOCCOCCOCCOC(=O)c1ccc(-c3c4nc(c(-c5cc(S(=O)(=O)[O-])ccc5F)c5ccc([nH]5)c(-c5cc(S(=O)(=O)[O-])ccc5F)c5nc(c(-c6cc(S(=O)(=O)[O-])ccc6F)c6ccc3[nH]6)C=C5)C=C4)cc1)[C@H](c1cccc(Cl)c1)N(C)C2=O
REMARK SMILES IDX 21 1 20 2 19 3 18 4 17 5 16 6 15 7 14 8 12 9 13 10 11 11
REMARK SMILES IDX 3 12 4 13 8 14 5 15 7 16 6 17 102 18 100 19 103 20 92 21
REMARK SMILES IDX 101 22 2 23 1 24 9 25 10 26 93 27 94 28 99 29 95 30 97 31
REMARK SMILES IDX 96 32 98 33 22 34 23 35 24 36 25 37 26 38 27 39 28 40 29 41
REMARK SMILES IDX 30 42 91 43 31 44 90 45 32 46 33 47 34 48 84 49 35 50 89 51
REMARK SMILES IDX 83 52 85 53 36 54 88 55 82 56 81 57 37 59 69 60 49 61 68 62
REMARK SMILES IDX 50 63 53 64 67 65 86 66 51 67 52 68 66 70 87 71 54 72 38 73
REMARK SMILES IDX 39 74 47 75 40 76 46 77 48 78 45 79 41 80 42 81 43 82 44 83
REMARK SMILES IDX 70 84 71 85 79 86 72 87 78 88 80 89 77 90 73 91 74 92 75 93
REMARK SMILES IDX 76 94 55 95 56 96 64 97 57 98 63 99 65 100 62 101 58 102
REMARK SMILES IDX 59 103 60 104 61 105
REMARK H PARENT 85 58 53 69
REMARK Flexibility Score: inf
ROOT
ATOM      1  C   UNL A   1      36.346  32.959  29.327  1.00  0.00     0.188 C 
ENDROOT
BRANCH   1   2
ATOM      2  O   UNL A   1      35.015  32.490  29.447  1.00  0.00    -0.377 OA
BRANCH   2   3
ATOM      3  C   UNL A   1      34.126  32.884  28.431  1.00  0.00     0.188 C 
BRANCH   3   4
ATOM      4  C   UNL A   1      33.509  31.723  27.638  1.00  0.00     0.188 C 
BRANCH   4   5
ATOM      5  O   UNL A   1      32.293  31.844  26.905  1.00  0.00    -0.376 OA
BRANCH   5   6
ATOM      6  C   UNL A   1      31.677  30.733  26.267  1.00  0.00     0.202 C 
BRANCH   6   7
ATOM      7  C   UNL A   1      32.239  29.334  26.549  1.00  0.00     0.261 C 
BRANCH   7   8
ATOM      8  O   UNL A   1      32.789  28.677  25.396  1.00  0.00    -0.463 OA
BRANCH   8   9
ATOM      9  C   UNL A   1      33.534  27.572  25.595  1.00  0.00     0.316 C 
ATOM     10  O   UNL A   1      34.221  27.392  26.600  1.00  0.00    -0.251 OA
BRANCH   9  11
ATOM     11  C   UNL A   1      33.392  26.490  24.536  1.00  0.00     0.157 C 
ATOM     12  C   UNL A   1      32.337  22.273  25.087  1.00  0.00     0.161 A 
ATOM     13  C   UNL A   1      32.601  22.820  23.831  1.00  0.00     0.064 A 
ATOM     14  C   UNL A   1      32.378  23.112  26.208  1.00  0.00     0.161 A 
ATOM     15  C   UNL A   1      32.898  24.188  23.699  1.00  0.00     0.048 A 
ATOM     16  C   UNL A   1      32.682  24.479  26.063  1.00  0.00     0.056 A 
ATOM     17  C   UNL A   1      32.973  25.043  24.818  1.00  0.00    -0.015 A 
ATOM     18  C   UNL A   1      33.055  24.749  22.325  1.00  0.00     0.254 C 
ATOM     19  N   UNL A   1      32.888  26.130  22.181  1.00  0.00    -0.333 N 
ATOM     20  O   UNL A   1      33.303  23.998  21.388  1.00  0.00    -0.269 OA
ATOM     21  C   UNL A   1      32.578  27.011  23.332  1.00  0.00     0.134 C 
ATOM     22  C   UNL A   1      33.009  26.710  20.860  1.00  0.00     0.147 C 
BRANCH  12  23
ATOM     23  O   UNL A   1      31.906  20.984  25.236  1.00  0.00    -0.493 OA
ATOM     24  C   UNL A   1      32.281  20.072  24.211  1.00  0.00     0.278 C 
ENDBRANCH  12  23
BRANCH  14  25
ATOM     25  O   UNL A   1      32.129  22.763  27.509  1.00  0.00    -0.493 OA
ATOM     26  C   UNL A   1      33.210  22.210  28.243  1.00  0.00     0.278 C 
ENDBRANCH  14  25
BRANCH  21  27
ATOM     27  C   UNL A   1      31.102  27.122  23.716  1.00  0.00    -0.023 A 
ATOM     28  C   UNL A   1      30.509  26.067  24.440  1.00  0.00     0.006 A 
ATOM     29  C   UNL A   1      30.263  28.117  23.197  1.00  0.00     0.026 A 
ATOM     30  C   UNL A   1      29.127  25.904  24.476  1.00  0.00     0.002 A 
ATOM     31  C   UNL A   1      28.877  27.970  23.268  1.00  0.00     0.041 A 
ATOM     32  C   UNL A   1      28.309  26.848  23.866  1.00  0.00     0.020 A 
ATOM     33  Cl  UNL A   1      27.865  29.164  22.557  1.00  0.00    -0.084 Cl
ENDBRANCH  21  27
ENDBRANCH   9  11
ENDBRANCH   8   9
ENDBRANCH   7   8
ENDBRANCH   6   7
ENDBRANCH   5   6
ENDBRANCH   4   5
ENDBRANCH   3   4
ENDBRANCH   2   3
ENDBRANCH   1   2
BRANCH   1  34
ATOM     34  C   UNL A   1      37.402  31.872  29.067  1.00  0.00     0.188 C 
BRANCH  34  35
ATOM     35  O   UNL A   1      36.938  30.812  28.234  1.00  0.00    -0.376 OA
BRANCH  35  36
ATOM     36  C   UNL A   1      36.566  29.582  28.842  1.00  0.00     0.202 C 
BRANCH  36  37
ATOM     37  C   UNL A   1      37.324  29.114  30.101  1.00  0.00     0.261 C 
BRANCH  37  38
ATOM     38  O   UNL A   1      36.703  29.323  31.381  1.00  0.00    -0.460 OA
BRANCH  38  39
ATOM     39  C   UNL A   1      37.433  29.146  32.502  1.00  0.00     0.338 C 
ATOM     40  O   UNL A   1      37.506  28.127  33.169  1.00  0.00    -0.246 OA
BRANCH  39  41
ATOM     41  C   UNL A   1      38.289  30.342  32.678  1.00  0.00     0.060 A 
ATOM     42  C   UNL A   1      39.672  30.187  32.844  1.00  0.00     0.016 A 
ATOM     43  C   UNL A   1      37.725  31.618  32.673  1.00  0.00     0.016 A 
ATOM     44  C   UNL A   1      40.496  31.305  33.019  1.00  0.00     0.010 A 
ATOM     45  C   UNL A   1      38.548  32.733  32.874  1.00  0.00     0.010 A 
ATOM     46  C   UNL A   1      39.939  32.587  33.070  1.00  0.00    -0.014 A 
BRANCH  46  47
ATOM     47  C   UNL A   1      40.745  33.752  33.537  1.00  0.00     0.031 A 
ATOM     48  C   UNL A   1      41.606  34.451  32.513  1.00  0.00     0.074 A 
ATOM     49  C   UNL A   1      40.731  34.198  34.809  1.00  0.00     0.049 A 
ATOM     50  N   UNL A   1      42.482  35.409  32.669  1.00  0.00    -0.248 NA
ATOM     51  C   UNL A   1      41.459  33.989  31.123  1.00  0.00     0.031 C 
ATOM     52  C   UNL A   1      39.900  33.672  35.891  1.00  0.00     0.029 A 
ATOM     53  N   UNL A   1      41.460  35.198  35.413  1.00  0.00    -0.354 N 
ATOM     54  C   UNL A   1      42.993  35.659  31.399  1.00  0.00     0.074 A 
ATOM     55  C   UNL A   1      42.381  34.705  30.502  1.00  0.00     0.031 C 
ATOM     56  C   UNL A   1      40.192  34.327  37.031  1.00  0.00     0.029 A 
ATOM     57  C   UNL A   1      41.237  35.313  36.770  1.00  0.00     0.049 A 
ATOM     58  H   UNL A   1      42.085  35.779  34.922  1.00  0.00     0.167 HD
ATOM     59  C   UNL A   1      43.870  36.614  31.007  1.00  0.00     0.034 A 
ATOM     60  C   UNL A   1      41.818  36.111  37.693  1.00  0.00     0.034 A 
ATOM     61  C   UNL A   1      44.476  37.565  31.903  1.00  0.00     0.049 A 
ATOM     62  C   UNL A   1      42.881  37.095  37.251  1.00  0.00     0.074 A 
ATOM     63  C   UNL A   1      45.373  38.575  31.607  1.00  0.00     0.029 A 
ATOM     64  N   UNL A   1      44.250  37.621  33.272  1.00  0.00    -0.354 N 
ATOM     65  N   UNL A   1      43.347  37.325  36.044  1.00  0.00    -0.248 NA
ATOM     66  C   UNL A   1      43.484  37.938  38.294  1.00  0.00     0.031 C 
ATOM     67  C   UNL A   1      45.749  39.191  32.804  1.00  0.00     0.029 A 
ATOM     68  C   UNL A   1      45.017  38.627  33.837  1.00  0.00     0.049 A 
ATOM     69  H   UNL A   1      43.637  37.032  33.768  1.00  0.00     0.167 HD
ATOM     70  C   UNL A   1      44.258  38.373  36.182  1.00  0.00     0.074 A 
ATOM     71  C   UNL A   1      44.267  38.734  37.582  1.00  0.00     0.031 C 
ATOM     72  C   UNL A   1      45.013  38.987  35.235  1.00  0.00     0.034 A 
BRANCH  59  73
ATOM     73  C   UNL A   1      44.246  36.645  29.546  1.00  0.00     0.023 A 
ATOM     74  C   UNL A   1      45.305  35.869  29.043  1.00  0.00     0.031 A 
ATOM     75  C   UNL A   1      43.567  37.492  28.653  1.00  0.00     0.131 A 
ATOM     76  C   UNL A   1      45.707  36.016  27.709  1.00  0.00     0.055 A 
ATOM     77  C   UNL A   1      43.914  37.563  27.303  1.00  0.00     0.041 A 
ATOM     78  F   UNL A   1      42.566  38.276  29.082  1.00  0.00    -0.206 F 
ATOM     79  C   UNL A   1      45.000  36.835  26.827  1.00  0.00     0.022 A 
BRANCH  76  80
ATOM     80  S   UNL A   1      47.263  35.245  27.186  1.00  0.00     0.124 S 
ATOM     81  O   UNL A   1      47.815  34.803  28.465  1.00  0.00    -0.237 OA
ATOM     82  O   UNL A   1      46.808  34.189  26.289  1.00  0.00    -0.237 OA
ATOM     83  O   UNL A   1      47.990  36.339  26.547  1.00  0.00    -0.744 OA
ENDBRANCH  76  80
ENDBRANCH  59  73
BRANCH  60  84
ATOM     84  C   UNL A   1      41.446  36.021  39.140  1.00  0.00     0.023 A 
ATOM     85  C   UNL A   1      42.075  35.100  39.995  1.00  0.00     0.031 A 
ATOM     86  C   UNL A   1      40.383  36.777  39.664  1.00  0.00     0.131 A 
ATOM     87  C   UNL A   1      41.593  34.908  41.300  1.00  0.00     0.055 A 
ATOM     88  C   UNL A   1      39.950  36.631  40.984  1.00  0.00     0.041 A 
ATOM     89  F   UNL A   1      39.737  37.666  38.892  1.00  0.00    -0.206 F 
ATOM     90  C   UNL A   1      40.543  35.677  41.805  1.00  0.00     0.022 A 
BRANCH  87  91
ATOM     91  S   UNL A   1      42.274  33.545  42.287  1.00  0.00     0.124 S 
ATOM     92  O   UNL A   1      43.059  34.265  43.283  1.00  0.00    -0.237 OA
ATOM     93  O   UNL A   1      41.064  32.889  42.774  1.00  0.00    -0.237 OA
ATOM     94  O   UNL A   1      43.049  32.775  41.317  1.00  0.00    -0.744 OA
ENDBRANCH  87  91
ENDBRANCH  60  84
BRANCH  72  95
ATOM     95  C   UNL A   1      45.863  40.159  35.668  1.00  0.00     0.023 A 
ATOM     96  C   UNL A   1      47.187  40.000  36.112  1.00  0.00     0.031 A 
ATOM     97  C   UNL A   1      45.333  41.463  35.626  1.00  0.00     0.131 A 
ATOM     98  C   UNL A   1      47.917  41.117  36.547  1.00  0.00     0.055 A 
ATOM     99  C   UNL A   1      46.088  42.577  35.994  1.00  0.00     0.041 A 
ATOM    100  F   UNL A   1      44.072  41.677  35.215  1.00  0.00    -0.206 F 
ATOM    101  C   UNL A   1      47.384  42.406  36.471  1.00  0.00     0.022 A 
BRANCH  98 102
ATOM    102  S   UNL A   1      49.543  40.853  37.307  1.00  0.00     0.124 S 
ATOM    103  O   UNL A   1      50.242  42.086  36.962  1.00  0.00    -0.237 OA
ATOM    104  O   UNL A   1      49.205  40.685  38.717  1.00  0.00    -0.237 OA
ATOM    105  O   UNL A   1      50.041  39.650  36.642  1.00  0.00    -0.744 OA
ENDBRANCH  98 102
ENDBRANCH  72  95
ENDBRANCH  46  47
ENDBRANCH  39  41
ENDBRANCH  38  39
ENDBRANCH  37  38
ENDBRANCH  36  37
ENDBRANCH  35  36
ENDBRANCH  34  35
ENDBRANCH   1  34
TORSDOF 26
ENDMDL
MODEL 3
REMARK VINA RESULT:      -8.5      6.477     11.157
REMARK SMILES COc1cc2c(cc1OC)[C@H](C(=O)OCCOCCOCCOCCOC(=O)c1ccc(-c3c4nc(c(-c5cc(S(=O)(=O)[O-])ccc5F)c5ccc([nH]5)c(-c5cc(S(=O)(=O)[O-])ccc5F)c5nc(c(-c6cc(S(=O)(=O)[O-])ccc6F)c6ccc3[nH]6)C=C5)C=C4)cc1)[C@H](c1cccc(Cl)c1)N(C)C2=O
REMARK SMILES IDX 21 1 20 2 19 3 18 4 17 5 16 6 15 7 14 8 12 9 13 10 11 11
REMARK SMILES IDX 3 12 4 13 8 14 5 15 7 16 6 17 102 18 100 19 103 20 92 21
REMARK SMILES IDX 101 22 2 23 1 24 9 25 10 26 93 27 94 28 99 29 95 30 97 31
REMARK SMILES IDX 96 32 98 33 22 34 23 35 24 36 25 37 26 38 27 39 28 40 29 41
REMARK SMILES IDX 30 42 91 43 31 44 90 45 32 46 33 47 34 48 84 49 35 50 89 51
REMARK SMILES IDX 83 52 85 53 36 54 88 55 82 56 81 57 37 59 69 60 49 61 68 62
REMARK SMILES IDX 50 63 53 64 67 65 86 66 51 67 52 68 66 70 87 71 54 72 38 73
REMARK SMILES IDX 39 74 47 75 40 76 46 77 48 78 45 79 41 80 42 81 43 82 44 83
REMARK SMILES IDX 70 84 71 85 79 86 72 87 78 88 80 89 77 90 73 91 74 92 75 93
REMARK SMILES IDX 76 94 55 95 56 96 64 97 57 98 63 99 65 100 62 101 58 102
REMARK SMILES IDX 59 103 60 104 61 105
REMARK H PARENT 85 58 53 69
REMARK Flexibility Score: inf
ROOT
ATOM      1  C   UNL A   1      36.395  33.180  29.569  1.00  0.00     0.188 C 
ENDROOT
BRANCH   1   2
ATOM      2  O   UNL A   1      35.204  32.463  29.303  1.00  0.00    -0.377 OA
BRANCH   2   3
ATOM      3  C   UNL A   1      34.669  32.608  28.011  1.00  0.00     0.188 C 
BRANCH   3   4
ATOM      4  C   UNL A   1      33.537  31.626  27.676  1.00  0.00     0.188 C 
BRANCH   4   5
ATOM      5  O   UNL A   1      32.412  31.982  26.878  1.00  0.00    -0.376 OA
BRANCH   5   6
ATOM      6  C   UNL A   1      31.504  31.014  26.369  1.00  0.00     0.202 C 
BRANCH   6   7
ATOM      7  C   UNL A   1      31.800  29.533  26.639  1.00  0.00     0.261 C 
BRANCH   7   8
ATOM      8  O   UNL A   1      32.355  28.829  25.517  1.00  0.00    -0.463 OA
BRANCH   8   9
ATOM      9  C   UNL A   1      32.919  27.627  25.742  1.00  0.00     0.316 C 
ATOM     10  O   UNL A   1      33.183  27.205  26.867  1.00  0.00    -0.251 OA
BRANCH   9  11
ATOM     11  C   UNL A   1      33.119  26.757  24.511  1.00  0.00     0.157 C 
ATOM     12  C   UNL A   1      35.487  23.092  24.129  1.00  0.00     0.161 A 
ATOM     13  C   UNL A   1      34.777  23.637  23.060  1.00  0.00     0.064 A 
ATOM     14  C   UNL A   1      35.412  23.721  25.378  1.00  0.00     0.161 A 
ATOM     15  C   UNL A   1      33.998  24.794  23.239  1.00  0.00     0.048 A 
ATOM     16  C   UNL A   1      34.634  24.882  25.544  1.00  0.00     0.056 A 
ATOM     17  C   UNL A   1      33.934  25.459  24.481  1.00  0.00    -0.015 A 
ATOM     18  C   UNL A   1      33.164  25.270  22.098  1.00  0.00     0.254 C 
ATOM     19  N   UNL A   1      32.082  26.101  22.407  1.00  0.00    -0.333 N 
ATOM     20  O   UNL A   1      33.435  24.913  20.957  1.00  0.00    -0.269 OA
ATOM     21  C   UNL A   1      31.772  26.507  23.799  1.00  0.00     0.134 C 
ATOM     22  C   UNL A   1      31.233  26.565  21.330  1.00  0.00     0.147 C 
BRANCH  12  23
ATOM     23  O   UNL A   1      36.136  21.892  24.027  1.00  0.00    -0.493 OA
ATOM     24  C   UNL A   1      35.502  20.780  24.649  1.00  0.00     0.278 C 
ENDBRANCH  12  23
BRANCH  14  25
ATOM     25  O   UNL A   1      36.020  23.324  26.540  1.00  0.00    -0.493 OA
ATOM     26  C   UNL A   1      35.180  22.800  27.556  1.00  0.00     0.278 C 
ENDBRANCH  14  25
BRANCH  21  27
ATOM     27  C   UNL A   1      30.931  25.524  24.614  1.00  0.00    -0.023 A 
ATOM     28  C   UNL A   1      29.970  26.036  25.510  1.00  0.00     0.006 A 
ATOM     29  C   UNL A   1      31.219  24.154  24.671  1.00  0.00     0.026 A 
ATOM     30  C   UNL A   1      29.465  25.257  26.548  1.00  0.00     0.002 A 
ATOM     31  C   UNL A   1      30.682  23.368  25.690  1.00  0.00     0.041 A 
ATOM     32  C   UNL A   1      29.843  23.924  26.652  1.00  0.00     0.020 A 
ATOM     33  Cl  UNL A   1      31.110  21.705  25.788  1.00  0.00    -0.084 Cl
ENDBRANCH  21  27
ENDBRANCH   9  11
ENDBRANCH   8   9
ENDBRANCH   7   8
ENDBRANCH   6   7
ENDBRANCH   5   6
ENDBRANCH   4   5
ENDBRANCH   3   4
ENDBRANCH   2   3
ENDBRANCH   1   2
BRANCH   1  34
ATOM     34  C   UNL A   1      37.681  32.336  29.563  1.00  0.00     0.188 C 
BRANCH  34  35
ATOM     35  O   UNL A   1      37.734  31.381  28.506  1.00  0.00    -0.376 OA
BRANCH  35  36
ATOM     36  C   UNL A   1      37.510  30.011  28.815  1.00  0.00     0.202 C 
BRANCH  36  37
ATOM     37  C   UNL A   1      37.903  29.489  30.212  1.00  0.00     0.261 C 
BRANCH  37  38
ATOM     38  O   UNL A   1      37.015  29.762  31.310  1.00  0.00    -0.460 OA
BRANCH  38  39
ATOM     39  C   UNL A   1      37.405  29.449  32.564  1.00  0.00     0.338 C 
ATOM     40  O   UNL A   1      37.244  28.381  33.130  1.00  0.00    -0.246 OA
BRANCH  39  41
ATOM     41  C   UNL A   1      38.240  30.564  33.068  1.00  0.00     0.060 A 
ATOM     42  C   UNL A   1      39.595  30.343  33.350  1.00  0.00     0.016 A 
ATOM     43  C   UNL A   1      37.686  31.830  33.256  1.00  0.00     0.016 A 
ATOM     44  C   UNL A   1      40.399  31.382  33.834  1.00  0.00     0.010 A 
ATOM     45  C   UNL A   1      38.484  32.861  33.766  1.00  0.00     0.010 A 
ATOM     46  C   UNL A   1      39.844  32.643  34.079  1.00  0.00    -0.014 A 
BRANCH  46  47
ATOM     47  C   UNL A   1      40.597  33.671  34.855  1.00  0.00     0.031 A 
ATOM     48  C   UNL A   1      40.321  33.759  36.335  1.00  0.00     0.074 A 
ATOM     49  C   UNL A   1      41.500  34.503  34.296  1.00  0.00     0.049 A 
ATOM     50  N   UNL A   1      40.747  34.625  37.217  1.00  0.00    -0.248 NA
ATOM     51  C   UNL A   1      39.427  32.727  36.888  1.00  0.00     0.031 C 
ATOM     52  C   UNL A   1      41.923  34.491  32.897  1.00  0.00     0.029 A 
ATOM     53  N   UNL A   1      42.217  35.542  34.846  1.00  0.00    -0.354 N 
ATOM     54  C   UNL A   1      40.169  34.246  38.424  1.00  0.00     0.074 A 
ATOM     55  C   UNL A   1      39.309  33.117  38.145  1.00  0.00     0.031 C 
ATOM     56  C   UNL A   1      42.796  35.495  32.691  1.00  0.00     0.029 A 
ATOM     57  C   UNL A   1      42.989  36.233  33.936  1.00  0.00     0.049 A 
ATOM     58  H   UNL A   1      42.182  35.771  35.803  1.00  0.00     0.167 HD
ATOM     59  C   UNL A   1      40.358  34.768  39.660  1.00  0.00     0.034 A 
ATOM     60  C   UNL A   1      43.751  37.338  34.089  1.00  0.00     0.034 A 
ATOM     61  C   UNL A   1      41.217  35.890  39.935  1.00  0.00     0.049 A 
ATOM     62  C   UNL A   1      43.858  37.976  35.459  1.00  0.00     0.074 A 
ATOM     63  C   UNL A   1      41.481  36.494  41.152  1.00  0.00     0.029 A 
ATOM     64  N   UNL A   1      41.949  36.582  38.980  1.00  0.00    -0.354 N 
ATOM     65  N   UNL A   1      43.312  37.599  36.593  1.00  0.00    -0.248 NA
ATOM     66  C   UNL A   1      44.698  39.178  35.571  1.00  0.00     0.031 C 
ATOM     67  C   UNL A   1      42.310  37.596  40.922  1.00  0.00     0.029 A 
ATOM     68  C   UNL A   1      42.638  37.626  39.576  1.00  0.00     0.049 A 
ATOM     69  H   UNL A   1      41.975  36.364  38.020  1.00  0.00     0.167 HD
ATOM     70  C   UNL A   1      43.785  38.490  37.556  1.00  0.00     0.074 A 
ATOM     71  C   UNL A   1      44.666  39.412  36.874  1.00  0.00     0.031 C 
ATOM     72  C   UNL A   1      43.522  38.536  38.888  1.00  0.00     0.034 A 
BRANCH  59  73
ATOM     73  C   UNL A   1      39.586  34.143  40.797  1.00  0.00     0.023 A 
ATOM     74  C   UNL A   1      39.940  32.888  41.323  1.00  0.00     0.031 A 
ATOM     75  C   UNL A   1      38.459  34.788  41.332  1.00  0.00     0.131 A 
ATOM     76  C   UNL A   1      39.129  32.282  42.292  1.00  0.00     0.055 A 
ATOM     77  C   UNL A   1      37.708  34.220  42.363  1.00  0.00     0.041 A 
ATOM     78  F   UNL A   1      38.057  35.974  40.851  1.00  0.00    -0.206 F 
ATOM     79  C   UNL A   1      38.032  32.952  42.837  1.00  0.00     0.022 A 
BRANCH  76  80
ATOM     80  S   UNL A   1      39.435  30.544  42.710  1.00  0.00     0.124 S 
ATOM     81  O   UNL A   1      40.805  30.366  42.235  1.00  0.00    -0.237 OA
ATOM     82  O   UNL A   1      39.255  30.531  44.157  1.00  0.00    -0.237 OA
ATOM     83  O   UNL A   1      38.420  29.824  41.946  1.00  0.00    -0.744 OA
ENDBRANCH  76  80
ENDBRANCH  59  73
BRANCH  60  84
ATOM     84  C   UNL A   1      44.468  37.952  32.928  1.00  0.00     0.023 A 
ATOM     85  C   UNL A   1      43.885  38.990  32.180  1.00  0.00     0.031 A 
ATOM     86  C   UNL A   1      45.699  37.439  32.481  1.00  0.00     0.131 A 
ATOM     87  C   UNL A   1      44.492  39.430  30.992  1.00  0.00     0.055 A 
ATOM     88  C   UNL A   1      46.333  37.927  31.336  1.00  0.00     0.041 A 
ATOM     89  F   UNL A   1      46.301  36.441  33.148  1.00  0.00    -0.206 F 
ATOM     90  C   UNL A   1      45.720  38.915  30.573  1.00  0.00     0.022 A 
BRANCH  87  91
ATOM     91  S   UNL A   1      43.589  40.596  29.934  1.00  0.00     0.124 S 
ATOM     92  O   UNL A   1      43.288  39.768  28.772  1.00  0.00    -0.237 OA
ATOM     93  O   UNL A   1      42.454  40.955  30.779  1.00  0.00    -0.237 OA
ATOM     94  O   UNL A   1      44.555  41.667  29.704  1.00  0.00    -0.744 OA
ENDBRANCH  87  91
ENDBRANCH  60  84
BRANCH  72  95
ATOM     95  C   UNL A   1      44.248  39.577  39.709  1.00  0.00     0.023 A 
ATOM     96  C   UNL A   1      43.709  40.853  39.945  1.00  0.00     0.031 A 
ATOM     97  C   UNL A   1      45.503  39.277  40.273  1.00  0.00     0.131 A 
ATOM     98  C   UNL A   1      44.445  41.799  40.676  1.00  0.00     0.055 A 
ATOM     99  C   UNL A   1      46.198  40.198  41.057  1.00  0.00     0.041 A 
ATOM    100  F   UNL A   1      46.071  38.075  40.078  1.00  0.00    -0.206 F 
ATOM    101  C   UNL A   1      45.675  41.473  41.251  1.00  0.00     0.022 A 
BRANCH  98 102
ATOM    102  S   UNL A   1      43.816  43.497  40.784  1.00  0.00     0.124 S 
ATOM    103  O   UNL A   1      44.074  43.827  42.182  1.00  0.00    -0.237 OA
ATOM    104  O   UNL A   1      44.637  44.198  39.802  1.00  0.00    -0.237 OA
ATOM    105  O   UNL A   1      42.404  43.364  40.429  1.00  0.00    -0.744 OA
ENDBRANCH  98 102
ENDBRANCH  72  95
ENDBRANCH  46  47
ENDBRANCH  39  41
ENDBRANCH  38  39
ENDBRANCH  37  38
ENDBRANCH  36  37
ENDBRANCH  35  36
ENDBRANCH  34  35
ENDBRANCH   1  34
TORSDOF 26
ENDMDL
