MODEL 1
REMARK VINA RESULT:      -9.7      0.000      0.000
REMARK SMILES CC(C)C[C@H](NC(=O)c1cc(Cl)nnc1Cl)C(=O)OCCOCCOCCOCCOC(=O)c1ccc(-c2c3nc(c(-c4cc(S(=O)(=O)[O-])ccc4F)c4ccc([nH]4)c(-c4cc(S(=O)(=O)[O-])ccc4F)c4nc(c(-c5cc(S(=O)(=O)[O-])ccc5F)c5ccc2[nH]5)C=C4)C=C3)cc1
REMARK SMILES IDX 26 1 25 2 24 3 23 4 22 5 21 6 20 7 19 8 17 9 18 10 5 11 4 12
REMARK SMILES IDX 2 13 1 14 3 15 6 16 7 17 8 19 9 20 10 21 15 22 11 23 14 24
REMARK SMILES IDX 16 25 12 26 13 27 27 28 28 29 29 30 30 31 31 32 32 33 33 34
REMARK SMILES IDX 34 35 35 36 96 37 36 38 95 39 37 40 38 41 39 42 89 43 40 44
REMARK SMILES IDX 94 45 88 46 90 47 41 48 93 49 87 50 86 51 42 53 74 54 54 55
REMARK SMILES IDX 73 56 55 57 58 58 72 59 91 60 56 61 57 62 71 64 92 65 59 66
REMARK SMILES IDX 43 67 44 68 52 69 45 70 51 71 53 72 50 73 46 74 47 75 48 76
REMARK SMILES IDX 49 77 75 78 76 79 84 80 77 81 83 82 85 83 82 84 78 85 79 86
REMARK SMILES IDX 80 87 81 88 60 89 61 90 69 91 62 92 68 93 70 94 67 95 63 96
REMARK SMILES IDX 64 97 65 98 66 99
REMARK H PARENT 6 18 90 52 58 63
REMARK Flexibility Score: inf
ROOT
ATOM      1  C   UNL A   1      34.812  22.775  25.737  1.00  0.00     0.188 C 
ENDROOT
BRANCH   1   2
ATOM      2  O   UNL A   1      34.646  22.159  26.997  1.00  0.00    -0.377 OA
BRANCH   2   3
ATOM      3  C   UNL A   1      33.613  21.202  27.029  1.00  0.00     0.188 C 
BRANCH   3   4
ATOM      4  C   UNL A   1      33.419  20.341  25.779  1.00  0.00     0.188 C 
BRANCH   4   5
ATOM      5  O   UNL A   1      32.225  20.398  25.013  1.00  0.00    -0.376 OA
BRANCH   5   6
ATOM      6  C   UNL A   1      32.152  20.398  23.601  1.00  0.00     0.202 C 
BRANCH   6   7
ATOM      7  C   UNL A   1      32.243  21.659  22.737  1.00  0.00     0.261 C 
BRANCH   7   8
ATOM      8  O   UNL A   1      32.352  22.917  23.410  1.00  0.00    -0.462 OA
BRANCH   8   9
ATOM      9  C   UNL A   1      33.045  23.874  22.735  1.00  0.00     0.328 C 
ATOM     10  O   UNL A   1      34.067  23.668  22.090  1.00  0.00    -0.250 OA
BRANCH   9  11
ATOM     11  C   UNL A   1      32.499  25.281  22.991  1.00  0.00     0.192 C 
BRANCH  11  12
ATOM     12  C   UNL A   1      30.960  25.320  22.957  1.00  0.00     0.040 C 
BRANCH  12  13
ATOM     13  C   UNL A   1      30.137  25.422  24.257  1.00  0.00    -0.015 C 
ATOM     14  C   UNL A   1      30.930  25.880  25.482  1.00  0.00     0.007 C 
ATOM     15  C   UNL A   1      29.002  26.424  24.007  1.00  0.00     0.007 C 
ENDBRANCH  12  13
ENDBRANCH  11  12
BRANCH  11  16
ATOM     16  N   UNL A   1      33.104  26.337  22.143  1.00  0.00    -0.338 N 
ATOM     17  C   UNL A   1      33.543  27.595  22.471  1.00  0.00     0.255 C 
ATOM     18  H   UNL A   1      33.209  26.096  21.194  1.00  0.00     0.164 HD
ATOM     19  O   UNL A   1      34.274  28.231  21.722  1.00  0.00    -0.269 OA
BRANCH  17  20
ATOM     20  C   UNL A   1      33.016  28.261  23.658  1.00  0.00     0.082 A 
ATOM     21  C   UNL A   1      33.803  28.212  24.813  1.00  0.00     0.060 A 
ATOM     22  C   UNL A   1      31.828  28.957  23.668  1.00  0.00     0.164 A 
ATOM     23  C   UNL A   1      33.382  28.951  25.891  1.00  0.00     0.152 A 
ATOM     24  N   UNL A   1      31.448  29.670  24.748  1.00  0.00    -0.136 NA
ATOM     25  Cl  UNL A   1      30.731  29.035  22.355  1.00  0.00    -0.059 Cl
ATOM     26  Cl  UNL A   1      34.297  29.049  27.330  1.00  0.00    -0.060 Cl
ATOM     27  N   UNL A   1      32.247  29.681  25.869  1.00  0.00    -0.137 NA
ENDBRANCH  17  20
ENDBRANCH  11  16
ENDBRANCH   9  11
ENDBRANCH   8   9
ENDBRANCH   7   8
ENDBRANCH   6   7
ENDBRANCH   5   6
ENDBRANCH   4   5
ENDBRANCH   3   4
ENDBRANCH   2   3
ENDBRANCH   1   2
BRANCH   1  28
ATOM     28  C   UNL A   1      36.123  22.373  25.058  1.00  0.00     0.188 C 
BRANCH  28  29
ATOM     29  O   UNL A   1      37.047  21.489  25.679  1.00  0.00    -0.376 OA
BRANCH  29  30
ATOM     30  C   UNL A   1      37.606  20.378  25.003  1.00  0.00     0.202 C 
BRANCH  30  31
ATOM     31  C   UNL A   1      38.965  19.762  25.394  1.00  0.00     0.261 C 
BRANCH  31  32
ATOM     32  O   UNL A   1      40.052  20.641  25.681  1.00  0.00    -0.460 OA
BRANCH  32  33
ATOM     33  C   UNL A   1      40.561  20.591  26.930  1.00  0.00     0.338 C 
ATOM     34  O   UNL A   1      40.894  19.600  27.557  1.00  0.00    -0.246 OA
BRANCH  33  35
ATOM     35  C   UNL A   1      40.803  21.985  27.358  1.00  0.00     0.060 A 
ATOM     36  C   UNL A   1      40.139  23.023  26.690  1.00  0.00     0.016 A 
ATOM     37  C   UNL A   1      41.659  22.264  28.427  1.00  0.00     0.016 A 
ATOM     38  C   UNL A   1      40.335  24.343  27.083  1.00  0.00     0.010 A 
ATOM     39  C   UNL A   1      41.903  23.593  28.782  1.00  0.00     0.010 A 
ATOM     40  C   UNL A   1      41.267  24.635  28.085  1.00  0.00    -0.014 A 
BRANCH  40  41
ATOM     41  C   UNL A   1      41.784  26.016  28.187  1.00  0.00     0.031 A 
ATOM     42  C   UNL A   1      43.150  26.282  27.619  1.00  0.00     0.074 A 
ATOM     43  C   UNL A   1      41.063  27.007  28.737  1.00  0.00     0.049 A 
ATOM     44  N   UNL A   1      43.825  27.397  27.580  1.00  0.00    -0.248 NA
ATOM     45  C   UNL A   1      43.844  25.135  27.004  1.00  0.00     0.031 C 
ATOM     46  C   UNL A   1      39.712  26.870  29.275  1.00  0.00     0.029 A 
ATOM     47  N   UNL A   1      41.378  28.328  28.941  1.00  0.00    -0.354 N 
ATOM     48  C   UNL A   1      45.014  27.091  26.931  1.00  0.00     0.074 A 
ATOM     49  C   UNL A   1      44.983  25.683  26.611  1.00  0.00     0.031 C 
ATOM     50  C   UNL A   1      39.321  28.057  29.772  1.00  0.00     0.029 A 
ATOM     51  C   UNL A   1      40.405  29.030  29.611  1.00  0.00     0.049 A 
ATOM     52  H   UNL A   1      42.222  28.733  28.636  1.00  0.00     0.167 HD
ATOM     53  C   UNL A   1      46.041  27.913  26.626  1.00  0.00     0.034 A 
ATOM     54  C   UNL A   1      40.402  30.302  30.060  1.00  0.00     0.034 A 
ATOM     55  C   UNL A   1      46.078  29.305  26.975  1.00  0.00     0.049 A 
ATOM     56  C   UNL A   1      41.595  31.185  29.776  1.00  0.00     0.074 A 
ATOM     57  C   UNL A   1      47.077  30.223  26.711  1.00  0.00     0.029 A 
ATOM     58  N   UNL A   1      45.083  29.975  27.670  1.00  0.00    -0.354 N 
ATOM     59  N   UNL A   1      42.691  30.900  29.113  1.00  0.00    -0.248 NA
ATOM     60  C   UNL A   1      41.553  32.562  30.290  1.00  0.00     0.031 C 
ATOM     61  C   UNL A   1      46.714  31.435  27.295  1.00  0.00     0.029 A 
ATOM     62  C   UNL A   1      45.457  31.292  27.864  1.00  0.00     0.049 A 
ATOM     63  H   UNL A   1      44.239  29.575  27.979  1.00  0.00     0.167 HD
ATOM     64  C   UNL A   1      43.451  32.067  29.100  1.00  0.00     0.074 A 
ATOM     65  C   UNL A   1      42.686  33.067  29.815  1.00  0.00     0.031 C 
ATOM     66  C   UNL A   1      44.670  32.289  28.548  1.00  0.00     0.034 A 
BRANCH  53  67
ATOM     67  C   UNL A   1      47.220  27.343  25.891  1.00  0.00     0.023 A 
ATOM     68  C   UNL A   1      48.277  26.762  26.610  1.00  0.00     0.031 A 
ATOM     69  C   UNL A   1      47.350  27.487  24.499  1.00  0.00     0.131 A 
ATOM     70  C   UNL A   1      49.445  26.388  25.940  1.00  0.00     0.055 A 
ATOM     71  C   UNL A   1      48.503  27.078  23.829  1.00  0.00     0.041 A 
ATOM     72  F   UNL A   1      46.357  28.025  23.773  1.00  0.00    -0.206 F 
ATOM     73  C   UNL A   1      49.562  26.537  24.553  1.00  0.00     0.022 A 
BRANCH  70  74
ATOM     74  S   UNL A   1      50.870  25.734  26.849  1.00  0.00     0.124 S 
ATOM     75  O   UNL A   1      51.058  26.744  27.888  1.00  0.00    -0.237 OA
ATOM     76  O   UNL A   1      50.367  24.446  27.313  1.00  0.00    -0.237 OA
ATOM     77  O   UNL A   1      51.928  25.677  25.846  1.00  0.00    -0.744 OA
ENDBRANCH  70  74
ENDBRANCH  53  67
BRANCH  54  78
ATOM     78  C   UNL A   1      39.215  30.812  30.804  1.00  0.00     0.023 A 
ATOM     79  C   UNL A   1      38.186  31.499  30.134  1.00  0.00     0.031 A 
ATOM     80  C   UNL A   1      39.125  30.686  32.200  1.00  0.00     0.131 A 
ATOM     81  C   UNL A   1      37.144  32.082  30.867  1.00  0.00     0.055 A 
ATOM     82  C   UNL A   1      38.051  31.212  32.919  1.00  0.00     0.041 A 
ATOM     83  F   UNL A   1      40.087  30.047  32.883  1.00  0.00    -0.206 F 
ATOM     84  C   UNL A   1      37.059  31.926  32.254  1.00  0.00     0.022 A 
BRANCH  81  85
ATOM     85  S   UNL A   1      35.916  33.141  30.055  1.00  0.00     0.124 S 
ATOM     86  O   UNL A   1      35.673  34.164  31.066  1.00  0.00    -0.237 OA
ATOM     87  O   UNL A   1      36.649  33.584  28.871  1.00  0.00    -0.237 OA
ATOM     88  O   UNL A   1      34.801  32.237  29.791  1.00  0.00    -0.744 OA
ENDBRANCH  81  85
ENDBRANCH  54  78
BRANCH  66  89
ATOM     89  C   UNL A   1      45.278  33.666  28.642  1.00  0.00     0.023 A 
ATOM     90  C   UNL A   1      46.010  34.024  29.791  1.00  0.00     0.031 A 
ATOM     91  C   UNL A   1      44.978  34.666  27.703  1.00  0.00     0.131 A 
ATOM     92  C   UNL A   1      46.375  35.359  29.996  1.00  0.00     0.055 A 
ATOM     93  C   UNL A   1      45.384  35.987  27.890  1.00  0.00     0.041 A 
ATOM     94  F   UNL A   1      44.271  34.373  26.600  1.00  0.00    -0.206 F 
ATOM     95  C   UNL A   1      46.072  36.342  29.048  1.00  0.00     0.022 A 
BRANCH  92  96
ATOM     96  S   UNL A   1      47.181  35.881  31.535  1.00  0.00     0.124 S 
ATOM     97  O   UNL A   1      48.455  35.169  31.466  1.00  0.00    -0.237 OA
ATOM     98  O   UNL A   1      47.265  37.329  31.360  1.00  0.00    -0.237 OA
ATOM     99  O   UNL A   1      46.273  35.426  32.582  1.00  0.00    -0.744 OA
ENDBRANCH  92  96
ENDBRANCH  66  89
ENDBRANCH  40  41
ENDBRANCH  33  35
ENDBRANCH  32  33
ENDBRANCH  31  32
ENDBRANCH  30  31
ENDBRANCH  29  30
ENDBRANCH  28  29
ENDBRANCH   1  28
TORSDOF 27
ENDMDL
MODEL 2
REMARK VINA RESULT:      -9.6      1.996      2.304
REMARK SMILES CC(C)C[C@H](NC(=O)c1cc(Cl)nnc1Cl)C(=O)OCCOCCOCCOCCOC(=O)c1ccc(-c2c3nc(c(-c4cc(S(=O)(=O)[O-])ccc4F)c4ccc([nH]4)c(-c4cc(S(=O)(=O)[O-])ccc4F)c4nc(c(-c5cc(S(=O)(=O)[O-])ccc5F)c5ccc2[nH]5)C=C4)C=C3)cc1
REMARK SMILES IDX 26 1 25 2 24 3 23 4 22 5 21 6 20 7 19 8 17 9 18 10 5 11 4 12
REMARK SMILES IDX 2 13 1 14 3 15 6 16 7 17 8 19 9 20 10 21 15 22 11 23 14 24
REMARK SMILES IDX 16 25 12 26 13 27 27 28 28 29 29 30 30 31 31 32 32 33 33 34
REMARK SMILES IDX 34 35 35 36 96 37 36 38 95 39 37 40 38 41 39 42 89 43 40 44
REMARK SMILES IDX 94 45 88 46 90 47 41 48 93 49 87 50 86 51 42 53 74 54 54 55
REMARK SMILES IDX 73 56 55 57 58 58 72 59 91 60 56 61 57 62 71 64 92 65 59 66
REMARK SMILES IDX 43 67 44 68 52 69 45 70 51 71 53 72 50 73 46 74 47 75 48 76
REMARK SMILES IDX 49 77 75 78 76 79 84 80 77 81 83 82 85 83 82 84 78 85 79 86
REMARK SMILES IDX 80 87 81 88 60 89 61 90 69 91 62 92 68 93 70 94 67 95 63 96
REMARK SMILES IDX 64 97 65 98 66 99
REMARK H PARENT 6 18 90 52 58 63
REMARK Flexibility Score: inf
ROOT
ATOM      1  C   UNL A   1      35.284  23.317  25.571  1.00  0.00     0.188 C 
ENDROOT
BRANCH   1   2
ATOM      2  O   UNL A   1      34.957  22.660  26.778  1.00  0.00    -0.377 OA
BRANCH   2   3
ATOM      3  C   UNL A   1      33.827  21.826  26.682  1.00  0.00     0.188 C 
BRANCH   3   4
ATOM      4  C   UNL A   1      33.742  20.901  25.465  1.00  0.00     0.188 C 
BRANCH   4   5
ATOM      5  O   UNL A   1      32.505  20.624  24.826  1.00  0.00    -0.376 OA
BRANCH   5   6
ATOM      6  C   UNL A   1      32.301  20.542  23.429  1.00  0.00     0.202 C 
BRANCH   6   7
ATOM      7  C   UNL A   1      32.461  21.723  22.467  1.00  0.00     0.261 C 
BRANCH   7   8
ATOM      8  O   UNL A   1      33.113  22.897  22.962  1.00  0.00    -0.462 OA
BRANCH   8   9
ATOM      9  C   UNL A   1      32.663  24.070  22.440  1.00  0.00     0.328 C 
ATOM     10  O   UNL A   1      33.006  24.524  21.354  1.00  0.00    -0.250 OA
BRANCH   9  11
ATOM     11  C   UNL A   1      31.792  24.853  23.426  1.00  0.00     0.192 C 
BRANCH  11  12
ATOM     12  C   UNL A   1      30.999  23.924  24.363  1.00  0.00     0.040 C 
BRANCH  12  13
ATOM     13  C   UNL A   1      30.815  24.265  25.855  1.00  0.00    -0.015 C 
ATOM     14  C   UNL A   1      29.804  25.377  26.136  1.00  0.00     0.007 C 
ATOM     15  C   UNL A   1      30.347  22.988  26.566  1.00  0.00     0.007 C 
ENDBRANCH  12  13
ENDBRANCH  11  12
BRANCH  11  16
ATOM     16  N   UNL A   1      30.929  25.882  22.797  1.00  0.00    -0.338 N 
ATOM     17  C   UNL A   1      31.083  27.244  22.723  1.00  0.00     0.255 C 
ATOM     18  H   UNL A   1      30.118  25.533  22.362  1.00  0.00     0.164 HD
ATOM     19  O   UNL A   1      30.437  27.916  21.929  1.00  0.00    -0.269 OA
BRANCH  17  20
ATOM     20  C   UNL A   1      31.913  27.936  23.703  1.00  0.00     0.082 A 
ATOM     21  C   UNL A   1      31.342  28.185  24.954  1.00  0.00     0.060 A 
ATOM     22  C   UNL A   1      33.220  28.299  23.462  1.00  0.00     0.164 A 
ATOM     23  C   UNL A   1      32.159  28.710  25.925  1.00  0.00     0.152 A 
ATOM     24  N   UNL A   1      33.991  28.814  24.442  1.00  0.00    -0.136 NA
ATOM     25  Cl  UNL A   1      34.020  28.127  21.958  1.00  0.00    -0.059 Cl
ATOM     26  Cl  UNL A   1      31.610  28.977  27.519  1.00  0.00    -0.060 Cl
ATOM     27  N   UNL A   1      33.457  29.004  25.697  1.00  0.00    -0.137 NA
ENDBRANCH  17  20
ENDBRANCH  11  16
ENDBRANCH   9  11
ENDBRANCH   8   9
ENDBRANCH   7   8
ENDBRANCH   6   7
ENDBRANCH   5   6
ENDBRANCH   4   5
ENDBRANCH   3   4
ENDBRANCH   2   3
ENDBRANCH   1   2
BRANCH   1  28
ATOM     28  C   UNL A   1      36.667  22.923  25.047  1.00  0.00     0.188 C 
BRANCH  28  29
ATOM     29  O   UNL A   1      37.442  21.909  25.671  1.00  0.00    -0.376 OA
BRANCH  29  30
ATOM     30  C   UNL A   1      37.656  20.642  25.076  1.00  0.00     0.202 C 
BRANCH  30  31
ATOM     31  C   UNL A   1      38.961  19.841  25.267  1.00  0.00     0.261 C 
BRANCH  31  32
ATOM     32  O   UNL A   1      40.193  20.558  25.340  1.00  0.00    -0.460 OA
BRANCH  32  33
ATOM     33  C   UNL A   1      40.870  20.486  26.505  1.00  0.00     0.338 C 
ATOM     34  O   UNL A   1      41.416  19.510  26.988  1.00  0.00    -0.246 OA
BRANCH  33  35
ATOM     35  C   UNL A   1      40.979  21.864  27.031  1.00  0.00     0.060 A 
ATOM     36  C   UNL A   1      40.343  22.904  26.339  1.00  0.00     0.016 A 
ATOM     37  C   UNL A   1      41.682  22.123  28.211  1.00  0.00     0.016 A 
ATOM     38  C   UNL A   1      40.414  24.208  26.820  1.00  0.00     0.010 A 
ATOM     39  C   UNL A   1      41.805  23.440  28.661  1.00  0.00     0.010 A 
ATOM     40  C   UNL A   1      41.200  24.487  27.945  1.00  0.00    -0.014 A 
BRANCH  40  41
ATOM     41  C   UNL A   1      41.621  25.884  28.181  1.00  0.00     0.031 A 
ATOM     42  C   UNL A   1      43.003  26.270  27.732  1.00  0.00     0.074 A 
ATOM     43  C   UNL A   1      40.804  26.788  28.747  1.00  0.00     0.049 A 
ATOM     44  N   UNL A   1      43.608  27.422  27.820  1.00  0.00    -0.248 NA
ATOM     45  C   UNL A   1      43.806  25.214  27.087  1.00  0.00     0.031 C 
ATOM     46  C   UNL A   1      39.432  26.533  29.177  1.00  0.00     0.029 A 
ATOM     47  N   UNL A   1      41.022  28.105  29.067  1.00  0.00    -0.354 N 
ATOM     48  C   UNL A   1      44.855  27.234  27.237  1.00  0.00     0.074 A 
ATOM     49  C   UNL A   1      44.933  25.855  26.817  1.00  0.00     0.031 C 
ATOM     50  C   UNL A   1      38.936  27.655  29.727  1.00  0.00     0.029 A 
ATOM     51  C   UNL A   1      39.964  28.698  29.714  1.00  0.00     0.049 A 
ATOM     52  H   UNL A   1      41.857  28.580  28.852  1.00  0.00     0.167 HD
ATOM     53  C   UNL A   1      45.846  28.135  27.065  1.00  0.00     0.034 A 
ATOM     54  C   UNL A   1      39.851  29.931  30.250  1.00  0.00     0.034 A 
ATOM     55  C   UNL A   1      45.772  29.496  27.513  1.00  0.00     0.049 A 
ATOM     56  C   UNL A   1      41.004  30.899  30.115  1.00  0.00     0.074 A 
ATOM     57  C   UNL A   1      46.727  30.487  27.387  1.00  0.00     0.029 A 
ATOM     58  N   UNL A   1      44.693  30.054  28.182  1.00  0.00    -0.354 N 
ATOM     59  N   UNL A   1      42.157  30.728  29.513  1.00  0.00    -0.248 NA
ATOM     60  C   UNL A   1      40.842  32.230  30.721  1.00  0.00     0.031 C 
ATOM     61  C   UNL A   1      46.251  31.629  28.028  1.00  0.00     0.029 A 
ATOM     62  C   UNL A   1      44.970  31.372  28.494  1.00  0.00     0.049 A 
ATOM     63  H   UNL A   1      43.857  29.584  28.401  1.00  0.00     0.167 HD
ATOM     64  C   UNL A   1      42.841  31.935  29.637  1.00  0.00     0.074 A 
ATOM     65  C   UNL A   1      41.969  32.833  30.365  1.00  0.00     0.031 C 
ATOM     66  C   UNL A   1      44.078  32.268  29.190  1.00  0.00     0.034 A 
BRANCH  53  67
ATOM     67  C   UNL A   1      47.104  27.691  26.377  1.00  0.00     0.023 A 
ATOM     68  C   UNL A   1      47.261  27.909  24.998  1.00  0.00     0.031 A 
ATOM     69  C   UNL A   1      48.084  26.947  27.057  1.00  0.00     0.131 A 
ATOM     70  C   UNL A   1      48.351  27.347  24.329  1.00  0.00     0.055 A 
ATOM     71  C   UNL A   1      49.190  26.419  26.392  1.00  0.00     0.041 A 
ATOM     72  F   UNL A   1      47.979  26.728  28.377  1.00  0.00    -0.206 F 
ATOM     73  C   UNL A   1      49.319  26.607  25.018  1.00  0.00     0.022 A 
BRANCH  70  74
ATOM     74  S   UNL A   1      48.529  27.518  22.533  1.00  0.00     0.124 S 
ATOM     75  O   UNL A   1      48.574  26.123  22.098  1.00  0.00    -0.237 OA
ATOM     76  O   UNL A   1      47.316  28.245  22.177  1.00  0.00    -0.237 OA
ATOM     77  O   UNL A   1      49.779  28.253  22.375  1.00  0.00    -0.744 OA
ENDBRANCH  70  74
ENDBRANCH  53  67
BRANCH  54  78
ATOM     78  C   UNL A   1      38.588  30.314  30.942  1.00  0.00     0.023 A 
ATOM     79  C   UNL A   1      37.587  31.035  30.266  1.00  0.00     0.031 A 
ATOM     80  C   UNL A   1      38.393  30.031  32.304  1.00  0.00     0.131 A 
ATOM     81  C   UNL A   1      36.465  31.498  30.967  1.00  0.00     0.055 A 
ATOM     82  C   UNL A   1      37.243  30.437  32.983  1.00  0.00     0.041 A 
ATOM     83  F   UNL A   1      39.324  29.353  32.993  1.00  0.00    -0.206 F 
ATOM     84  C   UNL A   1      36.278  31.186  32.317  1.00  0.00     0.022 A 
BRANCH  81  85
ATOM     85  S   UNL A   1      35.262  32.597  30.173  1.00  0.00     0.124 S 
ATOM     86  O   UNL A   1      36.088  33.739  29.798  1.00  0.00    -0.237 OA
ATOM     87  O   UNL A   1      34.792  31.767  29.067  1.00  0.00    -0.237 OA
ATOM     88  O   UNL A   1      34.278  32.848  31.222  1.00  0.00    -0.744 OA
ENDBRANCH  81  85
ENDBRANCH  54  78
BRANCH  66  89
ATOM     89  C   UNL A   1      44.591  33.667  29.424  1.00  0.00     0.023 A 
ATOM     90  C   UNL A   1      44.553  34.605  28.374  1.00  0.00     0.031 A 
ATOM     91  C   UNL A   1      45.279  34.008  30.600  1.00  0.00     0.131 A 
ATOM     92  C   UNL A   1      45.235  35.820  28.501  1.00  0.00     0.055 A 
ATOM     93  C   UNL A   1      45.918  35.240  30.739  1.00  0.00     0.041 A 
ATOM     94  F   UNL A   1      45.353  33.140  31.621  1.00  0.00    -0.206 F 
ATOM     95  C   UNL A   1      45.911  36.147  29.681  1.00  0.00     0.022 A 
BRANCH  92  96
ATOM     96  S   UNL A   1      45.336  36.983  27.113  1.00  0.00     0.124 S 
ATOM     97  O   UNL A   1      43.931  37.141  26.746  1.00  0.00    -0.237 OA
ATOM     98  O   UNL A   1      45.953  38.151  27.737  1.00  0.00    -0.237 OA
ATOM     99  O   UNL A   1      46.158  36.288  26.129  1.00  0.00    -0.744 OA
ENDBRANCH  92  96
ENDBRANCH  66  89
ENDBRANCH  40  41
ENDBRANCH  33  35
ENDBRANCH  32  33
ENDBRANCH  31  32
ENDBRANCH  30  31
ENDBRANCH  29  30
ENDBRANCH  28  29
ENDBRANCH   1  28
TORSDOF 27
ENDMDL
MODEL 3
REMARK VINA RESULT:      -9.3      2.350      7.653
REMARK SMILES CC(C)C[C@H](NC(=O)c1cc(Cl)nnc1Cl)C(=O)OCCOCCOCCOCCOC(=O)c1ccc(-c2c3nc(c(-c4cc(S(=O)(=O)[O-])ccc4F)c4ccc([nH]4)c(-c4cc(S(=O)(=O)[O-])ccc4F)c4nc(c(-c5cc(S(=O)(=O)[O-])ccc5F)c5ccc2[nH]5)C=C4)C=C3)cc1
REMARK SMILES IDX 26 1 25 2 24 3 23 4 22 5 21 6 20 7 19 8 17 9 18 10 5 11 4 12
REMARK SMILES IDX 2 13 1 14 3 15 6 16 7 17 8 19 9 20 10 21 15 22 11 23 14 24
REMARK SMILES IDX 16 25 12 26 13 27 27 28 28 29 29 30 30 31 31 32 32 33 33 34
REMARK SMILES IDX 34 35 35 36 96 37 36 38 95 39 37 40 38 41 39 42 89 43 40 44
REMARK SMILES IDX 94 45 88 46 90 47 41 48 93 49 87 50 86 51 42 53 74 54 54 55
REMARK SMILES IDX 73 56 55 57 58 58 72 59 91 60 56 61 57 62 71 64 92 65 59 66
REMARK SMILES IDX 43 67 44 68 52 69 45 70 51 71 53 72 50 73 46 74 47 75 48 76
REMARK SMILES IDX 49 77 75 78 76 79 84 80 77 81 83 82 85 83 82 84 78 85 79 86
REMARK SMILES IDX 80 87 81 88 60 89 61 90 69 91 62 92 68 93 70 94 67 95 63 96
REMARK SMILES IDX 64 97 65 98 66 99
REMARK H PARENT 6 18 90 52 58 63
REMARK Flexibility Score: inf
ROOT
ATOM      1  C   UNL A   1      35.373  22.644  25.573  1.00  0.00     0.188 C 
ENDROOT
BRANCH   1   2
ATOM      2  O   UNL A   1      35.106  21.875  26.726  1.00  0.00    -0.377 OA
BRANCH   2   3
ATOM      3  C   UNL A   1      33.788  21.382  26.787  1.00  0.00     0.188 C 
BRANCH   3   4
ATOM      4  C   UNL A   1      33.401  20.296  25.780  1.00  0.00     0.188 C 
BRANCH   4   5
ATOM      5  O   UNL A   1      32.289  20.448  24.912  1.00  0.00    -0.376 OA
BRANCH   5   6
ATOM      6  C   UNL A   1      32.324  20.343  23.502  1.00  0.00     0.202 C 
BRANCH   6   7
ATOM      7  C   UNL A   1      32.555  21.528  22.559  1.00  0.00     0.261 C 
BRANCH   7   8
ATOM      8  O   UNL A   1      33.108  22.722  23.119  1.00  0.00    -0.462 OA
BRANCH   8   9
ATOM      9  C   UNL A   1      32.685  23.879  22.542  1.00  0.00     0.328 C 
ATOM     10  O   UNL A   1      33.056  24.287  21.447  1.00  0.00    -0.250 OA
BRANCH   9  11
ATOM     11  C   UNL A   1      31.803  24.711  23.477  1.00  0.00     0.192 C 
BRANCH  11  12
ATOM     12  C   UNL A   1      30.933  23.827  24.391  1.00  0.00     0.040 C 
BRANCH  12  13
ATOM     13  C   UNL A   1      30.807  24.122  25.899  1.00  0.00    -0.015 C 
ATOM     14  C   UNL A   1      30.375  22.926  26.749  1.00  0.00     0.007 C 
ATOM     15  C   UNL A   1      32.177  24.603  26.392  1.00  0.00     0.007 C 
ENDBRANCH  12  13
ENDBRANCH  11  12
BRANCH  11  16
ATOM     16  N   UNL A   1      31.009  25.763  22.797  1.00  0.00    -0.338 N 
ATOM     17  C   UNL A   1      31.167  27.126  22.788  1.00  0.00     0.255 C 
ATOM     18  H   UNL A   1      30.250  25.430  22.266  1.00  0.00     0.164 HD
ATOM     19  O   UNL A   1      30.608  27.827  21.953  1.00  0.00    -0.269 OA
BRANCH  17  20
ATOM     20  C   UNL A   1      31.886  27.781  23.875  1.00  0.00     0.082 A 
ATOM     21  C   UNL A   1      31.240  27.849  25.112  1.00  0.00     0.060 A 
ATOM     22  C   UNL A   1      33.163  28.280  23.742  1.00  0.00     0.164 A 
ATOM     23  C   UNL A   1      31.962  28.338  26.173  1.00  0.00     0.152 A 
ATOM     24  N   UNL A   1      33.840  28.755  24.807  1.00  0.00    -0.136 NA
ATOM     25  Cl  UNL A   1      34.041  28.336  22.272  1.00  0.00    -0.059 Cl
ATOM     26  Cl  UNL A   1      31.321  28.389  27.754  1.00  0.00    -0.060 Cl
ATOM     27  N   UNL A   1      33.236  28.766  26.045  1.00  0.00    -0.137 NA
ENDBRANCH  17  20
ENDBRANCH  11  16
ENDBRANCH   9  11
ENDBRANCH   8   9
ENDBRANCH   7   8
ENDBRANCH   6   7
ENDBRANCH   5   6
ENDBRANCH   4   5
ENDBRANCH   3   4
ENDBRANCH   2   3
ENDBRANCH   1   2
BRANCH   1  28
ATOM     28  C   UNL A   1      36.847  22.596  25.166  1.00  0.00     0.188 C 
BRANCH  28  29
ATOM     29  O   UNL A   1      37.743  21.638  25.713  1.00  0.00    -0.376 OA
BRANCH  29  30
ATOM     30  C   UNL A   1      37.994  20.391  25.091  1.00  0.00     0.202 C 
BRANCH  30  31
ATOM     31  C   UNL A   1      39.107  19.434  25.563  1.00  0.00     0.261 C 
BRANCH  31  32
ATOM     32  O   UNL A   1      40.426  19.954  25.730  1.00  0.00    -0.460 OA
BRANCH  32  33
ATOM     33  C   UNL A   1      40.873  20.083  26.997  1.00  0.00     0.338 C 
ATOM     34  O   UNL A   1      40.720  19.303  27.921  1.00  0.00    -0.246 OA
BRANCH  33  35
ATOM     35  C   UNL A   1      41.739  21.281  27.035  1.00  0.00     0.060 A 
ATOM     36  C   UNL A   1      42.376  21.617  28.237  1.00  0.00     0.016 A 
ATOM     37  C   UNL A   1      41.940  22.051  25.886  1.00  0.00     0.016 A 
ATOM     38  C   UNL A   1      43.210  22.729  28.298  1.00  0.00     0.010 A 
ATOM     39  C   UNL A   1      42.728  23.202  25.962  1.00  0.00     0.010 A 
ATOM     40  C   UNL A   1      43.335  23.560  27.178  1.00  0.00    -0.014 A 
BRANCH  40  41
ATOM     41  C   UNL A   1      43.845  24.934  27.373  1.00  0.00     0.031 A 
ATOM     42  C   UNL A   1      42.856  25.978  27.810  1.00  0.00     0.074 A 
ATOM     43  C   UNL A   1      45.141  25.244  27.197  1.00  0.00     0.049 A 
ATOM     44  N   UNL A   1      43.046  27.246  28.051  1.00  0.00    -0.248 NA
ATOM     45  C   UNL A   1      41.466  25.528  28.012  1.00  0.00     0.031 C 
ATOM     46  C   UNL A   1      46.190  24.301  26.821  1.00  0.00     0.029 A 
ATOM     47  N   UNL A   1      45.788  26.450  27.305  1.00  0.00    -0.354 N 
ATOM     48  C   UNL A   1      41.809  27.742  28.439  1.00  0.00     0.074 A 
ATOM     49  C   UNL A   1      40.867  26.648  28.383  1.00  0.00     0.031 C 
ATOM     50  C   UNL A   1      47.351  24.970  26.705  1.00  0.00     0.029 A 
ATOM     51  C   UNL A   1      47.120  26.391  26.972  1.00  0.00     0.049 A 
ATOM     52  H   UNL A   1      45.340  27.277  27.594  1.00  0.00     0.167 HD
ATOM     53  C   UNL A   1      41.487  28.999  28.813  1.00  0.00     0.034 A 
ATOM     54  C   UNL A   1      48.037  27.376  26.874  1.00  0.00     0.034 A 
ATOM     55  C   UNL A   1      42.422  30.087  28.836  1.00  0.00     0.049 A 
ATOM     56  C   UNL A   1      47.636  28.791  27.221  1.00  0.00     0.074 A 
ATOM     57  C   UNL A   1      42.191  31.401  29.199  1.00  0.00     0.029 A 
ATOM     58  N   UNL A   1      43.757  29.995  28.474  1.00  0.00    -0.354 N 
ATOM     59  N   UNL A   1      46.476  29.239  27.641  1.00  0.00    -0.248 NA
ATOM     60  C   UNL A   1      48.665  29.835  27.094  1.00  0.00     0.031 C 
ATOM     61  C   UNL A   1      43.371  32.116  29.002  1.00  0.00     0.029 A 
ATOM     62  C   UNL A   1      44.356  31.236  28.583  1.00  0.00     0.049 A 
ATOM     63  H   UNL A   1      44.209  29.171  28.182  1.00  0.00     0.167 HD
ATOM     64  C   UNL A   1      46.644  30.604  27.859  1.00  0.00     0.074 A 
ATOM     65  C   UNL A   1      48.022  30.910  27.534  1.00  0.00     0.031 C 
ATOM     66  C   UNL A   1      45.740  31.520  28.289  1.00  0.00     0.034 A 
BRANCH  53  67
ATOM     67  C   UNL A   1      40.069  29.284  29.217  1.00  0.00     0.023 A 
ATOM     68  C   UNL A   1      39.717  29.289  30.577  1.00  0.00     0.031 A 
ATOM     69  C   UNL A   1      39.052  29.427  28.257  1.00  0.00     0.131 A 
ATOM     70  C   UNL A   1      38.372  29.384  30.942  1.00  0.00     0.055 A 
ATOM     71  C   UNL A   1      37.714  29.560  28.628  1.00  0.00     0.041 A 
ATOM     72  F   UNL A   1      39.347  29.443  26.947  1.00  0.00    -0.206 F 
ATOM     73  C   UNL A   1      37.369  29.525  29.976  1.00  0.00     0.022 A 
BRANCH  70  74
ATOM     74  S   UNL A   1      37.872  29.286  32.681  1.00  0.00     0.124 S 
ATOM     75  O   UNL A   1      36.619  30.039  32.680  1.00  0.00    -0.237 OA
ATOM     76  O   UNL A   1      37.736  27.847  32.876  1.00  0.00    -0.237 OA
ATOM     77  O   UNL A   1      38.972  29.923  33.397  1.00  0.00    -0.744 OA
ENDBRANCH  70  74
ENDBRANCH  53  67
BRANCH  54  78
ATOM     78  C   UNL A   1      49.426  27.042  26.447  1.00  0.00     0.023 A 
ATOM     79  C   UNL A   1      50.445  26.850  27.398  1.00  0.00     0.031 A 
ATOM     80  C   UNL A   1      49.772  26.982  25.087  1.00  0.00     0.131 A 
ATOM     81  C   UNL A   1      51.768  26.665  26.976  1.00  0.00     0.055 A 
ATOM     82  C   UNL A   1      51.080  26.731  24.671  1.00  0.00     0.041 A 
ATOM     83  F   UNL A   1      48.836  27.167  24.144  1.00  0.00    -0.206 F 
ATOM     84  C   UNL A   1      52.089  26.585  25.618  1.00  0.00     0.022 A 
BRANCH  81  85
ATOM     85  S   UNL A   1      53.127  26.617  28.175  1.00  0.00     0.124 S 
ATOM     86  O   UNL A   1      52.454  26.163  29.387  1.00  0.00    -0.237 OA
ATOM     87  O   UNL A   1      54.031  25.651  27.555  1.00  0.00    -0.237 OA
ATOM     88  O   UNL A   1      53.614  27.993  28.201  1.00  0.00    -0.744 OA
ENDBRANCH  81  85
ENDBRANCH  54  78
BRANCH  66  89
ATOM     89  C   UNL A   1      46.179  32.951  28.479  1.00  0.00     0.023 A 
ATOM     90  C   UNL A   1      46.508  33.730  27.353  1.00  0.00     0.031 A 
ATOM     91  C   UNL A   1      46.449  33.471  29.754  1.00  0.00     0.131 A 
ATOM     92  C   UNL A   1      47.137  34.969  27.524  1.00  0.00     0.055 A 
ATOM     93  C   UNL A   1      47.034  34.727  29.920  1.00  0.00     0.041 A 
ATOM     94  F   UNL A   1      46.165  32.757  30.855  1.00  0.00    -0.206 F 
ATOM     95  C   UNL A   1      47.395  35.475  28.801  1.00  0.00     0.022 A 
BRANCH  92  96
ATOM     96  S   UNL A   1      47.714  35.928  26.096  1.00  0.00     0.124 S 
ATOM     97  O   UNL A   1      48.929  36.549  26.620  1.00  0.00    -0.237 OA
ATOM     98  O   UNL A   1      47.928  34.886  25.095  1.00  0.00    -0.237 OA
ATOM     99  O   UNL A   1      46.616  36.849  25.822  1.00  0.00    -0.744 OA
ENDBRANCH  92  96
ENDBRANCH  66  89
ENDBRANCH  40  41
ENDBRANCH  33  35
ENDBRANCH  32  33
ENDBRANCH  31  32
ENDBRANCH  30  31
ENDBRANCH  29  30
ENDBRANCH  28  29
ENDBRANCH   1  28
TORSDOF 27
ENDMDL
