MODEL 1
REMARK VINA RESULT:      -9.8      0.000      0.000
REMARK SMILES CC(=O)Nc1cccc(-c2cc(F)ccc2C(=O)OCCOCCOCCOCCOC(=O)c2ccc(-c3c4nc(c(-c5cc(S(=O)(=O)[O-])ccc5F)c5ccc([nH]5)c(-c5cc(S(=O)(=O)[O-])ccc5F)c5nc(c(-c6cc(S(=O)(=O)[O-])ccc6F)c6ccc3[nH]6)C=C5)C=C4)cc2)c1
REMARK SMILES IDX 26 1 25 2 24 3 23 4 22 5 21 6 20 7 19 8 17 9 18 10 16 11
REMARK SMILES IDX 10 12 11 13 12 14 15 15 13 16 14 17 9 18 5 19 6 20 97 21
REMARK SMILES IDX 7 22 8 23 4 24 1 25 2 26 3 27 27 29 28 30 29 31 30 32 31 33
REMARK SMILES IDX 32 34 33 35 34 36 35 37 96 38 36 39 95 40 37 41 38 42 39 43
REMARK SMILES IDX 89 44 40 45 94 46 88 47 90 48 41 49 93 50 87 51 86 52 42 54
REMARK SMILES IDX 74 55 54 56 73 57 55 58 58 59 72 60 91 61 56 62 57 63 71 65
REMARK SMILES IDX 92 66 59 67 43 68 44 69 52 70 45 71 51 72 53 73 50 74 46 75
REMARK SMILES IDX 47 76 48 77 49 78 75 79 76 80 84 81 77 82 83 83 85 84 82 85
REMARK SMILES IDX 78 86 79 87 80 88 81 89 60 90 61 91 69 92 62 93 68 94 70 95
REMARK SMILES IDX 67 96 63 97 64 98 65 99 66 100
REMARK H PARENT 4 28 90 53 58 64
REMARK Flexibility Score: inf
ROOT
ATOM      1  C   UNL A   1      38.487  22.097  25.862  1.00  0.00     0.188 C 
ENDROOT
BRANCH   1   2
ATOM      2  O   UNL A   1      37.741  21.093  25.185  1.00  0.00    -0.377 OA
BRANCH   2   3
ATOM      3  C   UNL A   1      36.324  21.059  25.282  1.00  0.00     0.188 C 
BRANCH   3   4
ATOM      4  C   UNL A   1      35.462  22.346  25.236  1.00  0.00     0.188 C 
BRANCH   4   5
ATOM      5  O   UNL A   1      35.166  22.928  26.487  1.00  0.00    -0.376 OA
BRANCH   5   6
ATOM      6  C   UNL A   1      34.613  22.170  27.545  1.00  0.00     0.202 C 
BRANCH   6   7
ATOM      7  C   UNL A   1      33.107  22.152  27.829  1.00  0.00     0.261 C 
BRANCH   7   8
ATOM      8  O   UNL A   1      32.444  23.404  27.657  1.00  0.00    -0.460 OA
BRANCH   8   9
ATOM      9  C   UNL A   1      31.399  23.449  26.810  1.00  0.00     0.338 C 
ATOM     10  O   UNL A   1      30.230  23.630  27.111  1.00  0.00    -0.246 OA
BRANCH   9  11
ATOM     11  C   UNL A   1      31.880  23.414  25.400  1.00  0.00     0.068 A 
ATOM     12  C   UNL A   1      32.415  24.522  24.685  1.00  0.00    -0.001 A 
ATOM     13  C   UNL A   1      32.846  24.282  23.363  1.00  0.00     0.048 A 
ATOM     14  C   UNL A   1      32.688  23.032  22.766  1.00  0.00     0.123 A 
ATOM     15  C   UNL A   1      31.718  22.161  24.771  1.00  0.00     0.019 A 
ATOM     16  F   UNL A   1      33.093  22.850  21.502  1.00  0.00    -0.207 F 
ATOM     17  C   UNL A   1      32.106  21.977  23.449  1.00  0.00     0.040 A 
BRANCH  12  18
ATOM     18  C   UNL A   1      32.477  25.905  25.219  1.00  0.00    -0.015 A 
ATOM     19  C   UNL A   1      31.630  28.205  25.196  1.00  0.00     0.041 A 
ATOM     20  C   UNL A   1      32.775  28.631  25.874  1.00  0.00     0.026 A 
ATOM     21  C   UNL A   1      31.472  26.843  24.927  1.00  0.00     0.034 A 
ATOM     22  C   UNL A   1      33.741  27.707  26.270  1.00  0.00     0.003 A 
ATOM     23  C   UNL A   1      33.599  26.360  25.932  1.00  0.00     0.009 A 
BRANCH  19  24
ATOM     24  N   UNL A   1      30.772  29.195  24.685  1.00  0.00    -0.326 N 
ATOM     25  C   UNL A   1      29.961  28.144  22.575  1.00  0.00     0.114 C 
ATOM     26  C   UNL A   1      30.180  29.338  23.463  1.00  0.00     0.221 C 
ATOM     27  O   UNL A   1      29.792  30.453  23.109  1.00  0.00    -0.275 OA
ATOM     28  H   UNL A   1      30.560  29.914  25.323  1.00  0.00     0.169 HD
ENDBRANCH  19  24
ENDBRANCH  12  18
ENDBRANCH   9  11
ENDBRANCH   8   9
ENDBRANCH   7   8
ENDBRANCH   6   7
ENDBRANCH   5   6
ENDBRANCH   4   5
ENDBRANCH   3   4
ENDBRANCH   2   3
ENDBRANCH   1   2
BRANCH   1  29
ATOM     29  C   UNL A   1      39.994  21.891  26.129  1.00  0.00     0.188 C 
BRANCH  29  30
ATOM     30  O   UNL A   1      40.287  21.305  27.387  1.00  0.00    -0.376 OA
BRANCH  30  31
ATOM     31  C   UNL A   1      40.858  20.008  27.386  1.00  0.00     0.202 C 
BRANCH  31  32
ATOM     32  C   UNL A   1      41.459  19.484  26.072  1.00  0.00     0.261 C 
BRANCH  32  33
ATOM     33  O   UNL A   1      42.872  19.236  26.064  1.00  0.00    -0.460 OA
BRANCH  33  34
ATOM     34  C   UNL A   1      43.616  19.914  25.163  1.00  0.00     0.338 C 
ATOM     35  O   UNL A   1      44.013  19.504  24.084  1.00  0.00    -0.246 OA
BRANCH  34  36
ATOM     36  C   UNL A   1      43.712  21.310  25.634  1.00  0.00     0.060 A 
ATOM     37  C   UNL A   1      43.634  22.358  24.707  1.00  0.00     0.016 A 
ATOM     38  C   UNL A   1      43.867  21.579  26.996  1.00  0.00     0.016 A 
ATOM     39  C   UNL A   1      43.740  23.681  25.139  1.00  0.00     0.010 A 
ATOM     40  C   UNL A   1      43.996  22.903  27.424  1.00  0.00     0.010 A 
ATOM     41  C   UNL A   1      43.964  23.958  26.496  1.00  0.00    -0.014 A 
BRANCH  41  42
ATOM     42  C   UNL A   1      44.380  25.320  26.916  1.00  0.00     0.031 A 
ATOM     43  C   UNL A   1      43.325  26.240  27.470  1.00  0.00     0.074 A 
ATOM     44  C   UNL A   1      45.660  25.725  26.832  1.00  0.00     0.049 A 
ATOM     45  N   UNL A   1      43.414  27.498  27.814  1.00  0.00    -0.248 NA
ATOM     46  C   UNL A   1      41.986  25.656  27.657  1.00  0.00     0.031 C 
ATOM     47  C   UNL A   1      46.783  24.903  26.382  1.00  0.00     0.029 A 
ATOM     48  N   UNL A   1      46.231  26.940  27.123  1.00  0.00    -0.354 N 
ATOM     49  C   UNL A   1      42.147  27.853  28.268  1.00  0.00     0.074 A 
ATOM     50  C   UNL A   1      41.298  26.694  28.104  1.00  0.00     0.031 C 
ATOM     51  C   UNL A   1      47.906  25.643  26.416  1.00  0.00     0.029 A 
ATOM     52  C   UNL A   1      47.577  27.002  26.844  1.00  0.00     0.049 A 
ATOM     53  H   UNL A   1      45.723  27.697  27.496  1.00  0.00     0.167 HD
ATOM     54  C   UNL A   1      41.734  29.034  28.790  1.00  0.00     0.034 A 
ATOM     55  C   UNL A   1      48.431  28.047  26.898  1.00  0.00     0.034 A 
ATOM     56  C   UNL A   1      42.584  30.188  28.930  1.00  0.00     0.049 A 
ATOM     57  C   UNL A   1      47.910  29.395  27.356  1.00  0.00     0.074 A 
ATOM     58  C   UNL A   1      42.260  31.443  29.415  1.00  0.00     0.029 A 
ATOM     59  N   UNL A   1      43.927  30.231  28.583  1.00  0.00    -0.354 N 
ATOM     60  N   UNL A   1      46.705  29.724  27.763  1.00  0.00    -0.248 NA
ATOM     61  C   UNL A   1      48.868  30.510  27.366  1.00  0.00     0.031 C 
ATOM     62  C   UNL A   1      43.387  32.263  29.296  1.00  0.00     0.029 A 
ATOM     63  C   UNL A   1      44.439  31.497  28.820  1.00  0.00     0.049 A 
ATOM     64  H   UNL A   1      44.441  29.473  28.220  1.00  0.00     0.167 HD
ATOM     65  C   UNL A   1      46.780  31.070  28.126  1.00  0.00     0.074 A 
ATOM     66  C   UNL A   1      48.148  31.484  27.901  1.00  0.00     0.031 C 
ATOM     67  C   UNL A   1      45.810  31.890  28.604  1.00  0.00     0.034 A 
BRANCH  54  68
ATOM     68  C   UNL A   1      40.291  29.138  29.215  1.00  0.00     0.023 A 
ATOM     69  C   UNL A   1      39.916  29.052  30.567  1.00  0.00     0.031 A 
ATOM     70  C   UNL A   1      39.276  29.315  28.259  1.00  0.00     0.131 A 
ATOM     71  C   UNL A   1      38.560  29.086  30.921  1.00  0.00     0.055 A 
ATOM     72  C   UNL A   1      37.933  29.428  28.625  1.00  0.00     0.041 A 
ATOM     73  F   UNL A   1      39.572  29.375  26.951  1.00  0.00    -0.206 F 
ATOM     74  C   UNL A   1      37.567  29.302  29.961  1.00  0.00     0.022 A 
BRANCH  71  75
ATOM     75  S   UNL A   1      38.102  28.718  32.636  1.00  0.00     0.124 S 
ATOM     76  O   UNL A   1      36.730  29.219  32.686  1.00  0.00    -0.237 OA
ATOM     77  O   UNL A   1      38.256  27.270  32.701  1.00  0.00    -0.237 OA
ATOM     78  O   UNL A   1      39.067  29.485  33.420  1.00  0.00    -0.744 OA
ENDBRANCH  71  75
ENDBRANCH  54  68
BRANCH  55  79
ATOM     79  C   UNL A   1      49.856  27.904  26.471  1.00  0.00     0.023 A 
ATOM     80  C   UNL A   1      50.890  27.829  27.419  1.00  0.00     0.031 A 
ATOM     81  C   UNL A   1      50.218  27.962  25.113  1.00  0.00     0.131 A 
ATOM     82  C   UNL A   1      52.229  27.906  27.004  1.00  0.00     0.055 A 
ATOM     83  C   UNL A   1      51.552  27.959  24.701  1.00  0.00     0.041 A 
ATOM     84  F   UNL A   1      49.275  28.041  24.159  1.00  0.00    -0.206 F 
ATOM     85  C   UNL A   1      52.568  27.953  25.651  1.00  0.00     0.022 A 
BRANCH  82  86
ATOM     86  S   UNL A   1      53.514  28.108  28.270  1.00  0.00     0.124 S 
ATOM     87  O   UNL A   1      52.760  28.719  29.358  1.00  0.00    -0.237 OA
ATOM     88  O   UNL A   1      53.947  26.731  28.483  1.00  0.00    -0.237 OA
ATOM     89  O   UNL A   1      54.494  28.977  27.623  1.00  0.00    -0.744 OA
ENDBRANCH  82  86
ENDBRANCH  55  79
BRANCH  67  90
ATOM     90  C   UNL A   1      46.214  33.295  28.990  1.00  0.00     0.023 A 
ATOM     91  C   UNL A   1      46.251  34.344  28.055  1.00  0.00     0.031 A 
ATOM     92  C   UNL A   1      46.569  33.584  30.321  1.00  0.00     0.131 A 
ATOM     93  C   UNL A   1      46.692  35.617  28.450  1.00  0.00     0.055 A 
ATOM     94  C   UNL A   1      46.940  34.868  30.722  1.00  0.00     0.041 A 
ATOM     95  F   UNL A   1      46.553  32.622  31.257  1.00  0.00    -0.206 F 
ATOM     96  C   UNL A   1      47.016  35.890  29.782  1.00  0.00     0.022 A 
BRANCH  93  97
ATOM     97  S   UNL A   1      46.926  36.890  27.180  1.00  0.00     0.124 S 
ATOM     98  O   UNL A   1      45.595  37.482  27.094  1.00  0.00    -0.237 OA
ATOM     99  O   UNL A   1      47.961  37.734  27.769  1.00  0.00    -0.237 OA
ATOM    100  O   UNL A   1      47.344  36.128  26.004  1.00  0.00    -0.744 OA
ENDBRANCH  93  97
ENDBRANCH  67  90
ENDBRANCH  41  42
ENDBRANCH  34  36
ENDBRANCH  33  34
ENDBRANCH  32  33
ENDBRANCH  31  32
ENDBRANCH  30  31
ENDBRANCH  29  30
ENDBRANCH   1  29
TORSDOF 25
ENDMDL
MODEL 2
REMARK VINA RESULT:      -9.7      5.708      9.546
REMARK SMILES CC(=O)Nc1cccc(-c2cc(F)ccc2C(=O)OCCOCCOCCOCCOC(=O)c2ccc(-c3c4nc(c(-c5cc(S(=O)(=O)[O-])ccc5F)c5ccc([nH]5)c(-c5cc(S(=O)(=O)[O-])ccc5F)c5nc(c(-c6cc(S(=O)(=O)[O-])ccc6F)c6ccc3[nH]6)C=C5)C=C4)cc2)c1
REMARK SMILES IDX 26 1 25 2 24 3 23 4 22 5 21 6 20 7 19 8 17 9 18 10 16 11
REMARK SMILES IDX 10 12 11 13 12 14 15 15 13 16 14 17 9 18 5 19 6 20 97 21
REMARK SMILES IDX 7 22 8 23 4 24 1 25 2 26 3 27 27 29 28 30 29 31 30 32 31 33
REMARK SMILES IDX 32 34 33 35 34 36 35 37 96 38 36 39 95 40 37 41 38 42 39 43
REMARK SMILES IDX 89 44 40 45 94 46 88 47 90 48 41 49 93 50 87 51 86 52 42 54
REMARK SMILES IDX 74 55 54 56 73 57 55 58 58 59 72 60 91 61 56 62 57 63 71 65
REMARK SMILES IDX 92 66 59 67 43 68 44 69 52 70 45 71 51 72 53 73 50 74 46 75
REMARK SMILES IDX 47 76 48 77 49 78 75 79 76 80 84 81 77 82 83 83 85 84 82 85
REMARK SMILES IDX 78 86 79 87 80 88 81 89 60 90 61 91 69 92 62 93 68 94 70 95
REMARK SMILES IDX 67 96 63 97 64 98 65 99 66 100
REMARK H PARENT 4 28 90 53 58 64
REMARK Flexibility Score: inf
ROOT
ATOM      1  C   UNL A   1      34.132  33.024  27.997  1.00  0.00     0.188 C 
ENDROOT
BRANCH   1   2
ATOM      2  O   UNL A   1      33.507  31.749  27.912  1.00  0.00    -0.377 OA
BRANCH   2   3
ATOM      3  C   UNL A   1      34.182  30.655  27.308  1.00  0.00     0.188 C 
BRANCH   3   4
ATOM      4  C   UNL A   1      33.424  29.522  26.569  1.00  0.00     0.188 C 
BRANCH   4   5
ATOM      5  O   UNL A   1      34.138  28.315  26.406  1.00  0.00    -0.376 OA
BRANCH   5   6
ATOM      6  C   UNL A   1      33.612  27.239  25.655  1.00  0.00     0.202 C 
BRANCH   6   7
ATOM      7  C   UNL A   1      32.846  26.087  26.313  1.00  0.00     0.261 C 
BRANCH   7   8
ATOM      8  O   UNL A   1      31.551  25.835  25.771  1.00  0.00    -0.460 OA
BRANCH   8   9
ATOM      9  C   UNL A   1      31.354  24.665  25.134  1.00  0.00     0.338 C 
ATOM     10  O   UNL A   1      30.737  23.703  25.561  1.00  0.00    -0.246 OA
BRANCH   9  11
ATOM     11  C   UNL A   1      31.858  24.752  23.734  1.00  0.00     0.068 A 
ATOM     12  C   UNL A   1      32.902  23.958  23.185  1.00  0.00    -0.001 A 
ATOM     13  C   UNL A   1      33.219  24.167  21.826  1.00  0.00     0.048 A 
ATOM     14  C   UNL A   1      32.582  25.157  21.079  1.00  0.00     0.123 A 
ATOM     15  C   UNL A   1      31.237  25.757  22.963  1.00  0.00     0.019 A 
ATOM     16  F   UNL A   1      32.924  25.337  19.797  1.00  0.00    -0.207 F 
ATOM     17  C   UNL A   1      31.612  25.970  21.641  1.00  0.00     0.040 A 
BRANCH  12  18
ATOM     18  C   UNL A   1      33.710  22.989  23.968  1.00  0.00    -0.015 A 
ATOM     19  C   UNL A   1      33.846  20.865  25.183  1.00  0.00     0.041 A 
ATOM     20  C   UNL A   1      35.036  21.287  25.782  1.00  0.00     0.026 A 
ATOM     21  C   UNL A   1      33.231  21.699  24.245  1.00  0.00     0.034 A 
ATOM     22  C   UNL A   1      35.592  22.519  25.447  1.00  0.00     0.003 A 
ATOM     23  C   UNL A   1      34.927  23.368  24.560  1.00  0.00     0.009 A 
BRANCH  19  24
ATOM     24  N   UNL A   1      33.251  19.690  25.675  1.00  0.00    -0.326 N 
ATOM     25  C   UNL A   1      33.899  18.013  23.948  1.00  0.00     0.114 C 
ATOM     26  C   UNL A   1      33.047  18.468  25.101  1.00  0.00     0.221 C 
ATOM     27  O   UNL A   1      32.179  17.724  25.561  1.00  0.00    -0.275 OA
ATOM     28  H   UNL A   1      32.923  19.760  26.601  1.00  0.00     0.169 HD
ENDBRANCH  19  24
ENDBRANCH  12  18
ENDBRANCH   9  11
ENDBRANCH   8   9
ENDBRANCH   7   8
ENDBRANCH   6   7
ENDBRANCH   5   6
ENDBRANCH   4   5
ENDBRANCH   3   4
ENDBRANCH   2   3
ENDBRANCH   1   2
BRANCH   1  29
ATOM     29  C   UNL A   1      34.543  33.591  29.373  1.00  0.00     0.188 C 
BRANCH  29  30
ATOM     30  O   UNL A   1      34.737  32.604  30.374  1.00  0.00    -0.376 OA
BRANCH  30  31
ATOM     31  C   UNL A   1      35.484  32.974  31.519  1.00  0.00     0.202 C 
BRANCH  31  32
ATOM     32  C   UNL A   1      35.581  31.966  32.675  1.00  0.00     0.261 C 
BRANCH  32  33
ATOM     33  O   UNL A   1      36.805  31.226  32.785  1.00  0.00    -0.460 OA
BRANCH  33  34
ATOM     34  C   UNL A   1      36.903  30.079  32.078  1.00  0.00     0.338 C 
ATOM     35  O   UNL A   1      36.104  29.652  31.261  1.00  0.00    -0.246 OA
BRANCH  34  36
ATOM     36  C   UNL A   1      38.245  29.519  32.334  1.00  0.00     0.060 A 
ATOM     37  C   UNL A   1      39.331  30.385  32.517  1.00  0.00     0.016 A 
ATOM     38  C   UNL A   1      38.423  28.135  32.405  1.00  0.00     0.016 A 
ATOM     39  C   UNL A   1      40.607  29.866  32.744  1.00  0.00     0.010 A 
ATOM     40  C   UNL A   1      39.705  27.617  32.609  1.00  0.00     0.010 A 
ATOM     41  C   UNL A   1      40.807  28.478  32.749  1.00  0.00    -0.014 A 
BRANCH  41  42
ATOM     42  C   UNL A   1      42.184  27.927  32.681  1.00  0.00     0.031 A 
ATOM     43  C   UNL A   1      42.906  27.673  33.977  1.00  0.00     0.074 A 
ATOM     44  C   UNL A   1      42.773  27.637  31.506  1.00  0.00     0.049 A 
ATOM     45  N   UNL A   1      44.138  27.288  34.183  1.00  0.00    -0.248 NA
ATOM     46  C   UNL A   1      42.126  27.883  35.208  1.00  0.00     0.031 C 
ATOM     47  C   UNL A   1      42.150  27.772  30.190  1.00  0.00     0.029 A 
ATOM     48  N   UNL A   1      44.035  27.170  31.234  1.00  0.00    -0.354 N 
ATOM     49  C   UNL A   1      44.279  27.203  35.565  1.00  0.00     0.074 A 
ATOM     50  C   UNL A   1      43.024  27.625  36.145  1.00  0.00     0.031 C 
ATOM     51  C   UNL A   1      43.038  27.405  29.249  1.00  0.00     0.029 A 
ATOM     52  C   UNL A   1      44.307  27.057  29.889  1.00  0.00     0.049 A 
ATOM     53  H   UNL A   1      44.686  26.938  31.936  1.00  0.00     0.167 HD
ATOM     54  C   UNL A   1      45.352  26.791  36.283  1.00  0.00     0.034 A 
ATOM     55  C   UNL A   1      45.456  26.740  29.256  1.00  0.00     0.034 A 
ATOM     56  C   UNL A   1      46.605  26.391  35.695  1.00  0.00     0.049 A 
ATOM     57  C   UNL A   1      46.684  26.418  30.085  1.00  0.00     0.074 A 
ATOM     58  C   UNL A   1      47.767  25.989  36.330  1.00  0.00     0.029 A 
ATOM     59  N   UNL A   1      46.861  26.345  34.331  1.00  0.00    -0.354 N 
ATOM     60  N   UNL A   1      46.810  26.359  31.392  1.00  0.00    -0.248 NA
ATOM     61  C   UNL A   1      47.921  26.113  29.352  1.00  0.00     0.031 C 
ATOM     62  C   UNL A   1      48.745  25.767  35.356  1.00  0.00     0.029 A 
ATOM     63  C   UNL A   1      48.169  25.945  34.108  1.00  0.00     0.049 A 
ATOM     64  H   UNL A   1      46.210  26.565  33.626  1.00  0.00     0.167 HD
ATOM     65  C   UNL A   1      48.126  25.960  31.629  1.00  0.00     0.074 A 
ATOM     66  C   UNL A   1      48.745  25.781  30.334  1.00  0.00     0.031 C 
ATOM     67  C   UNL A   1      48.767  25.756  32.808  1.00  0.00     0.034 A 
BRANCH  54  68
ATOM     68  C   UNL A   1      45.222  26.788  37.786  1.00  0.00     0.023 A 
ATOM     69  C   UNL A   1      45.427  27.956  38.542  1.00  0.00     0.031 A 
ATOM     70  C   UNL A   1      44.898  25.606  38.473  1.00  0.00     0.131 A 
ATOM     71  C   UNL A   1      45.363  27.902  39.942  1.00  0.00     0.055 A 
ATOM     72  C   UNL A   1      44.757  25.577  39.861  1.00  0.00     0.041 A 
ATOM     73  F   UNL A   1      44.718  24.455  37.805  1.00  0.00    -0.206 F 
ATOM     74  C   UNL A   1      45.001  26.727  40.605  1.00  0.00     0.022 A 
BRANCH  71  75
ATOM     75  S   UNL A   1      45.883  29.358  40.889  1.00  0.00     0.124 S 
ATOM     76  O   UNL A   1      44.695  29.619  41.701  1.00  0.00    -0.237 OA
ATOM     77  O   UNL A   1      47.052  28.868  41.608  1.00  0.00    -0.237 OA
ATOM     78  O   UNL A   1      46.156  30.358  39.859  1.00  0.00    -0.744 OA
ENDBRANCH  71  75
ENDBRANCH  54  68
BRANCH  55  79
ATOM     79  C   UNL A   1      45.546  26.752  27.764  1.00  0.00     0.023 A 
ATOM     80  C   UNL A   1      45.520  25.555  27.030  1.00  0.00     0.031 A 
ATOM     81  C   UNL A   1      45.782  27.946  27.058  1.00  0.00     0.131 A 
ATOM     82  C   UNL A   1      45.814  25.567  25.657  1.00  0.00     0.055 A 
ATOM     83  C   UNL A   1      45.996  27.961  25.679  1.00  0.00     0.041 A 
ATOM     84  F   UNL A   1      45.825  29.122  27.705  1.00  0.00    -0.206 F 
ATOM     85  C   UNL A   1      46.035  26.763  24.973  1.00  0.00     0.022 A 
BRANCH  82  86
ATOM     86  S   UNL A   1      46.063  23.978  24.815  1.00  0.00     0.124 S 
ATOM     87  O   UNL A   1      47.125  24.310  23.873  1.00  0.00    -0.237 OA
ATOM     88  O   UNL A   1      46.435  23.104  25.921  1.00  0.00    -0.237 OA
ATOM     89  O   UNL A   1      44.758  23.705  24.215  1.00  0.00    -0.744 OA
ENDBRANCH  82  86
ENDBRANCH  55  79
BRANCH  67  90
ATOM     90  C   UNL A   1      50.187  25.241  32.750  1.00  0.00     0.023 A 
ATOM     91  C   UNL A   1      50.494  23.879  32.917  1.00  0.00     0.031 A 
ATOM     92  C   UNL A   1      51.251  26.134  32.523  1.00  0.00     0.131 A 
ATOM     93  C   UNL A   1      51.833  23.459  32.915  1.00  0.00     0.055 A 
ATOM     94  C   UNL A   1      52.575  25.700  32.454  1.00  0.00     0.041 A 
ATOM     95  F   UNL A   1      51.019  27.446  32.358  1.00  0.00    -0.206 F 
ATOM     96  C   UNL A   1      52.873  24.358  32.664  1.00  0.00     0.022 A 
BRANCH  93  97
ATOM     97  S   UNL A   1      52.205  21.735  33.339  1.00  0.00     0.124 S 
ATOM     98  O   UNL A   1      51.249  21.473  34.410  1.00  0.00    -0.237 OA
ATOM     99  O   UNL A   1      51.956  21.042  32.079  1.00  0.00    -0.237 OA
ATOM    100  O   UNL A   1      53.607  21.779  33.754  1.00  0.00    -0.744 OA
ENDBRANCH  93  97
ENDBRANCH  67  90
ENDBRANCH  41  42
ENDBRANCH  34  36
ENDBRANCH  33  34
ENDBRANCH  32  33
ENDBRANCH  31  32
ENDBRANCH  30  31
ENDBRANCH  29  30
ENDBRANCH   1  29
TORSDOF 25
ENDMDL
MODEL 3
REMARK VINA RESULT:      -9.7      1.987      7.622
REMARK SMILES CC(=O)Nc1cccc(-c2cc(F)ccc2C(=O)OCCOCCOCCOCCOC(=O)c2ccc(-c3c4nc(c(-c5cc(S(=O)(=O)[O-])ccc5F)c5ccc([nH]5)c(-c5cc(S(=O)(=O)[O-])ccc5F)c5nc(c(-c6cc(S(=O)(=O)[O-])ccc6F)c6ccc3[nH]6)C=C5)C=C4)cc2)c1
REMARK SMILES IDX 26 1 25 2 24 3 23 4 22 5 21 6 20 7 19 8 17 9 18 10 16 11
REMARK SMILES IDX 10 12 11 13 12 14 15 15 13 16 14 17 9 18 5 19 6 20 97 21
REMARK SMILES IDX 7 22 8 23 4 24 1 25 2 26 3 27 27 29 28 30 29 31 30 32 31 33
REMARK SMILES IDX 32 34 33 35 34 36 35 37 96 38 36 39 95 40 37 41 38 42 39 43
REMARK SMILES IDX 89 44 40 45 94 46 88 47 90 48 41 49 93 50 87 51 86 52 42 54
REMARK SMILES IDX 74 55 54 56 73 57 55 58 58 59 72 60 91 61 56 62 57 63 71 65
REMARK SMILES IDX 92 66 59 67 43 68 44 69 52 70 45 71 51 72 53 73 50 74 46 75
REMARK SMILES IDX 47 76 48 77 49 78 75 79 76 80 84 81 77 82 83 83 85 84 82 85
REMARK SMILES IDX 78 86 79 87 80 88 81 89 60 90 61 91 69 92 62 93 68 94 70 95
REMARK SMILES IDX 67 96 63 97 64 98 65 99 66 100
REMARK H PARENT 4 28 90 53 58 64
REMARK Flexibility Score: inf
ROOT
ATOM      1  C   UNL A   1      38.589  22.229  26.116  1.00  0.00     0.188 C 
ENDROOT
BRANCH   1   2
ATOM      2  O   UNL A   1      37.607  21.318  25.638  1.00  0.00    -0.377 OA
BRANCH   2   3
ATOM      3  C   UNL A   1      36.237  21.691  25.596  1.00  0.00     0.188 C 
BRANCH   3   4
ATOM      4  C   UNL A   1      35.780  23.170  25.679  1.00  0.00     0.188 C 
BRANCH   4   5
ATOM      5  O   UNL A   1      34.392  23.372  25.834  1.00  0.00    -0.376 OA
BRANCH   5   6
ATOM      6  C   UNL A   1      33.471  22.990  24.832  1.00  0.00     0.202 C 
BRANCH   6   7
ATOM      7  C   UNL A   1      33.434  23.673  23.460  1.00  0.00     0.261 C 
BRANCH   7   8
ATOM      8  O   UNL A   1      32.401  24.643  23.296  1.00  0.00    -0.460 OA
BRANCH   8   9
ATOM      9  C   UNL A   1      32.768  25.916  23.062  1.00  0.00     0.338 C 
ATOM     10  O   UNL A   1      32.958  26.428  21.970  1.00  0.00    -0.246 OA
BRANCH   9  11
ATOM     11  C   UNL A   1      32.756  26.695  24.333  1.00  0.00     0.068 A 
ATOM     12  C   UNL A   1      31.627  27.374  24.871  1.00  0.00    -0.001 A 
ATOM     13  C   UNL A   1      31.806  28.033  26.106  1.00  0.00     0.048 A 
ATOM     14  C   UNL A   1      33.051  28.073  26.731  1.00  0.00     0.123 A 
ATOM     15  C   UNL A   1      34.009  26.760  24.977  1.00  0.00     0.019 A 
ATOM     16  F   UNL A   1      33.183  28.726  27.893  1.00  0.00    -0.207 F 
ATOM     17  C   UNL A   1      34.159  27.465  26.166  1.00  0.00     0.040 A 
BRANCH  12  18
ATOM     18  C   UNL A   1      30.317  27.484  24.183  1.00  0.00    -0.015 A 
ATOM     19  C   UNL A   1      28.661  28.875  23.029  1.00  0.00     0.041 A 
ATOM     20  C   UNL A   1      27.697  27.882  23.220  1.00  0.00     0.026 A 
ATOM     21  C   UNL A   1      29.968  28.640  23.464  1.00  0.00     0.034 A 
ATOM     22  C   UNL A   1      28.040  26.680  23.836  1.00  0.00     0.003 A 
ATOM     23  C   UNL A   1      29.334  26.490  24.326  1.00  0.00     0.009 A 
BRANCH  19  24
ATOM     24  N   UNL A   1      28.223  30.122  22.548  1.00  0.00    -0.326 N 
ATOM     25  C   UNL A   1      29.396  31.711  24.068  1.00  0.00     0.114 C 
ATOM     26  C   UNL A   1      28.323  31.380  23.067  1.00  0.00     0.221 C 
ATOM     27  O   UNL A   1      27.547  32.255  22.679  1.00  0.00    -0.275 OA
ATOM     28  H   UNL A   1      27.761  30.080  21.679  1.00  0.00     0.169 HD
ENDBRANCH  19  24
ENDBRANCH  12  18
ENDBRANCH   9  11
ENDBRANCH   8   9
ENDBRANCH   7   8
ENDBRANCH   6   7
ENDBRANCH   5   6
ENDBRANCH   4   5
ENDBRANCH   3   4
ENDBRANCH   2   3
ENDBRANCH   1   2
BRANCH   1  29
ATOM     29  C   UNL A   1      40.084  21.846  26.073  1.00  0.00     0.188 C 
BRANCH  29  30
ATOM     30  O   UNL A   1      40.604  21.399  27.315  1.00  0.00    -0.376 OA
BRANCH  30  31
ATOM     31  C   UNL A   1      41.093  20.070  27.378  1.00  0.00     0.202 C 
BRANCH  31  32
ATOM     32  C   UNL A   1      41.713  19.467  26.108  1.00  0.00     0.261 C 
BRANCH  32  33
ATOM     33  O   UNL A   1      43.144  19.357  26.078  1.00  0.00    -0.460 OA
BRANCH  33  34
ATOM     34  C   UNL A   1      43.805  20.102  25.166  1.00  0.00     0.338 C 
ATOM     35  O   UNL A   1      44.245  19.725  24.093  1.00  0.00    -0.246 OA
BRANCH  34  36
ATOM     36  C   UNL A   1      43.741  21.507  25.617  1.00  0.00     0.060 A 
ATOM     37  C   UNL A   1      43.408  22.512  24.699  1.00  0.00     0.016 A 
ATOM     38  C   UNL A   1      44.000  21.824  26.953  1.00  0.00     0.016 A 
ATOM     39  C   UNL A   1      43.361  23.845  25.111  1.00  0.00     0.010 A 
ATOM     40  C   UNL A   1      43.975  23.162  27.358  1.00  0.00     0.010 A 
ATOM     41  C   UNL A   1      43.686  24.181  26.433  1.00  0.00    -0.014 A 
BRANCH  41  42
ATOM     42  C   UNL A   1      43.937  25.598  26.799  1.00  0.00     0.031 A 
ATOM     43  C   UNL A   1      45.323  26.145  26.591  1.00  0.00     0.074 A 
ATOM     44  C   UNL A   1      42.959  26.388  27.281  1.00  0.00     0.049 A 
ATOM     45  N   UNL A   1      45.817  27.310  26.916  1.00  0.00    -0.248 NA
ATOM     46  C   UNL A   1      46.282  25.248  25.924  1.00  0.00     0.031 C 
ATOM     47  C   UNL A   1      41.562  25.995  27.459  1.00  0.00     0.029 A 
ATOM     48  N   UNL A   1      42.999  27.691  27.712  1.00  0.00    -0.354 N 
ATOM     49  C   UNL A   1      47.141  27.291  26.486  1.00  0.00     0.074 A 
ATOM     50  C   UNL A   1      47.384  25.980  25.925  1.00  0.00     0.031 C 
ATOM     51  C   UNL A   1      40.880  27.034  27.973  1.00  0.00     0.029 A 
ATOM     52  C   UNL A   1      41.799  28.148  28.207  1.00  0.00     0.049 A 
ATOM     53  H   UNL A   1      43.811  28.246  27.672  1.00  0.00     0.167 HD
ATOM     54  C   UNL A   1      48.063  28.282  26.537  1.00  0.00     0.034 A 
ATOM     55  C   UNL A   1      41.492  29.318  28.807  1.00  0.00     0.034 A 
ATOM     56  C   UNL A   1      47.815  29.578  27.116  1.00  0.00     0.049 A 
ATOM     57  C   UNL A   1      42.580  30.360  28.977  1.00  0.00     0.074 A 
ATOM     58  C   UNL A   1      48.688  30.643  27.251  1.00  0.00     0.029 A 
ATOM     59  N   UNL A   1      46.604  29.985  27.660  1.00  0.00    -0.354 N 
ATOM     60  N   UNL A   1      43.834  30.323  28.584  1.00  0.00    -0.248 NA
ATOM     61  C   UNL A   1      42.209  31.604  29.667  1.00  0.00     0.031 C 
ATOM     62  C   UNL A   1      48.026  31.667  27.937  1.00  0.00     0.029 A 
ATOM     63  C   UNL A   1      46.715  31.275  28.153  1.00  0.00     0.049 A 
ATOM     64  H   UNL A   1      45.787  29.436  27.692  1.00  0.00     0.167 HD
ATOM     65  C   UNL A   1      44.380  31.559  28.934  1.00  0.00     0.074 A 
ATOM     66  C   UNL A   1      43.317  32.319  29.556  1.00  0.00     0.031 C 
ATOM     67  C   UNL A   1      45.641  32.026  28.757  1.00  0.00     0.034 A 
BRANCH  54  68
ATOM     68  C   UNL A   1      49.433  27.985  25.982  1.00  0.00     0.023 A 
ATOM     69  C   UNL A   1      49.757  28.264  24.642  1.00  0.00     0.031 A 
ATOM     70  C   UNL A   1      50.425  27.409  26.794  1.00  0.00     0.131 A 
ATOM     71  C   UNL A   1      51.019  27.913  24.140  1.00  0.00     0.055 A 
ATOM     72  C   UNL A   1      51.705  27.136  26.309  1.00  0.00     0.041 A 
ATOM     73  F   UNL A   1      50.163  27.096  28.073  1.00  0.00    -0.206 F 
ATOM     74  C   UNL A   1      52.005  27.378  24.973  1.00  0.00     0.022 A 
BRANCH  71  75
ATOM     75  S   UNL A   1      51.311  28.052  22.356  1.00  0.00     0.124 S 
ATOM     76  O   UNL A   1      51.038  26.687  21.908  1.00  0.00    -0.237 OA
ATOM     77  O   UNL A   1      50.340  29.061  21.954  1.00  0.00    -0.237 OA
ATOM     78  O   UNL A   1      52.711  28.461  22.269  1.00  0.00    -0.744 OA
ENDBRANCH  71  75
ENDBRANCH  54  68
BRANCH  55  79
ATOM     79  C   UNL A   1      40.122  29.577  29.344  1.00  0.00     0.023 A 
ATOM     80  C   UNL A   1      39.878  29.583  30.727  1.00  0.00     0.031 A 
ATOM     81  C   UNL A   1      39.015  29.701  28.485  1.00  0.00     0.131 A 
ATOM     82  C   UNL A   1      38.559  29.619  31.207  1.00  0.00     0.055 A 
ATOM     83  C   UNL A   1      37.710  29.816  28.969  1.00  0.00     0.041 A 
ATOM     84  F   UNL A   1      39.182  29.696  27.152  1.00  0.00    -0.206 F 
ATOM     85  C   UNL A   1      37.474  29.752  30.338  1.00  0.00     0.022 A 
BRANCH  82  86
ATOM     86  S   UNL A   1      38.276  29.324  32.975  1.00  0.00     0.124 S 
ATOM     87  O   UNL A   1      37.559  30.533  33.362  1.00  0.00    -0.237 OA
ATOM     88  O   UNL A   1      37.495  28.093  32.956  1.00  0.00    -0.237 OA
ATOM     89  O   UNL A   1      39.627  29.198  33.518  1.00  0.00    -0.744 OA
ENDBRANCH  82  86
ENDBRANCH  55  79
BRANCH  67  90
ATOM     90  C   UNL A   1      45.920  33.453  29.171  1.00  0.00     0.023 A 
ATOM     91  C   UNL A   1      45.565  34.547  28.363  1.00  0.00     0.031 A 
ATOM     92  C   UNL A   1      46.555  33.718  30.399  1.00  0.00     0.131 A 
ATOM     93  C   UNL A   1      45.900  35.850  28.763  1.00  0.00     0.055 A 
ATOM     94  C   UNL A   1      46.824  35.020  30.823  1.00  0.00     0.041 A 
ATOM     95  F   UNL A   1      46.919  32.714  31.212  1.00  0.00    -0.206 F 
ATOM     96  C   UNL A   1      46.509  36.094  29.997  1.00  0.00     0.022 A 
BRANCH  93  97
ATOM     97  S   UNL A   1      45.615  37.217  27.606  1.00  0.00     0.124 S 
ATOM     98  O   UNL A   1      44.264  36.936  27.131  1.00  0.00    -0.237 OA
ATOM     99  O   UNL A   1      45.757  38.389  28.464  1.00  0.00    -0.237 OA
ATOM    100  O   UNL A   1      46.671  37.048  26.609  1.00  0.00    -0.744 OA
ENDBRANCH  93  97
ENDBRANCH  67  90
ENDBRANCH  41  42
ENDBRANCH  34  36
ENDBRANCH  33  34
ENDBRANCH  32  33
ENDBRANCH  31  32
ENDBRANCH  30  31
ENDBRANCH  29  30
ENDBRANCH   1  29
TORSDOF 25
ENDMDL
