MODEL 1
REMARK VINA RESULT:      -7.2      0.000      0.000
REMARK SMILES CCCC(=O)/C(=C/NC(N)=O)C(=O)OCCOCCOCCOCCOC(=O)c1ccc(-c2c3nc(c(-c4cc(S(=O)(=O)[O-])ccc4F)c4ccc([nH]4)c(-c4cc(S(=O)(=O)[O-])ccc4F)c4nc(c(-c5cc(S(=O)(=O)[O-])ccc5F)c5ccc2[nH]5)C=C4)C=C3)cc1
REMARK SMILES IDX 20 1 19 2 18 3 17 4 16 5 15 6 14 7 12 8 13 9 6 10 7 11 4 12
REMARK SMILES IDX 5 13 3 14 2 15 1 16 8 17 9 18 10 20 11 21 21 24 22 25 23 26
REMARK SMILES IDX 24 27 25 28 26 29 27 30 28 31 29 32 30 33 91 34 31 35 90 36
REMARK SMILES IDX 32 37 33 38 34 39 84 40 35 41 89 42 83 43 85 44 36 45 88 46
REMARK SMILES IDX 82 47 81 48 37 50 69 51 49 52 68 53 50 54 53 55 67 56 86 57
REMARK SMILES IDX 51 58 52 59 66 61 87 62 54 63 38 64 39 65 47 66 40 67 46 68
REMARK SMILES IDX 48 69 45 70 41 71 42 72 43 73 44 74 70 75 71 76 79 77 72 78
REMARK SMILES IDX 78 79 80 80 77 81 73 82 74 83 75 84 76 85 55 86 56 87 64 88
REMARK SMILES IDX 57 89 63 90 65 91 62 92 58 93 59 94 60 95 61 96
REMARK H PARENT 8 19 10 22 10 23 85 49 53 60
REMARK Flexibility Score: inf
ROOT
ATOM      1  O   UNL A   1      41.634  21.953  26.970  1.00  0.00    -0.377 OA
ENDROOT
BRANCH   1   2
ATOM      2  C   UNL A   1      40.647  22.657  27.704  1.00  0.00     0.188 C 
BRANCH   2   3
ATOM      3  C   UNL A   1      39.448  23.123  26.862  1.00  0.00     0.188 C 
BRANCH   3   4
ATOM      4  O   UNL A   1      39.376  24.543  26.719  1.00  0.00    -0.376 OA
BRANCH   4   5
ATOM      5  C   UNL A   1      39.636  25.297  27.897  1.00  0.00     0.202 C 
BRANCH   5   6
ATOM      6  C   UNL A   1      39.747  26.813  27.693  1.00  0.00     0.261 C 
BRANCH   6   7
ATOM      7  O   UNL A   1      38.791  27.597  28.425  1.00  0.00    -0.460 OA
BRANCH   7   8
ATOM      8  C   UNL A   1      38.635  28.898  28.084  1.00  0.00     0.343 C 
ATOM      9  O   UNL A   1      39.286  29.490  27.237  1.00  0.00    -0.246 OA
BRANCH   8  10
ATOM     10  C   UNL A   1      37.511  29.490  28.859  1.00  0.00     0.119 C 
ATOM     11  C   UNL A   1      37.460  29.419  30.202  1.00  0.00     0.106 C 
BRANCH  10  12
ATOM     12  C   UNL A   1      36.353  30.077  28.104  1.00  0.00     0.171 C 
ATOM     13  O   UNL A   1      35.499  29.328  27.619  1.00  0.00    -0.294 OA
BRANCH  12  14
ATOM     14  C   UNL A   1      36.137  31.584  28.014  1.00  0.00     0.081 C 
BRANCH  14  15
ATOM     15  C   UNL A   1      34.757  32.038  28.502  1.00  0.00     0.005 C 
ATOM     16  C   UNL A   1      34.498  33.531  28.362  1.00  0.00     0.004 C 
ENDBRANCH  14  15
ENDBRANCH  12  14
ENDBRANCH  10  12
BRANCH  11  17
ATOM     17  N   UNL A   1      38.291  28.679  31.012  1.00  0.00    -0.314 N 
ATOM     18  C   UNL A   1      37.977  28.386  32.315  1.00  0.00     0.316 C 
ATOM     19  H   UNL A   1      39.141  28.347  30.643  1.00  0.00     0.171 HD
ATOM     20  N   UNL A   1      38.805  27.474  32.876  1.00  0.00    -0.351 N 
ATOM     21  O   UNL A   1      37.034  28.864  32.935  1.00  0.00    -0.249 OA
ATOM     22  H   UNL A   1      39.555  27.104  32.357  1.00  0.00     0.161 HD
ATOM     23  H   UNL A   1      38.656  27.179  33.804  1.00  0.00     0.161 HD
ENDBRANCH  11  17
ENDBRANCH   8  10
ENDBRANCH   7   8
ENDBRANCH   6   7
ENDBRANCH   5   6
ENDBRANCH   4   5
ENDBRANCH   3   4
ENDBRANCH   2   3
ENDBRANCH   1   2
BRANCH   1  24
ATOM     24  C   UNL A   1      42.192  22.578  25.814  1.00  0.00     0.188 C 
BRANCH  24  25
ATOM     25  C   UNL A   1      43.529  22.112  25.195  1.00  0.00     0.188 C 
BRANCH  25  26
ATOM     26  O   UNL A   1      44.677  22.405  25.990  1.00  0.00    -0.376 OA
BRANCH  26  27
ATOM     27  C   UNL A   1      45.567  23.388  25.477  1.00  0.00     0.202 C 
BRANCH  27  28
ATOM     28  C   UNL A   1      44.866  24.670  25.014  1.00  0.00     0.261 C 
BRANCH  28  29
ATOM     29  O   UNL A   1      44.259  25.441  26.062  1.00  0.00    -0.460 OA
BRANCH  29  30
ATOM     30  C   UNL A   1      43.253  26.277  25.721  1.00  0.00     0.338 C 
ATOM     31  O   UNL A   1      42.317  26.040  24.979  1.00  0.00    -0.246 OA
BRANCH  30  32
ATOM     32  C   UNL A   1      43.385  27.480  26.565  1.00  0.00     0.060 A 
ATOM     33  C   UNL A   1      42.733  28.660  26.184  1.00  0.00     0.016 A 
ATOM     34  C   UNL A   1      44.118  27.421  27.753  1.00  0.00     0.016 A 
ATOM     35  C   UNL A   1      42.817  29.792  26.998  1.00  0.00     0.010 A 
ATOM     36  C   UNL A   1      44.217  28.559  28.552  1.00  0.00     0.010 A 
ATOM     37  C   UNL A   1      43.579  29.753  28.174  1.00  0.00    -0.014 A 
BRANCH  37  38
ATOM     38  C   UNL A   1      43.833  30.983  28.958  1.00  0.00     0.031 A 
ATOM     39  C   UNL A   1      42.899  31.321  30.085  1.00  0.00     0.074 A 
ATOM     40  C   UNL A   1      44.844  31.810  28.638  1.00  0.00     0.049 A 
ATOM     41  N   UNL A   1      42.839  32.401  30.818  1.00  0.00    -0.248 NA
ATOM     42  C   UNL A   1      41.894  30.302  30.422  1.00  0.00     0.031 C 
ATOM     43  C   UNL A   1      45.837  31.565  27.592  1.00  0.00     0.029 A 
ATOM     44  N   UNL A   1      45.187  33.038  29.147  1.00  0.00    -0.354 N 
ATOM     45  C   UNL A   1      41.788  32.195  31.705  1.00  0.00     0.074 A 
ATOM     46  C   UNL A   1      41.223  30.899  31.395  1.00  0.00     0.031 C 
ATOM     47  C   UNL A   1      46.662  32.625  27.520  1.00  0.00     0.029 A 
ATOM     48  C   UNL A   1      46.227  33.641  28.479  1.00  0.00     0.049 A 
ATOM     49  H   UNL A   1      44.731  33.448  29.917  1.00  0.00     0.167 HD
ATOM     50  C   UNL A   1      41.339  33.014  32.687  1.00  0.00     0.034 A 
ATOM     51  C   UNL A   1      46.738  34.883  28.599  1.00  0.00     0.034 A 
ATOM     52  C   UNL A   1      41.896  34.314  32.963  1.00  0.00     0.049 A 
ATOM     53  C   UNL A   1      46.143  35.825  29.620  1.00  0.00     0.074 A 
ATOM     54  C   UNL A   1      41.538  35.213  33.952  1.00  0.00     0.029 A 
ATOM     55  N   UNL A   1      42.912  34.914  32.231  1.00  0.00    -0.354 N 
ATOM     56  N   UNL A   1      45.164  35.612  30.470  1.00  0.00    -0.248 NA
ATOM     57  C   UNL A   1      46.716  37.176  29.692  1.00  0.00     0.031 C 
ATOM     58  C   UNL A   1      42.282  36.384  33.771  1.00  0.00     0.029 A 
ATOM     59  C   UNL A   1      43.160  36.190  32.714  1.00  0.00     0.049 A 
ATOM     60  H   UNL A   1      43.388  34.495  31.477  1.00  0.00     0.167 HD
ATOM     61  C   UNL A   1      45.022  36.796  31.191  1.00  0.00     0.074 A 
ATOM     62  C   UNL A   1      46.023  37.712  30.686  1.00  0.00     0.031 C 
ATOM     63  C   UNL A   1      44.146  37.100  32.183  1.00  0.00     0.034 A 
BRANCH  50  64
ATOM     64  C   UNL A   1      40.153  32.542  33.488  1.00  0.00     0.023 A 
ATOM     65  C   UNL A   1      38.836  32.879  33.128  1.00  0.00     0.031 A 
ATOM     66  C   UNL A   1      40.343  31.770  34.647  1.00  0.00     0.131 A 
ATOM     67  C   UNL A   1      37.767  32.500  33.953  1.00  0.00     0.055 A 
ATOM     68  C   UNL A   1      39.269  31.334  35.425  1.00  0.00     0.041 A 
ATOM     69  F   UNL A   1      41.580  31.439  35.052  1.00  0.00    -0.206 F 
ATOM     70  C   UNL A   1      37.973  31.711  35.087  1.00  0.00     0.022 A 
BRANCH  67  71
ATOM     71  S   UNL A   1      36.120  33.169  33.598  1.00  0.00     0.124 S 
ATOM     72  O   UNL A   1      35.613  33.438  34.942  1.00  0.00    -0.237 OA
ATOM     73  O   UNL A   1      36.423  34.339  32.783  1.00  0.00    -0.237 OA
ATOM     74  O   UNL A   1      35.451  32.075  32.896  1.00  0.00    -0.744 OA
ENDBRANCH  67  71
ENDBRANCH  50  64
BRANCH  51  75
ATOM     75  C   UNL A   1      47.826  35.346  27.690  1.00  0.00     0.023 A 
ATOM     76  C   UNL A   1      49.173  35.064  27.968  1.00  0.00     0.031 A 
ATOM     77  C   UNL A   1      47.538  36.135  26.560  1.00  0.00     0.131 A 
ATOM     78  C   UNL A   1      50.183  35.604  27.156  1.00  0.00     0.055 A 
ATOM     79  C   UNL A   1      48.543  36.629  25.728  1.00  0.00     0.041 A 
ATOM     80  F   UNL A   1      46.267  36.431  26.246  1.00  0.00    -0.206 F 
ATOM     81  C   UNL A   1      49.876  36.374  26.031  1.00  0.00     0.022 A 
BRANCH  78  82
ATOM     82  S   UNL A   1      51.913  35.349  27.636  1.00  0.00     0.124 S 
ATOM     83  O   UNL A   1      51.781  34.369  28.708  1.00  0.00    -0.237 OA
ATOM     84  O   UNL A   1      52.501  34.866  26.391  1.00  0.00    -0.237 OA
ATOM     85  O   UNL A   1      52.349  36.679  28.054  1.00  0.00    -0.744 OA
ENDBRANCH  78  82
ENDBRANCH  51  75
BRANCH  63  86
ATOM     86  C   UNL A   1      44.253  38.473  32.801  1.00  0.00     0.023 A 
ATOM     87  C   UNL A   1      43.420  39.530  32.396  1.00  0.00     0.031 A 
ATOM     88  C   UNL A   1      45.198  38.724  33.813  1.00  0.00     0.131 A 
ATOM     89  C   UNL A   1      43.576  40.802  32.970  1.00  0.00     0.055 A 
ATOM     90  C   UNL A   1      45.311  39.976  34.418  1.00  0.00     0.041 A 
ATOM     91  F   UNL A   1      46.020  37.750  34.235  1.00  0.00    -0.206 F 
ATOM     92  C   UNL A   1      44.504  41.026  33.991  1.00  0.00     0.022 A 
BRANCH  89  93
ATOM     93  S   UNL A   1      42.596  42.180  32.316  1.00  0.00     0.124 S 
ATOM     94  O   UNL A   1      41.521  41.483  31.616  1.00  0.00    -0.237 OA
ATOM     95  O   UNL A   1      42.209  42.893  33.529  1.00  0.00    -0.237 OA
ATOM     96  O   UNL A   1      43.538  42.892  31.454  1.00  0.00    -0.744 OA
ENDBRANCH  89  93
ENDBRANCH  63  86
ENDBRANCH  37  38
ENDBRANCH  30  32
ENDBRANCH  29  30
ENDBRANCH  28  29
ENDBRANCH  27  28
ENDBRANCH  26  27
ENDBRANCH  25  26
ENDBRANCH  24  25
ENDBRANCH   1  24
TORSDOF 27
ENDMDL
MODEL 2
REMARK VINA RESULT:      -7.0      3.566      4.608
REMARK SMILES CCCC(=O)/C(=C/NC(N)=O)C(=O)OCCOCCOCCOCCOC(=O)c1ccc(-c2c3nc(c(-c4cc(S(=O)(=O)[O-])ccc4F)c4ccc([nH]4)c(-c4cc(S(=O)(=O)[O-])ccc4F)c4nc(c(-c5cc(S(=O)(=O)[O-])ccc5F)c5ccc2[nH]5)C=C4)C=C3)cc1
REMARK SMILES IDX 20 1 19 2 18 3 17 4 16 5 15 6 14 7 12 8 13 9 6 10 7 11 4 12
REMARK SMILES IDX 5 13 3 14 2 15 1 16 8 17 9 18 10 20 11 21 21 24 22 25 23 26
REMARK SMILES IDX 24 27 25 28 26 29 27 30 28 31 29 32 30 33 91 34 31 35 90 36
REMARK SMILES IDX 32 37 33 38 34 39 84 40 35 41 89 42 83 43 85 44 36 45 88 46
REMARK SMILES IDX 82 47 81 48 37 50 69 51 49 52 68 53 50 54 53 55 67 56 86 57
REMARK SMILES IDX 51 58 52 59 66 61 87 62 54 63 38 64 39 65 47 66 40 67 46 68
REMARK SMILES IDX 48 69 45 70 41 71 42 72 43 73 44 74 70 75 71 76 79 77 72 78
REMARK SMILES IDX 78 79 80 80 77 81 73 82 74 83 75 84 76 85 55 86 56 87 64 88
REMARK SMILES IDX 57 89 63 90 65 91 62 92 58 93 59 94 60 95 61 96
REMARK H PARENT 8 19 10 22 10 23 85 49 53 60
REMARK Flexibility Score: inf
ROOT
ATOM      1  O   UNL A   1      41.722  22.346  27.160  1.00  0.00    -0.377 OA
ENDROOT
BRANCH   1   2
ATOM      2  C   UNL A   1      40.314  22.246  27.279  1.00  0.00     0.188 C 
BRANCH   2   3
ATOM      3  C   UNL A   1      39.638  21.477  26.132  1.00  0.00     0.188 C 
BRANCH   3   4
ATOM      4  O   UNL A   1      38.363  22.011  25.768  1.00  0.00    -0.376 OA
BRANCH   4   5
ATOM      5  C   UNL A   1      37.562  21.184  24.932  1.00  0.00     0.202 C 
BRANCH   5   6
ATOM      6  C   UNL A   1      36.107  21.011  25.384  1.00  0.00     0.261 C 
BRANCH   6   7
ATOM      7  O   UNL A   1      35.121  21.264  24.369  1.00  0.00    -0.460 OA
BRANCH   7   8
ATOM      8  C   UNL A   1      33.882  21.644  24.763  1.00  0.00     0.343 C 
ATOM      9  O   UNL A   1      33.544  21.871  25.913  1.00  0.00    -0.246 OA
BRANCH   8  10
ATOM     10  C   UNL A   1      33.001  21.795  23.572  1.00  0.00     0.119 C 
ATOM     11  C   UNL A   1      32.183  20.808  23.165  1.00  0.00     0.106 C 
BRANCH  10  12
ATOM     12  C   UNL A   1      33.125  23.044  22.747  1.00  0.00     0.171 C 
ATOM     13  O   UNL A   1      33.472  22.961  21.565  1.00  0.00    -0.294 OA
BRANCH  12  14
ATOM     14  C   UNL A   1      32.722  24.409  23.295  1.00  0.00     0.081 C 
BRANCH  14  15
ATOM     15  C   UNL A   1      33.888  25.199  23.898  1.00  0.00     0.005 C 
ATOM     16  C   UNL A   1      33.703  25.582  25.360  1.00  0.00     0.004 C 
ENDBRANCH  14  15
ENDBRANCH  12  14
ENDBRANCH  10  12
BRANCH  11  17
ATOM     17  N   UNL A   1      32.160  19.518  23.642  1.00  0.00    -0.314 N 
ATOM     18  C   UNL A   1      32.389  18.432  22.836  1.00  0.00     0.316 C 
ATOM     19  H   UNL A   1      31.973  19.368  24.597  1.00  0.00     0.171 HD
ATOM     20  N   UNL A   1      32.540  17.274  23.522  1.00  0.00    -0.351 N 
ATOM     21  O   UNL A   1      32.478  18.470  21.615  1.00  0.00    -0.249 OA
ATOM     22  H   UNL A   1      32.465  17.270  24.503  1.00  0.00     0.161 HD
ATOM     23  H   UNL A   1      32.727  16.437  23.039  1.00  0.00     0.161 HD
ENDBRANCH  11  17
ENDBRANCH   8  10
ENDBRANCH   7   8
ENDBRANCH   6   7
ENDBRANCH   5   6
ENDBRANCH   4   5
ENDBRANCH   3   4
ENDBRANCH   2   3
ENDBRANCH   1   2
BRANCH   1  24
ATOM     24  C   UNL A   1      42.258  23.167  26.123  1.00  0.00     0.188 C 
BRANCH  24  25
ATOM     25  C   UNL A   1      43.447  22.711  25.246  1.00  0.00     0.188 C 
BRANCH  25  26
ATOM     26  O   UNL A   1      44.706  22.720  25.916  1.00  0.00    -0.376 OA
BRANCH  26  27
ATOM     27  C   UNL A   1      45.637  23.710  25.498  1.00  0.00     0.202 C 
BRANCH  27  28
ATOM     28  C   UNL A   1      44.979  24.996  24.986  1.00  0.00     0.261 C 
BRANCH  28  29
ATOM     29  O   UNL A   1      44.515  25.889  26.011  1.00  0.00    -0.460 OA
BRANCH  29  30
ATOM     30  C   UNL A   1      43.490  26.715  25.704  1.00  0.00     0.338 C 
ATOM     31  O   UNL A   1      42.550  26.481  24.965  1.00  0.00    -0.246 OA
BRANCH  30  32
ATOM     32  C   UNL A   1      43.608  27.895  26.581  1.00  0.00     0.060 A 
ATOM     33  C   UNL A   1      42.809  29.019  26.329  1.00  0.00     0.016 A 
ATOM     34  C   UNL A   1      44.477  27.868  27.673  1.00  0.00     0.016 A 
ATOM     35  C   UNL A   1      42.883  30.126  27.178  1.00  0.00     0.010 A 
ATOM     36  C   UNL A   1      44.564  28.983  28.506  1.00  0.00     0.010 A 
ATOM     37  C   UNL A   1      43.777  30.121  28.257  1.00  0.00    -0.014 A 
BRANCH  37  38
ATOM     38  C   UNL A   1      44.007  31.343  29.061  1.00  0.00     0.031 A 
ATOM     39  C   UNL A   1      43.105  31.611  30.232  1.00  0.00     0.074 A 
ATOM     40  C   UNL A   1      44.966  32.223  28.723  1.00  0.00     0.049 A 
ATOM     41  N   UNL A   1      43.025  32.670  30.994  1.00  0.00    -0.248 NA
ATOM     42  C   UNL A   1      42.161  30.539  30.582  1.00  0.00     0.031 C 
ATOM     43  C   UNL A   1      45.926  32.049  27.633  1.00  0.00     0.029 A 
ATOM     44  N   UNL A   1      45.273  33.453  29.249  1.00  0.00    -0.354 N 
ATOM     45  C   UNL A   1      42.021  32.395  31.915  1.00  0.00     0.074 A 
ATOM     46  C   UNL A   1      41.504  31.081  31.596  1.00  0.00     0.031 C 
ATOM     47  C   UNL A   1      46.699  33.147  27.555  1.00  0.00     0.029 A 
ATOM     48  C   UNL A   1      46.257  34.119  28.556  1.00  0.00     0.049 A 
ATOM     49  H   UNL A   1      44.830  33.824  30.046  1.00  0.00     0.167 HD
ATOM     50  C   UNL A   1      41.576  33.169  32.934  1.00  0.00     0.034 A 
ATOM     51  C   UNL A   1      46.716  35.380  28.687  1.00  0.00     0.034 A 
ATOM     52  C   UNL A   1      42.083  34.487  33.221  1.00  0.00     0.049 A 
ATOM     53  C   UNL A   1      46.120  36.270  29.754  1.00  0.00     0.074 A 
ATOM     54  C   UNL A   1      41.725  35.345  34.246  1.00  0.00     0.029 A 
ATOM     55  N   UNL A   1      43.041  35.150  32.466  1.00  0.00    -0.354 N 
ATOM     56  N   UNL A   1      45.187  35.992  30.636  1.00  0.00    -0.248 NA
ATOM     57  C   UNL A   1      46.634  37.644  29.837  1.00  0.00     0.031 C 
ATOM     58  C   UNL A   1      42.407  36.553  34.065  1.00  0.00     0.029 A 
ATOM     59  C   UNL A   1      43.250  36.424  32.971  1.00  0.00     0.049 A 
ATOM     60  H   UNL A   1      43.505  34.771  31.683  1.00  0.00     0.167 HD
ATOM     61  C   UNL A   1      45.020  37.151  31.391  1.00  0.00     0.074 A 
ATOM     62  C   UNL A   1      45.958  38.124  30.871  1.00  0.00     0.031 C 
ATOM     63  C   UNL A   1      44.172  37.391  32.424  1.00  0.00     0.034 A 
BRANCH  50  64
ATOM     64  C   UNL A   1      40.445  32.624  33.769  1.00  0.00     0.023 A 
ATOM     65  C   UNL A   1      39.124  33.081  33.614  1.00  0.00     0.031 A 
ATOM     66  C   UNL A   1      40.696  31.655  34.756  1.00  0.00     0.131 A 
ATOM     67  C   UNL A   1      38.119  32.619  34.476  1.00  0.00     0.055 A 
ATOM     68  C   UNL A   1      39.678  31.144  35.562  1.00  0.00     0.041 A 
ATOM     69  F   UNL A   1      41.942  31.200  34.964  1.00  0.00    -0.206 F 
ATOM     70  C   UNL A   1      38.382  31.636  35.433  1.00  0.00     0.022 A 
BRANCH  67  71
ATOM     71  S   UNL A   1      36.492  33.417  34.416  1.00  0.00     0.124 S 
ATOM     72  O   UNL A   1      36.828  34.731  33.871  1.00  0.00    -0.237 OA
ATOM     73  O   UNL A   1      35.738  32.534  33.535  1.00  0.00    -0.237 OA
ATOM     74  O   UNL A   1      36.062  33.423  35.813  1.00  0.00    -0.744 OA
ENDBRANCH  67  71
ENDBRANCH  50  64
BRANCH  51  75
ATOM     75  C   UNL A   1      47.744  35.915  27.748  1.00  0.00     0.023 A 
ATOM     76  C   UNL A   1      49.114  35.794  28.028  1.00  0.00     0.031 A 
ATOM     77  C   UNL A   1      47.369  36.613  26.586  1.00  0.00     0.131 A 
ATOM     78  C   UNL A   1      50.057  36.400  27.183  1.00  0.00     0.055 A 
ATOM     79  C   UNL A   1      48.312  37.173  25.722  1.00  0.00     0.041 A 
ATOM     80  F   UNL A   1      46.073  36.755  26.268  1.00  0.00    -0.206 F 
ATOM     81  C   UNL A   1      49.666  37.078  26.026  1.00  0.00     0.022 A 
BRANCH  78  82
ATOM     82  S   UNL A   1      51.806  36.357  27.661  1.00  0.00     0.124 S 
ATOM     83  O   UNL A   1      51.838  37.318  28.756  1.00  0.00    -0.237 OA
ATOM     84  O   UNL A   1      51.981  34.956  28.030  1.00  0.00    -0.237 OA
ATOM     85  O   UNL A   1      52.501  36.769  26.444  1.00  0.00    -0.744 OA
ENDBRANCH  78  82
ENDBRANCH  51  75
BRANCH  63  86
ATOM     86  C   UNL A   1      44.241  38.752  33.072  1.00  0.00     0.023 A 
ATOM     87  C   UNL A   1      43.406  39.806  32.663  1.00  0.00     0.031 A 
ATOM     88  C   UNL A   1      45.151  38.996  34.117  1.00  0.00     0.131 A 
ATOM     89  C   UNL A   1      43.528  41.069  33.266  1.00  0.00     0.055 A 
ATOM     90  C   UNL A   1      45.229  40.237  34.750  1.00  0.00     0.041 A 
ATOM     91  F   UNL A   1      45.974  38.024  34.545  1.00  0.00    -0.206 F 
ATOM     92  C   UNL A   1      44.421  41.285  34.319  1.00  0.00     0.022 A 
BRANCH  89  93
ATOM     93  S   UNL A   1      42.549  42.447  32.609  1.00  0.00     0.124 S 
ATOM     94  O   UNL A   1      41.521  41.750  31.842  1.00  0.00    -0.237 OA
ATOM     95  O   UNL A   1      42.093  43.115  33.824  1.00  0.00    -0.237 OA
ATOM     96  O   UNL A   1      43.513  43.203  31.812  1.00  0.00    -0.744 OA
ENDBRANCH  89  93
ENDBRANCH  63  86
ENDBRANCH  37  38
ENDBRANCH  30  32
ENDBRANCH  29  30
ENDBRANCH  28  29
ENDBRANCH  27  28
ENDBRANCH  26  27
ENDBRANCH  25  26
ENDBRANCH  24  25
ENDBRANCH   1  24
TORSDOF 27
ENDMDL
MODEL 3
REMARK VINA RESULT:      -6.9      6.922     12.221
REMARK SMILES CCCC(=O)/C(=C/NC(N)=O)C(=O)OCCOCCOCCOCCOC(=O)c1ccc(-c2c3nc(c(-c4cc(S(=O)(=O)[O-])ccc4F)c4ccc([nH]4)c(-c4cc(S(=O)(=O)[O-])ccc4F)c4nc(c(-c5cc(S(=O)(=O)[O-])ccc5F)c5ccc2[nH]5)C=C4)C=C3)cc1
REMARK SMILES IDX 20 1 19 2 18 3 17 4 16 5 15 6 14 7 12 8 13 9 6 10 7 11 4 12
REMARK SMILES IDX 5 13 3 14 2 15 1 16 8 17 9 18 10 20 11 21 21 24 22 25 23 26
REMARK SMILES IDX 24 27 25 28 26 29 27 30 28 31 29 32 30 33 91 34 31 35 90 36
REMARK SMILES IDX 32 37 33 38 34 39 84 40 35 41 89 42 83 43 85 44 36 45 88 46
REMARK SMILES IDX 82 47 81 48 37 50 69 51 49 52 68 53 50 54 53 55 67 56 86 57
REMARK SMILES IDX 51 58 52 59 66 61 87 62 54 63 38 64 39 65 47 66 40 67 46 68
REMARK SMILES IDX 48 69 45 70 41 71 42 72 43 73 44 74 70 75 71 76 79 77 72 78
REMARK SMILES IDX 78 79 80 80 77 81 73 82 74 83 75 84 76 85 55 86 56 87 64 88
REMARK SMILES IDX 57 89 63 90 65 91 62 92 58 93 59 94 60 95 61 96
REMARK H PARENT 8 19 10 22 10 23 85 49 53 60
REMARK Flexibility Score: inf
ROOT
ATOM      1  O   UNL A   1      33.527  29.897  27.456  1.00  0.00    -0.377 OA
ENDROOT
BRANCH   1   2
ATOM      2  C   UNL A   1      32.848  29.431  26.302  1.00  0.00     0.188 C 
BRANCH   2   3
ATOM      3  C   UNL A   1      33.719  28.588  25.356  1.00  0.00     0.188 C 
BRANCH   3   4
ATOM      4  O   UNL A   1      33.948  27.260  25.833  1.00  0.00    -0.376 OA
BRANCH   4   5
ATOM      5  C   UNL A   1      32.797  26.429  25.924  1.00  0.00     0.202 C 
BRANCH   5   6
ATOM      6  C   UNL A   1      32.784  25.221  24.979  1.00  0.00     0.261 C 
BRANCH   6   7
ATOM      7  O   UNL A   1      33.808  24.243  25.228  1.00  0.00    -0.460 OA
BRANCH   7   8
ATOM      8  C   UNL A   1      33.896  23.184  24.390  1.00  0.00     0.343 C 
ATOM      9  O   UNL A   1      34.063  23.248  23.183  1.00  0.00    -0.246 OA
BRANCH   8  10
ATOM     10  C   UNL A   1      33.813  21.918  25.170  1.00  0.00     0.119 C 
ATOM     11  C   UNL A   1      34.794  21.534  26.006  1.00  0.00     0.106 C 
BRANCH  10  12
ATOM     12  C   UNL A   1      32.651  21.000  24.918  1.00  0.00     0.171 C 
ATOM     13  O   UNL A   1      31.635  21.099  25.613  1.00  0.00    -0.294 OA
BRANCH  12  14
ATOM     14  C   UNL A   1      32.642  20.023  23.748  1.00  0.00     0.081 C 
BRANCH  14  15
ATOM     15  C   UNL A   1      32.662  18.551  24.176  1.00  0.00     0.005 C 
ATOM     16  C   UNL A   1      34.044  17.914  24.183  1.00  0.00     0.004 C 
ENDBRANCH  14  15
ENDBRANCH  12  14
ENDBRANCH  10  12
BRANCH  11  17
ATOM     17  N   UNL A   1      36.033  22.118  26.134  1.00  0.00    -0.314 N 
ATOM     18  C   UNL A   1      37.125  21.688  25.424  1.00  0.00     0.316 C 
ATOM     19  H   UNL A   1      36.140  22.873  26.757  1.00  0.00     0.171 HD
ATOM     20  N   UNL A   1      38.191  22.518  25.518  1.00  0.00    -0.351 N 
ATOM     21  O   UNL A   1      37.163  20.672  24.739  1.00  0.00    -0.249 OA
ATOM     22  H   UNL A   1      38.136  23.329  26.074  1.00  0.00     0.161 HD
ATOM     23  H   UNL A   1      39.021  22.311  25.031  1.00  0.00     0.161 HD
ENDBRANCH  11  17
ENDBRANCH   8  10
ENDBRANCH   7   8
ENDBRANCH   6   7
ENDBRANCH   5   6
ENDBRANCH   4   5
ENDBRANCH   3   4
ENDBRANCH   2   3
ENDBRANCH   1   2
BRANCH   1  24
ATOM     24  C   UNL A   1      34.591  30.832  27.284  1.00  0.00     0.188 C 
BRANCH  24  25
ATOM     25  C   UNL A   1      35.363  31.426  28.484  1.00  0.00     0.188 C 
BRANCH  25  26
ATOM     26  O   UNL A   1      34.530  31.945  29.518  1.00  0.00    -0.376 OA
BRANCH  26  27
ATOM     27  C   UNL A   1      35.171  32.736  30.510  1.00  0.00     0.202 C 
BRANCH  27  28
ATOM     28  C   UNL A   1      36.648  32.383  30.717  1.00  0.00     0.261 C 
BRANCH  28  29
ATOM     29  O   UNL A   1      36.921  31.559  31.861  1.00  0.00    -0.460 OA
BRANCH  29  30
ATOM     30  C   UNL A   1      37.052  30.230  31.658  1.00  0.00     0.338 C 
ATOM     31  O   UNL A   1      36.198  29.455  31.265  1.00  0.00    -0.246 OA
BRANCH  30  32
ATOM     32  C   UNL A   1      38.483  29.907  31.817  1.00  0.00     0.060 A 
ATOM     33  C   UNL A   1      39.445  30.825  31.378  1.00  0.00     0.016 A 
ATOM     34  C   UNL A   1      38.864  28.716  32.440  1.00  0.00     0.016 A 
ATOM     35  C   UNL A   1      40.802  30.547  31.561  1.00  0.00     0.010 A 
ATOM     36  C   UNL A   1      40.219  28.433  32.602  1.00  0.00     0.010 A 
ATOM     37  C   UNL A   1      41.195  29.340  32.154  1.00  0.00    -0.014 A 
BRANCH  37  38
ATOM     38  C   UNL A   1      42.620  28.940  32.197  1.00  0.00     0.031 A 
ATOM     39  C   UNL A   1      43.199  28.220  31.013  1.00  0.00     0.074 A 
ATOM     40  C   UNL A   1      43.368  29.166  33.291  1.00  0.00     0.049 A 
ATOM     41  N   UNL A   1      44.370  27.657  30.874  1.00  0.00    -0.248 NA
ATOM     42  C   UNL A   1      42.332  28.117  29.829  1.00  0.00     0.031 C 
ATOM     43  C   UNL A   1      42.926  29.891  34.482  1.00  0.00     0.029 A 
ATOM     44  N   UNL A   1      44.654  28.785  33.587  1.00  0.00    -0.354 N 
ATOM     45  C   UNL A   1      44.384  27.129  29.588  1.00  0.00     0.074 A 
ATOM     46  C   UNL A   1      43.092  27.416  29.001  1.00  0.00     0.031 C 
ATOM     47  C   UNL A   1      43.917  29.878  35.391  1.00  0.00     0.029 A 
ATOM     48  C   UNL A   1      45.044  29.105  34.866  1.00  0.00     0.049 A 
ATOM     49  H   UNL A   1      45.241  28.326  32.944  1.00  0.00     0.167 HD
ATOM     50  C   UNL A   1      45.384  26.469  28.957  1.00  0.00     0.034 A 
ATOM     51  C   UNL A   1      46.160  28.775  35.547  1.00  0.00     0.034 A 
ATOM     52  C   UNL A   1      46.655  26.167  29.566  1.00  0.00     0.049 A 
ATOM     53  C   UNL A   1      47.213  27.932  34.864  1.00  0.00     0.074 A 
ATOM     54  C   UNL A   1      47.749  25.529  29.008  1.00  0.00     0.029 A 
ATOM     55  N   UNL A   1      46.994  26.458  30.881  1.00  0.00    -0.354 N 
ATOM     56  N   UNL A   1      47.226  27.459  33.639  1.00  0.00    -0.248 NA
ATOM     57  C   UNL A   1      48.396  27.576  35.658  1.00  0.00     0.031 C 
ATOM     58  C   UNL A   1      48.717  25.367  30.006  1.00  0.00     0.029 A 
ATOM     59  C   UNL A   1      48.259  25.970  31.168  1.00  0.00     0.049 A 
ATOM     60  H   UNL A   1      46.418  26.941  31.519  1.00  0.00     0.167 HD
ATOM     61  C   UNL A   1      48.429  26.767  33.511  1.00  0.00     0.074 A 
ATOM     62  C   UNL A   1      49.119  26.898  34.778  1.00  0.00     0.031 C 
ATOM     63  C   UNL A   1      48.922  26.088  32.444  1.00  0.00     0.034 A 
BRANCH  50  64
ATOM     64  C   UNL A   1      45.112  25.981  27.557  1.00  0.00     0.023 A 
ATOM     65  C   UNL A   1      44.600  24.695  27.308  1.00  0.00     0.031 A 
ATOM     66  C   UNL A   1      45.396  26.803  26.453  1.00  0.00     0.131 A 
ATOM     67  C   UNL A   1      44.451  24.245  25.988  1.00  0.00     0.055 A 
ATOM     68  C   UNL A   1      45.177  26.376  25.142  1.00  0.00     0.041 A 
ATOM     69  F   UNL A   1      45.909  28.031  26.630  1.00  0.00    -0.206 F 
ATOM     70  C   UNL A   1      44.715  25.086  24.903  1.00  0.00     0.022 A 
BRANCH  67  71
ATOM     71  S   UNL A   1      44.038  22.502  25.708  1.00  0.00     0.124 S 
ATOM     72  O   UNL A   1      43.487  22.542  24.355  1.00  0.00    -0.237 OA
ATOM     73  O   UNL A   1      45.330  21.844  25.852  1.00  0.00    -0.237 OA
ATOM     74  O   UNL A   1      43.066  22.208  26.760  1.00  0.00    -0.744 OA
ENDBRANCH  67  71
ENDBRANCH  50  64
BRANCH  51  75
ATOM     75  C   UNL A   1      46.322  29.171  36.976  1.00  0.00     0.023 A 
ATOM     76  C   UNL A   1      45.898  28.328  38.015  1.00  0.00     0.031 A 
ATOM     77  C   UNL A   1      46.845  30.430  37.322  1.00  0.00     0.131 A 
ATOM     78  C   UNL A   1      45.962  28.770  39.345  1.00  0.00     0.055 A 
ATOM     79  C   UNL A   1      46.953  30.847  38.650  1.00  0.00     0.041 A 
ATOM     80  F   UNL A   1      47.270  31.275  36.369  1.00  0.00    -0.206 F 
ATOM     81  C   UNL A   1      46.498  30.019  39.671  1.00  0.00     0.022 A 
BRANCH  78  82
ATOM     82  S   UNL A   1      45.261  27.718  40.646  1.00  0.00     0.124 S 
ATOM     83  O   UNL A   1      44.410  26.820  39.874  1.00  0.00    -0.237 OA
ATOM     84  O   UNL A   1      46.460  27.125  41.229  1.00  0.00    -0.237 OA
ATOM     85  O   UNL A   1      44.556  28.665  41.506  1.00  0.00    -0.744 OA
ENDBRANCH  78  82
ENDBRANCH  51  75
BRANCH  63  86
ATOM     86  C   UNL A   1      50.285  25.457  32.598  1.00  0.00     0.023 A 
ATOM     87  C   UNL A   1      50.435  24.090  32.892  1.00  0.00     0.031 A 
ATOM     88  C   UNL A   1      51.448  26.232  32.443  1.00  0.00     0.131 A 
ATOM     89  C   UNL A   1      51.719  23.549  33.065  1.00  0.00     0.055 A 
ATOM     90  C   UNL A   1      52.723  25.677  32.561  1.00  0.00     0.041 A 
ATOM     91  F   UNL A   1      51.362  27.543  32.164  1.00  0.00    -0.206 F 
ATOM     92  C   UNL A   1      52.864  24.331  32.883  1.00  0.00     0.022 A 
BRANCH  89  93
ATOM     93  S   UNL A   1      51.875  21.823  33.598  1.00  0.00     0.124 S 
ATOM     94  O   UNL A   1      50.690  21.214  33.001  1.00  0.00    -0.237 OA
ATOM     95  O   UNL A   1      53.154  21.430  33.018  1.00  0.00    -0.237 OA
ATOM     96  O   UNL A   1      51.858  21.912  35.057  1.00  0.00    -0.744 OA
ENDBRANCH  89  93
ENDBRANCH  63  86
ENDBRANCH  37  38
ENDBRANCH  30  32
ENDBRANCH  29  30
ENDBRANCH  28  29
ENDBRANCH  27  28
ENDBRANCH  26  27
ENDBRANCH  25  26
ENDBRANCH  24  25
ENDBRANCH   1  24
TORSDOF 27
ENDMDL
