MODEL 1
REMARK VINA RESULT:     -10.5      0.000      0.000
REMARK SMILES O=C(OCCOCCOCCOCCOC(=O)[C@@H]1CCCN(c2ccc3cc(S(=O)(=O)N4CCCCC4)ccc3n2)C1)c1ccc(-c2c3nc(c(-c4cc(S(=O)(=O)[O-])ccc4F)c4ccc([nH]4)c(-c4cc(S(=O)(=O)[O-])ccc4F)c4nc(c(-c5cc(S(=O)(=O)[O-])ccc5F)c5ccc2[nH]5)C=C4)C=C3)cc1
REMARK SMILES IDX 9 1 8 2 7 3 6 4 5 5 4 6 3 7 2 8 1 9 43 10 44 11 105 12 45 13
REMARK SMILES IDX 104 14 46 15 47 16 48 17 98 18 49 19 103 20 97 21 99 22
REMARK SMILES IDX 50 23 102 24 96 25 95 26 51 28 83 29 63 30 82 31 64 32 67 33
REMARK SMILES IDX 81 34 100 35 65 36 66 37 80 39 101 40 68 41 52 42 53 43
REMARK SMILES IDX 61 44 54 45 60 46 62 47 59 48 55 49 56 50 57 51 58 52 84 53
REMARK SMILES IDX 85 54 93 55 86 56 92 57 94 58 91 59 87 60 88 61 89 62 90 63
REMARK SMILES IDX 69 64 70 65 78 66 71 67 77 68 79 69 76 70 72 71 73 72 74 73
REMARK SMILES IDX 75 74 10 75 11 76 12 77 13 78 14 79 15 80 16 81 17 82 18 83
REMARK SMILES IDX 19 84 42 85 20 86 22 87 21 88 23 89 24 90 41 91 25 92 40 93
REMARK SMILES IDX 26 94 39 95 27 96 38 97 28 98 29 99 30 100 31 101 32 102
REMARK SMILES IDX 33 103 37 104 34 105 36 106 35 107
REMARK H PARENT 99 27 67 38
REMARK Flexibility Score: inf
ROOT
ATOM      1  O   UNL A   1      34.656  32.118  27.997  1.00  0.00    -0.377 OA
ENDROOT
BRANCH   1   2
ATOM      2  C   UNL A   1      35.581  33.195  27.857  1.00  0.00     0.188 C 
BRANCH   2   3
ATOM      3  C   UNL A   1      35.362  34.390  28.785  1.00  0.00     0.188 C 
BRANCH   3   4
ATOM      4  O   UNL A   1      34.359  35.267  28.291  1.00  0.00    -0.376 OA
BRANCH   4   5
ATOM      5  C   UNL A   1      33.129  35.382  29.001  1.00  0.00     0.202 C 
BRANCH   5   6
ATOM      6  C   UNL A   1      32.897  36.707  29.717  1.00  0.00     0.261 C 
BRANCH   6   7
ATOM      7  O   UNL A   1      32.720  36.593  31.137  1.00  0.00    -0.460 OA
BRANCH   7   8
ATOM      8  C   UNL A   1      32.829  35.507  31.939  1.00  0.00     0.338 C 
ATOM      9  O   UNL A   1      31.829  35.153  32.566  1.00  0.00    -0.246 OA
BRANCH   8  10
ATOM     10  C   UNL A   1      34.073  34.704  32.119  1.00  0.00     0.060 A 
ATOM     11  C   UNL A   1      34.147  33.313  32.131  1.00  0.00     0.016 A 
ATOM     12  C   UNL A   1      35.280  35.418  32.174  1.00  0.00     0.016 A 
ATOM     13  C   UNL A   1      35.342  32.639  32.286  1.00  0.00     0.010 A 
ATOM     14  C   UNL A   1      36.502  34.752  32.295  1.00  0.00     0.010 A 
ATOM     15  C   UNL A   1      36.521  33.356  32.388  1.00  0.00    -0.014 A 
BRANCH  15  16
ATOM     16  C   UNL A   1      37.705  32.604  32.819  1.00  0.00     0.031 A 
ATOM     17  C   UNL A   1      38.166  32.817  34.226  1.00  0.00     0.074 A 
ATOM     18  C   UNL A   1      38.200  31.629  32.036  1.00  0.00     0.049 A 
ATOM     19  N   UNL A   1      39.216  32.346  34.836  1.00  0.00    -0.248 NA
ATOM     20  C   UNL A   1      37.312  33.674  35.070  1.00  0.00     0.031 C 
ATOM     21  C   UNL A   1      37.655  31.236  30.731  1.00  0.00     0.029 A 
ATOM     22  N   UNL A   1      39.239  30.765  32.235  1.00  0.00    -0.354 N 
ATOM     23  C   UNL A   1      39.172  32.884  36.116  1.00  0.00     0.074 A 
ATOM     24  C   UNL A   1      38.000  33.723  36.196  1.00  0.00     0.031 C 
ATOM     25  C   UNL A   1      38.361  30.198  30.255  1.00  0.00     0.029 A 
ATOM     26  C   UNL A   1      39.461  29.922  31.171  1.00  0.00     0.049 A 
ATOM     27  H   UNL A   1      39.775  30.745  33.061  1.00  0.00     0.167 HD
ATOM     28  C   UNL A   1      40.054  32.691  37.123  1.00  0.00     0.034 A 
ATOM     29  C   UNL A   1      40.483  29.075  30.952  1.00  0.00     0.034 A 
ATOM     30  C   UNL A   1      41.209  31.845  36.972  1.00  0.00     0.049 A 
ATOM     31  C   UNL A   1      41.539  28.993  32.028  1.00  0.00     0.074 A 
ATOM     32  C   UNL A   1      42.243  31.620  37.859  1.00  0.00     0.029 A 
ATOM     33  N   UNL A   1      41.478  31.085  35.836  1.00  0.00    -0.354 N 
ATOM     34  N   UNL A   1      41.570  29.593  33.199  1.00  0.00    -0.248 NA
ATOM     35  C   UNL A   1      42.697  28.139  31.754  1.00  0.00     0.031 C 
ATOM     36  C   UNL A   1      43.172  30.785  37.228  1.00  0.00     0.029 A 
ATOM     37  C   UNL A   1      42.676  30.412  35.986  1.00  0.00     0.049 A 
ATOM     38  H   UNL A   1      40.898  31.033  35.042  1.00  0.00     0.167 HD
ATOM     39  C   UNL A   1      42.741  29.166  33.815  1.00  0.00     0.074 A 
ATOM     40  C   UNL A   1      43.372  28.242  32.890  1.00  0.00     0.031 C 
ATOM     41  C   UNL A   1      43.259  29.501  35.026  1.00  0.00     0.034 A 
BRANCH  28  42
ATOM     42  C   UNL A   1      39.849  33.500  38.378  1.00  0.00     0.023 A 
ATOM     43  C   UNL A   1      39.037  33.050  39.436  1.00  0.00     0.031 A 
ATOM     44  C   UNL A   1      40.384  34.797  38.467  1.00  0.00     0.131 A 
ATOM     45  C   UNL A   1      38.718  33.921  40.490  1.00  0.00     0.055 A 
ATOM     46  C   UNL A   1      40.134  35.626  39.561  1.00  0.00     0.041 A 
ATOM     47  F   UNL A   1      41.130  35.297  37.469  1.00  0.00    -0.206 F 
ATOM     48  C   UNL A   1      39.283  35.195  40.574  1.00  0.00     0.022 A 
BRANCH  45  49
ATOM     49  S   UNL A   1      37.420  33.429  41.661  1.00  0.00     0.124 S 
ATOM     50  O   UNL A   1      38.119  32.436  42.475  1.00  0.00    -0.237 OA
ATOM     51  O   UNL A   1      37.099  34.686  42.326  1.00  0.00    -0.237 OA
ATOM     52  O   UNL A   1      36.369  32.890  40.802  1.00  0.00    -0.744 OA
ENDBRANCH  45  49
ENDBRANCH  28  42
BRANCH  29  53
ATOM     53  C   UNL A   1      40.612  28.335  29.661  1.00  0.00     0.023 A 
ATOM     54  C   UNL A   1      41.577  28.692  28.707  1.00  0.00     0.031 A 
ATOM     55  C   UNL A   1      39.722  27.294  29.331  1.00  0.00     0.131 A 
ATOM     56  C   UNL A   1      41.596  28.053  27.455  1.00  0.00     0.055 A 
ATOM     57  C   UNL A   1      39.787  26.618  28.111  1.00  0.00     0.041 A 
ATOM     58  F   UNL A   1      38.768  26.912  30.194  1.00  0.00    -0.206 F 
ATOM     59  C   UNL A   1      40.718  27.008  27.157  1.00  0.00     0.022 A 
BRANCH  56  60
ATOM     60  S   UNL A   1      42.711  28.691  26.174  1.00  0.00     0.124 S 
ATOM     61  O   UNL A   1      43.021  30.021  26.687  1.00  0.00    -0.237 OA
ATOM     62  O   UNL A   1      43.798  27.719  26.208  1.00  0.00    -0.237 OA
ATOM     63  O   UNL A   1      41.891  28.664  24.964  1.00  0.00    -0.744 OA
ENDBRANCH  56  60
ENDBRANCH  29  53
BRANCH  41  64
ATOM     64  C   UNL A   1      44.538  28.814  35.420  1.00  0.00     0.023 A 
ATOM     65  C   UNL A   1      44.538  27.557  36.045  1.00  0.00     0.031 A 
ATOM     66  C   UNL A   1      45.774  29.432  35.160  1.00  0.00     0.131 A 
ATOM     67  C   UNL A   1      45.750  26.985  36.449  1.00  0.00     0.055 A 
ATOM     68  C   UNL A   1      46.981  28.821  35.494  1.00  0.00     0.041 A 
ATOM     69  F   UNL A   1      45.827  30.635  34.566  1.00  0.00    -0.206 F 
ATOM     70  C   UNL A   1      46.972  27.597  36.157  1.00  0.00     0.022 A 
BRANCH  67  71
ATOM     71  S   UNL A   1      45.700  25.485  37.463  1.00  0.00     0.124 S 
ATOM     72  O   UNL A   1      45.328  26.015  38.771  1.00  0.00    -0.237 OA
ATOM     73  O   UNL A   1      44.684  24.684  36.787  1.00  0.00    -0.237 OA
ATOM     74  O   UNL A   1      47.063  24.964  37.369  1.00  0.00    -0.744 OA
ENDBRANCH  67  71
ENDBRANCH  41  64
ENDBRANCH  15  16
ENDBRANCH   8  10
ENDBRANCH   7   8
ENDBRANCH   6   7
ENDBRANCH   5   6
ENDBRANCH   4   5
ENDBRANCH   3   4
ENDBRANCH   2   3
ENDBRANCH   1   2
BRANCH   1  75
ATOM     75  C   UNL A   1      35.228  30.815  28.045  1.00  0.00     0.188 C 
BRANCH  75  76
ATOM     76  C   UNL A   1      34.392  29.581  27.604  1.00  0.00     0.188 C 
BRANCH  76  77
ATOM     77  O   UNL A   1      34.605  29.132  26.271  1.00  0.00    -0.376 OA
BRANCH  77  78
ATOM     78  C   UNL A   1      33.427  29.020  25.467  1.00  0.00     0.202 C 
BRANCH  78  79
ATOM     79  C   UNL A   1      33.445  27.831  24.494  1.00  0.00     0.261 C 
BRANCH  79  80
ATOM     80  O   UNL A   1      33.303  26.568  25.169  1.00  0.00    -0.463 OA
BRANCH  80  81
ATOM     81  C   UNL A   1      32.200  25.833  24.870  1.00  0.00     0.310 C 
ATOM     82  O   UNL A   1      31.172  25.844  25.535  1.00  0.00    -0.252 OA
BRANCH  81  83
ATOM     83  C   UNL A   1      32.332  25.186  23.492  1.00  0.00     0.118 C 
ATOM     84  C   UNL A   1      31.110  24.357  23.121  1.00  0.00     0.019 C 
ATOM     85  C   UNL A   1      33.612  24.368  23.354  1.00  0.00     0.133 C 
ATOM     86  C   UNL A   1      31.060  23.075  23.938  1.00  0.00     0.022 C 
ATOM     87  N   UNL A   1      33.496  23.163  24.151  1.00  0.00    -0.356 N 
ATOM     88  C   UNL A   1      32.368  22.286  23.833  1.00  0.00     0.118 C 
BRANCH  87  89
ATOM     89  C   UNL A   1      34.648  22.597  24.656  1.00  0.00     0.129 A 
ATOM     90  C   UNL A   1      34.901  21.227  24.556  1.00  0.00     0.047 A 
ATOM     91  N   UNL A   1      35.558  23.424  25.197  1.00  0.00    -0.231 NA
ATOM     92  C   UNL A   1      36.124  20.707  24.976  1.00  0.00     0.014 A 
ATOM     93  C   UNL A   1      36.729  22.933  25.593  1.00  0.00     0.073 A 
ATOM     94  C   UNL A   1      37.084  21.576  25.487  1.00  0.00     0.002 A 
ATOM     95  C   UNL A   1      37.637  23.828  26.110  1.00  0.00     0.030 A 
ATOM     96  C   UNL A   1      38.371  21.152  25.862  1.00  0.00     0.032 A 
ATOM     97  C   UNL A   1      38.912  23.420  26.485  1.00  0.00     0.024 A 
ATOM     98  C   UNL A   1      39.293  22.086  26.343  1.00  0.00     0.083 A 
BRANCH  98  99
ATOM     99  S   UNL A   1      40.929  21.493  26.727  1.00  0.00     0.243 S 
ATOM    100  O   UNL A   1      40.807  20.730  27.946  1.00  0.00    -0.207 OA
ATOM    101  O   UNL A   1      41.438  20.895  25.507  1.00  0.00    -0.207 OA
BRANCH  99 102
ATOM    102  N   UNL A   1      41.891  22.869  27.068  1.00  0.00    -0.198 NA
ATOM    103  C   UNL A   1      41.898  23.315  28.486  1.00  0.00     0.102 C 
ATOM    104  C   UNL A   1      43.143  22.973  26.277  1.00  0.00     0.102 C 
ATOM    105  C   UNL A   1      42.707  24.585  28.696  1.00  0.00     0.017 C 
ATOM    106  C   UNL A   1      43.901  24.261  26.554  1.00  0.00     0.017 C 
ATOM    107  C   UNL A   1      44.078  24.491  28.045  1.00  0.00     0.003 C 
ENDBRANCH  99 102
ENDBRANCH  98  99
ENDBRANCH  87  89
ENDBRANCH  81  83
ENDBRANCH  80  81
ENDBRANCH  79  80
ENDBRANCH  78  79
ENDBRANCH  77  78
ENDBRANCH  76  77
ENDBRANCH  75  76
ENDBRANCH   1  75
TORSDOF 26
ENDMDL
MODEL 2
REMARK VINA RESULT:     -10.0      1.511      7.286
REMARK SMILES O=C(OCCOCCOCCOCCOC(=O)[C@@H]1CCCN(c2ccc3cc(S(=O)(=O)N4CCCCC4)ccc3n2)C1)c1ccc(-c2c3nc(c(-c4cc(S(=O)(=O)[O-])ccc4F)c4ccc([nH]4)c(-c4cc(S(=O)(=O)[O-])ccc4F)c4nc(c(-c5cc(S(=O)(=O)[O-])ccc5F)c5ccc2[nH]5)C=C4)C=C3)cc1
REMARK SMILES IDX 9 1 8 2 7 3 6 4 5 5 4 6 3 7 2 8 1 9 43 10 44 11 105 12 45 13
REMARK SMILES IDX 104 14 46 15 47 16 48 17 98 18 49 19 103 20 97 21 99 22
REMARK SMILES IDX 50 23 102 24 96 25 95 26 51 28 83 29 63 30 82 31 64 32 67 33
REMARK SMILES IDX 81 34 100 35 65 36 66 37 80 39 101 40 68 41 52 42 53 43
REMARK SMILES IDX 61 44 54 45 60 46 62 47 59 48 55 49 56 50 57 51 58 52 84 53
REMARK SMILES IDX 85 54 93 55 86 56 92 57 94 58 91 59 87 60 88 61 89 62 90 63
REMARK SMILES IDX 69 64 70 65 78 66 71 67 77 68 79 69 76 70 72 71 73 72 74 73
REMARK SMILES IDX 75 74 10 75 11 76 12 77 13 78 14 79 15 80 16 81 17 82 18 83
REMARK SMILES IDX 19 84 42 85 20 86 22 87 21 88 23 89 24 90 41 91 25 92 40 93
REMARK SMILES IDX 26 94 39 95 27 96 38 97 28 98 29 99 30 100 31 101 32 102
REMARK SMILES IDX 33 103 37 104 34 105 36 106 35 107
REMARK H PARENT 99 27 67 38
REMARK Flexibility Score: inf
ROOT
ATOM      1  O   UNL A   1      34.533  31.512  27.371  1.00  0.00    -0.377 OA
ENDROOT
BRANCH   1   2
ATOM      2  C   UNL A   1      35.679  31.823  28.162  1.00  0.00     0.188 C 
BRANCH   2   3
ATOM      3  C   UNL A   1      35.528  33.002  29.122  1.00  0.00     0.188 C 
BRANCH   3   4
ATOM      4  O   UNL A   1      34.763  34.056  28.552  1.00  0.00    -0.376 OA
BRANCH   4   5
ATOM      5  C   UNL A   1      33.501  34.384  29.126  1.00  0.00     0.202 C 
BRANCH   5   6
ATOM      6  C   UNL A   1      33.301  35.848  29.496  1.00  0.00     0.261 C 
BRANCH   6   7
ATOM      7  O   UNL A   1      33.357  36.118  30.905  1.00  0.00    -0.460 OA
BRANCH   7   8
ATOM      8  C   UNL A   1      33.403  35.259  31.951  1.00  0.00     0.338 C 
ATOM      9  O   UNL A   1      32.335  34.876  32.429  1.00  0.00    -0.246 OA
BRANCH   8  10
ATOM     10  C   UNL A   1      34.658  34.738  32.568  1.00  0.00     0.060 A 
ATOM     11  C   UNL A   1      35.950  35.155  32.254  1.00  0.00     0.016 A 
ATOM     12  C   UNL A   1      34.510  33.829  33.625  1.00  0.00     0.016 A 
ATOM     13  C   UNL A   1      37.065  34.637  32.882  1.00  0.00     0.010 A 
ATOM     14  C   UNL A   1      35.624  33.322  34.297  1.00  0.00     0.010 A 
ATOM     15  C   UNL A   1      36.908  33.704  33.892  1.00  0.00    -0.014 A 
BRANCH  15  16
ATOM     16  C   UNL A   1      38.121  33.002  34.325  1.00  0.00     0.031 A 
ATOM     17  C   UNL A   1      38.607  31.891  33.448  1.00  0.00     0.074 A 
ATOM     18  C   UNL A   1      38.849  33.489  35.345  1.00  0.00     0.049 A 
ATOM     19  N   UNL A   1      39.596  31.064  33.628  1.00  0.00    -0.248 NA
ATOM     20  C   UNL A   1      37.880  31.695  32.180  1.00  0.00     0.031 C 
ATOM     21  C   UNL A   1      38.527  34.700  36.109  1.00  0.00     0.029 A 
ATOM     22  N   UNL A   1      40.025  33.057  35.888  1.00  0.00    -0.354 N 
ATOM     23  C   UNL A   1      39.582  30.223  32.522  1.00  0.00     0.074 A 
ATOM     24  C   UNL A   1      38.484  30.632  31.679  1.00  0.00     0.031 C 
ATOM     25  C   UNL A   1      39.494  34.917  37.014  1.00  0.00     0.029 A 
ATOM     26  C   UNL A   1      40.443  33.813  36.959  1.00  0.00     0.049 A 
ATOM     27  H   UNL A   1      40.526  32.282  35.546  1.00  0.00     0.167 HD
ATOM     28  C   UNL A   1      40.418  29.194  32.257  1.00  0.00     0.034 A 
ATOM     29  C   UNL A   1      41.446  33.584  37.826  1.00  0.00     0.034 A 
ATOM     30  C   UNL A   1      41.491  28.835  33.147  1.00  0.00     0.049 A 
ATOM     31  C   UNL A   1      42.270  32.340  37.596  1.00  0.00     0.074 A 
ATOM     32  C   UNL A   1      42.362  27.767  33.071  1.00  0.00     0.029 A 
ATOM     33  N   UNL A   1      41.827  29.550  34.294  1.00  0.00    -0.354 N 
ATOM     34  N   UNL A   1      42.189  31.467  36.615  1.00  0.00    -0.248 NA
ATOM     35  C   UNL A   1      43.307  32.041  38.587  1.00  0.00     0.031 C 
ATOM     36  C   UNL A   1      43.174  27.796  34.211  1.00  0.00     0.029 A 
ATOM     37  C   UNL A   1      42.873  28.932  34.951  1.00  0.00     0.049 A 
ATOM     38  H   UNL A   1      41.384  30.378  34.593  1.00  0.00     0.167 HD
ATOM     39  C   UNL A   1      43.183  30.526  36.858  1.00  0.00     0.074 A 
ATOM     40  C   UNL A   1      43.862  30.957  38.066  1.00  0.00     0.031 C 
ATOM     41  C   UNL A   1      43.512  29.408  36.159  1.00  0.00     0.034 A 
BRANCH  28  42
ATOM     42  C   UNL A   1      40.104  28.352  31.047  1.00  0.00     0.023 A 
ATOM     43  C   UNL A   1      40.692  28.595  29.791  1.00  0.00     0.031 A 
ATOM     44  C   UNL A   1      39.113  27.359  31.127  1.00  0.00     0.131 A 
ATOM     45  C   UNL A   1      40.220  27.915  28.656  1.00  0.00     0.055 A 
ATOM     46  C   UNL A   1      38.711  26.624  30.010  1.00  0.00     0.041 A 
ATOM     47  F   UNL A   1      38.486  27.111  32.288  1.00  0.00    -0.206 F 
ATOM     48  C   UNL A   1      39.254  26.913  28.762  1.00  0.00     0.022 A 
BRANCH  45  49
ATOM     49  S   UNL A   1      40.763  28.479  27.018  1.00  0.00     0.124 S 
ATOM     50  O   UNL A   1      39.619  29.282  26.589  1.00  0.00    -0.237 OA
ATOM     51  O   UNL A   1      41.982  29.220  27.324  1.00  0.00    -0.237 OA
ATOM     52  O   UNL A   1      40.957  27.237  26.274  1.00  0.00    -0.744 OA
ENDBRANCH  45  49
ENDBRANCH  28  42
BRANCH  29  53
ATOM     53  C   UNL A   1      41.661  34.465  39.012  1.00  0.00     0.023 A 
ATOM     54  C   UNL A   1      40.876  34.338  40.169  1.00  0.00     0.031 A 
ATOM     55  C   UNL A   1      42.616  35.500  38.983  1.00  0.00     0.131 A 
ATOM     56  C   UNL A   1      41.024  35.258  41.221  1.00  0.00     0.055 A 
ATOM     57  C   UNL A   1      42.804  36.370  40.057  1.00  0.00     0.041 A 
ATOM     58  F   UNL A   1      43.390  35.683  37.901  1.00  0.00    -0.206 F 
ATOM     59  C   UNL A   1      41.993  36.263  41.180  1.00  0.00     0.022 A 
BRANCH  56  60
ATOM     60  S   UNL A   1      39.845  35.195  42.599  1.00  0.00     0.124 S 
ATOM     61  O   UNL A   1      40.591  35.868  43.656  1.00  0.00    -0.237 OA
ATOM     62  O   UNL A   1      38.703  35.922  42.055  1.00  0.00    -0.237 OA
ATOM     63  O   UNL A   1      39.633  33.763  42.800  1.00  0.00    -0.744 OA
ENDBRANCH  56  60
ENDBRANCH  29  53
BRANCH  41  64
ATOM     64  C   UNL A   1      44.688  28.620  36.670  1.00  0.00     0.023 A 
ATOM     65  C   UNL A   1      44.521  27.507  37.507  1.00  0.00     0.031 A 
ATOM     66  C   UNL A   1      45.993  28.994  36.305  1.00  0.00     0.131 A 
ATOM     67  C   UNL A   1      45.647  26.843  38.008  1.00  0.00     0.055 A 
ATOM     68  C   UNL A   1      47.107  28.281  36.744  1.00  0.00     0.041 A 
ATOM     69  F   UNL A   1      46.204  30.053  35.507  1.00  0.00    -0.206 F 
ATOM     70  C   UNL A   1      46.938  27.207  37.613  1.00  0.00     0.022 A 
BRANCH  67  71
ATOM     71  S   UNL A   1      45.407  25.567  39.272  1.00  0.00     0.124 S 
ATOM     72  O   UNL A   1      44.537  24.619  38.583  1.00  0.00    -0.237 OA
ATOM     73  O   UNL A   1      46.772  25.114  39.522  1.00  0.00    -0.237 OA
ATOM     74  O   UNL A   1      44.782  26.294  40.376  1.00  0.00    -0.744 OA
ENDBRANCH  67  71
ENDBRANCH  41  64
ENDBRANCH  15  16
ENDBRANCH   8  10
ENDBRANCH   7   8
ENDBRANCH   6   7
ENDBRANCH   5   6
ENDBRANCH   4   5
ENDBRANCH   3   4
ENDBRANCH   2   3
ENDBRANCH   1   2
BRANCH   1  75
ATOM     75  C   UNL A   1      34.231  30.127  27.239  1.00  0.00     0.188 C 
BRANCH  75  76
ATOM     76  C   UNL A   1      33.376  29.626  26.041  1.00  0.00     0.188 C 
BRANCH  76  77
ATOM     77  O   UNL A   1      33.927  28.550  25.292  1.00  0.00    -0.376 OA
BRANCH  77  78
ATOM     78  C   UNL A   1      33.093  27.394  25.177  1.00  0.00     0.202 C 
BRANCH  78  79
ATOM     79  C   UNL A   1      33.853  26.108  24.817  1.00  0.00     0.261 C 
BRANCH  79  80
ATOM     80  O   UNL A   1      33.669  25.071  25.797  1.00  0.00    -0.463 OA
BRANCH  80  81
ATOM     81  C   UNL A   1      32.652  24.196  25.582  1.00  0.00     0.310 C 
ATOM     82  O   UNL A   1      31.666  24.105  26.301  1.00  0.00    -0.252 OA
BRANCH  81  83
ATOM     83  C   UNL A   1      32.794  23.520  24.219  1.00  0.00     0.118 C 
ATOM     84  C   UNL A   1      31.809  22.373  24.035  1.00  0.00     0.019 C 
ATOM     85  C   UNL A   1      34.223  23.064  23.941  1.00  0.00     0.133 C 
ATOM     86  C   UNL A   1      32.205  21.179  24.891  1.00  0.00     0.022 C 
ATOM     87  N   UNL A   1      34.532  21.925  24.784  1.00  0.00    -0.356 N 
ATOM     88  C   UNL A   1      33.656  20.762  24.641  1.00  0.00     0.118 C 
BRANCH  87  89
ATOM     89  C   UNL A   1      35.846  21.720  25.153  1.00  0.00     0.129 A 
ATOM     90  C   UNL A   1      36.497  20.507  24.914  1.00  0.00     0.047 A 
ATOM     91  N   UNL A   1      36.504  22.756  25.698  1.00  0.00    -0.231 NA
ATOM     92  C   UNL A   1      37.855  20.374  25.197  1.00  0.00     0.014 A 
ATOM     93  C   UNL A   1      37.802  22.635  25.964  1.00  0.00     0.073 A 
ATOM     94  C   UNL A   1      38.546  21.467  25.712  1.00  0.00     0.002 A 
ATOM     95  C   UNL A   1      38.436  23.735  26.491  1.00  0.00     0.030 A 
ATOM     96  C   UNL A   1      39.930  21.446  25.955  1.00  0.00     0.032 A 
ATOM     97  C   UNL A   1      39.804  23.727  26.736  1.00  0.00     0.024 A 
ATOM     98  C   UNL A   1      40.561  22.592  26.450  1.00  0.00     0.083 A 
BRANCH  98  99
ATOM     99  S   UNL A   1      42.330  22.520  26.661  1.00  0.00     0.243 S 
ATOM    100  O   UNL A   1      42.558  22.043  28.004  1.00  0.00    -0.207 OA
ATOM    101  O   UNL A   1      42.846  21.808  25.506  1.00  0.00    -0.207 OA
BRANCH  99 102
ATOM    102  N   UNL A   1      42.907  24.130  26.576  1.00  0.00    -0.198 NA
ATOM    103  C   UNL A   1      43.508  24.666  27.825  1.00  0.00     0.102 C 
ATOM    104  C   UNL A   1      43.499  24.518  25.270  1.00  0.00     0.102 C 
ATOM    105  C   UNL A   1      43.925  26.123  27.695  1.00  0.00     0.017 C 
ATOM    106  C   UNL A   1      43.903  25.983  25.226  1.00  0.00     0.017 C 
ATOM    107  C   UNL A   1      44.740  26.364  26.435  1.00  0.00     0.003 C 
ENDBRANCH  99 102
ENDBRANCH  98  99
ENDBRANCH  87  89
ENDBRANCH  81  83
ENDBRANCH  80  81
ENDBRANCH  79  80
ENDBRANCH  78  79
ENDBRANCH  77  78
ENDBRANCH  76  77
ENDBRANCH  75  76
ENDBRANCH   1  75
TORSDOF 26
ENDMDL
MODEL 3
REMARK VINA RESULT:      -9.2      1.723      2.205
REMARK SMILES O=C(OCCOCCOCCOCCOC(=O)[C@@H]1CCCN(c2ccc3cc(S(=O)(=O)N4CCCCC4)ccc3n2)C1)c1ccc(-c2c3nc(c(-c4cc(S(=O)(=O)[O-])ccc4F)c4ccc([nH]4)c(-c4cc(S(=O)(=O)[O-])ccc4F)c4nc(c(-c5cc(S(=O)(=O)[O-])ccc5F)c5ccc2[nH]5)C=C4)C=C3)cc1
REMARK SMILES IDX 9 1 8 2 7 3 6 4 5 5 4 6 3 7 2 8 1 9 43 10 44 11 105 12 45 13
REMARK SMILES IDX 104 14 46 15 47 16 48 17 98 18 49 19 103 20 97 21 99 22
REMARK SMILES IDX 50 23 102 24 96 25 95 26 51 28 83 29 63 30 82 31 64 32 67 33
REMARK SMILES IDX 81 34 100 35 65 36 66 37 80 39 101 40 68 41 52 42 53 43
REMARK SMILES IDX 61 44 54 45 60 46 62 47 59 48 55 49 56 50 57 51 58 52 84 53
REMARK SMILES IDX 85 54 93 55 86 56 92 57 94 58 91 59 87 60 88 61 89 62 90 63
REMARK SMILES IDX 69 64 70 65 78 66 71 67 77 68 79 69 76 70 72 71 73 72 74 73
REMARK SMILES IDX 75 74 10 75 11 76 12 77 13 78 14 79 15 80 16 81 17 82 18 83
REMARK SMILES IDX 19 84 42 85 20 86 22 87 21 88 23 89 24 90 41 91 25 92 40 93
REMARK SMILES IDX 26 94 39 95 27 96 38 97 28 98 29 99 30 100 31 101 32 102
REMARK SMILES IDX 33 103 37 104 34 105 36 106 35 107
REMARK H PARENT 99 27 67 38
REMARK Flexibility Score: inf
ROOT
ATOM      1  O   UNL A   1      34.273  32.157  27.340  1.00  0.00    -0.377 OA
ENDROOT
BRANCH   1   2
ATOM      2  C   UNL A   1      35.369  32.265  28.247  1.00  0.00     0.188 C 
BRANCH   2   3
ATOM      3  C   UNL A   1      35.580  33.641  28.879  1.00  0.00     0.188 C 
BRANCH   3   4
ATOM      4  O   UNL A   1      34.647  34.596  28.392  1.00  0.00    -0.376 OA
BRANCH   4   5
ATOM      5  C   UNL A   1      33.292  34.526  28.829  1.00  0.00     0.202 C 
BRANCH   5   6
ATOM      6  C   UNL A   1      32.792  35.716  29.636  1.00  0.00     0.261 C 
BRANCH   6   7
ATOM      7  O   UNL A   1      33.430  35.879  30.913  1.00  0.00    -0.460 OA
BRANCH   7   8
ATOM      8  C   UNL A   1      33.542  35.007  31.942  1.00  0.00     0.338 C 
ATOM      9  O   UNL A   1      32.518  34.707  32.557  1.00  0.00    -0.246 OA
BRANCH   8  10
ATOM     10  C   UNL A   1      34.820  34.378  32.387  1.00  0.00     0.060 A 
ATOM     11  C   UNL A   1      34.958  33.084  32.885  1.00  0.00     0.016 A 
ATOM     12  C   UNL A   1      35.992  35.123  32.186  1.00  0.00     0.016 A 
ATOM     13  C   UNL A   1      36.180  32.565  33.262  1.00  0.00     0.010 A 
ATOM     14  C   UNL A   1      37.241  34.600  32.527  1.00  0.00     0.010 A 
ATOM     15  C   UNL A   1      37.324  33.328  33.102  1.00  0.00    -0.014 A 
BRANCH  15  16
ATOM     16  C   UNL A   1      38.535  32.831  33.765  1.00  0.00     0.031 A 
ATOM     17  C   UNL A   1      38.627  33.032  35.245  1.00  0.00     0.074 A 
ATOM     18  C   UNL A   1      39.400  32.058  33.085  1.00  0.00     0.049 A 
ATOM     19  N   UNL A   1      39.606  32.764  36.059  1.00  0.00    -0.248 NA
ATOM     20  C   UNL A   1      37.436  33.605  35.900  1.00  0.00     0.031 C 
ATOM     21  C   UNL A   1      39.251  31.656  31.681  1.00  0.00     0.029 A 
ATOM     22  N   UNL A   1      40.549  31.439  33.487  1.00  0.00    -0.354 N 
ATOM     23  C   UNL A   1      39.169  33.176  37.313  1.00  0.00     0.074 A 
ATOM     24  C   UNL A   1      37.841  33.719  37.152  1.00  0.00     0.031 C 
ATOM     25  C   UNL A   1      40.267  30.846  31.347  1.00  0.00     0.029 A 
ATOM     26  C   UNL A   1      41.184  30.754  32.476  1.00  0.00     0.049 A 
ATOM     27  H   UNL A   1      40.889  31.476  34.410  1.00  0.00     0.167 HD
ATOM     28  C   UNL A   1      39.840  33.109  38.484  1.00  0.00     0.034 A 
ATOM     29  C   UNL A   1      42.401  30.181  32.467  1.00  0.00     0.034 A 
ATOM     30  C   UNL A   1      41.168  32.561  38.571  1.00  0.00     0.049 A 
ATOM     31  C   UNL A   1      43.196  30.255  33.748  1.00  0.00     0.074 A 
ATOM     32  C   UNL A   1      42.017  32.506  39.658  1.00  0.00     0.029 A 
ATOM     33  N   UNL A   1      41.842  31.972  37.503  1.00  0.00    -0.354 N 
ATOM     34  N   UNL A   1      42.837  30.752  34.913  1.00  0.00    -0.248 NA
ATOM     35  C   UNL A   1      44.555  29.709  33.715  1.00  0.00     0.031 C 
ATOM     36  C   UNL A   1      43.229  31.955  39.228  1.00  0.00     0.029 A 
ATOM     37  C   UNL A   1      43.107  31.579  37.897  1.00  0.00     0.049 A 
ATOM     38  H   UNL A   1      41.471  31.853  36.599  1.00  0.00     0.167 HD
ATOM     39  C   UNL A   1      43.921  30.555  35.761  1.00  0.00     0.074 A 
ATOM     40  C   UNL A   1      44.932  29.872  34.975  1.00  0.00     0.031 C 
ATOM     41  C   UNL A   1      44.078  30.901  37.066  1.00  0.00     0.034 A 
BRANCH  28  42
ATOM     42  C   UNL A   1      39.190  33.749  39.683  1.00  0.00     0.023 A 
ATOM     43  C   UNL A   1      38.270  33.060  40.495  1.00  0.00     0.031 A 
ATOM     44  C   UNL A   1      39.409  35.112  39.951  1.00  0.00     0.131 A 
ATOM     45  C   UNL A   1      37.544  33.756  41.475  1.00  0.00     0.055 A 
ATOM     46  C   UNL A   1      38.749  35.778  40.985  1.00  0.00     0.041 A 
ATOM     47  F   UNL A   1      40.243  35.833  39.184  1.00  0.00    -0.206 F 
ATOM     48  C   UNL A   1      37.797  35.103  41.744  1.00  0.00     0.022 A 
BRANCH  45  49
ATOM     49  S   UNL A   1      36.144  32.922  42.276  1.00  0.00     0.124 S 
ATOM     50  O   UNL A   1      36.578  32.893  43.672  1.00  0.00    -0.237 OA
ATOM     51  O   UNL A   1      35.029  33.812  41.975  1.00  0.00    -0.237 OA
ATOM     52  O   UNL A   1      36.099  31.619  41.619  1.00  0.00    -0.744 OA
ENDBRANCH  45  49
ENDBRANCH  28  42
BRANCH  29  53
ATOM     53  C   UNL A   1      42.970  29.593  31.218  1.00  0.00     0.023 A 
ATOM     54  C   UNL A   1      43.688  30.377  30.302  1.00  0.00     0.031 A 
ATOM     55  C   UNL A   1      42.746  28.242  30.885  1.00  0.00     0.131 A 
ATOM     56  C   UNL A   1      44.108  29.821  29.081  1.00  0.00     0.055 A 
ATOM     57  C   UNL A   1      43.223  27.678  29.700  1.00  0.00     0.041 A 
ATOM     58  F   UNL A   1      42.055  27.441  31.712  1.00  0.00    -0.206 F 
ATOM     59  C   UNL A   1      43.895  28.474  28.781  1.00  0.00     0.022 A 
BRANCH  56  60
ATOM     60  S   UNL A   1      44.837  30.920  27.834  1.00  0.00     0.124 S 
ATOM     61  O   UNL A   1      44.484  30.236  26.595  1.00  0.00    -0.237 OA
ATOM     62  O   UNL A   1      44.143  32.176  28.095  1.00  0.00    -0.237 OA
ATOM     63  O   UNL A   1      46.261  30.914  28.166  1.00  0.00    -0.744 OA
ENDBRANCH  56  60
ENDBRANCH  29  53
BRANCH  41  64
ATOM     64  C   UNL A   1      45.372  30.493  37.716  1.00  0.00     0.023 A 
ATOM     65  C   UNL A   1      45.533  29.230  38.307  1.00  0.00     0.031 A 
ATOM     66  C   UNL A   1      46.458  31.386  37.737  1.00  0.00     0.131 A 
ATOM     67  C   UNL A   1      46.735  28.918  38.954  1.00  0.00     0.055 A 
ATOM     68  C   UNL A   1      47.678  31.038  38.314  1.00  0.00     0.041 A 
ATOM     69  F   UNL A   1      46.352  32.605  37.186  1.00  0.00    -0.206 F 
ATOM     70  C   UNL A   1      47.816  29.803  38.941  1.00  0.00     0.022 A 
BRANCH  67  71
ATOM     71  S   UNL A   1      46.826  27.382  39.911  1.00  0.00     0.124 S 
ATOM     72  O   UNL A   1      45.826  26.552  39.247  1.00  0.00    -0.237 OA
ATOM     73  O   UNL A   1      48.216  26.979  39.723  1.00  0.00    -0.237 OA
ATOM     74  O   UNL A   1      46.481  27.804  41.268  1.00  0.00    -0.744 OA
ENDBRANCH  67  71
ENDBRANCH  41  64
ENDBRANCH  15  16
ENDBRANCH   8  10
ENDBRANCH   7   8
ENDBRANCH   6   7
ENDBRANCH   5   6
ENDBRANCH   4   5
ENDBRANCH   3   4
ENDBRANCH   2   3
ENDBRANCH   1   2
BRANCH   1  75
ATOM     75  C   UNL A   1      33.651  30.878  27.272  1.00  0.00     0.188 C 
BRANCH  75  76
ATOM     76  C   UNL A   1      32.220  30.737  26.684  1.00  0.00     0.188 C 
BRANCH  76  77
ATOM     77  O   UNL A   1      32.122  30.038  25.449  1.00  0.00    -0.376 OA
BRANCH  77  78
ATOM     78  C   UNL A   1      31.814  28.646  25.557  1.00  0.00     0.202 C 
BRANCH  78  79
ATOM     79  C   UNL A   1      32.924  27.717  25.042  1.00  0.00     0.261 C 
BRANCH  79  80
ATOM     80  O   UNL A   1      33.182  26.621  25.937  1.00  0.00    -0.463 OA
BRANCH  80  81
ATOM     81  C   UNL A   1      32.605  25.430  25.631  1.00  0.00     0.310 C 
ATOM     82  O   UNL A   1      31.853  24.824  26.384  1.00  0.00    -0.252 OA
BRANCH  81  83
ATOM     83  C   UNL A   1      32.831  25.075  24.163  1.00  0.00     0.118 C 
ATOM     84  C   UNL A   1      31.726  24.187  23.605  1.00  0.00     0.019 C 
ATOM     85  C   UNL A   1      34.205  24.459  23.918  1.00  0.00     0.133 C 
ATOM     86  C   UNL A   1      31.830  22.778  24.168  1.00  0.00     0.022 C 
ATOM     87  N   UNL A   1      34.232  23.120  24.474  1.00  0.00    -0.356 N 
ATOM     88  C   UNL A   1      33.227  22.189  23.962  1.00  0.00     0.118 C 
BRANCH  87  89
ATOM     89  C   UNL A   1      35.442  22.613  24.904  1.00  0.00     0.129 A 
ATOM     90  C   UNL A   1      35.786  21.272  24.720  1.00  0.00     0.047 A 
ATOM     91  N   UNL A   1      36.313  23.475  25.454  1.00  0.00    -0.231 NA
ATOM     92  C   UNL A   1      37.058  20.822  25.065  1.00  0.00     0.014 A 
ATOM     93  C   UNL A   1      37.531  23.051  25.778  1.00  0.00     0.073 A 
ATOM     94  C   UNL A   1      37.976  21.730  25.585  1.00  0.00     0.002 A 
ATOM     95  C   UNL A   1      38.395  23.981  26.308  1.00  0.00     0.030 A 
ATOM     96  C   UNL A   1      39.304  21.381  25.888  1.00  0.00     0.032 A 
ATOM     97  C   UNL A   1      39.710  23.648  26.612  1.00  0.00     0.024 A 
ATOM     98  C   UNL A   1      40.177  22.354  26.383  1.00  0.00     0.083 A 
BRANCH  98  99
ATOM     99  S   UNL A   1      41.866  21.861  26.673  1.00  0.00     0.243 S 
ATOM    100  O   UNL A   1      41.933  21.436  28.050  1.00  0.00    -0.207 OA
ATOM    101  O   UNL A   1      42.217  20.967  25.585  1.00  0.00    -0.207 OA
BRANCH  99 102
ATOM    102  N   UNL A   1      42.829  23.269  26.515  1.00  0.00    -0.198 NA
ATOM    103  C   UNL A   1      43.582  23.674  27.730  1.00  0.00     0.102 C 
ATOM    104  C   UNL A   1      43.462  23.453  25.184  1.00  0.00     0.102 C 
ATOM    105  C   UNL A   1      44.350  24.972  27.537  1.00  0.00     0.017 C 
ATOM    106  C   UNL A   1      44.222  24.764  25.076  1.00  0.00     0.017 C 
ATOM    107  C   UNL A   1      45.163  24.958  26.253  1.00  0.00     0.003 C 
ENDBRANCH  99 102
ENDBRANCH  98  99
ENDBRANCH  87  89
ENDBRANCH  81  83
ENDBRANCH  80  81
ENDBRANCH  79  80
ENDBRANCH  78  79
ENDBRANCH  77  78
ENDBRANCH  76  77
ENDBRANCH  75  76
ENDBRANCH   1  75
TORSDOF 26
ENDMDL
