MODEL 1
REMARK VINA RESULT:      -8.1      0.000      0.000
REMARK SMILES COC(=O)c1ccc2c(c1)=N[C@H](c1cn(CCC(=O)OCCOCCOCCOCCOC(=O)c3ccc(-c4c5nc(c(-c6cc(S(=O)(=O)[O-])ccc6F)c6ccc([nH]6)c(-c6cc(S(=O)(=O)[O-])ccc6F)c6nc(c(-c7cc(S(=O)(=O)[O-])ccc7F)c7ccc4[nH]7)C=C6)C=C5)cc3)c3ccccc13)N=2
REMARK SMILES IDX 25 1 24 2 23 3 22 4 21 5 20 6 18 7 19 8 17 9 16 10 15 11
REMARK SMILES IDX 13 12 14 13 103 14 98 15 102 16 99 17 101 18 100 19 12 20
REMARK SMILES IDX 5 21 6 22 10 23 7 24 9 25 8 26 11 27 104 28 3 29 4 30 2 31
REMARK SMILES IDX 1 32 26 33 27 34 28 35 29 36 30 37 31 38 32 39 33 40 34 41
REMARK SMILES IDX 35 42 36 43 97 44 37 45 96 46 38 47 39 48 40 49 90 50 41 51
REMARK SMILES IDX 95 52 89 53 91 54 42 55 94 56 88 57 87 58 43 60 75 61 55 62
REMARK SMILES IDX 74 63 56 64 59 65 73 66 92 67 57 68 58 69 72 71 93 72 60 73
REMARK SMILES IDX 44 74 45 75 53 76 46 77 52 78 54 79 51 80 47 81 48 82 49 83
REMARK SMILES IDX 50 84 76 85 77 86 85 87 78 88 84 89 86 90 83 91 79 92 80 93
REMARK SMILES IDX 81 94 82 95 61 96 62 97 70 98 63 99 69 100 71 101 68 102
REMARK SMILES IDX 64 103 65 104 66 105 67 106
REMARK H PARENT 91 59 59 70
REMARK Flexibility Score: inf
ROOT
ATOM      1  C   UNL A   1      42.889  41.571  25.091  1.00  0.00     0.188 C 
ENDROOT
BRANCH   1   2
ATOM      2  C   UNL A   1      42.398  42.123  23.753  1.00  0.00     0.188 C 
BRANCH   2   3
ATOM      3  O   UNL A   1      43.274  42.178  22.644  1.00  0.00    -0.376 OA
BRANCH   3   4
ATOM      4  C   UNL A   1      42.754  42.377  21.329  1.00  0.00     0.202 C 
BRANCH   4   5
ATOM      5  C   UNL A   1      41.392  43.045  21.083  1.00  0.00     0.261 C 
BRANCH   5   6
ATOM      6  O   UNL A   1      41.415  44.286  20.333  1.00  0.00    -0.463 OA
BRANCH   6   7
ATOM      7  C   UNL A   1      40.995  44.223  19.053  1.00  0.00     0.307 C 
ATOM      8  O   UNL A   1      39.839  43.953  18.726  1.00  0.00    -0.252 OA
BRANCH   7   9
ATOM      9  C   UNL A   1      42.047  44.433  17.978  1.00  0.00     0.144 C 
BRANCH   9  10
ATOM     10  C   UNL A   1      43.364  43.657  17.902  1.00  0.00     0.134 C 
BRANCH  10  11
ATOM     11  N   UNL A   1      44.532  44.402  18.310  1.00  0.00    -0.346 N 
ATOM     12  C   UNL A   1      46.086  45.160  19.645  1.00  0.00     0.024 A 
ATOM     13  C   UNL A   1      45.559  43.976  19.114  1.00  0.00     0.094 A 
ATOM     14  C   UNL A   1      45.046  46.149  19.384  1.00  0.00     0.007 A 
ATOM     15  C   UNL A   1      44.796  45.723  18.077  1.00  0.00     0.048 A 
ATOM     16  C   UNL A   1      44.971  47.533  19.596  1.00  0.00     0.011 A 
ATOM     17  C   UNL A   1      45.361  46.438  17.017  1.00  0.00     0.027 A 
ATOM     18  C   UNL A   1      45.452  48.324  18.561  1.00  0.00     0.001 A 
ATOM     19  C   UNL A   1      45.793  47.727  17.347  1.00  0.00     0.002 A 
BRANCH  12  20
ATOM     20  C   UNL A   1      47.481  45.382  20.172  1.00  0.00     0.255 C 
ATOM     21  C   UNL A   1      50.058  49.117  19.989  1.00  0.00     0.062 A 
ATOM     22  C   UNL A   1      49.575  49.226  21.360  1.00  0.00     0.018 A 
ATOM     23  C   UNL A   1      49.628  48.157  19.150  1.00  0.00     0.046 A 
ATOM     24  C   UNL A   1      48.692  48.367  21.898  1.00  0.00     0.031 A 
ATOM     25  C   UNL A   1      48.727  47.125  19.685  1.00  0.00     0.087 A 
ATOM     26  C   UNL A   1      48.248  47.230  21.075  1.00  0.00     0.086 A 
ATOM     27  N   UNL A   1      48.316  46.050  19.108  1.00  0.00    -0.252 NA
ATOM     28  N   UNL A   1      47.512  46.231  21.401  1.00  0.00    -0.252 NA
BRANCH  21  29
ATOM     29  C   UNL A   1      51.080  50.056  19.435  1.00  0.00     0.337 C 
ATOM     30  O   UNL A   1      51.807  49.805  18.486  1.00  0.00    -0.246 OA
BRANCH  29  31
ATOM     31  O   UNL A   1      51.138  51.180  20.200  1.00  0.00    -0.465 OA
ATOM     32  C   UNL A   1      52.290  51.263  21.042  1.00  0.00     0.282 C 
ENDBRANCH  29  31
ENDBRANCH  21  29
ENDBRANCH  12  20
ENDBRANCH  10  11
ENDBRANCH   9  10
ENDBRANCH   7   9
ENDBRANCH   6   7
ENDBRANCH   5   6
ENDBRANCH   4   5
ENDBRANCH   3   4
ENDBRANCH   2   3
ENDBRANCH   1   2
BRANCH   1  33
ATOM     33  O   UNL A   1      41.888  41.287  26.032  1.00  0.00    -0.377 OA
BRANCH  33  34
ATOM     34  C   UNL A   1      41.396  39.956  26.146  1.00  0.00     0.188 C 
BRANCH  34  35
ATOM     35  C   UNL A   1      41.836  39.086  27.333  1.00  0.00     0.188 C 
BRANCH  35  36
ATOM     36  O   UNL A   1      43.213  39.225  27.652  1.00  0.00    -0.376 OA
BRANCH  36  37
ATOM     37  C   UNL A   1      44.170  38.500  26.891  1.00  0.00     0.202 C 
BRANCH  37  38
ATOM     38  C   UNL A   1      45.123  37.511  27.587  1.00  0.00     0.261 C 
BRANCH  38  39
ATOM     39  O   UNL A   1      45.569  36.414  26.772  1.00  0.00    -0.460 OA
BRANCH  39  40
ATOM     40  C   UNL A   1      44.869  35.259  26.708  1.00  0.00     0.338 C 
ATOM     41  O   UNL A   1      43.795  35.090  26.156  1.00  0.00    -0.246 OA
BRANCH  40  42
ATOM     42  C   UNL A   1      45.824  34.204  27.146  1.00  0.00     0.060 A 
ATOM     43  C   UNL A   1      47.069  34.079  26.538  1.00  0.00     0.016 A 
ATOM     44  C   UNL A   1      45.331  33.154  27.932  1.00  0.00     0.016 A 
ATOM     45  C   UNL A   1      47.723  32.847  26.590  1.00  0.00     0.010 A 
ATOM     46  C   UNL A   1      45.979  31.909  27.945  1.00  0.00     0.010 A 
ATOM     47  C   UNL A   1      47.146  31.723  27.209  1.00  0.00    -0.014 A 
BRANCH  47  48
ATOM     48  C   UNL A   1      47.948  30.473  27.219  1.00  0.00     0.031 A 
ATOM     49  C   UNL A   1      49.157  30.615  28.081  1.00  0.00     0.074 A 
ATOM     50  C   UNL A   1      47.643  29.283  26.642  1.00  0.00     0.049 A 
ATOM     51  N   UNL A   1      50.403  30.489  27.757  1.00  0.00    -0.248 NA
ATOM     52  C   UNL A   1      48.942  31.163  29.434  1.00  0.00     0.031 C 
ATOM     53  C   UNL A   1      46.376  28.934  25.996  1.00  0.00     0.029 A 
ATOM     54  N   UNL A   1      48.340  28.090  26.590  1.00  0.00    -0.354 N 
ATOM     55  C   UNL A   1      51.108  30.713  28.939  1.00  0.00     0.074 A 
ATOM     56  C   UNL A   1      50.193  31.337  29.853  1.00  0.00     0.031 C 
ATOM     57  C   UNL A   1      46.299  27.594  25.836  1.00  0.00     0.029 A 
ATOM     58  C   UNL A   1      47.548  26.985  26.264  1.00  0.00     0.049 A 
ATOM     59  H   UNL A   1      49.306  28.024  26.765  1.00  0.00     0.167 HD
ATOM     60  C   UNL A   1      52.288  30.081  29.193  1.00  0.00     0.034 A 
ATOM     61  C   UNL A   1      47.830  25.659  26.393  1.00  0.00     0.034 A 
ATOM     62  C   UNL A   1      52.877  29.566  27.995  1.00  0.00     0.049 A 
ATOM     63  C   UNL A   1      49.282  25.464  26.539  1.00  0.00     0.074 A 
ATOM     64  C   UNL A   1      53.659  30.050  26.971  1.00  0.00     0.029 A 
ATOM     65  N   UNL A   1      52.365  28.364  27.594  1.00  0.00    -0.354 N 
ATOM     66  N   UNL A   1      50.133  25.595  25.564  1.00  0.00    -0.248 NA
ATOM     67  C   UNL A   1      49.858  25.392  27.879  1.00  0.00     0.031 C 
ATOM     68  C   UNL A   1      53.529  29.126  25.897  1.00  0.00     0.029 A 
ATOM     69  C   UNL A   1      52.701  28.082  26.300  1.00  0.00     0.049 A 
ATOM     70  H   UNL A   1      51.822  27.775  28.167  1.00  0.00     0.167 HD
ATOM     71  C   UNL A   1      51.255  26.090  26.188  1.00  0.00     0.074 A 
ATOM     72  C   UNL A   1      51.107  25.767  27.599  1.00  0.00     0.031 C 
ATOM     73  C   UNL A   1      52.019  27.033  25.578  1.00  0.00     0.034 A 
BRANCH  60  74
ATOM     74  C   UNL A   1      52.639  29.510  30.554  1.00  0.00     0.023 A 
ATOM     75  C   UNL A   1      52.252  28.219  30.963  1.00  0.00     0.031 A 
ATOM     76  C   UNL A   1      53.592  30.146  31.376  1.00  0.00     0.131 A 
ATOM     77  C   UNL A   1      52.762  27.618  32.120  1.00  0.00     0.055 A 
ATOM     78  C   UNL A   1      54.156  29.520  32.497  1.00  0.00     0.041 A 
ATOM     79  F   UNL A   1      54.046  31.374  31.082  1.00  0.00    -0.206 F 
ATOM     80  C   UNL A   1      53.741  28.248  32.876  1.00  0.00     0.022 A 
BRANCH  77  81
ATOM     81  S   UNL A   1      52.151  25.990  32.638  1.00  0.00     0.124 S 
ATOM     82  O   UNL A   1      53.392  25.260  32.870  1.00  0.00    -0.237 OA
ATOM     83  O   UNL A   1      51.383  26.332  33.833  1.00  0.00    -0.237 OA
ATOM     84  O   UNL A   1      51.353  25.545  31.499  1.00  0.00    -0.744 OA
ENDBRANCH  77  81
ENDBRANCH  60  74
BRANCH  61  85
ATOM     85  C   UNL A   1      46.910  24.540  26.727  1.00  0.00     0.023 A 
ATOM     86  C   UNL A   1      46.318  23.822  25.676  1.00  0.00     0.031 A 
ATOM     87  C   UNL A   1      46.336  24.395  28.007  1.00  0.00     0.131 A 
ATOM     88  C   UNL A   1      45.159  23.065  25.892  1.00  0.00     0.055 A 
ATOM     89  C   UNL A   1      45.192  23.612  28.228  1.00  0.00     0.041 A 
ATOM     90  F   UNL A   1      46.822  25.075  29.057  1.00  0.00    -0.206 F 
ATOM     91  C   UNL A   1      44.586  22.958  27.160  1.00  0.00     0.022 A 
BRANCH  88  92
ATOM     92  S   UNL A   1      44.302  22.307  24.487  1.00  0.00     0.124 S 
ATOM     93  O   UNL A   1      42.935  22.794  24.657  1.00  0.00    -0.237 OA
ATOM     94  O   UNL A   1      45.036  22.869  23.358  1.00  0.00    -0.237 OA
ATOM     95  O   UNL A   1      44.480  20.875  24.713  1.00  0.00    -0.744 OA
ENDBRANCH  88  92
ENDBRANCH  61  85
BRANCH  73  96
ATOM     96  C   UNL A   1      52.037  27.083  24.085  1.00  0.00     0.023 A 
ATOM     97  C   UNL A   1      50.873  27.584  23.483  1.00  0.00     0.031 A 
ATOM     98  C   UNL A   1      53.035  26.540  23.260  1.00  0.00     0.131 A 
ATOM     99  C   UNL A   1      50.688  27.469  22.108  1.00  0.00     0.055 A 
ATOM    100  C   UNL A   1      52.879  26.496  21.871  1.00  0.00     0.041 A 
ATOM    101  F   UNL A   1      54.142  25.980  23.773  1.00  0.00    -0.206 F 
ATOM    102  C   UNL A   1      51.691  26.941  21.291  1.00  0.00     0.022 A 
BRANCH  99 103
ATOM    103  S   UNL A   1      49.071  27.853  21.390  1.00  0.00     0.124 S 
ATOM    104  O   UNL A   1      48.152  27.339  22.401  1.00  0.00    -0.237 OA
ATOM    105  O   UNL A   1      49.123  29.308  21.268  1.00  0.00    -0.237 OA
ATOM    106  O   UNL A   1      49.068  27.130  20.120  1.00  0.00    -0.744 OA
ENDBRANCH  99 103
ENDBRANCH  73  96
ENDBRANCH  47  48
ENDBRANCH  40  42
ENDBRANCH  39  40
ENDBRANCH  38  39
ENDBRANCH  37  38
ENDBRANCH  36  37
ENDBRANCH  35  36
ENDBRANCH  34  35
ENDBRANCH  33  34
ENDBRANCH   1  33
TORSDOF 28
ENDMDL
MODEL 2
REMARK VINA RESULT:      -8.0      2.234      3.127
REMARK SMILES COC(=O)c1ccc2c(c1)=N[C@H](c1cn(CCC(=O)OCCOCCOCCOCCOC(=O)c3ccc(-c4c5nc(c(-c6cc(S(=O)(=O)[O-])ccc6F)c6ccc([nH]6)c(-c6cc(S(=O)(=O)[O-])ccc6F)c6nc(c(-c7cc(S(=O)(=O)[O-])ccc7F)c7ccc4[nH]7)C=C6)C=C5)cc3)c3ccccc13)N=2
REMARK SMILES IDX 25 1 24 2 23 3 22 4 21 5 20 6 18 7 19 8 17 9 16 10 15 11
REMARK SMILES IDX 13 12 14 13 103 14 98 15 102 16 99 17 101 18 100 19 12 20
REMARK SMILES IDX 5 21 6 22 10 23 7 24 9 25 8 26 11 27 104 28 3 29 4 30 2 31
REMARK SMILES IDX 1 32 26 33 27 34 28 35 29 36 30 37 31 38 32 39 33 40 34 41
REMARK SMILES IDX 35 42 36 43 97 44 37 45 96 46 38 47 39 48 40 49 90 50 41 51
REMARK SMILES IDX 95 52 89 53 91 54 42 55 94 56 88 57 87 58 43 60 75 61 55 62
REMARK SMILES IDX 74 63 56 64 59 65 73 66 92 67 57 68 58 69 72 71 93 72 60 73
REMARK SMILES IDX 44 74 45 75 53 76 46 77 52 78 54 79 51 80 47 81 48 82 49 83
REMARK SMILES IDX 50 84 76 85 77 86 85 87 78 88 84 89 86 90 83 91 79 92 80 93
REMARK SMILES IDX 81 94 82 95 61 96 62 97 70 98 63 99 69 100 71 101 68 102
REMARK SMILES IDX 64 103 65 104 66 105 67 106
REMARK H PARENT 91 59 59 70
REMARK Flexibility Score: inf
ROOT
ATOM      1  C   UNL A   1      42.848  41.505  25.070  1.00  0.00     0.188 C 
ENDROOT
BRANCH   1   2
ATOM      2  C   UNL A   1      42.320  42.092  23.761  1.00  0.00     0.188 C 
BRANCH   2   3
ATOM      3  O   UNL A   1      43.176  42.211  22.641  1.00  0.00    -0.376 OA
BRANCH   3   4
ATOM      4  C   UNL A   1      42.627  42.328  21.328  1.00  0.00     0.202 C 
BRANCH   4   5
ATOM      5  C   UNL A   1      41.271  43.003  21.070  1.00  0.00     0.261 C 
BRANCH   5   6
ATOM      6  O   UNL A   1      41.304  44.230  20.296  1.00  0.00    -0.463 OA
BRANCH   6   7
ATOM      7  C   UNL A   1      41.367  44.093  18.956  1.00  0.00     0.307 C 
ATOM      8  O   UNL A   1      40.477  43.577  18.280  1.00  0.00    -0.252 OA
BRANCH   7   9
ATOM      9  C   UNL A   1      42.649  44.548  18.283  1.00  0.00     0.144 C 
BRANCH   9  10
ATOM     10  C   UNL A   1      43.962  43.763  18.315  1.00  0.00     0.134 C 
BRANCH  10  11
ATOM     11  N   UNL A   1      44.881  44.157  19.357  1.00  0.00    -0.346 N 
ATOM     12  C   UNL A   1      46.022  45.499  20.649  1.00  0.00     0.024 A 
ATOM     13  C   UNL A   1      44.715  45.151  20.288  1.00  0.00     0.094 A 
ATOM     14  C   UNL A   1      46.839  44.921  19.588  1.00  0.00     0.007 A 
ATOM     15  C   UNL A   1      46.155  43.703  19.556  1.00  0.00     0.048 A 
ATOM     16  C   UNL A   1      48.225  44.845  19.385  1.00  0.00     0.011 A 
ATOM     17  C   UNL A   1      46.711  42.602  20.212  1.00  0.00     0.027 A 
ATOM     18  C   UNL A   1      48.852  43.742  19.949  1.00  0.00     0.001 A 
ATOM     19  C   UNL A   1      48.076  42.721  20.500  1.00  0.00     0.002 A 
BRANCH  12  20
ATOM     20  C   UNL A   1      46.473  46.142  21.936  1.00  0.00     0.255 C 
ATOM     21  C   UNL A   1      47.200  44.236  25.994  1.00  0.00     0.062 A 
ATOM     22  C   UNL A   1      48.577  44.329  25.522  1.00  0.00     0.018 A 
ATOM     23  C   UNL A   1      46.151  44.570  25.221  1.00  0.00     0.046 A 
ATOM     24  C   UNL A   1      48.904  44.777  24.299  1.00  0.00     0.031 A 
ATOM     25  C   UNL A   1      46.427  45.153  23.898  1.00  0.00     0.087 A 
ATOM     26  C   UNL A   1      47.820  45.255  23.427  1.00  0.00     0.086 A 
ATOM     27  N   UNL A   1      45.591  45.669  23.066  1.00  0.00    -0.252 NA
ATOM     28  N   UNL A   1      47.893  45.826  22.280  1.00  0.00    -0.252 NA
BRANCH  21  29
ATOM     29  C   UNL A   1      46.869  43.783  27.380  1.00  0.00     0.337 C 
ATOM     30  O   UNL A   1      46.669  42.620  27.696  1.00  0.00    -0.246 OA
BRANCH  29  31
ATOM     31  O   UNL A   1      46.737  44.860  28.199  1.00  0.00    -0.465 OA
ATOM     32  C   UNL A   1      45.390  45.154  28.577  1.00  0.00     0.282 C 
ENDBRANCH  29  31
ENDBRANCH  21  29
ENDBRANCH  12  20
ENDBRANCH  10  11
ENDBRANCH   9  10
ENDBRANCH   7   9
ENDBRANCH   6   7
ENDBRANCH   5   6
ENDBRANCH   4   5
ENDBRANCH   3   4
ENDBRANCH   2   3
ENDBRANCH   1   2
BRANCH   1  33
ATOM     33  O   UNL A   1      41.881  41.266  26.058  1.00  0.00    -0.377 OA
BRANCH  33  34
ATOM     34  C   UNL A   1      41.313  39.967  26.178  1.00  0.00     0.188 C 
BRANCH  34  35
ATOM     35  C   UNL A   1      41.781  39.037  27.308  1.00  0.00     0.188 C 
BRANCH  35  36
ATOM     36  O   UNL A   1      43.174  39.126  27.568  1.00  0.00    -0.376 OA
BRANCH  36  37
ATOM     37  C   UNL A   1      44.067  38.330  26.800  1.00  0.00     0.202 C 
BRANCH  37  38
ATOM     38  C   UNL A   1      45.205  37.558  27.493  1.00  0.00     0.261 C 
BRANCH  38  39
ATOM     39  O   UNL A   1      45.543  36.297  26.892  1.00  0.00    -0.460 OA
BRANCH  39  40
ATOM     40  C   UNL A   1      44.874  35.166  27.212  1.00  0.00     0.338 C 
ATOM     41  O   UNL A   1      43.686  34.951  27.043  1.00  0.00    -0.246 OA
BRANCH  40  42
ATOM     42  C   UNL A   1      45.934  34.156  27.489  1.00  0.00     0.060 A 
ATOM     43  C   UNL A   1      46.940  33.912  26.560  1.00  0.00     0.016 A 
ATOM     44  C   UNL A   1      45.717  33.241  28.528  1.00  0.00     0.016 A 
ATOM     45  C   UNL A   1      47.599  32.683  26.588  1.00  0.00     0.010 A 
ATOM     46  C   UNL A   1      46.359  31.993  28.523  1.00  0.00     0.010 A 
ATOM     47  C   UNL A   1      47.253  31.673  27.505  1.00  0.00    -0.014 A 
BRANCH  47  48
ATOM     48  C   UNL A   1      48.040  30.415  27.452  1.00  0.00     0.031 A 
ATOM     49  C   UNL A   1      49.283  30.521  28.271  1.00  0.00     0.074 A 
ATOM     50  C   UNL A   1      47.701  29.244  26.856  1.00  0.00     0.049 A 
ATOM     51  N   UNL A   1      50.514  30.391  27.896  1.00  0.00    -0.248 NA
ATOM     52  C   UNL A   1      49.125  31.035  29.645  1.00  0.00     0.031 C 
ATOM     53  C   UNL A   1      46.406  28.926  26.249  1.00  0.00     0.029 A 
ATOM     54  N   UNL A   1      48.382  28.046  26.746  1.00  0.00    -0.354 N 
ATOM     55  C   UNL A   1      51.266  30.576  29.057  1.00  0.00     0.074 A 
ATOM     56  C   UNL A   1      50.392  31.185  30.021  1.00  0.00     0.031 C 
ATOM     57  C   UNL A   1      46.308  27.591  26.057  1.00  0.00     0.029 A 
ATOM     58  C   UNL A   1      47.566  26.958  26.421  1.00  0.00     0.049 A 
ATOM     59  H   UNL A   1      49.353  27.965  26.882  1.00  0.00     0.167 HD
ATOM     60  C   UNL A   1      52.447  29.926  29.249  1.00  0.00     0.034 A 
ATOM     61  C   UNL A   1      47.837  25.626  26.505  1.00  0.00     0.034 A 
ATOM     62  C   UNL A   1      52.985  29.437  28.016  1.00  0.00     0.049 A 
ATOM     63  C   UNL A   1      49.292  25.413  26.590  1.00  0.00     0.074 A 
ATOM     64  C   UNL A   1      53.733  29.940  26.977  1.00  0.00     0.029 A 
ATOM     65  N   UNL A   1      52.445  28.252  27.604  1.00  0.00    -0.354 N 
ATOM     66  N   UNL A   1      50.106  25.561  25.588  1.00  0.00    -0.248 NA
ATOM     67  C   UNL A   1      49.916  25.299  27.905  1.00  0.00     0.031 C 
ATOM     68  C   UNL A   1      53.552  29.047  25.885  1.00  0.00     0.029 A 
ATOM     69  C   UNL A   1      52.728  28.001  26.291  1.00  0.00     0.049 A 
ATOM     70  H   UNL A   1      51.917  27.653  28.181  1.00  0.00     0.167 HD
ATOM     71  C   UNL A   1      51.256  26.028  26.181  1.00  0.00     0.074 A 
ATOM     72  C   UNL A   1      51.158  25.668  27.588  1.00  0.00     0.031 C 
ATOM     73  C   UNL A   1      52.008  26.978  25.568  1.00  0.00     0.034 A 
BRANCH  60  74
ATOM     74  C   UNL A   1      52.843  29.315  30.580  1.00  0.00     0.023 A 
ATOM     75  C   UNL A   1      52.103  28.288  31.199  1.00  0.00     0.031 A 
ATOM     76  C   UNL A   1      54.113  29.567  31.136  1.00  0.00     0.131 A 
ATOM     77  C   UNL A   1      52.588  27.582  32.305  1.00  0.00     0.055 A 
ATOM     78  C   UNL A   1      54.630  28.815  32.201  1.00  0.00     0.041 A 
ATOM     79  F   UNL A   1      54.914  30.515  30.626  1.00  0.00    -0.206 F 
ATOM     80  C   UNL A   1      53.867  27.815  32.794  1.00  0.00     0.022 A 
BRANCH  77  81
ATOM     81  S   UNL A   1      51.546  26.334  33.110  1.00  0.00     0.124 S 
ATOM     82  O   UNL A   1      50.557  27.158  33.794  1.00  0.00    -0.237 OA
ATOM     83  O   UNL A   1      51.056  25.577  31.961  1.00  0.00    -0.237 OA
ATOM     84  O   UNL A   1      52.479  25.611  33.971  1.00  0.00    -0.744 OA
ENDBRANCH  77  81
ENDBRANCH  60  74
BRANCH  61  85
ATOM     85  C   UNL A   1      46.918  24.508  26.844  1.00  0.00     0.023 A 
ATOM     86  C   UNL A   1      46.407  23.720  25.801  1.00  0.00     0.031 A 
ATOM     87  C   UNL A   1      46.266  24.422  28.092  1.00  0.00     0.131 A 
ATOM     88  C   UNL A   1      45.249  22.952  25.987  1.00  0.00     0.055 A 
ATOM     89  C   UNL A   1      45.125  23.629  28.285  1.00  0.00     0.041 A 
ATOM     90  F   UNL A   1      46.673  25.170  29.129  1.00  0.00    -0.206 F 
ATOM     91  C   UNL A   1      44.599  22.903  27.221  1.00  0.00     0.022 A 
BRANCH  88  92
ATOM     92  S   UNL A   1      44.497  22.099  24.576  1.00  0.00     0.124 S 
ATOM     93  O   UNL A   1      45.016  20.741  24.722  1.00  0.00    -0.237 OA
ATOM     94  O   UNL A   1      43.075  22.264  24.858  1.00  0.00    -0.237 OA
ATOM     95  O   UNL A   1      45.007  22.835  23.422  1.00  0.00    -0.744 OA
ENDBRANCH  88  92
ENDBRANCH  61  85
BRANCH  73  96
ATOM     96  C   UNL A   1      51.971  27.068  24.077  1.00  0.00     0.023 A 
ATOM     97  C   UNL A   1      50.736  27.443  23.525  1.00  0.00     0.031 A 
ATOM     98  C   UNL A   1      52.998  26.668  23.207  1.00  0.00     0.131 A 
ATOM     99  C   UNL A   1      50.520  27.342  22.153  1.00  0.00     0.055 A 
ATOM    100  C   UNL A   1      52.802  26.641  21.823  1.00  0.00     0.041 A 
ATOM    101  F   UNL A   1      54.179  26.230  23.670  1.00  0.00    -0.206 F 
ATOM    102  C   UNL A   1      51.551  26.957  21.292  1.00  0.00     0.022 A 
BRANCH  99 103
ATOM    103  S   UNL A   1      48.847  27.548  21.496  1.00  0.00     0.124 S 
ATOM    104  O   UNL A   1      48.923  26.840  20.222  1.00  0.00    -0.237 OA
ATOM    105  O   UNL A   1      48.029  26.909  22.523  1.00  0.00    -0.237 OA
ATOM    106  O   UNL A   1      48.683  28.997  21.394  1.00  0.00    -0.744 OA
ENDBRANCH  99 103
ENDBRANCH  73  96
ENDBRANCH  47  48
ENDBRANCH  40  42
ENDBRANCH  39  40
ENDBRANCH  38  39
ENDBRANCH  37  38
ENDBRANCH  36  37
ENDBRANCH  35  36
ENDBRANCH  34  35
ENDBRANCH  33  34
ENDBRANCH   1  33
TORSDOF 28
ENDMDL
MODEL 3
REMARK VINA RESULT:      -7.8      8.759     14.894
REMARK SMILES COC(=O)c1ccc2c(c1)=N[C@H](c1cn(CCC(=O)OCCOCCOCCOCCOC(=O)c3ccc(-c4c5nc(c(-c6cc(S(=O)(=O)[O-])ccc6F)c6ccc([nH]6)c(-c6cc(S(=O)(=O)[O-])ccc6F)c6nc(c(-c7cc(S(=O)(=O)[O-])ccc7F)c7ccc4[nH]7)C=C6)C=C5)cc3)c3ccccc13)N=2
REMARK SMILES IDX 25 1 24 2 23 3 22 4 21 5 20 6 18 7 19 8 17 9 16 10 15 11
REMARK SMILES IDX 13 12 14 13 103 14 98 15 102 16 99 17 101 18 100 19 12 20
REMARK SMILES IDX 5 21 6 22 10 23 7 24 9 25 8 26 11 27 104 28 3 29 4 30 2 31
REMARK SMILES IDX 1 32 26 33 27 34 28 35 29 36 30 37 31 38 32 39 33 40 34 41
REMARK SMILES IDX 35 42 36 43 97 44 37 45 96 46 38 47 39 48 40 49 90 50 41 51
REMARK SMILES IDX 95 52 89 53 91 54 42 55 94 56 88 57 87 58 43 60 75 61 55 62
REMARK SMILES IDX 74 63 56 64 59 65 73 66 92 67 57 68 58 69 72 71 93 72 60 73
REMARK SMILES IDX 44 74 45 75 53 76 46 77 52 78 54 79 51 80 47 81 48 82 49 83
REMARK SMILES IDX 50 84 76 85 77 86 85 87 78 88 84 89 86 90 83 91 79 92 80 93
REMARK SMILES IDX 81 94 82 95 61 96 62 97 70 98 63 99 69 100 71 101 68 102
REMARK SMILES IDX 64 103 65 104 66 105 67 106
REMARK H PARENT 91 59 59 70
REMARK Flexibility Score: inf
ROOT
ATOM      1  C   UNL A   1      38.624  31.752  36.015  1.00  0.00     0.188 C 
ENDROOT
BRANCH   1   2
ATOM      2  C   UNL A   1      39.496  32.837  36.646  1.00  0.00     0.188 C 
BRANCH   2   3
ATOM      3  O   UNL A   1      40.870  32.921  36.321  1.00  0.00    -0.376 OA
BRANCH   3   4
ATOM      4  C   UNL A   1      41.856  32.482  37.256  1.00  0.00     0.202 C 
BRANCH   4   5
ATOM      5  C   UNL A   1      42.251  31.003  37.390  1.00  0.00     0.261 C 
BRANCH   5   6
ATOM      6  O   UNL A   1      42.425  30.272  36.150  1.00  0.00    -0.463 OA
BRANCH   6   7
ATOM      7  C   UNL A   1      41.751  29.109  36.038  1.00  0.00     0.307 C 
ATOM      8  O   UNL A   1      40.539  29.002  36.222  1.00  0.00    -0.252 OA
BRANCH   7   9
ATOM      9  C   UNL A   1      42.574  27.870  35.735  1.00  0.00     0.144 C 
BRANCH   9  10
ATOM     10  C   UNL A   1      42.612  27.176  34.371  1.00  0.00     0.134 C 
BRANCH  10  11
ATOM     11  N   UNL A   1      43.854  26.507  34.065  1.00  0.00    -0.346 N 
ATOM     12  C   UNL A   1      45.545  25.829  32.859  1.00  0.00     0.024 A 
ATOM     13  C   UNL A   1      44.901  26.984  33.318  1.00  0.00     0.094 A 
ATOM     14  C   UNL A   1      44.562  24.774  33.080  1.00  0.00     0.007 A 
ATOM     15  C   UNL A   1      44.193  25.214  34.355  1.00  0.00     0.048 A 
ATOM     16  C   UNL A   1      44.598  23.383  32.905  1.00  0.00     0.011 A 
ATOM     17  C   UNL A   1      44.733  24.569  35.471  1.00  0.00     0.027 A 
ATOM     18  C   UNL A   1      45.061  22.656  33.994  1.00  0.00     0.001 A 
ATOM     19  C   UNL A   1      45.276  23.306  35.210  1.00  0.00     0.002 A 
BRANCH  12  20
ATOM     20  C   UNL A   1      46.985  25.694  32.433  1.00  0.00     0.255 C 
ATOM     21  C   UNL A   1      49.326  28.146  29.411  1.00  0.00     0.062 A 
ATOM     22  C   UNL A   1      49.799  28.767  30.643  1.00  0.00     0.018 A 
ATOM     23  C   UNL A   1      48.364  27.205  29.405  1.00  0.00     0.046 A 
ATOM     24  C   UNL A   1      49.337  28.431  31.859  1.00  0.00     0.031 A 
ATOM     25  C   UNL A   1      47.866  26.718  30.701  1.00  0.00     0.087 A 
ATOM     26  C   UNL A   1      48.354  27.340  31.945  1.00  0.00     0.086 A 
ATOM     27  N   UNL A   1      47.065  25.736  30.927  1.00  0.00    -0.252 NA
ATOM     28  N   UNL A   1      47.861  26.771  32.985  1.00  0.00    -0.252 NA
BRANCH  21  29
ATOM     29  C   UNL A   1      49.897  28.503  28.077  1.00  0.00     0.337 C 
ATOM     30  O   UNL A   1      49.934  27.748  27.117  1.00  0.00    -0.246 OA
BRANCH  29  31
ATOM     31  O   UNL A   1      50.444  29.747  28.126  1.00  0.00    -0.465 OA
ATOM     32  C   UNL A   1      50.440  30.445  26.878  1.00  0.00     0.282 C 
ENDBRANCH  29  31
ENDBRANCH  21  29
ENDBRANCH  12  20
ENDBRANCH  10  11
ENDBRANCH   9  10
ENDBRANCH   7   9
ENDBRANCH   6   7
ENDBRANCH   5   6
ENDBRANCH   4   5
ENDBRANCH   3   4
ENDBRANCH   2   3
ENDBRANCH   1   2
BRANCH   1  33
ATOM     33  O   UNL A   1      37.350  32.167  35.596  1.00  0.00    -0.377 OA
BRANCH  33  34
ATOM     34  C   UNL A   1      36.916  33.489  35.894  1.00  0.00     0.188 C 
BRANCH  34  35
ATOM     35  C   UNL A   1      35.875  34.166  34.991  1.00  0.00     0.188 C 
BRANCH  35  36
ATOM     36  O   UNL A   1      34.936  33.256  34.437  1.00  0.00    -0.376 OA
BRANCH  36  37
ATOM     37  C   UNL A   1      34.622  33.352  33.053  1.00  0.00     0.202 C 
BRANCH  37  38
ATOM     38  C   UNL A   1      35.537  34.150  32.107  1.00  0.00     0.261 C 
BRANCH  38  39
ATOM     39  O   UNL A   1      35.225  34.030  30.708  1.00  0.00    -0.460 OA
BRANCH  39  40
ATOM     40  C   UNL A   1      35.092  32.818  30.122  1.00  0.00     0.338 C 
ATOM     41  O   UNL A   1      34.057  32.317  29.717  1.00  0.00    -0.246 OA
BRANCH  40  42
ATOM     42  C   UNL A   1      36.481  32.399  29.784  1.00  0.00     0.060 A 
ATOM     43  C   UNL A   1      37.010  31.221  30.300  1.00  0.00     0.016 A 
ATOM     44  C   UNL A   1      37.339  33.354  29.223  1.00  0.00     0.016 A 
ATOM     45  C   UNL A   1      38.395  31.089  30.395  1.00  0.00     0.010 A 
ATOM     46  C   UNL A   1      38.730  33.228  29.359  1.00  0.00     0.010 A 
ATOM     47  C   UNL A   1      39.269  32.125  30.017  1.00  0.00    -0.014 A 
BRANCH  47  48
ATOM     48  C   UNL A   1      40.725  31.860  30.145  1.00  0.00     0.031 A 
ATOM     49  C   UNL A   1      41.311  32.610  31.294  1.00  0.00     0.074 A 
ATOM     50  C   UNL A   1      41.479  30.988  29.429  1.00  0.00     0.049 A 
ATOM     51  N   UNL A   1      42.263  33.487  31.289  1.00  0.00    -0.248 NA
ATOM     52  C   UNL A   1      40.599  32.505  32.582  1.00  0.00     0.031 C 
ATOM     53  C   UNL A   1      40.983  30.009  28.460  1.00  0.00     0.029 A 
ATOM     54  N   UNL A   1      42.831  30.702  29.474  1.00  0.00    -0.354 N 
ATOM     55  C   UNL A   1      42.417  33.859  32.624  1.00  0.00     0.074 A 
ATOM     56  C   UNL A   1      41.241  33.410  33.316  1.00  0.00     0.031 C 
ATOM     57  C   UNL A   1      41.949  29.101  28.194  1.00  0.00     0.029 A 
ATOM     58  C   UNL A   1      43.172  29.482  28.882  1.00  0.00     0.049 A 
ATOM     59  H   UNL A   1      43.494  31.302  29.884  1.00  0.00     0.167 HD
ATOM     60  C   UNL A   1      43.632  34.216  33.126  1.00  0.00     0.034 A 
ATOM     61  C   UNL A   1      44.328  28.770  28.987  1.00  0.00     0.034 A 
ATOM     62  C   UNL A   1      44.547  34.572  32.084  1.00  0.00     0.049 A 
ATOM     63  C   UNL A   1      45.410  29.637  29.483  1.00  0.00     0.074 A 
ATOM     64  C   UNL A   1      44.824  35.688  31.328  1.00  0.00     0.029 A 
ATOM     65  N   UNL A   1      45.152  33.504  31.485  1.00  0.00    -0.354 N 
ATOM     66  N   UNL A   1      45.989  30.555  28.769  1.00  0.00    -0.248 NA
ATOM     67  C   UNL A   1      45.681  29.683  30.917  1.00  0.00     0.031 C 
ATOM     68  C   UNL A   1      45.554  35.234  30.196  1.00  0.00     0.029 A 
ATOM     69  C   UNL A   1      45.739  33.858  30.302  1.00  0.00     0.049 A 
ATOM     70  H   UNL A   1      45.165  32.593  31.859  1.00  0.00     0.167 HD
ATOM     71  C   UNL A   1      46.283  31.534  29.689  1.00  0.00     0.074 A 
ATOM     72  C   UNL A   1      46.257  30.884  30.991  1.00  0.00     0.031 C 
ATOM     73  C   UNL A   1      46.157  32.846  29.361  1.00  0.00     0.034 A 
BRANCH  60  74
ATOM     74  C   UNL A   1      44.124  33.767  34.489  1.00  0.00     0.023 A 
ATOM     75  C   UNL A   1      44.755  32.525  34.701  1.00  0.00     0.031 A 
ATOM     76  C   UNL A   1      44.207  34.680  35.559  1.00  0.00     0.131 A 
ATOM     77  C   UNL A   1      45.400  32.212  35.903  1.00  0.00     0.055 A 
ATOM     78  C   UNL A   1      44.912  34.395  36.738  1.00  0.00     0.041 A 
ATOM     79  F   UNL A   1      43.654  35.899  35.470  1.00  0.00    -0.206 F 
ATOM     80  C   UNL A   1      45.513  33.155  36.917  1.00  0.00     0.022 A 
BRANCH  77  81
ATOM     81  S   UNL A   1      46.112  30.561  36.144  1.00  0.00     0.124 S 
ATOM     82  O   UNL A   1      45.575  29.828  35.003  1.00  0.00    -0.237 OA
ATOM     83  O   UNL A   1      47.543  30.849  36.097  1.00  0.00    -0.237 OA
ATOM     84  O   UNL A   1      45.608  30.157  37.454  1.00  0.00    -0.744 OA
ENDBRANCH  77  81
ENDBRANCH  60  74
BRANCH  61  85
ATOM     85  C   UNL A   1      44.516  27.295  28.999  1.00  0.00     0.023 A 
ATOM     86  C   UNL A   1      45.253  26.705  27.960  1.00  0.00     0.031 A 
ATOM     87  C   UNL A   1      43.711  26.441  29.780  1.00  0.00     0.131 A 
ATOM     88  C   UNL A   1      45.120  25.340  27.676  1.00  0.00     0.055 A 
ATOM     89  C   UNL A   1      43.602  25.068  29.513  1.00  0.00     0.041 A 
ATOM     90  F   UNL A   1      42.949  26.933  30.769  1.00  0.00    -0.206 F 
ATOM     91  C   UNL A   1      44.295  24.514  28.441  1.00  0.00     0.022 A 
BRANCH  88  92
ATOM     92  S   UNL A   1      45.929  24.640  26.213  1.00  0.00     0.124 S 
ATOM     93  O   UNL A   1      44.863  24.689  25.216  1.00  0.00    -0.237 OA
ATOM     94  O   UNL A   1      47.028  25.578  26.009  1.00  0.00    -0.237 OA
ATOM     95  O   UNL A   1      46.310  23.298  26.645  1.00  0.00    -0.744 OA
ENDBRANCH  88  92
ENDBRANCH  61  85
BRANCH  73  96
ATOM     96  C   UNL A   1      46.311  33.242  27.928  1.00  0.00     0.023 A 
ATOM     97  C   UNL A   1      47.625  33.511  27.514  1.00  0.00     0.031 A 
ATOM     98  C   UNL A   1      45.261  33.510  27.036  1.00  0.00     0.131 A 
ATOM     99  C   UNL A   1      47.864  34.102  26.275  1.00  0.00     0.055 A 
ATOM    100  C   UNL A   1      45.511  34.031  25.762  1.00  0.00     0.041 A 
ATOM    101  F   UNL A   1      43.977  33.343  27.391  1.00  0.00    -0.206 F 
ATOM    102  C   UNL A   1      46.816  34.352  25.386  1.00  0.00     0.022 A 
BRANCH  99 103
ATOM    103  S   UNL A   1      49.524  34.705  25.880  1.00  0.00     0.124 S 
ATOM    104  O   UNL A   1      50.077  34.982  27.202  1.00  0.00    -0.237 OA
ATOM    105  O   UNL A   1      50.109  33.564  25.179  1.00  0.00    -0.237 OA
ATOM    106  O   UNL A   1      49.284  35.880  25.045  1.00  0.00    -0.744 OA
ENDBRANCH  99 103
ENDBRANCH  73  96
ENDBRANCH  47  48
ENDBRANCH  40  42
ENDBRANCH  39  40
ENDBRANCH  38  39
ENDBRANCH  37  38
ENDBRANCH  36  37
ENDBRANCH  35  36
ENDBRANCH  34  35
ENDBRANCH  33  34
ENDBRANCH   1  33
TORSDOF 28
ENDMDL
