MODEL 1
REMARK VINA RESULT:      -8.7      0.000      0.000
REMARK SMILES CC[C@](C)(NC(=O)N[C@@H]1C[C@@H]1C)C(=O)OCCOCCOCCOCCOC(=O)c1ccc(-c2c3nc(c(-c4cc(S(=O)(=O)[O-])ccc4F)c4ccc([nH]4)c(-c4cc(S(=O)(=O)[O-])ccc4F)c4nc(c(-c5cc(S(=O)(=O)[O-])ccc5F)c5ccc2[nH]5)C=C4)C=C3)cc1
REMARK SMILES IDX 22 1 21 2 20 3 19 4 18 5 17 6 16 7 15 8 13 9 14 10 3 11 4 12
REMARK SMILES IDX 2 13 1 14 5 15 6 16 7 18 8 19 9 21 10 22 11 23 12 24 23 25
REMARK SMILES IDX 24 26 25 27 26 28 27 29 28 30 29 31 30 32 31 33 92 34 32 35
REMARK SMILES IDX 91 36 33 37 34 38 35 39 85 40 36 41 90 42 84 43 86 44 37 45
REMARK SMILES IDX 89 46 83 47 82 48 38 50 70 51 50 52 69 53 51 54 54 55 68 56
REMARK SMILES IDX 87 57 52 58 53 59 67 61 88 62 55 63 39 64 40 65 48 66 41 67
REMARK SMILES IDX 47 68 49 69 46 70 42 71 43 72 44 73 45 74 71 75 72 76 80 77
REMARK SMILES IDX 73 78 79 79 81 80 78 81 74 82 75 83 76 84 77 85 56 86 57 87
REMARK SMILES IDX 65 88 58 89 64 90 66 91 63 92 59 93 60 94 61 95 62 96
REMARK H PARENT 5 17 8 20 86 49 54 60
REMARK Flexibility Score: inf
ROOT
ATOM      1  C   UNL A   1      32.870  29.334  25.322  1.00  0.00     0.188 C 
ENDROOT
BRANCH   1   2
ATOM      2  O   UNL A   1      32.773  28.087  24.660  1.00  0.00    -0.377 OA
BRANCH   2   3
ATOM      3  C   UNL A   1      32.572  28.197  23.265  1.00  0.00     0.188 C 
BRANCH   3   4
ATOM      4  C   UNL A   1      33.236  27.082  22.443  1.00  0.00     0.188 C 
BRANCH   4   5
ATOM      5  O   UNL A   1      32.390  26.070  21.872  1.00  0.00    -0.376 OA
BRANCH   5   6
ATOM      6  C   UNL A   1      32.914  24.730  21.777  1.00  0.00     0.202 C 
BRANCH   6   7
ATOM      7  C   UNL A   1      33.956  24.464  22.911  1.00  0.00     0.261 C 
BRANCH   7   8
ATOM      8  O   UNL A   1      34.290  23.042  23.079  1.00  0.00    -0.462 OA
BRANCH   8   9
ATOM      9  C   UNL A   1      33.603  22.265  23.996  1.00  0.00     0.331 C 
ATOM     10  O   UNL A   1      32.489  21.808  23.760  1.00  0.00    -0.249 OA
BRANCH   9  11
ATOM     11  C   UNL A   1      34.386  22.054  25.409  1.00  0.00     0.136 C 
ATOM     12  C   UNL A   1      33.919  21.152  26.591  1.00  0.00     0.047 C 
BRANCH  11  13
ATOM     13  C   UNL A   1      34.391  23.472  26.062  1.00  0.00     0.037 C 
ATOM     14  C   UNL A   1      35.787  24.136  25.998  1.00  0.00     0.007 C 
ENDBRANCH  11  13
BRANCH  11  15
ATOM     15  N   UNL A   1      35.710  21.539  25.082  1.00  0.00    -0.322 N 
ATOM     16  C   UNL A   1      36.038  20.233  24.940  1.00  0.00     0.315 C 
ATOM     17  H   UNL A   1      36.429  22.199  24.953  1.00  0.00     0.166 HD
ATOM     18  O   UNL A   1      37.228  19.934  24.825  1.00  0.00    -0.249 OA
ATOM     19  N   UNL A   1      35.110  19.234  24.978  1.00  0.00    -0.335 N 
ATOM     20  H   UNL A   1      35.497  18.371  25.252  1.00  0.00     0.165 HD
BRANCH  19  21
ATOM     21  C   UNL A   1      33.698  19.142  24.715  1.00  0.00     0.087 C 
ATOM     22  C   UNL A   1      32.536  18.224  24.977  1.00  0.00     0.030 C 
ATOM     23  C   UNL A   1      33.181  18.190  23.645  1.00  0.00     0.010 C 
ATOM     24  C   UNL A   1      34.033  17.053  23.217  1.00  0.00     0.010 C 
ENDBRANCH  19  21
ENDBRANCH  11  15
ENDBRANCH   9  11
ENDBRANCH   8   9
ENDBRANCH   7   8
ENDBRANCH   6   7
ENDBRANCH   5   6
ENDBRANCH   4   5
ENDBRANCH   3   4
ENDBRANCH   2   3
ENDBRANCH   1   2
BRANCH   1  25
ATOM     25  C   UNL A   1      32.939  29.251  26.856  1.00  0.00     0.188 C 
BRANCH  25  26
ATOM     26  O   UNL A   1      34.192  29.175  27.535  1.00  0.00    -0.376 OA
BRANCH  26  27
ATOM     27  C   UNL A   1      34.918  30.342  27.894  1.00  0.00     0.202 C 
BRANCH  27  28
ATOM     28  C   UNL A   1      34.408  31.676  27.349  1.00  0.00     0.261 C 
BRANCH  28  29
ATOM     29  O   UNL A   1      33.368  32.249  28.146  1.00  0.00    -0.460 OA
BRANCH  29  30
ATOM     30  C   UNL A   1      33.629  33.494  28.598  1.00  0.00     0.338 C 
ATOM     31  O   UNL A   1      33.006  34.520  28.349  1.00  0.00    -0.246 OA
BRANCH  30  32
ATOM     32  C   UNL A   1      34.699  33.425  29.599  1.00  0.00     0.060 A 
ATOM     33  C   UNL A   1      35.959  33.943  29.268  1.00  0.00     0.016 A 
ATOM     34  C   UNL A   1      34.478  32.788  30.820  1.00  0.00     0.016 A 
ATOM     35  C   UNL A   1      37.028  33.767  30.133  1.00  0.00     0.010 A 
ATOM     36  C   UNL A   1      35.560  32.572  31.671  1.00  0.00     0.010 A 
ATOM     37  C   UNL A   1      36.843  33.007  31.291  1.00  0.00    -0.014 A 
BRANCH  37  38
ATOM     38  C   UNL A   1      38.034  32.388  31.906  1.00  0.00     0.031 A 
ATOM     39  C   UNL A   1      38.784  31.376  31.083  1.00  0.00     0.074 A 
ATOM     40  C   UNL A   1      38.466  32.768  33.116  1.00  0.00     0.049 A 
ATOM     41  N   UNL A   1      39.835  30.667  31.391  1.00  0.00    -0.248 NA
ATOM     42  C   UNL A   1      38.266  31.131  29.727  1.00  0.00     0.031 C 
ATOM     43  C   UNL A   1      37.853  33.802  33.946  1.00  0.00     0.029 A 
ATOM     44  N   UNL A   1      39.530  32.323  33.853  1.00  0.00    -0.354 N 
ATOM     45  C   UNL A   1      40.096  29.881  30.273  1.00  0.00     0.074 A 
ATOM     46  C   UNL A   1      39.068  30.172  29.300  1.00  0.00     0.031 C 
ATOM     47  C   UNL A   1      38.554  33.911  35.087  1.00  0.00     0.029 A 
ATOM     48  C   UNL A   1      39.631  32.922  35.083  1.00  0.00     0.049 A 
ATOM     49  H   UNL A   1      40.161  31.639  33.531  1.00  0.00     0.167 HD
ATOM     50  C   UNL A   1      41.106  29.000  30.080  1.00  0.00     0.034 A 
ATOM     51  C   UNL A   1      40.486  32.674  36.093  1.00  0.00     0.034 A 
ATOM     52  C   UNL A   1      42.100  28.716  31.084  1.00  0.00     0.049 A 
ATOM     53  C   UNL A   1      41.537  31.607  35.902  1.00  0.00     0.074 A 
ATOM     54  C   UNL A   1      43.170  27.843  31.017  1.00  0.00     0.029 A 
ATOM     55  N   UNL A   1      42.133  29.289  32.351  1.00  0.00    -0.354 N 
ATOM     56  N   UNL A   1      41.775  30.854  34.850  1.00  0.00    -0.248 NA
ATOM     57  C   UNL A   1      42.442  31.366  37.030  1.00  0.00     0.031 C 
ATOM     58  C   UNL A   1      43.791  27.818  32.271  1.00  0.00     0.029 A 
ATOM     59  C   UNL A   1      43.180  28.758  33.088  1.00  0.00     0.049 A 
ATOM     60  H   UNL A   1      41.505  29.973  32.676  1.00  0.00     0.167 HD
ATOM     61  C   UNL A   1      42.887  30.081  35.178  1.00  0.00     0.074 A 
ATOM     62  C   UNL A   1      43.270  30.467  36.521  1.00  0.00     0.031 C 
ATOM     63  C   UNL A   1      43.540  29.150  34.433  1.00  0.00     0.034 A 
BRANCH  50  64
ATOM     64  C   UNL A   1      41.115  28.234  28.776  1.00  0.00     0.023 A 
ATOM     65  C   UNL A   1      40.609  26.925  28.675  1.00  0.00     0.031 A 
ATOM     66  C   UNL A   1      41.712  28.795  27.633  1.00  0.00     0.131 A 
ATOM     67  C   UNL A   1      40.802  26.189  27.495  1.00  0.00     0.055 A 
ATOM     68  C   UNL A   1      41.809  28.093  26.431  1.00  0.00     0.041 A 
ATOM     69  F   UNL A   1      42.242  30.028  27.673  1.00  0.00    -0.206 F 
ATOM     70  C   UNL A   1      41.371  26.774  26.362  1.00  0.00     0.022 A 
BRANCH  67  71
ATOM     71  S   UNL A   1      40.477  24.404  27.525  1.00  0.00     0.124 S 
ATOM     72  O   UNL A   1      40.871  24.010  26.174  1.00  0.00    -0.237 OA
ATOM     73  O   UNL A   1      41.344  23.943  28.603  1.00  0.00    -0.237 OA
ATOM     74  O   UNL A   1      39.044  24.321  27.796  1.00  0.00    -0.744 OA
ENDBRANCH  67  71
ENDBRANCH  50  64
BRANCH  51  75
ATOM     75  C   UNL A   1      40.374  33.426  37.373  1.00  0.00     0.023 A 
ATOM     76  C   UNL A   1      39.590  32.941  38.430  1.00  0.00     0.031 A 
ATOM     77  C   UNL A   1      41.029  34.659  37.548  1.00  0.00     0.131 A 
ATOM     78  C   UNL A   1      39.448  33.701  39.601  1.00  0.00     0.055 A 
ATOM     79  C   UNL A   1      40.931  35.384  38.736  1.00  0.00     0.041 A 
ATOM     80  F   UNL A   1      41.791  35.168  36.568  1.00  0.00    -0.206 F 
ATOM     81  C   UNL A   1      40.126  34.912  39.768  1.00  0.00     0.022 A 
BRANCH  78  82
ATOM     82  S   UNL A   1      38.298  33.121  40.877  1.00  0.00     0.124 S 
ATOM     83  O   UNL A   1      37.550  34.337  41.176  1.00  0.00    -0.237 OA
ATOM     84  O   UNL A   1      37.567  32.074  40.171  1.00  0.00    -0.237 OA
ATOM     85  O   UNL A   1      39.180  32.652  41.942  1.00  0.00    -0.744 OA
ENDBRANCH  78  82
ENDBRANCH  51  75
BRANCH  63  86
ATOM     86  C   UNL A   1      44.783  28.536  35.035  1.00  0.00     0.023 A 
ATOM     87  C   UNL A   1      44.745  27.347  35.783  1.00  0.00     0.031 A 
ATOM     88  C   UNL A   1      46.030  29.167  34.866  1.00  0.00     0.131 A 
ATOM     89  C   UNL A   1      45.914  26.868  36.393  1.00  0.00     0.055 A 
ATOM     90  C   UNL A   1      47.203  28.641  35.404  1.00  0.00     0.041 A 
ATOM     91  F   UNL A   1      46.128  30.309  34.165  1.00  0.00    -0.206 F 
ATOM     92  C   UNL A   1      47.147  27.494  36.189  1.00  0.00     0.022 A 
BRANCH  89  93
ATOM     93  S   UNL A   1      45.782  25.489  37.564  1.00  0.00     0.124 S 
ATOM     94  O   UNL A   1      46.314  24.378  36.784  1.00  0.00    -0.237 OA
ATOM     95  O   UNL A   1      46.610  25.943  38.676  1.00  0.00    -0.237 OA
ATOM     96  O   UNL A   1      44.348  25.418  37.848  1.00  0.00    -0.744 OA
ENDBRANCH  89  93
ENDBRANCH  63  86
ENDBRANCH  37  38
ENDBRANCH  30  32
ENDBRANCH  29  30
ENDBRANCH  28  29
ENDBRANCH  27  28
ENDBRANCH  26  27
ENDBRANCH  25  26
ENDBRANCH   1  25
TORSDOF 26
ENDMDL
MODEL 2
REMARK VINA RESULT:      -8.7      2.398      3.161
REMARK SMILES CC[C@](C)(NC(=O)N[C@@H]1C[C@@H]1C)C(=O)OCCOCCOCCOCCOC(=O)c1ccc(-c2c3nc(c(-c4cc(S(=O)(=O)[O-])ccc4F)c4ccc([nH]4)c(-c4cc(S(=O)(=O)[O-])ccc4F)c4nc(c(-c5cc(S(=O)(=O)[O-])ccc5F)c5ccc2[nH]5)C=C4)C=C3)cc1
REMARK SMILES IDX 22 1 21 2 20 3 19 4 18 5 17 6 16 7 15 8 13 9 14 10 3 11 4 12
REMARK SMILES IDX 2 13 1 14 5 15 6 16 7 18 8 19 9 21 10 22 11 23 12 24 23 25
REMARK SMILES IDX 24 26 25 27 26 28 27 29 28 30 29 31 30 32 31 33 92 34 32 35
REMARK SMILES IDX 91 36 33 37 34 38 35 39 85 40 36 41 90 42 84 43 86 44 37 45
REMARK SMILES IDX 89 46 83 47 82 48 38 50 70 51 50 52 69 53 51 54 54 55 68 56
REMARK SMILES IDX 87 57 52 58 53 59 67 61 88 62 55 63 39 64 40 65 48 66 41 67
REMARK SMILES IDX 47 68 49 69 46 70 42 71 43 72 44 73 45 74 71 75 72 76 80 77
REMARK SMILES IDX 73 78 79 79 81 80 78 81 74 82 75 83 76 84 77 85 56 86 57 87
REMARK SMILES IDX 65 88 58 89 64 90 66 91 63 92 59 93 60 94 61 95 62 96
REMARK H PARENT 5 17 8 20 86 49 54 60
REMARK Flexibility Score: inf
ROOT
ATOM      1  C   UNL A   1      32.692  29.405  25.180  1.00  0.00     0.188 C 
ENDROOT
BRANCH   1   2
ATOM      2  O   UNL A   1      32.269  28.110  24.798  1.00  0.00    -0.377 OA
BRANCH   2   3
ATOM      3  C   UNL A   1      31.354  28.104  23.719  1.00  0.00     0.188 C 
BRANCH   3   4
ATOM      4  C   UNL A   1      31.031  26.706  23.174  1.00  0.00     0.188 C 
BRANCH   4   5
ATOM      5  O   UNL A   1      30.270  25.815  24.006  1.00  0.00    -0.376 OA
BRANCH   5   6
ATOM      6  C   UNL A   1      30.965  24.711  24.623  1.00  0.00     0.202 C 
BRANCH   6   7
ATOM      7  C   UNL A   1      30.914  23.447  23.705  1.00  0.00     0.261 C 
BRANCH   7   8
ATOM      8  O   UNL A   1      31.361  22.218  24.376  1.00  0.00    -0.462 OA
BRANCH   8   9
ATOM      9  C   UNL A   1      32.373  21.449  23.827  1.00  0.00     0.331 C 
ATOM     10  O   UNL A   1      32.680  21.524  22.641  1.00  0.00    -0.249 OA
BRANCH   9  11
ATOM     11  C   UNL A   1      33.075  20.423  24.879  1.00  0.00     0.136 C 
ATOM     12  C   UNL A   1      34.597  20.096  24.964  1.00  0.00     0.047 C 
BRANCH  11  13
ATOM     13  C   UNL A   1      32.461  19.031  24.529  1.00  0.00     0.037 C 
ATOM     14  C   UNL A   1      33.463  18.129  23.768  1.00  0.00     0.007 C 
ENDBRANCH  11  13
BRANCH  11  15
ATOM     15  N   UNL A   1      32.749  20.904  26.216  1.00  0.00    -0.322 N 
ATOM     16  C   UNL A   1      33.406  21.879  26.888  1.00  0.00     0.315 C 
ATOM     17  H   UNL A   1      31.983  20.483  26.670  1.00  0.00     0.166 HD
ATOM     18  O   UNL A   1      33.124  22.070  28.072  1.00  0.00    -0.249 OA
ATOM     19  N   UNL A   1      34.405  22.616  26.322  1.00  0.00    -0.335 N 
ATOM     20  H   UNL A   1      35.028  22.982  26.992  1.00  0.00     0.165 HD
BRANCH  19  21
ATOM     21  C   UNL A   1      34.766  22.985  24.979  1.00  0.00     0.087 C 
ATOM     22  C   UNL A   1      35.767  22.624  23.916  1.00  0.00     0.030 C 
ATOM     23  C   UNL A   1      36.001  23.840  24.726  1.00  0.00     0.010 C 
ATOM     24  C   UNL A   1      37.063  23.898  25.762  1.00  0.00     0.010 C 
ENDBRANCH  19  21
ENDBRANCH  11  15
ENDBRANCH   9  11
ENDBRANCH   8   9
ENDBRANCH   7   8
ENDBRANCH   6   7
ENDBRANCH   5   6
ENDBRANCH   4   5
ENDBRANCH   3   4
ENDBRANCH   2   3
ENDBRANCH   1   2
BRANCH   1  25
ATOM     25  C   UNL A   1      33.033  29.562  26.671  1.00  0.00     0.188 C 
BRANCH  25  26
ATOM     26  O   UNL A   1      34.373  29.413  27.140  1.00  0.00    -0.376 OA
BRANCH  26  27
ATOM     27  C   UNL A   1      34.985  30.390  27.972  1.00  0.00     0.202 C 
BRANCH  27  28
ATOM     28  C   UNL A   1      34.825  31.854  27.561  1.00  0.00     0.261 C 
BRANCH  28  29
ATOM     29  O   UNL A   1      33.710  32.495  28.185  1.00  0.00    -0.460 OA
BRANCH  29  30
ATOM     30  C   UNL A   1      33.979  33.714  28.699  1.00  0.00     0.338 C 
ATOM     31  O   UNL A   1      33.402  34.767  28.453  1.00  0.00    -0.246 OA
BRANCH  30  32
ATOM     32  C   UNL A   1      34.985  33.575  29.758  1.00  0.00     0.060 A 
ATOM     33  C   UNL A   1      36.258  34.124  29.546  1.00  0.00     0.016 A 
ATOM     34  C   UNL A   1      34.694  32.847  30.911  1.00  0.00     0.016 A 
ATOM     35  C   UNL A   1      37.272  33.889  30.462  1.00  0.00     0.010 A 
ATOM     36  C   UNL A   1      35.723  32.574  31.810  1.00  0.00     0.010 A 
ATOM     37  C   UNL A   1      37.023  33.042  31.546  1.00  0.00    -0.014 A 
BRANCH  37  38
ATOM     38  C   UNL A   1      38.179  32.386  32.186  1.00  0.00     0.031 A 
ATOM     39  C   UNL A   1      38.847  31.275  31.423  1.00  0.00     0.074 A 
ATOM     40  C   UNL A   1      38.654  32.812  33.364  1.00  0.00     0.049 A 
ATOM     41  N   UNL A   1      39.853  30.517  31.765  1.00  0.00    -0.248 NA
ATOM     42  C   UNL A   1      38.294  30.978  30.092  1.00  0.00     0.031 C 
ATOM     43  C   UNL A   1      38.124  33.937  34.131  1.00  0.00     0.029 A 
ATOM     44  N   UNL A   1      39.697  32.345  34.117  1.00  0.00    -0.354 N 
ATOM     45  C   UNL A   1      40.044  29.645  30.698  1.00  0.00     0.074 A 
ATOM     46  C   UNL A   1      39.023  29.941  29.719  1.00  0.00     0.031 C 
ATOM     47  C   UNL A   1      38.848  34.071  35.256  1.00  0.00     0.029 A 
ATOM     48  C   UNL A   1      39.857  33.014  35.304  1.00  0.00     0.049 A 
ATOM     49  H   UNL A   1      40.276  31.600  33.834  1.00  0.00     0.167 HD
ATOM     50  C   UNL A   1      40.990  28.687  30.552  1.00  0.00     0.034 A 
ATOM     51  C   UNL A   1      40.708  32.773  36.319  1.00  0.00     0.034 A 
ATOM     52  C   UNL A   1      41.978  28.401  31.561  1.00  0.00     0.049 A 
ATOM     53  C   UNL A   1      41.683  31.628  36.186  1.00  0.00     0.074 A 
ATOM     54  C   UNL A   1      42.986  27.456  31.540  1.00  0.00     0.029 A 
ATOM     55  N   UNL A   1      42.069  29.051  32.788  1.00  0.00    -0.354 N 
ATOM     56  N   UNL A   1      41.853  30.795  35.184  1.00  0.00    -0.248 NA
ATOM     57  C   UNL A   1      42.587  31.400  37.318  1.00  0.00     0.031 C 
ATOM     58  C   UNL A   1      43.623  27.470  32.785  1.00  0.00     0.029 A 
ATOM     59  C   UNL A   1      43.089  28.500  33.546  1.00  0.00     0.049 A 
ATOM     60  H   UNL A   1      41.492  29.796  33.075  1.00  0.00     0.167 HD
ATOM     61  C   UNL A   1      42.917  29.971  35.548  1.00  0.00     0.074 A 
ATOM     62  C   UNL A   1      43.346  30.416  36.860  1.00  0.00     0.031 C 
ATOM     63  C   UNL A   1      43.495  28.952  34.859  1.00  0.00     0.034 A 
BRANCH  50  64
ATOM     64  C   UNL A   1      40.927  27.840  29.301  1.00  0.00     0.023 A 
ATOM     65  C   UNL A   1      41.857  27.984  28.254  1.00  0.00     0.031 A 
ATOM     66  C   UNL A   1      39.872  26.929  29.118  1.00  0.00     0.131 A 
ATOM     67  C   UNL A   1      41.654  27.309  27.040  1.00  0.00     0.055 A 
ATOM     68  C   UNL A   1      39.734  26.185  27.945  1.00  0.00     0.041 A 
ATOM     69  F   UNL A   1      38.934  26.769  30.065  1.00  0.00    -0.206 F 
ATOM     70  C   UNL A   1      40.616  26.387  26.889  1.00  0.00     0.022 A 
BRANCH  67  71
ATOM     71  S   UNL A   1      42.646  27.798  25.601  1.00  0.00     0.124 S 
ATOM     72  O   UNL A   1      42.596  26.587  24.784  1.00  0.00    -0.237 OA
ATOM     73  O   UNL A   1      41.912  28.947  25.087  1.00  0.00    -0.237 OA
ATOM     74  O   UNL A   1      43.957  28.098  26.174  1.00  0.00    -0.744 OA
ENDBRANCH  67  71
ENDBRANCH  50  64
BRANCH  51  75
ATOM     75  C   UNL A   1      40.666  33.612  37.548  1.00  0.00     0.023 A 
ATOM     76  C   UNL A   1      41.545  34.693  37.717  1.00  0.00     0.031 A 
ATOM     77  C   UNL A   1      39.763  33.327  38.589  1.00  0.00     0.131 A 
ATOM     78  C   UNL A   1      41.529  35.426  38.912  1.00  0.00     0.055 A 
ATOM     79  C   UNL A   1      39.713  34.096  39.753  1.00  0.00     0.041 A 
ATOM     80  F   UNL A   1      38.901  32.304  38.480  1.00  0.00    -0.206 F 
ATOM     81  C   UNL A   1      40.609  35.146  39.925  1.00  0.00     0.022 A 
BRANCH  78  82
ATOM     82  S   UNL A   1      42.787  36.709  39.158  1.00  0.00     0.124 S 
ATOM     83  O   UNL A   1      43.593  36.569  37.950  1.00  0.00    -0.237 OA
ATOM     84  O   UNL A   1      41.974  37.916  39.253  1.00  0.00    -0.237 OA
ATOM     85  O   UNL A   1      43.446  36.305  40.398  1.00  0.00    -0.744 OA
ENDBRANCH  78  82
ENDBRANCH  51  75
BRANCH  63  86
ATOM     86  C   UNL A   1      44.703  28.295  35.486  1.00  0.00     0.023 A 
ATOM     87  C   UNL A   1      46.011  28.751  35.250  1.00  0.00     0.031 A 
ATOM     88  C   UNL A   1      44.537  27.179  36.328  1.00  0.00     0.131 A 
ATOM     89  C   UNL A   1      47.102  28.052  35.788  1.00  0.00     0.055 A 
ATOM     90  C   UNL A   1      45.620  26.539  36.928  1.00  0.00     0.041 A 
ATOM     91  F   UNL A   1      43.311  26.694  36.586  1.00  0.00    -0.206 F 
ATOM     92  C   UNL A   1      46.915  26.963  36.644  1.00  0.00     0.022 A 
BRANCH  89  93
ATOM     93  S   UNL A   1      48.774  28.503  35.250  1.00  0.00     0.124 S 
ATOM     94  O   UNL A   1      49.357  27.200  34.950  1.00  0.00    -0.237 OA
ATOM     95  O   UNL A   1      48.512  29.364  34.101  1.00  0.00    -0.237 OA
ATOM     96  O   UNL A   1      49.339  29.181  36.417  1.00  0.00    -0.744 OA
ENDBRANCH  89  93
ENDBRANCH  63  86
ENDBRANCH  37  38
ENDBRANCH  30  32
ENDBRANCH  29  30
ENDBRANCH  28  29
ENDBRANCH  27  28
ENDBRANCH  26  27
ENDBRANCH  25  26
ENDBRANCH   1  25
TORSDOF 26
ENDMDL
MODEL 3
REMARK VINA RESULT:      -8.6      2.080      2.578
REMARK SMILES CC[C@](C)(NC(=O)N[C@@H]1C[C@@H]1C)C(=O)OCCOCCOCCOCCOC(=O)c1ccc(-c2c3nc(c(-c4cc(S(=O)(=O)[O-])ccc4F)c4ccc([nH]4)c(-c4cc(S(=O)(=O)[O-])ccc4F)c4nc(c(-c5cc(S(=O)(=O)[O-])ccc5F)c5ccc2[nH]5)C=C4)C=C3)cc1
REMARK SMILES IDX 22 1 21 2 20 3 19 4 18 5 17 6 16 7 15 8 13 9 14 10 3 11 4 12
REMARK SMILES IDX 2 13 1 14 5 15 6 16 7 18 8 19 9 21 10 22 11 23 12 24 23 25
REMARK SMILES IDX 24 26 25 27 26 28 27 29 28 30 29 31 30 32 31 33 92 34 32 35
REMARK SMILES IDX 91 36 33 37 34 38 35 39 85 40 36 41 90 42 84 43 86 44 37 45
REMARK SMILES IDX 89 46 83 47 82 48 38 50 70 51 50 52 69 53 51 54 54 55 68 56
REMARK SMILES IDX 87 57 52 58 53 59 67 61 88 62 55 63 39 64 40 65 48 66 41 67
REMARK SMILES IDX 47 68 49 69 46 70 42 71 43 72 44 73 45 74 71 75 72 76 80 77
REMARK SMILES IDX 73 78 79 79 81 80 78 81 74 82 75 83 76 84 77 85 56 86 57 87
REMARK SMILES IDX 65 88 58 89 64 90 66 91 63 92 59 93 60 94 61 95 62 96
REMARK H PARENT 5 17 8 20 86 49 54 60
REMARK Flexibility Score: inf
ROOT
ATOM      1  C   UNL A   1      31.813  29.562  25.156  1.00  0.00     0.188 C 
ENDROOT
BRANCH   1   2
ATOM      2  O   UNL A   1      31.572  28.326  24.510  1.00  0.00    -0.377 OA
BRANCH   2   3
ATOM      3  C   UNL A   1      31.572  28.410  23.099  1.00  0.00     0.188 C 
BRANCH   3   4
ATOM      4  C   UNL A   1      32.277  27.240  22.398  1.00  0.00     0.188 C 
BRANCH   4   5
ATOM      5  O   UNL A   1      31.551  26.010  22.241  1.00  0.00    -0.376 OA
BRANCH   5   6
ATOM      6  C   UNL A   1      32.303  24.818  21.933  1.00  0.00     0.202 C 
BRANCH   6   7
ATOM      7  C   UNL A   1      33.721  24.877  22.589  1.00  0.00     0.261 C 
BRANCH   7   8
ATOM      8  O   UNL A   1      34.422  23.585  22.584  1.00  0.00    -0.462 OA
BRANCH   8   9
ATOM      9  C   UNL A   1      34.281  22.707  23.646  1.00  0.00     0.331 C 
ATOM     10  O   UNL A   1      33.351  21.909  23.713  1.00  0.00    -0.249 OA
BRANCH   9  11
ATOM     11  C   UNL A   1      35.425  22.862  24.795  1.00  0.00     0.136 C 
ATOM     12  C   UNL A   1      35.767  24.164  25.579  1.00  0.00     0.047 C 
BRANCH  11  13
ATOM     13  C   UNL A   1      36.764  22.569  24.047  1.00  0.00     0.037 C 
ATOM     14  C   UNL A   1      37.551  21.407  24.699  1.00  0.00     0.007 C 
ENDBRANCH  11  13
BRANCH  11  15
ATOM     15  N   UNL A   1      35.099  21.902  25.842  1.00  0.00    -0.322 N 
ATOM     16  C   UNL A   1      34.204  22.092  26.840  1.00  0.00     0.315 C 
ATOM     17  H   UNL A   1      35.572  21.038  25.821  1.00  0.00     0.166 HD
ATOM     18  O   UNL A   1      34.150  21.262  27.749  1.00  0.00    -0.249 OA
ATOM     19  N   UNL A   1      33.404  23.196  26.909  1.00  0.00    -0.335 N 
ATOM     20  H   UNL A   1      33.114  23.393  27.829  1.00  0.00     0.165 HD
BRANCH  19  21
ATOM     21  C   UNL A   1      32.884  24.139  25.955  1.00  0.00     0.087 C 
ATOM     22  C   UNL A   1      32.094  25.419  25.916  1.00  0.00     0.030 C 
ATOM     23  C   UNL A   1      31.399  24.146  25.619  1.00  0.00     0.010 C 
ATOM     24  C   UNL A   1      30.440  23.536  26.573  1.00  0.00     0.010 C 
ENDBRANCH  19  21
ENDBRANCH  11  15
ENDBRANCH   9  11
ENDBRANCH   8   9
ENDBRANCH   7   8
ENDBRANCH   6   7
ENDBRANCH   5   6
ENDBRANCH   4   5
ENDBRANCH   3   4
ENDBRANCH   2   3
ENDBRANCH   1   2
BRANCH   1  25
ATOM     25  C   UNL A   1      31.964  29.478  26.683  1.00  0.00     0.188 C 
BRANCH  25  26
ATOM     26  O   UNL A   1      33.130  28.910  27.279  1.00  0.00    -0.376 OA
BRANCH  26  27
ATOM     27  C   UNL A   1      34.305  29.679  27.498  1.00  0.00     0.202 C 
BRANCH  27  28
ATOM     28  C   UNL A   1      34.229  31.173  27.186  1.00  0.00     0.261 C 
BRANCH  28  29
ATOM     29  O   UNL A   1      33.524  31.921  28.180  1.00  0.00    -0.460 OA
BRANCH  29  30
ATOM     30  C   UNL A   1      34.005  33.163  28.395  1.00  0.00     0.338 C 
ATOM     31  O   UNL A   1      33.533  34.222  27.998  1.00  0.00    -0.246 OA
BRANCH  30  32
ATOM     32  C   UNL A   1      35.121  33.085  29.345  1.00  0.00     0.060 A 
ATOM     33  C   UNL A   1      36.338  33.688  28.997  1.00  0.00     0.016 A 
ATOM     34  C   UNL A   1      34.985  32.361  30.529  1.00  0.00     0.016 A 
ATOM     35  C   UNL A   1      37.452  33.512  29.804  1.00  0.00     0.010 A 
ATOM     36  C   UNL A   1      36.113  32.147  31.318  1.00  0.00     0.010 A 
ATOM     37  C   UNL A   1      37.355  32.670  30.916  1.00  0.00    -0.014 A 
BRANCH  37  38
ATOM     38  C   UNL A   1      38.601  32.076  31.439  1.00  0.00     0.031 A 
ATOM     39  C   UNL A   1      39.267  31.024  30.594  1.00  0.00     0.074 A 
ATOM     40  C   UNL A   1      39.150  32.509  32.582  1.00  0.00     0.049 A 
ATOM     41  N   UNL A   1      40.344  30.324  30.830  1.00  0.00    -0.248 NA
ATOM     42  C   UNL A   1      38.619  30.718  29.308  1.00  0.00     0.031 C 
ATOM     43  C   UNL A   1      38.621  33.583  33.419  1.00  0.00     0.029 A 
ATOM     44  N   UNL A   1      40.281  32.094  33.231  1.00  0.00    -0.354 N 
ATOM     45  C   UNL A   1      40.494  29.487  29.729  1.00  0.00     0.074 A 
ATOM     46  C   UNL A   1      39.375  29.737  28.849  1.00  0.00     0.031 C 
ATOM     47  C   UNL A   1      39.431  33.741  34.480  1.00  0.00     0.029 A 
ATOM     48  C   UNL A   1      40.503  32.749  34.416  1.00  0.00     0.049 A 
ATOM     49  H   UNL A   1      40.878  31.393  32.881  1.00  0.00     0.167 HD
ATOM     50  C   UNL A   1      41.480  28.594  29.480  1.00  0.00     0.034 A 
ATOM     51  C   UNL A   1      41.452  32.543  35.348  1.00  0.00     0.034 A 
ATOM     52  C   UNL A   1      42.568  28.352  30.393  1.00  0.00     0.049 A 
ATOM     53  C   UNL A   1      42.480  31.464  35.104  1.00  0.00     0.074 A 
ATOM     54  C   UNL A   1      43.627  27.472  30.262  1.00  0.00     0.029 A 
ATOM     55  N   UNL A   1      42.725  28.983  31.623  1.00  0.00    -0.354 N 
ATOM     56  N   UNL A   1      42.613  30.663  34.070  1.00  0.00    -0.248 NA
ATOM     57  C   UNL A   1      43.491  31.272  36.148  1.00  0.00     0.031 C 
ATOM     58  C   UNL A   1      44.367  27.503  31.448  1.00  0.00     0.029 A 
ATOM     59  C   UNL A   1      43.839  28.482  32.277  1.00  0.00     0.049 A 
ATOM     60  H   UNL A   1      42.132  29.684  31.976  1.00  0.00     0.167 HD
ATOM     61  C   UNL A   1      43.753  29.901  34.322  1.00  0.00     0.074 A 
ATOM     62  C   UNL A   1      44.266  30.347  35.602  1.00  0.00     0.031 C 
ATOM     63  C   UNL A   1      44.330  28.934  33.561  1.00  0.00     0.034 A 
BRANCH  50  64
ATOM     64  C   UNL A   1      41.361  27.769  28.218  1.00  0.00     0.023 A 
ATOM     65  C   UNL A   1      40.849  26.458  28.227  1.00  0.00     0.031 A 
ATOM     66  C   UNL A   1      41.843  28.274  26.997  1.00  0.00     0.131 A 
ATOM     67  C   UNL A   1      40.925  25.668  27.069  1.00  0.00     0.055 A 
ATOM     68  C   UNL A   1      41.822  27.517  25.825  1.00  0.00     0.041 A 
ATOM     69  F   UNL A   1      42.373  29.505  26.928  1.00  0.00    -0.206 F 
ATOM     70  C   UNL A   1      41.380  26.198  25.860  1.00  0.00     0.022 A 
BRANCH  67  71
ATOM     71  S   UNL A   1      40.606  23.887  27.214  1.00  0.00     0.124 S 
ATOM     72  O   UNL A   1      41.285  23.370  26.028  1.00  0.00    -0.237 OA
ATOM     73  O   UNL A   1      41.219  23.560  28.495  1.00  0.00    -0.237 OA
ATOM     74  O   UNL A   1      39.148  23.796  27.176  1.00  0.00    -0.744 OA
ENDBRANCH  67  71
ENDBRANCH  50  64
BRANCH  51  75
ATOM     75  C   UNL A   1      41.466  33.354  36.596  1.00  0.00     0.023 A 
ATOM     76  C   UNL A   1      40.754  32.944  37.733  1.00  0.00     0.031 A 
ATOM     77  C   UNL A   1      42.172  34.569  36.663  1.00  0.00     0.131 A 
ATOM     78  C   UNL A   1      40.730  33.759  38.874  1.00  0.00     0.055 A 
ATOM     79  C   UNL A   1      42.191  35.349  37.820  1.00  0.00     0.041 A 
ATOM     80  F   UNL A   1      42.870  35.009  35.603  1.00  0.00    -0.206 F 
ATOM     81  C   UNL A   1      41.456  34.951  38.932  1.00  0.00     0.022 A 
BRANCH  78  82
ATOM     82  S   UNL A   1      39.666  33.276  40.262  1.00  0.00     0.124 S 
ATOM     83  O   UNL A   1      38.956  34.520  40.538  1.00  0.00    -0.237 OA
ATOM     84  O   UNL A   1      38.874  32.200  39.675  1.00  0.00    -0.237 OA
ATOM     85  O   UNL A   1      40.617  32.858  41.289  1.00  0.00    -0.744 OA
ENDBRANCH  78  82
ENDBRANCH  51  75
BRANCH  63  86
ATOM     86  C   UNL A   1      45.626  28.343  34.066  1.00  0.00     0.023 A 
ATOM     87  C   UNL A   1      46.878  28.885  33.730  1.00  0.00     0.031 A 
ATOM     88  C   UNL A   1      45.602  27.202  34.891  1.00  0.00     0.131 A 
ATOM     89  C   UNL A   1      48.053  28.246  34.156  1.00  0.00     0.055 A 
ATOM     90  C   UNL A   1      46.771  26.621  35.380  1.00  0.00     0.041 A 
ATOM     91  F   UNL A   1      44.436  26.636  35.241  1.00  0.00    -0.206 F 
ATOM     92  C   UNL A   1      48.007  27.131  34.997  1.00  0.00     0.022 A 
BRANCH  89  93
ATOM     93  S   UNL A   1      49.641  28.812  33.487  1.00  0.00     0.124 S 
ATOM     94  O   UNL A   1      50.593  28.030  34.267  1.00  0.00    -0.237 OA
ATOM     95  O   UNL A   1      49.530  28.458  32.075  1.00  0.00    -0.237 OA
ATOM     96  O   UNL A   1      49.639  30.247  33.769  1.00  0.00    -0.744 OA
ENDBRANCH  89  93
ENDBRANCH  63  86
ENDBRANCH  37  38
ENDBRANCH  30  32
ENDBRANCH  29  30
ENDBRANCH  28  29
ENDBRANCH  27  28
ENDBRANCH  26  27
ENDBRANCH  25  26
ENDBRANCH   1  25
TORSDOF 26
ENDMDL
