MODEL 1
REMARK VINA RESULT:      -9.4      0.000      0.000
REMARK SMILES O=C(OCCOCCOCCOCCOC(=O)c1ccc([S@@](=O)[C@H]2CCOC3(CCCC3)C2)cc1)c1ccc(-c2c3nc(c(-c4cc(S(=O)(=O)[O-])ccc4F)c4ccc([nH]4)c(-c4cc(S(=O)(=O)[O-])ccc4F)c4nc(c(-c5cc(S(=O)(=O)[O-])ccc5F)c5ccc2[nH]5)C=C4)C=C3)cc1
REMARK SMILES IDX 8 1 7 2 6 3 5 4 4 5 3 6 2 7 1 8 36 9 37 10 98 11 38 12 97 13
REMARK SMILES IDX 39 14 40 15 41 16 91 17 42 18 96 19 90 20 92 21 43 22 95 23
REMARK SMILES IDX 89 24 88 25 44 27 76 28 56 29 75 30 57 31 60 32 74 33 93 34
REMARK SMILES IDX 58 35 59 36 73 38 94 39 61 40 45 41 46 42 54 43 47 44 53 45
REMARK SMILES IDX 55 46 52 47 48 48 49 49 50 50 51 51 77 52 78 53 86 54 79 55
REMARK SMILES IDX 85 56 87 57 84 58 80 59 81 60 82 61 83 62 62 63 63 64 71 65
REMARK SMILES IDX 64 66 70 67 72 68 69 69 65 70 66 71 67 72 68 73 9 74 10 75
REMARK SMILES IDX 11 76 12 77 13 78 14 79 15 80 16 81 17 82 18 83 19 84 35 85
REMARK SMILES IDX 20 86 34 87 21 88 22 89 23 90 24 91 25 92 33 93 26 94 28 95
REMARK SMILES IDX 27 96 29 97 32 98 30 99 31 100
REMARK H PARENT 92 26 60 37
REMARK Flexibility Score: inf
ROOT
ATOM      1  C   UNL A   1      34.066  22.522  26.321  1.00  0.00     0.188 C 
ENDROOT
BRANCH   1   2
ATOM      2  C   UNL A   1      34.423  21.577  25.178  1.00  0.00     0.188 C 
BRANCH   2   3
ATOM      3  O   UNL A   1      35.764  21.773  24.742  1.00  0.00    -0.376 OA
BRANCH   3   4
ATOM      4  C   UNL A   1      36.782  21.846  25.736  1.00  0.00     0.202 C 
BRANCH   4   5
ATOM      5  C   UNL A   1      37.994  20.926  25.561  1.00  0.00     0.261 C 
BRANCH   5   6
ATOM      6  O   UNL A   1      39.274  21.573  25.673  1.00  0.00    -0.460 OA
BRANCH   6   7
ATOM      7  C   UNL A   1      40.088  21.688  26.751  1.00  0.00     0.338 C 
ATOM      8  O   UNL A   1      40.382  20.672  27.379  1.00  0.00    -0.246 OA
BRANCH   7   9
ATOM      9  C   UNL A   1      40.646  22.985  27.221  1.00  0.00     0.060 A 
ATOM     10  C   UNL A   1      40.218  24.233  26.779  1.00  0.00     0.016 A 
ATOM     11  C   UNL A   1      41.603  22.948  28.243  1.00  0.00     0.016 A 
ATOM     12  C   UNL A   1      40.839  25.403  27.179  1.00  0.00     0.010 A 
ATOM     13  C   UNL A   1      42.182  24.129  28.720  1.00  0.00     0.010 A 
ATOM     14  C   UNL A   1      41.851  25.357  28.129  1.00  0.00    -0.014 A 
BRANCH  14  15
ATOM     15  C   UNL A   1      42.695  26.559  28.287  1.00  0.00     0.031 A 
ATOM     16  C   UNL A   1      42.230  27.596  29.269  1.00  0.00     0.074 A 
ATOM     17  C   UNL A   1      43.911  26.626  27.713  1.00  0.00     0.049 A 
ATOM     18  N   UNL A   1      42.721  28.774  29.534  1.00  0.00    -0.248 NA
ATOM     19  C   UNL A   1      41.034  27.253  30.059  1.00  0.00     0.031 C 
ATOM     20  C   UNL A   1      44.511  25.580  26.879  1.00  0.00     0.029 A 
ATOM     21  N   UNL A   1      44.881  27.589  27.782  1.00  0.00    -0.354 N 
ATOM     22  C   UNL A   1      41.860  29.335  30.473  1.00  0.00     0.074 A 
ATOM     23  C   UNL A   1      40.811  28.375  30.721  1.00  0.00     0.031 C 
ATOM     24  C   UNL A   1      45.763  25.940  26.555  1.00  0.00     0.029 A 
ATOM     25  C   UNL A   1      46.018  27.279  27.071  1.00  0.00     0.049 A 
ATOM     26  H   UNL A   1      44.774  28.424  28.292  1.00  0.00     0.167 HD
ATOM     27  C   UNL A   1      41.944  30.551  31.064  1.00  0.00     0.034 A 
ATOM     28  C   UNL A   1      47.118  28.022  26.838  1.00  0.00     0.034 A 
ATOM     29  C   UNL A   1      43.029  31.460  30.799  1.00  0.00     0.049 A 
ATOM     30  C   UNL A   1      47.150  29.409  27.435  1.00  0.00     0.074 A 
ATOM     31  C   UNL A   1      43.213  32.752  31.250  1.00  0.00     0.029 A 
ATOM     32  N   UNL A   1      44.131  31.152  30.005  1.00  0.00    -0.354 N 
ATOM     33  N   UNL A   1      46.270  29.991  28.221  1.00  0.00    -0.248 NA
ATOM     34  C   UNL A   1      48.311  30.241  27.107  1.00  0.00     0.031 C 
ATOM     35  C   UNL A   1      44.393  33.245  30.681  1.00  0.00     0.029 A 
ATOM     36  C   UNL A   1      44.989  32.235  29.939  1.00  0.00     0.049 A 
ATOM     37  H   UNL A   1      44.277  30.288  29.555  1.00  0.00     0.167 HD
ATOM     38  C   UNL A   1      46.783  31.253  28.498  1.00  0.00     0.074 A 
ATOM     39  C   UNL A   1      48.060  31.332  27.814  1.00  0.00     0.031 C 
ATOM     40  C   UNL A   1      46.255  32.261  29.241  1.00  0.00     0.034 A 
BRANCH  27  41
ATOM     41  C   UNL A   1      40.782  30.969  31.932  1.00  0.00     0.023 A 
ATOM     42  C   UNL A   1      40.807  30.849  33.334  1.00  0.00     0.031 A 
ATOM     43  C   UNL A   1      39.576  31.373  31.331  1.00  0.00     0.131 A 
ATOM     44  C   UNL A   1      39.626  31.032  34.074  1.00  0.00     0.055 A 
ATOM     45  C   UNL A   1      38.429  31.641  32.082  1.00  0.00     0.041 A 
ATOM     46  F   UNL A   1      39.477  31.472  29.997  1.00  0.00    -0.206 F 
ATOM     47  C   UNL A   1      38.444  31.452  33.460  1.00  0.00     0.022 A 
BRANCH  44  48
ATOM     48  S   UNL A   1      39.607  30.534  35.821  1.00  0.00     0.124 S 
ATOM     49  O   UNL A   1      38.209  30.146  36.001  1.00  0.00    -0.237 OA
ATOM     50  O   UNL A   1      40.578  29.446  35.850  1.00  0.00    -0.237 OA
ATOM     51  O   UNL A   1      40.007  31.747  36.529  1.00  0.00    -0.744 OA
ENDBRANCH  44  48
ENDBRANCH  27  41
BRANCH  28  52
ATOM     52  C   UNL A   1      48.219  27.520  25.961  1.00  0.00     0.023 A 
ATOM     53  C   UNL A   1      48.255  27.810  24.588  1.00  0.00     0.031 A 
ATOM     54  C   UNL A   1      49.234  26.690  26.477  1.00  0.00     0.131 A 
ATOM     55  C   UNL A   1      49.255  27.246  23.775  1.00  0.00     0.055 A 
ATOM     56  C   UNL A   1      50.259  26.181  25.677  1.00  0.00     0.041 A 
ATOM     57  F   UNL A   1      49.250  26.363  27.780  1.00  0.00    -0.206 F 
ATOM     58  C   UNL A   1      50.265  26.447  24.314  1.00  0.00     0.022 A 
BRANCH  55  59
ATOM     59  S   UNL A   1      49.161  27.490  21.979  1.00  0.00     0.124 S 
ATOM     60  O   UNL A   1      50.524  27.905  21.664  1.00  0.00    -0.237 OA
ATOM     61  O   UNL A   1      48.769  26.165  21.513  1.00  0.00    -0.237 OA
ATOM     62  O   UNL A   1      48.143  28.528  21.829  1.00  0.00    -0.744 OA
ENDBRANCH  55  59
ENDBRANCH  28  52
BRANCH  40  63
ATOM     63  C   UNL A   1      47.099  33.499  29.386  1.00  0.00     0.023 A 
ATOM     64  C   UNL A   1      47.011  34.563  28.472  1.00  0.00     0.031 A 
ATOM     65  C   UNL A   1      48.018  33.604  30.445  1.00  0.00     0.131 A 
ATOM     66  C   UNL A   1      47.876  35.657  28.596  1.00  0.00     0.055 A 
ATOM     67  C   UNL A   1      48.827  34.727  30.603  1.00  0.00     0.041 A 
ATOM     68  F   UNL A   1      48.139  32.614  31.344  1.00  0.00    -0.206 F 
ATOM     69  C   UNL A   1      48.771  35.755  29.665  1.00  0.00     0.022 A 
BRANCH  66  70
ATOM     70  S   UNL A   1      47.894  36.898  27.275  1.00  0.00     0.124 S 
ATOM     71  O   UNL A   1      46.660  36.597  26.559  1.00  0.00    -0.237 OA
ATOM     72  O   UNL A   1      47.907  38.150  28.025  1.00  0.00    -0.237 OA
ATOM     73  O   UNL A   1      49.124  36.601  26.544  1.00  0.00    -0.744 OA
ENDBRANCH  66  70
ENDBRANCH  40  63
ENDBRANCH  14  15
ENDBRANCH   7   9
ENDBRANCH   6   7
ENDBRANCH   5   6
ENDBRANCH   4   5
ENDBRANCH   3   4
ENDBRANCH   2   3
ENDBRANCH   1   2
BRANCH   1  74
ATOM     74  O   UNL A   1      34.260  23.909  26.045  1.00  0.00    -0.377 OA
BRANCH  74  75
ATOM     75  C   UNL A   1      33.075  24.693  25.933  1.00  0.00     0.188 C 
BRANCH  75  76
ATOM     76  C   UNL A   1      32.211  24.567  24.657  1.00  0.00     0.188 C 
BRANCH  76  77
ATOM     77  O   UNL A   1      32.734  25.250  23.525  1.00  0.00    -0.376 OA
BRANCH  77  78
ATOM     78  C   UNL A   1      32.439  26.641  23.463  1.00  0.00     0.202 C 
BRANCH  78  79
ATOM     79  C   UNL A   1      31.114  27.068  24.115  1.00  0.00     0.261 C 
BRANCH  79  80
ATOM     80  O   UNL A   1      31.238  27.801  25.349  1.00  0.00    -0.460 OA
BRANCH  80  81
ATOM     81  C   UNL A   1      31.341  29.152  25.278  1.00  0.00     0.338 C 
ATOM     82  O   UNL A   1      30.582  29.913  24.734  1.00  0.00    -0.246 OA
BRANCH  81  83
ATOM     83  C   UNL A   1      32.451  29.556  26.191  1.00  0.00     0.060 A 
ATOM     84  C   UNL A   1      33.477  28.636  26.451  1.00  0.00     0.017 A 
ATOM     85  C   UNL A   1      32.552  30.859  26.689  1.00  0.00     0.017 A 
ATOM     86  C   UNL A   1      34.599  29.022  27.198  1.00  0.00     0.018 A 
ATOM     87  C   UNL A   1      33.665  31.232  27.458  1.00  0.00     0.018 A 
ATOM     88  C   UNL A   1      34.698  30.319  27.718  1.00  0.00     0.039 A 
BRANCH  88  89
ATOM     89  S   UNL A   1      35.948  30.737  28.948  1.00  0.00     0.056 S 
ATOM     90  O   UNL A   1      37.187  31.080  28.174  1.00  0.00    -0.254 OA
BRANCH  89  91
ATOM     91  C   UNL A   1      35.375  32.259  29.750  1.00  0.00     0.089 C 
ATOM     92  C   UNL A   1      34.312  33.034  28.988  1.00  0.00     0.046 C 
ATOM     93  C   UNL A   1      34.965  32.099  31.209  1.00  0.00     0.053 C 
ATOM     94  C   UNL A   1      34.108  34.383  29.671  1.00  0.00     0.162 C 
ATOM     95  C   UNL A   1      34.745  33.489  31.843  1.00  0.00     0.069 C 
ATOM     96  O   UNL A   1      33.805  34.240  31.059  1.00  0.00    -0.375 OA
ATOM     97  C   UNL A   1      34.137  33.375  33.263  1.00  0.00     0.035 C 
ATOM     98  C   UNL A   1      36.066  34.272  32.051  1.00  0.00     0.035 C 
ATOM     99  C   UNL A   1      35.161  33.973  34.222  1.00  0.00     0.003 C 
ATOM    100  C   UNL A   1      35.894  34.996  33.378  1.00  0.00     0.003 C 
ENDBRANCH  89  91
ENDBRANCH  88  89
ENDBRANCH  81  83
ENDBRANCH  80  81
ENDBRANCH  79  80
ENDBRANCH  78  79
ENDBRANCH  77  78
ENDBRANCH  76  77
ENDBRANCH  75  76
ENDBRANCH  74  75
ENDBRANCH   1  74
TORSDOF 25
ENDMDL
MODEL 2
REMARK VINA RESULT:      -9.2      5.076     10.685
REMARK SMILES O=C(OCCOCCOCCOCCOC(=O)c1ccc([S@@](=O)[C@H]2CCOC3(CCCC3)C2)cc1)c1ccc(-c2c3nc(c(-c4cc(S(=O)(=O)[O-])ccc4F)c4ccc([nH]4)c(-c4cc(S(=O)(=O)[O-])ccc4F)c4nc(c(-c5cc(S(=O)(=O)[O-])ccc5F)c5ccc2[nH]5)C=C4)C=C3)cc1
REMARK SMILES IDX 8 1 7 2 6 3 5 4 4 5 3 6 2 7 1 8 36 9 37 10 98 11 38 12 97 13
REMARK SMILES IDX 39 14 40 15 41 16 91 17 42 18 96 19 90 20 92 21 43 22 95 23
REMARK SMILES IDX 89 24 88 25 44 27 76 28 56 29 75 30 57 31 60 32 74 33 93 34
REMARK SMILES IDX 58 35 59 36 73 38 94 39 61 40 45 41 46 42 54 43 47 44 53 45
REMARK SMILES IDX 55 46 52 47 48 48 49 49 50 50 51 51 77 52 78 53 86 54 79 55
REMARK SMILES IDX 85 56 87 57 84 58 80 59 81 60 82 61 83 62 62 63 63 64 71 65
REMARK SMILES IDX 64 66 70 67 72 68 69 69 65 70 66 71 67 72 68 73 9 74 10 75
REMARK SMILES IDX 11 76 12 77 13 78 14 79 15 80 16 81 17 82 18 83 19 84 35 85
REMARK SMILES IDX 20 86 34 87 21 88 22 89 23 90 24 91 25 92 33 93 26 94 28 95
REMARK SMILES IDX 27 96 29 97 32 98 30 99 31 100
REMARK H PARENT 92 26 60 37
REMARK Flexibility Score: inf
ROOT
ATOM      1  C   UNL A   1      36.298  34.746  34.197  1.00  0.00     0.188 C 
ENDROOT
BRANCH   1   2
ATOM      2  C   UNL A   1      35.705  34.431  32.826  1.00  0.00     0.188 C 
BRANCH   2   3
ATOM      3  O   UNL A   1      34.768  35.426  32.426  1.00  0.00    -0.376 OA
BRANCH   3   4
ATOM      4  C   UNL A   1      33.605  35.000  31.721  1.00  0.00     0.202 C 
BRANCH   4   5
ATOM      5  C   UNL A   1      33.562  35.279  30.216  1.00  0.00     0.261 C 
BRANCH   5   6
ATOM      6  O   UNL A   1      33.364  34.120  29.386  1.00  0.00    -0.460 OA
BRANCH   6   7
ATOM      7  C   UNL A   1      34.284  33.315  28.799  1.00  0.00     0.338 C 
ATOM      8  O   UNL A   1      34.015  32.809  27.710  1.00  0.00    -0.246 OA
BRANCH   7   9
ATOM      9  C   UNL A   1      35.606  33.005  29.406  1.00  0.00     0.060 A 
ATOM     10  C   UNL A   1      36.775  33.717  29.155  1.00  0.00     0.016 A 
ATOM     11  C   UNL A   1      35.658  31.984  30.363  1.00  0.00     0.016 A 
ATOM     12  C   UNL A   1      37.996  33.325  29.673  1.00  0.00     0.010 A 
ATOM     13  C   UNL A   1      36.873  31.628  30.960  1.00  0.00     0.010 A 
ATOM     14  C   UNL A   1      38.060  32.254  30.554  1.00  0.00    -0.014 A 
BRANCH  14  15
ATOM     15  C   UNL A   1      39.389  31.670  30.825  1.00  0.00     0.031 A 
ATOM     16  C   UNL A   1      40.124  32.173  32.034  1.00  0.00     0.074 A 
ATOM     17  C   UNL A   1      39.830  30.609  30.123  1.00  0.00     0.049 A 
ATOM     18  N   UNL A   1      41.330  31.906  32.450  1.00  0.00    -0.248 NA
ATOM     19  C   UNL A   1      39.390  33.120  32.893  1.00  0.00     0.031 C 
ATOM     20  C   UNL A   1      39.097  29.949  29.039  1.00  0.00     0.029 A 
ATOM     21  N   UNL A   1      40.974  29.868  30.246  1.00  0.00    -0.354 N 
ATOM     22  C   UNL A   1      41.519  32.697  33.579  1.00  0.00     0.074 A 
ATOM     23  C   UNL A   1      40.311  33.462  33.775  1.00  0.00     0.031 C 
ATOM     24  C   UNL A   1      39.789  28.873  28.630  1.00  0.00     0.029 A 
ATOM     25  C   UNL A   1      41.056  28.826  29.350  1.00  0.00     0.049 A 
ATOM     26  H   UNL A   1      41.672  30.062  30.912  1.00  0.00     0.167 HD
ATOM     27  C   UNL A   1      42.616  32.775  34.371  1.00  0.00     0.034 A 
ATOM     28  C   UNL A   1      42.066  27.963  29.121  1.00  0.00     0.034 A 
ATOM     29  C   UNL A   1      43.786  31.968  34.144  1.00  0.00     0.049 A 
ATOM     30  C   UNL A   1      43.312  28.126  29.958  1.00  0.00     0.074 A 
ATOM     31  C   UNL A   1      45.001  31.989  34.802  1.00  0.00     0.029 A 
ATOM     32  N   UNL A   1      43.874  30.973  33.172  1.00  0.00    -0.354 N 
ATOM     33  N   UNL A   1      43.542  28.966  30.944  1.00  0.00    -0.248 NA
ATOM     34  C   UNL A   1      44.436  27.240  29.646  1.00  0.00     0.031 C 
ATOM     35  C   UNL A   1      45.841  31.052  34.189  1.00  0.00     0.029 A 
ATOM     36  C   UNL A   1      45.127  30.388  33.201  1.00  0.00     0.049 A 
ATOM     37  H   UNL A   1      43.149  30.725  32.554  1.00  0.00     0.167 HD
ATOM     38  C   UNL A   1      44.832  28.693  31.385  1.00  0.00     0.074 A 
ATOM     39  C   UNL A   1      45.315  27.594  30.570  1.00  0.00     0.031 C 
ATOM     40  C   UNL A   1      45.559  29.291  32.364  1.00  0.00     0.034 A 
BRANCH  27  41
ATOM     41  C   UNL A   1      42.608  33.838  35.444  1.00  0.00     0.023 A 
ATOM     42  C   UNL A   1      42.101  33.602  36.735  1.00  0.00     0.031 A 
ATOM     43  C   UNL A   1      42.996  35.151  35.123  1.00  0.00     0.131 A 
ATOM     44  C   UNL A   1      41.904  34.677  37.618  1.00  0.00     0.055 A 
ATOM     45  C   UNL A   1      42.882  36.200  36.037  1.00  0.00     0.041 A 
ATOM     46  F   UNL A   1      43.454  35.448  33.897  1.00  0.00    -0.206 F 
ATOM     47  C   UNL A   1      42.314  35.971  37.286  1.00  0.00     0.022 A 
BRANCH  44  48
ATOM     48  S   UNL A   1      40.934  34.398  39.128  1.00  0.00     0.124 S 
ATOM     49  O   UNL A   1      40.345  35.718  39.348  1.00  0.00    -0.237 OA
ATOM     50  O   UNL A   1      40.009  33.348  38.720  1.00  0.00    -0.237 OA
ATOM     51  O   UNL A   1      41.937  33.999  40.112  1.00  0.00    -0.744 OA
ENDBRANCH  44  48
ENDBRANCH  27  41
BRANCH  28  52
ATOM     52  C   UNL A   1      41.979  26.942  28.033  1.00  0.00     0.023 A 
ATOM     53  C   UNL A   1      41.734  25.588  28.314  1.00  0.00     0.031 A 
ATOM     54  C   UNL A   1      42.194  27.299  26.687  1.00  0.00     0.131 A 
ATOM     55  C   UNL A   1      41.751  24.640  27.275  1.00  0.00     0.055 A 
ATOM     56  C   UNL A   1      42.150  26.362  25.652  1.00  0.00     0.041 A 
ATOM     57  F   UNL A   1      42.447  28.575  26.352  1.00  0.00    -0.206 F 
ATOM     58  C   UNL A   1      41.941  25.021  25.945  1.00  0.00     0.022 A 
BRANCH  55  59
ATOM     59  S   UNL A   1      41.618  22.879  27.697  1.00  0.00     0.124 S 
ATOM     60  O   UNL A   1      42.405  22.259  26.638  1.00  0.00    -0.237 OA
ATOM     61  O   UNL A   1      42.199  22.845  29.034  1.00  0.00    -0.237 OA
ATOM     62  O   UNL A   1      40.180  22.623  27.638  1.00  0.00    -0.744 OA
ENDBRANCH  55  59
ENDBRANCH  28  52
BRANCH  40  63
ATOM     63  C   UNL A   1      46.926  28.716  32.628  1.00  0.00     0.023 A 
ATOM     64  C   UNL A   1      48.026  29.024  31.810  1.00  0.00     0.031 A 
ATOM     65  C   UNL A   1      47.121  27.834  33.705  1.00  0.00     0.131 A 
ATOM     66  C   UNL A   1      49.258  28.400  32.041  1.00  0.00     0.055 A 
ATOM     67  C   UNL A   1      48.367  27.270  33.972  1.00  0.00     0.041 A 
ATOM     68  F   UNL A   1      46.101  27.509  34.516  1.00  0.00    -0.206 F 
ATOM     69  C   UNL A   1      49.440  27.539  33.127  1.00  0.00     0.022 A 
BRANCH  66  70
ATOM     70  S   UNL A   1      50.589  28.641  30.835  1.00  0.00     0.124 S 
ATOM     71  O   UNL A   1      50.734  30.092  30.828  1.00  0.00    -0.237 OA
ATOM     72  O   UNL A   1      51.690  27.893  31.432  1.00  0.00    -0.237 OA
ATOM     73  O   UNL A   1      50.045  28.066  29.606  1.00  0.00    -0.744 OA
ENDBRANCH  66  70
ENDBRANCH  40  63
ENDBRANCH  14  15
ENDBRANCH   7   9
ENDBRANCH   6   7
ENDBRANCH   5   6
ENDBRANCH   4   5
ENDBRANCH   3   4
ENDBRANCH   2   3
ENDBRANCH   1   2
BRANCH   1  74
ATOM     74  O   UNL A   1      35.997  33.798  35.219  1.00  0.00    -0.377 OA
BRANCH  74  75
ATOM     75  C   UNL A   1      37.041  33.536  36.152  1.00  0.00     0.188 C 
BRANCH  75  76
ATOM     76  C   UNL A   1      37.760  32.167  36.108  1.00  0.00     0.188 C 
BRANCH  76  77
ATOM     77  O   UNL A   1      37.454  31.382  34.964  1.00  0.00    -0.376 OA
BRANCH  77  78
ATOM     78  C   UNL A   1      38.365  30.323  34.690  1.00  0.00     0.202 C 
BRANCH  78  79
ATOM     79  C   UNL A   1      39.646  30.313  35.540  1.00  0.00     0.261 C 
BRANCH  79  80
ATOM     80  O   UNL A   1      40.682  29.420  35.090  1.00  0.00    -0.460 OA
BRANCH  80  81
ATOM     81  C   UNL A   1      41.728  29.186  35.923  1.00  0.00     0.338 C 
ATOM     82  O   UNL A   1      42.123  29.897  36.813  1.00  0.00    -0.246 OA
BRANCH  81  83
ATOM     83  C   UNL A   1      42.170  27.780  35.688  1.00  0.00     0.060 A 
ATOM     84  C   UNL A   1      41.803  26.796  36.617  1.00  0.00     0.017 A 
ATOM     85  C   UNL A   1      42.829  27.407  34.513  1.00  0.00     0.017 A 
ATOM     86  C   UNL A   1      42.089  25.446  36.366  1.00  0.00     0.018 A 
ATOM     87  C   UNL A   1      43.136  26.058  34.278  1.00  0.00     0.018 A 
ATOM     88  C   UNL A   1      42.768  25.066  35.200  1.00  0.00     0.039 A 
BRANCH  88  89
ATOM     89  S   UNL A   1      43.439  23.404  35.013  1.00  0.00     0.056 S 
ATOM     90  O   UNL A   1      43.407  23.112  33.541  1.00  0.00    -0.254 OA
BRANCH  89  91
ATOM     91  C   UNL A   1      45.181  23.506  35.504  1.00  0.00     0.089 C 
ATOM     92  C   UNL A   1      45.545  24.709  36.359  1.00  0.00     0.046 C 
ATOM     93  C   UNL A   1      45.749  22.233  36.119  1.00  0.00     0.053 C 
ATOM     94  C   UNL A   1      47.064  24.771  36.492  1.00  0.00     0.162 C 
ATOM     95  C   UNL A   1      47.281  22.359  36.256  1.00  0.00     0.069 C 
ATOM     96  O   UNL A   1      47.608  23.549  36.990  1.00  0.00    -0.375 OA
ATOM     97  C   UNL A   1      47.879  21.175  37.055  1.00  0.00     0.035 C 
ATOM     98  C   UNL A   1      48.014  22.313  34.891  1.00  0.00     0.035 C 
ATOM     99  C   UNL A   1      48.818  20.440  36.103  1.00  0.00     0.003 C 
ATOM    100  C   UNL A   1      49.288  21.521  35.151  1.00  0.00     0.003 C 
ENDBRANCH  89  91
ENDBRANCH  88  89
ENDBRANCH  81  83
ENDBRANCH  80  81
ENDBRANCH  79  80
ENDBRANCH  78  79
ENDBRANCH  77  78
ENDBRANCH  76  77
ENDBRANCH  75  76
ENDBRANCH  74  75
ENDBRANCH   1  74
TORSDOF 25
ENDMDL
MODEL 3
REMARK VINA RESULT:      -8.9      1.964      2.566
REMARK SMILES O=C(OCCOCCOCCOCCOC(=O)c1ccc([S@@](=O)[C@H]2CCOC3(CCCC3)C2)cc1)c1ccc(-c2c3nc(c(-c4cc(S(=O)(=O)[O-])ccc4F)c4ccc([nH]4)c(-c4cc(S(=O)(=O)[O-])ccc4F)c4nc(c(-c5cc(S(=O)(=O)[O-])ccc5F)c5ccc2[nH]5)C=C4)C=C3)cc1
REMARK SMILES IDX 8 1 7 2 6 3 5 4 4 5 3 6 2 7 1 8 36 9 37 10 98 11 38 12 97 13
REMARK SMILES IDX 39 14 40 15 41 16 91 17 42 18 96 19 90 20 92 21 43 22 95 23
REMARK SMILES IDX 89 24 88 25 44 27 76 28 56 29 75 30 57 31 60 32 74 33 93 34
REMARK SMILES IDX 58 35 59 36 73 38 94 39 61 40 45 41 46 42 54 43 47 44 53 45
REMARK SMILES IDX 55 46 52 47 48 48 49 49 50 50 51 51 77 52 78 53 86 54 79 55
REMARK SMILES IDX 85 56 87 57 84 58 80 59 81 60 82 61 83 62 62 63 63 64 71 65
REMARK SMILES IDX 64 66 70 67 72 68 69 69 65 70 66 71 67 72 68 73 9 74 10 75
REMARK SMILES IDX 11 76 12 77 13 78 14 79 15 80 16 81 17 82 18 83 19 84 35 85
REMARK SMILES IDX 20 86 34 87 21 88 22 89 23 90 24 91 25 92 33 93 26 94 28 95
REMARK SMILES IDX 27 96 29 97 32 98 30 99 31 100
REMARK H PARENT 92 26 60 37
REMARK Flexibility Score: inf
ROOT
ATOM      1  C   UNL A   1      32.412  21.612  26.257  1.00  0.00     0.188 C 
ENDROOT
BRANCH   1   2
ATOM      2  C   UNL A   1      33.218  20.435  25.714  1.00  0.00     0.188 C 
BRANCH   2   3
ATOM      3  O   UNL A   1      34.423  20.873  25.095  1.00  0.00    -0.376 OA
BRANCH   3   4
ATOM      4  C   UNL A   1      35.433  21.434  25.929  1.00  0.00     0.202 C 
BRANCH   4   5
ATOM      5  C   UNL A   1      36.882  21.302  25.451  1.00  0.00     0.261 C 
BRANCH   5   6
ATOM      6  O   UNL A   1      37.732  22.423  25.759  1.00  0.00    -0.460 OA
BRANCH   6   7
ATOM      7  C   UNL A   1      38.982  22.436  26.283  1.00  0.00     0.338 C 
ATOM      8  O   UNL A   1      39.614  21.381  26.329  1.00  0.00    -0.246 OA
BRANCH   7   9
ATOM      9  C   UNL A   1      39.634  23.664  26.814  1.00  0.00     0.060 A 
ATOM     10  C   UNL A   1      39.277  24.961  26.461  1.00  0.00     0.016 A 
ATOM     11  C   UNL A   1      40.612  23.503  27.804  1.00  0.00     0.016 A 
ATOM     12  C   UNL A   1      39.982  26.062  26.913  1.00  0.00     0.010 A 
ATOM     13  C   UNL A   1      41.279  24.614  28.334  1.00  0.00     0.010 A 
ATOM     14  C   UNL A   1      41.012  25.893  27.828  1.00  0.00    -0.014 A 
BRANCH  14  15
ATOM     15  C   UNL A   1      41.936  27.028  28.034  1.00  0.00     0.031 A 
ATOM     16  C   UNL A   1      41.472  28.131  28.942  1.00  0.00     0.074 A 
ATOM     17  C   UNL A   1      43.200  26.978  27.574  1.00  0.00     0.049 A 
ATOM     18  N   UNL A   1      42.034  29.273  29.223  1.00  0.00    -0.248 NA
ATOM     19  C   UNL A   1      40.186  27.912  29.627  1.00  0.00     0.031 C 
ATOM     20  C   UNL A   1      43.784  25.860  26.826  1.00  0.00     0.029 A 
ATOM     21  N   UNL A   1      44.237  27.861  27.708  1.00  0.00    -0.354 N 
ATOM     22  C   UNL A   1      41.141  29.932  30.063  1.00  0.00     0.074 A 
ATOM     23  C   UNL A   1      39.997  29.069  30.236  1.00  0.00     0.031 C 
ATOM     24  C   UNL A   1      45.086  26.107  26.610  1.00  0.00     0.029 A 
ATOM     25  C   UNL A   1      45.404  27.437  27.114  1.00  0.00     0.049 A 
ATOM     26  H   UNL A   1      44.155  28.718  28.185  1.00  0.00     0.167 HD
ATOM     27  C   UNL A   1      41.273  31.156  30.628  1.00  0.00     0.034 A 
ATOM     28  C   UNL A   1      46.579  28.081  26.966  1.00  0.00     0.034 A 
ATOM     29  C   UNL A   1      42.449  31.965  30.443  1.00  0.00     0.049 A 
ATOM     30  C   UNL A   1      46.672  29.479  27.529  1.00  0.00     0.074 A 
ATOM     31  C   UNL A   1      42.699  33.252  30.876  1.00  0.00     0.029 A 
ATOM     32  N   UNL A   1      43.590  31.544  29.762  1.00  0.00    -0.354 N 
ATOM     33  N   UNL A   1      45.777  30.156  28.214  1.00  0.00    -0.248 NA
ATOM     34  C   UNL A   1      47.923  30.204  27.289  1.00  0.00     0.031 C 
ATOM     35  C   UNL A   1      43.963  33.629  30.408  1.00  0.00     0.029 A 
ATOM     36  C   UNL A   1      44.537  32.550  29.750  1.00  0.00     0.049 A 
ATOM     37  H   UNL A   1      43.703  30.657  29.350  1.00  0.00     0.167 HD
ATOM     38  C   UNL A   1      46.366  31.381  28.507  1.00  0.00     0.074 A 
ATOM     39  C   UNL A   1      47.702  31.334  27.943  1.00  0.00     0.031 C 
ATOM     40  C   UNL A   1      45.859  32.452  29.172  1.00  0.00     0.034 A 
BRANCH  27  41
ATOM     41  C   UNL A   1      40.076  31.694  31.374  1.00  0.00     0.023 A 
ATOM     42  C   UNL A   1      39.961  31.614  32.774  1.00  0.00     0.031 A 
ATOM     43  C   UNL A   1      38.969  32.180  30.654  1.00  0.00     0.131 A 
ATOM     44  C   UNL A   1      38.737  31.917  33.396  1.00  0.00     0.055 A 
ATOM     45  C   UNL A   1      37.786  32.565  31.287  1.00  0.00     0.041 A 
ATOM     46  F   UNL A   1      39.003  32.248  29.314  1.00  0.00    -0.206 F 
ATOM     47  C   UNL A   1      37.658  32.416  32.664  1.00  0.00     0.022 A 
BRANCH  44  48
ATOM     48  S   UNL A   1      38.515  31.472  35.143  1.00  0.00     0.124 S 
ATOM     49  O   UNL A   1      37.232  32.105  35.446  1.00  0.00    -0.237 OA
ATOM     50  O   UNL A   1      38.511  30.015  35.100  1.00  0.00    -0.237 OA
ATOM     51  O   UNL A   1      39.671  32.076  35.802  1.00  0.00    -0.744 OA
ENDBRANCH  44  48
ENDBRANCH  27  41
BRANCH  28  52
ATOM     52  C   UNL A   1      47.709  27.463  26.208  1.00  0.00     0.023 A 
ATOM     53  C   UNL A   1      48.678  26.673  26.849  1.00  0.00     0.031 A 
ATOM     54  C   UNL A   1      47.870  27.697  24.828  1.00  0.00     0.131 A 
ATOM     55  C   UNL A   1      49.778  26.183  26.124  1.00  0.00     0.055 A 
ATOM     56  C   UNL A   1      48.932  27.157  24.100  1.00  0.00     0.041 A 
ATOM     57  F   UNL A   1      46.986  28.454  24.159  1.00  0.00    -0.206 F 
ATOM     58  C   UNL A   1      49.903  26.407  24.751  1.00  0.00     0.022 A 
BRANCH  55  59
ATOM     59  S   UNL A   1      51.105  25.327  27.021  1.00  0.00     0.124 S 
ATOM     60  O   UNL A   1      50.353  24.352  27.803  1.00  0.00    -0.237 OA
ATOM     61  O   UNL A   1      51.910  24.791  25.929  1.00  0.00    -0.237 OA
ATOM     62  O   UNL A   1      51.736  26.394  27.794  1.00  0.00    -0.744 OA
ENDBRANCH  55  59
ENDBRANCH  28  52
BRANCH  40  63
ATOM     63  C   UNL A   1      46.787  33.621  29.363  1.00  0.00     0.023 A 
ATOM     64  C   UNL A   1      46.858  34.667  28.427  1.00  0.00     0.031 A 
ATOM     65  C   UNL A   1      47.624  33.677  30.491  1.00  0.00     0.131 A 
ATOM     66  C   UNL A   1      47.797  35.692  28.602  1.00  0.00     0.055 A 
ATOM     67  C   UNL A   1      48.507  34.735  30.695  1.00  0.00     0.041 A 
ATOM     68  F   UNL A   1      47.593  32.702  31.414  1.00  0.00    -0.206 F 
ATOM     69  C   UNL A   1      48.609  35.742  29.739  1.00  0.00     0.022 A 
BRANCH  66  70
ATOM     70  S   UNL A   1      48.020  36.896  27.267  1.00  0.00     0.124 S 
ATOM     71  O   UNL A   1      48.223  38.136  28.008  1.00  0.00    -0.237 OA
ATOM     72  O   UNL A   1      49.190  36.373  26.568  1.00  0.00    -0.237 OA
ATOM     73  O   UNL A   1      46.766  36.817  26.521  1.00  0.00    -0.744 OA
ENDBRANCH  66  70
ENDBRANCH  40  63
ENDBRANCH  14  15
ENDBRANCH   7   9
ENDBRANCH   6   7
ENDBRANCH   5   6
ENDBRANCH   4   5
ENDBRANCH   3   4
ENDBRANCH   2   3
ENDBRANCH   1   2
BRANCH   1  74
ATOM     74  O   UNL A   1      32.547  22.829  25.524  1.00  0.00    -0.377 OA
BRANCH  74  75
ATOM     75  C   UNL A   1      31.521  23.098  24.572  1.00  0.00     0.188 C 
BRANCH  75  76
ATOM     76  C   UNL A   1      31.654  22.517  23.144  1.00  0.00     0.188 C 
BRANCH  76  77
ATOM     77  O   UNL A   1      32.984  22.488  22.644  1.00  0.00    -0.376 OA
BRANCH  77  78
ATOM     78  C   UNL A   1      33.522  23.751  22.267  1.00  0.00     0.202 C 
BRANCH  78  79
ATOM     79  C   UNL A   1      32.499  24.783  21.764  1.00  0.00     0.261 C 
BRANCH  79  80
ATOM     80  O   UNL A   1      32.407  25.993  22.539  1.00  0.00    -0.460 OA
BRANCH  80  81
ATOM     81  C   UNL A   1      33.378  26.927  22.379  1.00  0.00     0.338 C 
ATOM     82  O   UNL A   1      33.869  27.297  21.343  1.00  0.00    -0.246 OA
BRANCH  81  83
ATOM     83  C   UNL A   1      33.577  27.585  23.705  1.00  0.00     0.060 A 
ATOM     84  C   UNL A   1      33.595  26.785  24.856  1.00  0.00     0.017 A 
ATOM     85  C   UNL A   1      33.865  28.949  23.809  1.00  0.00     0.017 A 
ATOM     86  C   UNL A   1      33.907  27.347  26.102  1.00  0.00     0.018 A 
ATOM     87  C   UNL A   1      34.152  29.512  25.062  1.00  0.00     0.018 A 
ATOM     88  C   UNL A   1      34.177  28.718  26.219  1.00  0.00     0.039 A 
BRANCH  88  89
ATOM     89  S   UNL A   1      34.247  29.520  27.831  1.00  0.00     0.056 S 
ATOM     90  O   UNL A   1      35.706  29.660  28.156  1.00  0.00    -0.254 OA
BRANCH  89  91
ATOM     91  C   UNL A   1      33.585  31.191  27.590  1.00  0.00     0.089 C 
ATOM     92  C   UNL A   1      32.150  31.256  27.092  1.00  0.00     0.046 C 
ATOM     93  C   UNL A   1      33.774  32.131  28.775  1.00  0.00     0.053 C 
ATOM     94  C   UNL A   1      31.826  32.701  26.727  1.00  0.00     0.162 C 
ATOM     95  C   UNL A   1      33.407  33.572  28.360  1.00  0.00     0.069 C 
ATOM     96  O   UNL A   1      32.081  33.597  27.809  1.00  0.00    -0.375 OA
ATOM     97  C   UNL A   1      33.392  34.527  29.578  1.00  0.00     0.035 C 
ATOM     98  C   UNL A   1      34.439  34.200  27.388  1.00  0.00     0.035 C 
ATOM     99  C   UNL A   1      34.473  35.573  29.321  1.00  0.00     0.003 C 
ATOM    100  C   UNL A   1      34.543  35.659  27.811  1.00  0.00     0.003 C 
ENDBRANCH  89  91
ENDBRANCH  88  89
ENDBRANCH  81  83
ENDBRANCH  80  81
ENDBRANCH  79  80
ENDBRANCH  78  79
ENDBRANCH  77  78
ENDBRANCH  76  77
ENDBRANCH  75  76
ENDBRANCH  74  75
ENDBRANCH   1  74
TORSDOF 25
ENDMDL
