MODEL 1
REMARK VINA RESULT:     -11.1      0.000      0.000
REMARK SMILES Cc1ccc(NC(=O)N2CCCC[C@@H]2C(=O)OCCOCCOCCOCCOC(=O)c2ccc(-c3c4nc(c(-c5cc(S(=O)(=O)[O-])ccc5F)c5ccc([nH]5)c(-c5cc(S(=O)(=O)[O-])ccc5F)c5nc(c(-c6cc(S(=O)(=O)[O-])ccc6F)c6ccc3[nH]6)C=C5)C=C4)cc2)cc1
REMARK SMILES IDX 24 1 23 2 22 3 21 4 20 5 19 6 18 7 17 8 15 9 16 10 14 11
REMARK SMILES IDX 9 12 10 13 11 14 13 15 12 16 7 17 6 18 8 20 5 21 1 22 2 23
REMARK SMILES IDX 3 24 96 25 4 26 95 27 25 28 26 29 27 30 28 31 29 32 30 33
REMARK SMILES IDX 31 34 32 35 33 36 94 37 34 38 93 39 35 40 36 41 37 42 87 43
REMARK SMILES IDX 38 44 92 45 86 46 88 47 39 48 91 49 85 50 84 51 40 53 72 54
REMARK SMILES IDX 52 55 71 56 53 57 56 58 70 59 89 60 54 61 55 62 69 64 90 65
REMARK SMILES IDX 57 66 41 67 42 68 50 69 43 70 49 71 51 72 48 73 44 74 45 75
REMARK SMILES IDX 46 76 47 77 73 78 74 79 82 80 75 81 81 82 83 83 80 84 76 85
REMARK SMILES IDX 77 86 78 87 79 88 58 89 59 90 67 91 60 92 66 93 68 94 65 95
REMARK SMILES IDX 61 96 62 97 63 98 64 99
REMARK H PARENT 6 19 88 52 56 63
REMARK Flexibility Score: inf
ROOT
ATOM      1  C   UNL A   1      40.959  20.545  26.896  1.00  0.00     0.188 C 
ENDROOT
BRANCH   1   2
ATOM      2  O   UNL A   1      40.562  21.559  25.990  1.00  0.00    -0.377 OA
BRANCH   2   3
ATOM      3  C   UNL A   1      39.304  22.132  26.274  1.00  0.00     0.188 C 
BRANCH   3   4
ATOM      4  C   UNL A   1      38.085  21.628  25.463  1.00  0.00     0.188 C 
BRANCH   4   5
ATOM      5  O   UNL A   1      36.706  21.802  25.770  1.00  0.00    -0.376 OA
BRANCH   5   6
ATOM      6  C   UNL A   1      35.734  22.119  24.789  1.00  0.00     0.202 C 
BRANCH   6   7
ATOM      7  C   UNL A   1      35.663  23.600  24.461  1.00  0.00     0.261 C 
BRANCH   7   8
ATOM      8  O   UNL A   1      34.871  24.369  25.381  1.00  0.00    -0.462 OA
BRANCH   8   9
ATOM      9  C   UNL A   1      34.108  25.289  24.777  1.00  0.00     0.329 C 
ATOM     10  O   UNL A   1      34.005  25.422  23.561  1.00  0.00    -0.250 OA
BRANCH   9  11
ATOM     11  C   UNL A   1      33.310  26.202  25.674  1.00  0.00     0.196 C 
ATOM     12  N   UNL A   1      31.869  26.070  25.925  1.00  0.00    -0.311 N 
ATOM     13  C   UNL A   1      31.334  27.010  26.914  1.00  0.00     0.122 C 
ATOM     14  C   UNL A   1      31.904  28.436  26.890  1.00  0.00     0.022 C 
ATOM     15  C   UNL A   1      33.670  27.660  25.350  1.00  0.00     0.037 C 
ATOM     16  C   UNL A   1      33.391  28.503  26.581  1.00  0.00     0.005 C 
BRANCH  12  17
ATOM     17  C   UNL A   1      31.006  25.118  25.438  1.00  0.00     0.322 C 
ATOM     18  N   UNL A   1      29.889  25.405  24.728  1.00  0.00    -0.308 N 
ATOM     19  H   UNL A   1      29.201  24.708  24.828  1.00  0.00     0.171 HD
ATOM     20  O   UNL A   1      31.227  23.919  25.658  1.00  0.00    -0.248 OA
BRANCH  18  21
ATOM     21  C   UNL A   1      29.459  26.449  23.882  1.00  0.00     0.042 A 
ATOM     22  C   UNL A   1      28.137  30.356  22.744  1.00  0.00     0.044 C 
ATOM     23  C   UNL A   1      28.525  28.912  22.880  1.00  0.00    -0.051 A 
ATOM     24  C   UNL A   1      29.837  28.486  22.630  1.00  0.00     0.005 A 
ATOM     25  C   UNL A   1      27.631  27.999  23.433  1.00  0.00     0.005 A 
ATOM     26  C   UNL A   1      30.299  27.246  23.113  1.00  0.00     0.026 A 
ATOM     27  C   UNL A   1      28.096  26.766  23.906  1.00  0.00     0.026 A 
ENDBRANCH  18  21
ENDBRANCH  12  17
ENDBRANCH   9  11
ENDBRANCH   8   9
ENDBRANCH   7   8
ENDBRANCH   6   7
ENDBRANCH   5   6
ENDBRANCH   4   5
ENDBRANCH   3   4
ENDBRANCH   2   3
ENDBRANCH   1   2
BRANCH   1  28
ATOM     28  C   UNL A   1      41.347  19.286  26.155  1.00  0.00     0.188 C 
BRANCH  28  29
ATOM     29  O   UNL A   1      42.413  19.383  25.216  1.00  0.00    -0.376 OA
BRANCH  29  30
ATOM     30  C   UNL A   1      43.511  18.502  25.412  1.00  0.00     0.202 C 
BRANCH  30  31
ATOM     31  C   UNL A   1      44.843  19.031  24.860  1.00  0.00     0.261 C 
BRANCH  31  32
ATOM     32  O   UNL A   1      45.232  20.202  25.615  1.00  0.00    -0.460 OA
BRANCH  32  33
ATOM     33  C   UNL A   1      45.214  21.373  24.900  1.00  0.00     0.338 C 
ATOM     34  O   UNL A   1      46.048  21.714  24.106  1.00  0.00    -0.246 OA
BRANCH  33  35
ATOM     35  C   UNL A   1      44.143  22.279  25.457  1.00  0.00     0.060 A 
ATOM     36  C   UNL A   1      43.661  23.312  24.640  1.00  0.00     0.016 A 
ATOM     37  C   UNL A   1      43.915  22.341  26.830  1.00  0.00     0.016 A 
ATOM     38  C   UNL A   1      43.155  24.494  25.214  1.00  0.00     0.010 A 
ATOM     39  C   UNL A   1      43.479  23.544  27.391  1.00  0.00     0.010 A 
ATOM     40  C   UNL A   1      43.179  24.669  26.602  1.00  0.00    -0.014 A 
BRANCH  40  41
ATOM     41  C   UNL A   1      43.189  26.009  27.263  1.00  0.00     0.031 A 
ATOM     42  C   UNL A   1      41.928  26.808  27.478  1.00  0.00     0.074 A 
ATOM     43  C   UNL A   1      44.311  26.403  27.931  1.00  0.00     0.049 A 
ATOM     44  N   UNL A   1      41.882  28.001  27.977  1.00  0.00    -0.248 NA
ATOM     45  C   UNL A   1      40.584  26.335  27.154  1.00  0.00     0.031 C 
ATOM     46  C   UNL A   1      44.408  27.405  28.993  1.00  0.00     0.029 A 
ATOM     47  N   UNL A   1      45.632  25.979  27.811  1.00  0.00    -0.354 N 
ATOM     48  C   UNL A   1      40.587  28.300  28.362  1.00  0.00     0.074 A 
ATOM     49  C   UNL A   1      39.810  27.272  27.716  1.00  0.00     0.031 C 
ATOM     50  C   UNL A   1      45.667  27.559  29.413  1.00  0.00     0.029 A 
ATOM     51  C   UNL A   1      46.485  26.920  28.428  1.00  0.00     0.049 A 
ATOM     52  H   UNL A   1      45.925  25.151  27.366  1.00  0.00     0.167 HD
ATOM     53  C   UNL A   1      40.354  29.307  29.272  1.00  0.00     0.034 A 
ATOM     54  C   UNL A   1      47.386  27.624  27.682  1.00  0.00     0.034 A 
ATOM     55  C   UNL A   1      41.580  30.120  29.538  1.00  0.00     0.049 A 
ATOM     56  C   UNL A   1      46.951  29.082  27.470  1.00  0.00     0.074 A 
ATOM     57  C   UNL A   1      42.150  30.755  30.631  1.00  0.00     0.029 A 
ATOM     58  N   UNL A   1      42.501  30.339  28.501  1.00  0.00    -0.354 N 
ATOM     59  N   UNL A   1      45.757  29.534  27.793  1.00  0.00    -0.248 NA
ATOM     60  C   UNL A   1      47.797  30.166  26.984  1.00  0.00     0.031 C 
ATOM     61  C   UNL A   1      43.443  31.239  30.273  1.00  0.00     0.029 A 
ATOM     62  C   UNL A   1      43.620  31.020  28.918  1.00  0.00     0.049 A 
ATOM     63  H   UNL A   1      42.361  30.037  27.574  1.00  0.00     0.167 HD
ATOM     64  C   UNL A   1      45.665  30.889  27.622  1.00  0.00     0.074 A 
ATOM     65  C   UNL A   1      46.977  31.233  27.092  1.00  0.00     0.031 C 
ATOM     66  C   UNL A   1      44.537  31.607  27.945  1.00  0.00     0.034 A 
BRANCH  53  67
ATOM     67  C   UNL A   1      39.044  29.493  30.097  1.00  0.00     0.023 A 
ATOM     68  C   UNL A   1      38.281  30.686  29.980  1.00  0.00     0.031 A 
ATOM     69  C   UNL A   1      38.561  28.621  31.103  1.00  0.00     0.131 A 
ATOM     70  C   UNL A   1      37.217  31.003  30.864  1.00  0.00     0.055 A 
ATOM     71  C   UNL A   1      37.448  28.896  31.922  1.00  0.00     0.041 A 
ATOM     72  F   UNL A   1      39.155  27.463  31.403  1.00  0.00    -0.206 F 
ATOM     73  C   UNL A   1      36.786  30.104  31.830  1.00  0.00     0.022 A 
BRANCH  70  74
ATOM     74  S   UNL A   1      36.431  32.647  30.806  1.00  0.00     0.124 S 
ATOM     75  O   UNL A   1      37.160  33.286  29.716  1.00  0.00    -0.237 OA
ATOM     76  O   UNL A   1      35.035  32.322  30.546  1.00  0.00    -0.237 OA
ATOM     77  O   UNL A   1      36.698  33.198  32.135  1.00  0.00    -0.744 OA
ENDBRANCH  70  74
ENDBRANCH  53  67
BRANCH  54  78
ATOM     78  C   UNL A   1      48.230  26.640  26.917  1.00  0.00     0.023 A 
ATOM     79  C   UNL A   1      47.921  26.628  25.526  1.00  0.00     0.031 A 
ATOM     80  C   UNL A   1      49.574  26.438  27.273  1.00  0.00     0.131 A 
ATOM     81  C   UNL A   1      48.946  26.779  24.574  1.00  0.00     0.055 A 
ATOM     82  C   UNL A   1      50.592  26.476  26.301  1.00  0.00     0.041 A 
ATOM     83  F   UNL A   1      49.942  26.422  28.562  1.00  0.00    -0.206 F 
ATOM     84  C   UNL A   1      50.286  26.728  24.961  1.00  0.00     0.022 A 
BRANCH  81  85
ATOM     85  S   UNL A   1      48.521  27.437  22.919  1.00  0.00     0.124 S 
ATOM     86  O   UNL A   1      47.212  28.034  23.153  1.00  0.00    -0.237 OA
ATOM     87  O   UNL A   1      49.609  28.372  22.650  1.00  0.00    -0.237 OA
ATOM     88  O   UNL A   1      48.538  26.246  22.069  1.00  0.00    -0.744 OA
ENDBRANCH  81  85
ENDBRANCH  54  78
BRANCH  66  89
ATOM     89  C   UNL A   1      44.149  33.001  27.451  1.00  0.00     0.023 A 
ATOM     90  C   UNL A   1      44.003  34.105  28.290  1.00  0.00     0.031 A 
ATOM     91  C   UNL A   1      44.013  33.287  26.059  1.00  0.00     0.131 A 
ATOM     92  C   UNL A   1      43.716  35.385  27.775  1.00  0.00     0.055 A 
ATOM     93  C   UNL A   1      43.744  34.559  25.547  1.00  0.00     0.041 A 
ATOM     94  F   UNL A   1      44.182  32.361  25.106  1.00  0.00    -0.206 F 
ATOM     95  C   UNL A   1      43.592  35.624  26.410  1.00  0.00     0.022 A 
BRANCH  92  96
ATOM     96  S   UNL A   1      43.536  36.738  28.958  1.00  0.00     0.124 S 
ATOM     97  O   UNL A   1      43.204  36.024  30.187  1.00  0.00    -0.237 OA
ATOM     98  O   UNL A   1      44.860  37.354  28.923  1.00  0.00    -0.237 OA
ATOM     99  O   UNL A   1      42.459  37.549  28.396  1.00  0.00    -0.744 OA
ENDBRANCH  92  96
ENDBRANCH  66  89
ENDBRANCH  40  41
ENDBRANCH  33  35
ENDBRANCH  32  33
ENDBRANCH  31  32
ENDBRANCH  30  31
ENDBRANCH  29  30
ENDBRANCH  28  29
ENDBRANCH   1  28
TORSDOF 25
ENDMDL
MODEL 2
REMARK VINA RESULT:     -11.1      1.242      2.318
REMARK SMILES Cc1ccc(NC(=O)N2CCCC[C@@H]2C(=O)OCCOCCOCCOCCOC(=O)c2ccc(-c3c4nc(c(-c5cc(S(=O)(=O)[O-])ccc5F)c5ccc([nH]5)c(-c5cc(S(=O)(=O)[O-])ccc5F)c5nc(c(-c6cc(S(=O)(=O)[O-])ccc6F)c6ccc3[nH]6)C=C5)C=C4)cc2)cc1
REMARK SMILES IDX 24 1 23 2 22 3 21 4 20 5 19 6 18 7 17 8 15 9 16 10 14 11
REMARK SMILES IDX 9 12 10 13 11 14 13 15 12 16 7 17 6 18 8 20 5 21 1 22 2 23
REMARK SMILES IDX 3 24 96 25 4 26 95 27 25 28 26 29 27 30 28 31 29 32 30 33
REMARK SMILES IDX 31 34 32 35 33 36 94 37 34 38 93 39 35 40 36 41 37 42 87 43
REMARK SMILES IDX 38 44 92 45 86 46 88 47 39 48 91 49 85 50 84 51 40 53 72 54
REMARK SMILES IDX 52 55 71 56 53 57 56 58 70 59 89 60 54 61 55 62 69 64 90 65
REMARK SMILES IDX 57 66 41 67 42 68 50 69 43 70 49 71 51 72 48 73 44 74 45 75
REMARK SMILES IDX 46 76 47 77 73 78 74 79 82 80 75 81 81 82 83 83 80 84 76 85
REMARK SMILES IDX 77 86 78 87 79 88 58 89 59 90 67 91 60 92 66 93 68 94 65 95
REMARK SMILES IDX 61 96 62 97 63 98 64 99
REMARK H PARENT 6 19 88 52 56 63
REMARK Flexibility Score: inf
ROOT
ATOM      1  C   UNL A   1      40.376  20.908  26.751  1.00  0.00     0.188 C 
ENDROOT
BRANCH   1   2
ATOM      2  O   UNL A   1      39.577  21.672  25.864  1.00  0.00    -0.377 OA
BRANCH   2   3
ATOM      3  C   UNL A   1      38.950  22.787  26.460  1.00  0.00     0.188 C 
BRANCH   3   4
ATOM      4  C   UNL A   1      37.871  23.531  25.634  1.00  0.00     0.188 C 
BRANCH   4   5
ATOM      5  O   UNL A   1      36.542  23.103  25.357  1.00  0.00    -0.376 OA
BRANCH   5   6
ATOM      6  C   UNL A   1      35.497  24.002  25.028  1.00  0.00     0.202 C 
BRANCH   6   7
ATOM      7  C   UNL A   1      35.029  23.888  23.589  1.00  0.00     0.261 C 
BRANCH   7   8
ATOM      8  O   UNL A   1      33.663  24.284  23.381  1.00  0.00    -0.462 OA
BRANCH   8   9
ATOM      9  C   UNL A   1      33.542  25.535  22.921  1.00  0.00     0.329 C 
ATOM     10  O   UNL A   1      33.824  25.889  21.780  1.00  0.00    -0.250 OA
BRANCH   9  11
ATOM     11  C   UNL A   1      32.997  26.561  23.883  1.00  0.00     0.196 C 
ATOM     12  N   UNL A   1      31.598  26.626  24.325  1.00  0.00    -0.311 N 
ATOM     13  C   UNL A   1      31.328  27.645  25.343  1.00  0.00     0.122 C 
ATOM     14  C   UNL A   1      32.069  28.982  25.195  1.00  0.00     0.022 C 
ATOM     15  C   UNL A   1      33.496  27.953  23.464  1.00  0.00     0.037 C 
ATOM     16  C   UNL A   1      33.497  28.846  24.691  1.00  0.00     0.005 C 
BRANCH  12  17
ATOM     17  C   UNL A   1      30.562  25.789  23.989  1.00  0.00     0.322 C 
ATOM     18  N   UNL A   1      30.538  24.465  24.277  1.00  0.00    -0.308 N 
ATOM     19  H   UNL A   1      29.989  23.960  23.635  1.00  0.00     0.171 HD
ATOM     20  O   UNL A   1      29.585  26.236  23.374  1.00  0.00    -0.248 OA
BRANCH  18  21
ATOM     21  C   UNL A   1      31.102  23.625  25.261  1.00  0.00     0.042 A 
ATOM     22  C   UNL A   1      34.122  21.480  27.402  1.00  0.00     0.044 C 
ATOM     23  C   UNL A   1      32.881  22.077  26.803  1.00  0.00    -0.051 A 
ATOM     24  C   UNL A   1      32.321  23.254  27.319  1.00  0.00     0.005 A 
ATOM     25  C   UNL A   1      32.369  21.572  25.612  1.00  0.00     0.005 A 
ATOM     26  C   UNL A   1      31.415  24.018  26.556  1.00  0.00     0.026 A 
ATOM     27  C   UNL A   1      31.466  22.334  24.861  1.00  0.00     0.026 A 
ENDBRANCH  18  21
ENDBRANCH  12  17
ENDBRANCH   9  11
ENDBRANCH   8   9
ENDBRANCH   7   8
ENDBRANCH   6   7
ENDBRANCH   5   6
ENDBRANCH   4   5
ENDBRANCH   3   4
ENDBRANCH   2   3
ENDBRANCH   1   2
BRANCH   1  28
ATOM     28  C   UNL A   1      40.752  19.583  26.130  1.00  0.00     0.188 C 
BRANCH  28  29
ATOM     29  O   UNL A   1      41.879  19.567  25.259  1.00  0.00    -0.376 OA
BRANCH  29  30
ATOM     30  C   UNL A   1      42.984  18.773  25.669  1.00  0.00     0.202 C 
BRANCH  30  31
ATOM     31  C   UNL A   1      44.278  19.054  24.892  1.00  0.00     0.261 C 
BRANCH  31  32
ATOM     32  O   UNL A   1      45.112  19.940  25.674  1.00  0.00    -0.460 OA
BRANCH  32  33
ATOM     33  C   UNL A   1      45.463  21.104  25.036  1.00  0.00     0.338 C 
ATOM     34  O   UNL A   1      46.537  21.331  24.549  1.00  0.00    -0.246 OA
BRANCH  33  35
ATOM     35  C   UNL A   1      44.395  22.143  25.276  1.00  0.00     0.060 A 
ATOM     36  C   UNL A   1      44.346  23.251  24.416  1.00  0.00     0.016 A 
ATOM     37  C   UNL A   1      43.738  22.210  26.503  1.00  0.00     0.016 A 
ATOM     38  C   UNL A   1      43.838  24.482  24.873  1.00  0.00     0.010 A 
ATOM     39  C   UNL A   1      43.302  23.452  26.971  1.00  0.00     0.010 A 
ATOM     40  C   UNL A   1      43.426  24.623  26.203  1.00  0.00    -0.014 A 
BRANCH  40  41
ATOM     41  C   UNL A   1      43.393  25.935  26.919  1.00  0.00     0.031 A 
ATOM     42  C   UNL A   1      42.113  26.710  27.114  1.00  0.00     0.074 A 
ATOM     43  C   UNL A   1      44.480  26.313  27.649  1.00  0.00     0.049 A 
ATOM     44  N   UNL A   1      42.032  27.882  27.659  1.00  0.00    -0.248 NA
ATOM     45  C   UNL A   1      40.791  26.237  26.713  1.00  0.00     0.031 C 
ATOM     46  C   UNL A   1      44.520  27.270  28.755  1.00  0.00     0.029 A 
ATOM     47  N   UNL A   1      45.810  25.908  27.568  1.00  0.00    -0.354 N 
ATOM     48  C   UNL A   1      40.718  28.150  28.000  1.00  0.00     0.074 A 
ATOM     49  C   UNL A   1      39.982  27.142  27.280  1.00  0.00     0.031 C 
ATOM     50  C   UNL A   1      45.759  27.419  29.235  1.00  0.00     0.029 A 
ATOM     51  C   UNL A   1      46.624  26.831  28.259  1.00  0.00     0.049 A 
ATOM     52  H   UNL A   1      46.132  25.103  27.102  1.00  0.00     0.167 HD
ATOM     53  C   UNL A   1      40.435  29.116  28.941  1.00  0.00     0.034 A 
ATOM     54  C   UNL A   1      47.548  27.575  27.582  1.00  0.00     0.034 A 
ATOM     55  C   UNL A   1      41.638  29.929  29.292  1.00  0.00     0.049 A 
ATOM     56  C   UNL A   1      47.104  29.036  27.413  1.00  0.00     0.074 A 
ATOM     57  C   UNL A   1      42.154  30.524  30.434  1.00  0.00     0.029 A 
ATOM     58  N   UNL A   1      42.599  30.201  28.305  1.00  0.00    -0.354 N 
ATOM     59  N   UNL A   1      45.892  29.461  27.703  1.00  0.00    -0.248 NA
ATOM     60  C   UNL A   1      47.957  30.149  27.008  1.00  0.00     0.031 C 
ATOM     61  C   UNL A   1      43.455  31.036  30.151  1.00  0.00     0.029 A 
ATOM     62  C   UNL A   1      43.692  30.876  28.797  1.00  0.00     0.049 A 
ATOM     63  H   UNL A   1      42.502  29.937  27.362  1.00  0.00     0.167 HD
ATOM     64  C   UNL A   1      45.791  30.822  27.585  1.00  0.00     0.074 A 
ATOM     65  C   UNL A   1      47.119  31.202  27.125  1.00  0.00     0.031 C 
ATOM     66  C   UNL A   1      44.641  31.514  27.889  1.00  0.00     0.034 A 
BRANCH  53  67
ATOM     67  C   UNL A   1      39.090  29.253  29.716  1.00  0.00     0.023 A 
ATOM     68  C   UNL A   1      38.101  30.179  29.287  1.00  0.00     0.031 A 
ATOM     69  C   UNL A   1      38.764  28.621  30.942  1.00  0.00     0.131 A 
ATOM     70  C   UNL A   1      36.967  30.507  30.076  1.00  0.00     0.055 A 
ATOM     71  C   UNL A   1      37.594  28.881  31.681  1.00  0.00     0.041 A 
ATOM     72  F   UNL A   1      39.575  27.745  31.540  1.00  0.00    -0.206 F 
ATOM     73  C   UNL A   1      36.700  29.850  31.269  1.00  0.00     0.022 A 
BRANCH  70  74
ATOM     74  S   UNL A   1      35.861  31.868  29.577  1.00  0.00     0.124 S 
ATOM     75  O   UNL A   1      36.816  32.889  29.161  1.00  0.00    -0.237 OA
ATOM     76  O   UNL A   1      35.067  31.259  28.518  1.00  0.00    -0.237 OA
ATOM     77  O   UNL A   1      35.124  32.173  30.803  1.00  0.00    -0.744 OA
ENDBRANCH  70  74
ENDBRANCH  53  67
BRANCH  54  78
ATOM     78  C   UNL A   1      48.435  26.634  26.814  1.00  0.00     0.023 A 
ATOM     79  C   UNL A   1      48.098  26.579  25.430  1.00  0.00     0.031 A 
ATOM     80  C   UNL A   1      49.796  26.521  27.144  1.00  0.00     0.131 A 
ATOM     81  C   UNL A   1      49.092  26.779  24.454  1.00  0.00     0.055 A 
ATOM     82  C   UNL A   1      50.789  26.606  26.149  1.00  0.00     0.041 A 
ATOM     83  F   UNL A   1      50.192  26.548  28.424  1.00  0.00    -0.206 F 
ATOM     84  C   UNL A   1      50.440  26.817  24.812  1.00  0.00     0.022 A 
BRANCH  81  85
ATOM     85  S   UNL A   1      48.592  27.382  22.798  1.00  0.00     0.124 S 
ATOM     86  O   UNL A   1      48.533  26.147  22.027  1.00  0.00    -0.237 OA
ATOM     87  O   UNL A   1      47.310  28.031  23.062  1.00  0.00    -0.237 OA
ATOM     88  O   UNL A   1      49.664  28.310  22.440  1.00  0.00    -0.744 OA
ENDBRANCH  81  85
ENDBRANCH  54  78
BRANCH  66  89
ATOM     89  C   UNL A   1      44.257  32.923  27.438  1.00  0.00     0.023 A 
ATOM     90  C   UNL A   1      44.278  34.035  28.277  1.00  0.00     0.031 A 
ATOM     91  C   UNL A   1      43.949  33.210  26.073  1.00  0.00     0.131 A 
ATOM     92  C   UNL A   1      43.985  35.326  27.792  1.00  0.00     0.055 A 
ATOM     93  C   UNL A   1      43.674  34.492  25.589  1.00  0.00     0.041 A 
ATOM     94  F   UNL A   1      43.943  32.273  25.116  1.00  0.00    -0.206 F 
ATOM     95  C   UNL A   1      43.690  35.565  26.453  1.00  0.00     0.022 A 
BRANCH  92  96
ATOM     96  S   UNL A   1      44.032  36.691  28.974  1.00  0.00     0.124 S 
ATOM     97  O   UNL A   1      43.145  36.209  30.028  1.00  0.00    -0.237 OA
ATOM     98  O   UNL A   1      45.450  36.750  29.319  1.00  0.00    -0.237 OA
ATOM     99  O   UNL A   1      43.531  37.830  28.208  1.00  0.00    -0.744 OA
ENDBRANCH  92  96
ENDBRANCH  66  89
ENDBRANCH  40  41
ENDBRANCH  33  35
ENDBRANCH  32  33
ENDBRANCH  31  32
ENDBRANCH  30  31
ENDBRANCH  29  30
ENDBRANCH  28  29
ENDBRANCH   1  28
TORSDOF 25
ENDMDL
MODEL 3
REMARK VINA RESULT:     -10.9      1.682      2.590
REMARK SMILES Cc1ccc(NC(=O)N2CCCC[C@@H]2C(=O)OCCOCCOCCOCCOC(=O)c2ccc(-c3c4nc(c(-c5cc(S(=O)(=O)[O-])ccc5F)c5ccc([nH]5)c(-c5cc(S(=O)(=O)[O-])ccc5F)c5nc(c(-c6cc(S(=O)(=O)[O-])ccc6F)c6ccc3[nH]6)C=C5)C=C4)cc2)cc1
REMARK SMILES IDX 24 1 23 2 22 3 21 4 20 5 19 6 18 7 17 8 15 9 16 10 14 11
REMARK SMILES IDX 9 12 10 13 11 14 13 15 12 16 7 17 6 18 8 20 5 21 1 22 2 23
REMARK SMILES IDX 3 24 96 25 4 26 95 27 25 28 26 29 27 30 28 31 29 32 30 33
REMARK SMILES IDX 31 34 32 35 33 36 94 37 34 38 93 39 35 40 36 41 37 42 87 43
REMARK SMILES IDX 38 44 92 45 86 46 88 47 39 48 91 49 85 50 84 51 40 53 72 54
REMARK SMILES IDX 52 55 71 56 53 57 56 58 70 59 89 60 54 61 55 62 69 64 90 65
REMARK SMILES IDX 57 66 41 67 42 68 50 69 43 70 49 71 51 72 48 73 44 74 45 75
REMARK SMILES IDX 46 76 47 77 73 78 74 79 82 80 75 81 81 82 83 83 80 84 76 85
REMARK SMILES IDX 77 86 78 87 79 88 58 89 59 90 67 91 60 92 66 93 68 94 65 95
REMARK SMILES IDX 61 96 62 97 63 98 64 99
REMARK H PARENT 6 19 88 52 56 63
REMARK Flexibility Score: inf
ROOT
ATOM      1  C   UNL A   1      42.162  19.169  26.934  1.00  0.00     0.188 C 
ENDROOT
BRANCH   1   2
ATOM      2  O   UNL A   1      41.933  19.926  25.758  1.00  0.00    -0.377 OA
BRANCH   2   3
ATOM      3  C   UNL A   1      41.507  21.250  25.994  1.00  0.00     0.188 C 
BRANCH   3   4
ATOM      4  C   UNL A   1      40.251  21.453  26.878  1.00  0.00     0.188 C 
BRANCH   4   5
ATOM      5  O   UNL A   1      39.220  22.421  26.712  1.00  0.00    -0.376 OA
BRANCH   5   6
ATOM      6  C   UNL A   1      38.259  22.351  25.673  1.00  0.00     0.202 C 
BRANCH   6   7
ATOM      7  C   UNL A   1      37.602  23.684  25.363  1.00  0.00     0.261 C 
BRANCH   7   8
ATOM      8  O   UNL A   1      36.195  23.596  25.084  1.00  0.00    -0.462 OA
BRANCH   8   9
ATOM      9  C   UNL A   1      35.924  22.955  23.940  1.00  0.00     0.329 C 
ATOM     10  O   UNL A   1      36.611  23.019  22.924  1.00  0.00    -0.250 OA
BRANCH   9  11
ATOM     11  C   UNL A   1      34.695  22.081  23.928  1.00  0.00     0.196 C 
ATOM     12  N   UNL A   1      33.422  22.446  23.289  1.00  0.00    -0.311 N 
ATOM     13  C   UNL A   1      32.404  21.392  23.319  1.00  0.00     0.122 C 
ATOM     14  C   UNL A   1      32.319  20.549  24.599  1.00  0.00     0.022 C 
ATOM     15  C   UNL A   1      34.452  21.541  25.345  1.00  0.00     0.037 C 
ATOM     16  C   UNL A   1      33.667  20.246  25.232  1.00  0.00     0.005 C 
BRANCH  12  17
ATOM     17  C   UNL A   1      33.121  23.586  22.587  1.00  0.00     0.322 C 
ATOM     18  N   UNL A   1      32.613  24.708  23.151  1.00  0.00    -0.308 N 
ATOM     19  H   UNL A   1      32.078  25.232  22.511  1.00  0.00     0.171 HD
ATOM     20  O   UNL A   1      33.299  23.619  21.362  1.00  0.00    -0.248 OA
BRANCH  18  21
ATOM     21  C   UNL A   1      32.653  25.317  24.424  1.00  0.00     0.042 A 
ATOM     22  C   UNL A   1      32.286  28.397  27.371  1.00  0.00     0.044 C 
ATOM     23  C   UNL A   1      32.548  27.173  26.541  1.00  0.00    -0.051 A 
ATOM     24  C   UNL A   1      31.595  26.151  26.435  1.00  0.00     0.005 A 
ATOM     25  C   UNL A   1      33.670  27.116  25.719  1.00  0.00     0.005 A 
ATOM     26  C   UNL A   1      31.659  25.210  25.388  1.00  0.00     0.026 A 
ATOM     27  C   UNL A   1      33.728  26.175  24.683  1.00  0.00     0.026 A 
ENDBRANCH  18  21
ENDBRANCH  12  17
ENDBRANCH   9  11
ENDBRANCH   8   9
ENDBRANCH   7   8
ENDBRANCH   6   7
ENDBRANCH   5   6
ENDBRANCH   4   5
ENDBRANCH   3   4
ENDBRANCH   2   3
ENDBRANCH   1   2
BRANCH   1  28
ATOM     28  C   UNL A   1      43.224  18.120  26.699  1.00  0.00     0.188 C 
BRANCH  28  29
ATOM     29  O   UNL A   1      43.872  18.121  25.431  1.00  0.00    -0.376 OA
BRANCH  29  30
ATOM     30  C   UNL A   1      45.224  18.560  25.411  1.00  0.00     0.202 C 
BRANCH  30  31
ATOM     31  C   UNL A   1      45.481  19.750  24.474  1.00  0.00     0.261 C 
BRANCH  31  32
ATOM     32  O   UNL A   1      46.212  20.767  25.197  1.00  0.00    -0.460 OA
BRANCH  32  33
ATOM     33  C   UNL A   1      46.119  22.026  24.659  1.00  0.00     0.338 C 
ATOM     34  O   UNL A   1      46.929  22.530  23.928  1.00  0.00    -0.246 OA
BRANCH  33  35
ATOM     35  C   UNL A   1      44.994  22.773  25.333  1.00  0.00     0.060 A 
ATOM     36  C   UNL A   1      44.285  23.720  24.580  1.00  0.00     0.016 A 
ATOM     37  C   UNL A   1      44.905  22.811  26.723  1.00  0.00     0.016 A 
ATOM     38  C   UNL A   1      43.678  24.822  25.214  1.00  0.00     0.010 A 
ATOM     39  C   UNL A   1      44.363  23.943  27.337  1.00  0.00     0.010 A 
ATOM     40  C   UNL A   1      43.823  25.007  26.594  1.00  0.00    -0.014 A 
BRANCH  40  41
ATOM     41  C   UNL A   1      43.711  26.339  27.261  1.00  0.00     0.031 A 
ATOM     42  C   UNL A   1      42.398  27.074  27.371  1.00  0.00     0.074 A 
ATOM     43  C   UNL A   1      44.750  26.781  28.025  1.00  0.00     0.049 A 
ATOM     44  N   UNL A   1      42.251  28.259  27.872  1.00  0.00    -0.248 NA
ATOM     45  C   UNL A   1      41.112  26.539  26.930  1.00  0.00     0.031 C 
ATOM     46  C   UNL A   1      44.706  27.775  29.097  1.00  0.00     0.029 A 
ATOM     47  N   UNL A   1      46.096  26.423  28.016  1.00  0.00    -0.354 N 
ATOM     48  C   UNL A   1      40.914  28.490  28.145  1.00  0.00     0.074 A 
ATOM     49  C   UNL A   1      40.247  27.433  27.428  1.00  0.00     0.031 C 
ATOM     50  C   UNL A   1      45.916  27.986  29.625  1.00  0.00     0.029 A 
ATOM     51  C   UNL A   1      46.845  27.398  28.710  1.00  0.00     0.049 A 
ATOM     52  H   UNL A   1      46.467  25.615  27.593  1.00  0.00     0.167 HD
ATOM     53  C   UNL A   1      40.554  29.475  29.038  1.00  0.00     0.034 A 
ATOM     54  C   UNL A   1      47.772  28.152  28.049  1.00  0.00     0.034 A 
ATOM     55  C   UNL A   1      41.712  30.344  29.413  1.00  0.00     0.049 A 
ATOM     56  C   UNL A   1      47.285  29.589  27.809  1.00  0.00     0.074 A 
ATOM     57  C   UNL A   1      42.154  30.995  30.555  1.00  0.00     0.029 A 
ATOM     58  N   UNL A   1      42.706  30.618  28.461  1.00  0.00    -0.354 N 
ATOM     59  N   UNL A   1      46.047  29.979  28.030  1.00  0.00    -0.248 NA
ATOM     60  C   UNL A   1      48.115  30.718  27.403  1.00  0.00     0.031 C 
ATOM     61  C   UNL A   1      43.447  31.545  30.312  1.00  0.00     0.029 A 
ATOM     62  C   UNL A   1      43.751  31.348  28.976  1.00  0.00     0.049 A 
ATOM     63  H   UNL A   1      42.661  30.319  27.523  1.00  0.00     0.167 HD
ATOM     64  C   UNL A   1      45.903  31.330  27.860  1.00  0.00     0.074 A 
ATOM     65  C   UNL A   1      47.237  31.743  27.447  1.00  0.00     0.031 C 
ATOM     66  C   UNL A   1      44.717  31.990  28.089  1.00  0.00     0.034 A 
BRANCH  53  67
ATOM     67  C   UNL A   1      39.172  29.589  29.748  1.00  0.00     0.023 A 
ATOM     68  C   UNL A   1      38.347  30.729  29.543  1.00  0.00     0.031 A 
ATOM     69  C   UNL A   1      38.662  28.703  30.728  1.00  0.00     0.131 A 
ATOM     70  C   UNL A   1      37.195  30.990  30.331  1.00  0.00     0.055 A 
ATOM     71  C   UNL A   1      37.470  28.918  31.448  1.00  0.00     0.041 A 
ATOM     72  F   UNL A   1      39.300  27.591  31.100  1.00  0.00    -0.206 F 
ATOM     73  C   UNL A   1      36.743  30.080  31.276  1.00  0.00     0.022 A 
BRANCH  70  74
ATOM     74  S   UNL A   1      36.315  32.578  30.174  1.00  0.00     0.124 S 
ATOM     75  O   UNL A   1      36.337  32.790  28.731  1.00  0.00    -0.237 OA
ATOM     76  O   UNL A   1      35.016  32.280  30.762  1.00  0.00    -0.237 OA
ATOM     77  O   UNL A   1      37.144  33.503  30.948  1.00  0.00    -0.744 OA
ENDBRANCH  70  74
ENDBRANCH  53  67
BRANCH  54  78
ATOM     78  C   UNL A   1      48.725  27.219  27.354  1.00  0.00     0.023 A 
ATOM     79  C   UNL A   1      48.326  26.934  26.015  1.00  0.00     0.031 A 
ATOM     80  C   UNL A   1      50.105  27.308  27.602  1.00  0.00     0.131 A 
ATOM     81  C   UNL A   1      49.236  27.106  24.956  1.00  0.00     0.055 A 
ATOM     82  C   UNL A   1      51.027  27.364  26.540  1.00  0.00     0.041 A 
ATOM     83  F   UNL A   1      50.560  27.558  28.838  1.00  0.00    -0.206 F 
ATOM     84  C   UNL A   1      50.587  27.346  25.214  1.00  0.00     0.022 A 
BRANCH  81  85
ATOM     85  S   UNL A   1      48.581  27.411  23.273  1.00  0.00     0.124 S 
ATOM     86  O   UNL A   1      48.357  26.058  22.781  1.00  0.00    -0.237 OA
ATOM     87  O   UNL A   1      47.382  28.203  23.529  1.00  0.00    -0.237 OA
ATOM     88  O   UNL A   1      49.659  28.157  22.623  1.00  0.00    -0.744 OA
ENDBRANCH  81  85
ENDBRANCH  54  78
BRANCH  66  89
ATOM     89  C   UNL A   1      44.305  33.368  27.572  1.00  0.00     0.023 A 
ATOM     90  C   UNL A   1      44.458  34.545  28.303  1.00  0.00     0.031 A 
ATOM     91  C   UNL A   1      43.825  33.551  26.239  1.00  0.00     0.131 A 
ATOM     92  C   UNL A   1      44.130  35.799  27.752  1.00  0.00     0.055 A 
ATOM     93  C   UNL A   1      43.514  34.796  25.687  1.00  0.00     0.041 A 
ATOM     94  F   UNL A   1      43.675  32.539  25.375  1.00  0.00    -0.206 F 
ATOM     95  C   UNL A   1      43.665  35.937  26.447  1.00  0.00     0.022 A 
BRANCH  92  96
ATOM     96  S   UNL A   1      44.358  37.255  28.796  1.00  0.00     0.124 S 
ATOM     97  O   UNL A   1      45.481  36.851  29.637  1.00  0.00    -0.237 OA
ATOM     98  O   UNL A   1      44.647  38.296  27.813  1.00  0.00    -0.237 OA
ATOM     99  O   UNL A   1      43.078  37.391  29.486  1.00  0.00    -0.744 OA
ENDBRANCH  92  96
ENDBRANCH  66  89
ENDBRANCH  40  41
ENDBRANCH  33  35
ENDBRANCH  32  33
ENDBRANCH  31  32
ENDBRANCH  30  31
ENDBRANCH  29  30
ENDBRANCH  28  29
ENDBRANCH   1  28
TORSDOF 25
ENDMDL
