MODEL 1
REMARK VINA RESULT:      -7.4      0.000      0.000
REMARK SMILES CC(C)CSc1cc2c(cc1Cl)C=C(C(=O)OCCOCCOCCOCCOC(=O)c1ccc(-c3c4nc(c(-c5cc(S(=O)(=O)[O-])ccc5F)c5ccc([nH]5)c(-c5cc(S(=O)(=O)[O-])ccc5F)c5nc(c(-c6cc(S(=O)(=O)[O-])ccc6F)c6ccc3[nH]6)C=C5)C=C4)cc1)[C@H](C(F)(F)F)O2
REMARK SMILES IDX 23 1 22 2 21 3 20 4 19 5 18 6 17 7 15 8 16 9 14 10 6 11 7 12
REMARK SMILES IDX 11 13 8 14 10 15 12 16 9 17 100 18 13 19 95 20 5 21 4 22
REMARK SMILES IDX 2 23 1 24 3 25 96 26 97 27 98 28 99 29 24 30 25 31 26 32
REMARK SMILES IDX 27 33 28 34 29 35 30 36 31 37 32 38 33 39 94 40 34 41 93 42
REMARK SMILES IDX 35 43 36 44 37 45 87 46 38 47 92 48 86 49 88 50 39 51 91 52
REMARK SMILES IDX 85 53 84 54 40 56 72 57 52 58 71 59 53 60 56 61 70 62 89 63
REMARK SMILES IDX 54 64 55 65 69 67 90 68 57 69 41 70 42 71 50 72 43 73 49 74
REMARK SMILES IDX 51 75 48 76 44 77 45 78 46 79 47 80 73 81 74 82 82 83 75 84
REMARK SMILES IDX 81 85 83 86 80 87 76 88 77 89 78 90 79 91 58 92 59 93 67 94
REMARK SMILES IDX 60 95 66 96 68 97 65 98 61 99 62 100 63 101 64 102
REMARK H PARENT 88 55 56 66
REMARK Flexibility Score: inf
ROOT
ATOM      1  O   UNL A   1      43.926  19.322  25.073  1.00  0.00    -0.377 OA
ENDROOT
BRANCH   1   2
ATOM      2  C   UNL A   1      45.259  18.872  25.192  1.00  0.00     0.188 C 
BRANCH   2   3
ATOM      3  C   UNL A   1      46.329  19.863  24.701  1.00  0.00     0.188 C 
BRANCH   3   4
ATOM      4  O   UNL A   1      46.284  21.261  24.973  1.00  0.00    -0.376 OA
BRANCH   4   5
ATOM      5  C   UNL A   1      45.580  22.161  24.129  1.00  0.00     0.202 C 
BRANCH   5   6
ATOM      6  C   UNL A   1      45.640  23.658  24.461  1.00  0.00     0.261 C 
BRANCH   6   7
ATOM      7  O   UNL A   1      46.942  24.124  24.853  1.00  0.00    -0.460 OA
BRANCH   7   8
ATOM      8  C   UNL A   1      46.961  25.070  25.812  1.00  0.00     0.338 C 
ATOM      9  O   UNL A   1      45.996  25.560  26.378  1.00  0.00    -0.246 OA
BRANCH   8  10
ATOM     10  C   UNL A   1      48.344  25.354  26.227  1.00  0.00     0.087 C 
ATOM     11  C   UNL A   1      53.278  26.146  25.802  1.00  0.00     0.030 A 
ATOM     12  C   UNL A   1      52.474  25.385  26.670  1.00  0.00     0.063 A 
ATOM     13  C   UNL A   1      52.654  27.030  24.906  1.00  0.00     0.055 A 
ATOM     14  C   UNL A   1      51.084  25.408  26.559  1.00  0.00     0.129 A 
ATOM     15  C   UNL A   1      51.261  27.042  24.787  1.00  0.00     0.033 A 
ATOM     16  Cl  UNL A   1      53.526  28.133  23.900  1.00  0.00    -0.083 Cl
ATOM     17  C   UNL A   1      50.481  26.204  25.587  1.00  0.00     0.019 A 
ATOM     18  O   UNL A   1      50.381  24.541  27.354  1.00  0.00    -0.475 OA
ATOM     19  C   UNL A   1      49.062  26.051  25.334  1.00  0.00     0.027 C 
ATOM     20  C   UNL A   1      48.940  24.772  27.482  1.00  0.00     0.316 C 
BRANCH  11  21
ATOM     21  S   UNL A   1      55.038  25.839  25.909  1.00  0.00    -0.124 SA
BRANCH  21  22
ATOM     22  C   UNL A   1      55.647  27.265  26.897  1.00  0.00     0.078 C 
BRANCH  22  23
ATOM     23  C   UNL A   1      55.861  27.054  28.410  1.00  0.00    -0.007 C 
ATOM     24  C   UNL A   1      55.474  25.661  28.911  1.00  0.00     0.008 C 
ATOM     25  C   UNL A   1      57.346  27.281  28.730  1.00  0.00     0.008 C 
ENDBRANCH  22  23
ENDBRANCH  21  22
ENDBRANCH  11  21
BRANCH  20  26
ATOM     26  C   UNL A   1      48.680  25.560  28.781  1.00  0.00     0.430 C 
ATOM     27  F   UNL A   1      49.510  25.180  29.783  1.00  0.00    -0.167 F 
ATOM     28  F   UNL A   1      48.814  26.890  28.609  1.00  0.00    -0.167 F 
ATOM     29  F   UNL A   1      47.414  25.353  29.223  1.00  0.00    -0.167 F 
ENDBRANCH  20  26
ENDBRANCH   8  10
ENDBRANCH   7   8
ENDBRANCH   6   7
ENDBRANCH   5   6
ENDBRANCH   4   5
ENDBRANCH   3   4
ENDBRANCH   2   3
ENDBRANCH   1   2
BRANCH   1  30
ATOM     30  C   UNL A   1      43.063  18.989  26.151  1.00  0.00     0.188 C 
BRANCH  30  31
ATOM     31  C   UNL A   1      41.582  18.822  25.781  1.00  0.00     0.188 C 
BRANCH  31  32
ATOM     32  O   UNL A   1      40.714  19.496  26.697  1.00  0.00    -0.376 OA
BRANCH  32  33
ATOM     33  C   UNL A   1      41.142  20.777  27.149  1.00  0.00     0.202 C 
BRANCH  33  34
ATOM     34  C   UNL A   1      40.911  21.931  26.161  1.00  0.00     0.261 C 
BRANCH  34  35
ATOM     35  O   UNL A   1      42.041  22.776  25.885  1.00  0.00    -0.460 OA
BRANCH  35  36
ATOM     36  C   UNL A   1      42.999  22.921  26.826  1.00  0.00     0.338 C 
ATOM     37  O   UNL A   1      43.880  22.125  27.099  1.00  0.00    -0.246 OA
BRANCH  36  38
ATOM     38  C   UNL A   1      42.923  24.310  27.334  1.00  0.00     0.060 A 
ATOM     39  C   UNL A   1      43.089  24.583  28.695  1.00  0.00     0.016 A 
ATOM     40  C   UNL A   1      42.658  25.353  26.436  1.00  0.00     0.016 A 
ATOM     41  C   UNL A   1      43.022  25.901  29.149  1.00  0.00     0.010 A 
ATOM     42  C   UNL A   1      42.592  26.673  26.893  1.00  0.00     0.010 A 
ATOM     43  C   UNL A   1      42.798  26.960  28.250  1.00  0.00    -0.014 A 
BRANCH  43  44
ATOM     44  C   UNL A   1      42.978  28.359  28.719  1.00  0.00     0.031 A 
ATOM     45  C   UNL A   1      44.309  29.047  28.697  1.00  0.00     0.074 A 
ATOM     46  C   UNL A   1      41.887  29.014  29.161  1.00  0.00     0.049 A 
ATOM     47  N   UNL A   1      44.578  30.306  28.932  1.00  0.00    -0.248 NA
ATOM     48  C   UNL A   1      45.487  28.227  28.385  1.00  0.00     0.031 C 
ATOM     49  C   UNL A   1      40.555  28.419  29.274  1.00  0.00     0.029 A 
ATOM     50  N   UNL A   1      41.714  30.308  29.582  1.00  0.00    -0.354 N 
ATOM     51  C   UNL A   1      45.951  30.442  28.770  1.00  0.00     0.074 A 
ATOM     52  C   UNL A   1      46.466  29.121  28.474  1.00  0.00     0.031 C 
ATOM     53  C   UNL A   1      39.693  29.354  29.696  1.00  0.00     0.029 A 
ATOM     54  C   UNL A   1      40.412  30.609  29.909  1.00  0.00     0.049 A 
ATOM     55  H   UNL A   1      42.450  30.958  29.644  1.00  0.00     0.167 HD
ATOM     56  C   UNL A   1      46.699  31.570  28.843  1.00  0.00     0.034 A 
ATOM     57  C   UNL A   1      39.849  31.765  30.317  1.00  0.00     0.034 A 
ATOM     58  C   UNL A   1      46.164  32.874  29.159  1.00  0.00     0.049 A 
ATOM     59  C   UNL A   1      40.703  33.004  30.392  1.00  0.00     0.074 A 
ATOM     60  C   UNL A   1      46.836  34.084  29.209  1.00  0.00     0.029 A 
ATOM     61  N   UNL A   1      44.841  33.143  29.485  1.00  0.00    -0.354 N 
ATOM     62  N   UNL A   1      41.977  33.143  30.111  1.00  0.00    -0.248 NA
ATOM     63  C   UNL A   1      40.045  34.249  30.811  1.00  0.00     0.031 C 
ATOM     64  C   UNL A   1      45.942  35.066  29.635  1.00  0.00     0.029 A 
ATOM     65  C   UNL A   1      44.687  34.493  29.767  1.00  0.00     0.049 A 
ATOM     66  H   UNL A   1      44.120  32.476  29.513  1.00  0.00     0.167 HD
ATOM     67  C   UNL A   1      42.264  34.494  30.284  1.00  0.00     0.074 A 
ATOM     68  C   UNL A   1      41.026  35.134  30.677  1.00  0.00     0.031 C 
ATOM     69  C   UNL A   1      43.448  35.139  30.133  1.00  0.00     0.034 A 
BRANCH  56  70
ATOM     70  C   UNL A   1      48.178  31.487  28.544  1.00  0.00     0.023 A 
ATOM     71  C   UNL A   1      49.095  31.178  29.568  1.00  0.00     0.031 A 
ATOM     72  C   UNL A   1      48.688  31.878  27.293  1.00  0.00     0.131 A 
ATOM     73  C   UNL A   1      50.471  31.308  29.334  1.00  0.00     0.055 A 
ATOM     74  C   UNL A   1      50.060  31.964  27.054  1.00  0.00     0.041 A 
ATOM     75  F   UNL A   1      47.857  32.192  26.286  1.00  0.00    -0.206 F 
ATOM     76  C   UNL A   1      50.958  31.693  28.081  1.00  0.00     0.022 A 
BRANCH  73  77
ATOM     77  S   UNL A   1      51.680  31.059  30.664  1.00  0.00     0.124 S 
ATOM     78  O   UNL A   1      52.722  32.018  30.304  1.00  0.00    -0.237 OA
ATOM     79  O   UNL A   1      50.903  31.400  31.852  1.00  0.00    -0.237 OA
ATOM     80  O   UNL A   1      52.058  29.656  30.538  1.00  0.00    -0.744 OA
ENDBRANCH  73  77
ENDBRANCH  56  70
BRANCH  57  81
ATOM     81  C   UNL A   1      38.381  31.798  30.582  1.00  0.00     0.023 A 
ATOM     82  C   UNL A   1      37.477  32.216  29.588  1.00  0.00     0.031 A 
ATOM     83  C   UNL A   1      37.874  31.532  31.866  1.00  0.00     0.131 A 
ATOM     84  C   UNL A   1      36.129  32.420  29.912  1.00  0.00     0.055 A 
ATOM     85  C   UNL A   1      36.518  31.667  32.165  1.00  0.00     0.041 A 
ATOM     86  F   UNL A   1      38.700  31.152  32.853  1.00  0.00    -0.206 F 
ATOM     87  C   UNL A   1      35.641  32.130  31.190  1.00  0.00     0.022 A 
BRANCH  84  88
ATOM     88  S   UNL A   1      34.999  33.204  28.730  1.00  0.00     0.124 S 
ATOM     89  O   UNL A   1      33.863  32.288  28.742  1.00  0.00    -0.237 OA
ATOM     90  O   UNL A   1      34.767  34.504  29.356  1.00  0.00    -0.237 OA
ATOM     91  O   UNL A   1      35.767  33.242  27.490  1.00  0.00    -0.744 OA
ENDBRANCH  84  88
ENDBRANCH  57  81
BRANCH  69  92
ATOM     92  C   UNL A   1      43.501  36.633  30.364  1.00  0.00     0.023 A 
ATOM     93  C   UNL A   1      43.327  37.516  29.280  1.00  0.00     0.031 A 
ATOM     94  C   UNL A   1      43.886  37.174  31.603  1.00  0.00     0.131 A 
ATOM     95  C   UNL A   1      43.582  38.883  29.442  1.00  0.00     0.055 A 
ATOM     96  C   UNL A   1      44.087  38.546  31.773  1.00  0.00     0.041 A 
ATOM     97  F   UNL A   1      44.079  36.377  32.666  1.00  0.00    -0.206 F 
ATOM     98  C   UNL A   1      43.952  39.404  30.686  1.00  0.00     0.022 A 
BRANCH  95  99
ATOM     99  S   UNL A   1      43.543  40.020  28.027  1.00  0.00     0.124 S 
ATOM    100  O   UNL A   1      44.242  39.250  27.002  1.00  0.00    -0.237 OA
ATOM    101  O   UNL A   1      42.108  40.189  27.809  1.00  0.00    -0.237 OA
ATOM    102  O   UNL A   1      44.249  41.203  28.506  1.00  0.00    -0.744 OA
ENDBRANCH  95  99
ENDBRANCH  69  92
ENDBRANCH  43  44
ENDBRANCH  36  38
ENDBRANCH  35  36
ENDBRANCH  34  35
ENDBRANCH  33  34
ENDBRANCH  32  33
ENDBRANCH  31  32
ENDBRANCH  30  31
ENDBRANCH   1  30
TORSDOF 27
ENDMDL
MODEL 2
REMARK VINA RESULT:      -6.8     11.111     16.121
REMARK SMILES CC(C)CSc1cc2c(cc1Cl)C=C(C(=O)OCCOCCOCCOCCOC(=O)c1ccc(-c3c4nc(c(-c5cc(S(=O)(=O)[O-])ccc5F)c5ccc([nH]5)c(-c5cc(S(=O)(=O)[O-])ccc5F)c5nc(c(-c6cc(S(=O)(=O)[O-])ccc6F)c6ccc3[nH]6)C=C5)C=C4)cc1)[C@H](C(F)(F)F)O2
REMARK SMILES IDX 23 1 22 2 21 3 20 4 19 5 18 6 17 7 15 8 16 9 14 10 6 11 7 12
REMARK SMILES IDX 11 13 8 14 10 15 12 16 9 17 100 18 13 19 95 20 5 21 4 22
REMARK SMILES IDX 2 23 1 24 3 25 96 26 97 27 98 28 99 29 24 30 25 31 26 32
REMARK SMILES IDX 27 33 28 34 29 35 30 36 31 37 32 38 33 39 94 40 34 41 93 42
REMARK SMILES IDX 35 43 36 44 37 45 87 46 38 47 92 48 86 49 88 50 39 51 91 52
REMARK SMILES IDX 85 53 84 54 40 56 72 57 52 58 71 59 53 60 56 61 70 62 89 63
REMARK SMILES IDX 54 64 55 65 69 67 90 68 57 69 41 70 42 71 50 72 43 73 49 74
REMARK SMILES IDX 51 75 48 76 44 77 45 78 46 79 47 80 73 81 74 82 82 83 75 84
REMARK SMILES IDX 81 85 83 86 80 87 76 88 77 89 78 90 79 91 58 92 59 93 67 94
REMARK SMILES IDX 60 95 66 96 68 97 65 98 61 99 62 100 63 101 64 102
REMARK H PARENT 88 55 56 66
REMARK Flexibility Score: inf
ROOT
ATOM      1  O   UNL A   1      34.672  33.880  29.113  1.00  0.00    -0.377 OA
ENDROOT
BRANCH   1   2
ATOM      2  C   UNL A   1      34.174  32.571  28.938  1.00  0.00     0.188 C 
BRANCH   2   3
ATOM      3  C   UNL A   1      33.747  32.222  27.500  1.00  0.00     0.188 C 
BRANCH   3   4
ATOM      4  O   UNL A   1      33.208  30.956  27.130  1.00  0.00    -0.376 OA
BRANCH   4   5
ATOM      5  C   UNL A   1      31.851  30.810  26.736  1.00  0.00     0.202 C 
BRANCH   5   6
ATOM      6  C   UNL A   1      31.559  30.130  25.392  1.00  0.00     0.261 C 
BRANCH   6   7
ATOM      7  O   UNL A   1      32.117  28.811  25.265  1.00  0.00    -0.460 OA
BRANCH   7   8
ATOM      8  C   UNL A   1      32.740  28.549  24.100  1.00  0.00     0.338 C 
ATOM      9  O   UNL A   1      33.160  29.364  23.293  1.00  0.00    -0.246 OA
BRANCH   8  10
ATOM     10  C   UNL A   1      33.002  27.106  23.970  1.00  0.00     0.087 C 
ATOM     11  C   UNL A   1      34.830  22.573  25.093  1.00  0.00     0.030 A 
ATOM     12  C   UNL A   1      34.741  23.335  23.913  1.00  0.00     0.063 A 
ATOM     13  C   UNL A   1      34.164  23.031  26.243  1.00  0.00     0.055 A 
ATOM     14  C   UNL A   1      34.115  24.580  23.914  1.00  0.00     0.129 A 
ATOM     15  C   UNL A   1      33.548  24.286  26.245  1.00  0.00     0.033 A 
ATOM     16  Cl  UNL A   1      34.062  22.116  27.707  1.00  0.00    -0.083 Cl
ATOM     17  C   UNL A   1      33.557  25.074  25.092  1.00  0.00     0.019 A 
ATOM     18  O   UNL A   1      34.184  25.313  22.758  1.00  0.00    -0.475 OA
ATOM     19  C   UNL A   1      33.112  26.453  25.136  1.00  0.00     0.027 C 
ATOM     20  C   UNL A   1      33.278  26.459  22.638  1.00  0.00     0.316 C 
BRANCH  11  21
ATOM     21  S   UNL A   1      35.857  21.111  24.995  1.00  0.00    -0.124 SA
BRANCH  21  22
ATOM     22  C   UNL A   1      37.411  21.641  25.823  1.00  0.00     0.078 C 
BRANCH  22  23
ATOM     23  C   UNL A   1      38.735  21.017  25.336  1.00  0.00    -0.007 C 
ATOM     24  C   UNL A   1      39.895  21.152  26.324  1.00  0.00     0.008 C 
ATOM     25  C   UNL A   1      38.504  19.522  25.073  1.00  0.00     0.008 C 
ENDBRANCH  22  23
ENDBRANCH  21  22
ENDBRANCH  11  21
BRANCH  20  26
ATOM     26  C   UNL A   1      32.040  26.026  21.828  1.00  0.00     0.430 C 
ATOM     27  F   UNL A   1      31.191  27.057  21.604  1.00  0.00    -0.167 F 
ATOM     28  F   UNL A   1      32.370  25.489  20.636  1.00  0.00    -0.167 F 
ATOM     29  F   UNL A   1      31.336  25.078  22.498  1.00  0.00    -0.167 F 
ENDBRANCH  20  26
ENDBRANCH   8  10
ENDBRANCH   7   8
ENDBRANCH   6   7
ENDBRANCH   5   6
ENDBRANCH   4   5
ENDBRANCH   3   4
ENDBRANCH   2   3
ENDBRANCH   1   2
BRANCH   1  30
ATOM     30  C   UNL A   1      35.572  34.059  30.198  1.00  0.00     0.188 C 
BRANCH  30  31
ATOM     31  C   UNL A   1      35.022  33.676  31.579  1.00  0.00     0.188 C 
BRANCH  31  32
ATOM     32  O   UNL A   1      34.361  34.770  32.223  1.00  0.00    -0.376 OA
BRANCH  32  33
ATOM     33  C   UNL A   1      34.766  35.057  33.558  1.00  0.00     0.202 C 
BRANCH  33  34
ATOM     34  C   UNL A   1      36.054  34.357  34.017  1.00  0.00     0.261 C 
BRANCH  34  35
ATOM     35  O   UNL A   1      36.007  33.698  35.294  1.00  0.00    -0.460 OA
BRANCH  35  36
ATOM     36  C   UNL A   1      37.025  32.885  35.651  1.00  0.00     0.338 C 
ATOM     37  O   UNL A   1      37.423  31.906  35.046  1.00  0.00    -0.246 OA
BRANCH  36  38
ATOM     38  C   UNL A   1      37.715  33.510  36.804  1.00  0.00     0.060 A 
ATOM     39  C   UNL A   1      37.259  33.299  38.108  1.00  0.00     0.016 A 
ATOM     40  C   UNL A   1      38.820  34.339  36.572  1.00  0.00     0.016 A 
ATOM     41  C   UNL A   1      37.930  33.890  39.180  1.00  0.00     0.010 A 
ATOM     42  C   UNL A   1      39.492  34.930  37.647  1.00  0.00     0.010 A 
ATOM     43  C   UNL A   1      39.066  34.691  38.961  1.00  0.00    -0.014 A 
BRANCH  43  44
ATOM     44  C   UNL A   1      39.899  35.099  40.123  1.00  0.00     0.031 A 
ATOM     45  C   UNL A   1      40.764  34.131  40.871  1.00  0.00     0.074 A 
ATOM     46  C   UNL A   1      39.867  36.395  40.488  1.00  0.00     0.049 A 
ATOM     47  N   UNL A   1      41.651  34.381  41.799  1.00  0.00    -0.248 NA
ATOM     48  C   UNL A   1      40.613  32.705  40.549  1.00  0.00     0.031 C 
ATOM     49  C   UNL A   1      39.018  37.410  39.862  1.00  0.00     0.029 A 
ATOM     50  N   UNL A   1      40.561  37.085  41.449  1.00  0.00    -0.354 N 
ATOM     51  C   UNL A   1      42.188  33.151  42.158  1.00  0.00     0.074 A 
ATOM     52  C   UNL A   1      41.482  32.149  41.386  1.00  0.00     0.031 C 
ATOM     53  C   UNL A   1      39.270  38.599  40.426  1.00  0.00     0.029 A 
ATOM     54  C   UNL A   1      40.276  38.431  41.472  1.00  0.00     0.049 A 
ATOM     55  H   UNL A   1      41.202  36.659  42.063  1.00  0.00     0.167 HD
ATOM     56  C   UNL A   1      43.190  32.894  43.034  1.00  0.00     0.034 A 
ATOM     57  C   UNL A   1      40.778  39.427  42.232  1.00  0.00     0.034 A 
ATOM     58  C   UNL A   1      43.866  33.910  43.807  1.00  0.00     0.049 A 
ATOM     59  C   UNL A   1      41.889  39.114  43.201  1.00  0.00     0.074 A 
ATOM     60  C   UNL A   1      44.925  33.751  44.685  1.00  0.00     0.029 A 
ATOM     61  N   UNL A   1      43.552  35.263  43.807  1.00  0.00    -0.354 N 
ATOM     62  N   UNL A   1      42.476  37.964  43.437  1.00  0.00    -0.248 NA
ATOM     63  C   UNL A   1      42.428  40.232  43.987  1.00  0.00     0.031 C 
ATOM     64  C   UNL A   1      45.201  34.988  45.269  1.00  0.00     0.029 A 
ATOM     65  C   UNL A   1      44.377  35.941  44.693  1.00  0.00     0.049 A 
ATOM     66  H   UNL A   1      42.848  35.679  43.261  1.00  0.00     0.167 HD
ATOM     67  C   UNL A   1      43.474  38.226  44.370  1.00  0.00     0.074 A 
ATOM     68  C   UNL A   1      43.424  39.648  44.642  1.00  0.00     0.031 C 
ATOM     69  C   UNL A   1      44.347  37.363  44.947  1.00  0.00     0.034 A 
BRANCH  56  70
ATOM     70  C   UNL A   1      43.667  31.470  43.202  1.00  0.00     0.023 A 
ATOM     71  C   UNL A   1      44.522  30.888  42.245  1.00  0.00     0.031 A 
ATOM     72  C   UNL A   1      43.142  30.644  44.212  1.00  0.00     0.131 A 
ATOM     73  C   UNL A   1      44.790  29.513  42.295  1.00  0.00     0.055 A 
ATOM     74  C   UNL A   1      43.446  29.284  44.280  1.00  0.00     0.041 A 
ATOM     75  F   UNL A   1      42.315  31.147  45.143  1.00  0.00    -0.206 F 
ATOM     76  C   UNL A   1      44.262  28.709  43.311  1.00  0.00     0.022 A 
BRANCH  73  77
ATOM     77  S   UNL A   1      45.768  28.696  41.002  1.00  0.00     0.124 S 
ATOM     78  O   UNL A   1      47.053  29.379  41.125  1.00  0.00    -0.237 OA
ATOM     79  O   UNL A   1      45.757  27.305  41.443  1.00  0.00    -0.237 OA
ATOM     80  O   UNL A   1      45.031  28.977  39.775  1.00  0.00    -0.744 OA
ENDBRANCH  73  77
ENDBRANCH  56  70
BRANCH  57  81
ATOM     81  C   UNL A   1      40.284  40.818  42.016  1.00  0.00     0.023 A 
ATOM     82  C   UNL A   1      39.387  41.414  42.921  1.00  0.00     0.031 A 
ATOM     83  C   UNL A   1      40.604  41.522  40.843  1.00  0.00     0.131 A 
ATOM     84  C   UNL A   1      38.791  42.642  42.605  1.00  0.00     0.055 A 
ATOM     85  C   UNL A   1      40.064  42.779  40.567  1.00  0.00     0.041 A 
ATOM     86  F   UNL A   1      41.439  40.985  39.939  1.00  0.00    -0.206 F 
ATOM     87  C   UNL A   1      39.139  43.337  41.443  1.00  0.00     0.022 A 
BRANCH  84  88
ATOM     88  S   UNL A   1      37.441  43.307  43.619  1.00  0.00     0.124 S 
ATOM     89  O   UNL A   1      38.036  44.529  44.153  1.00  0.00    -0.237 OA
ATOM     90  O   UNL A   1      36.388  43.501  42.624  1.00  0.00    -0.237 OA
ATOM     91  O   UNL A   1      37.187  42.250  44.592  1.00  0.00    -0.744 OA
ENDBRANCH  84  88
ENDBRANCH  57  81
BRANCH  69  92
ATOM     92  C   UNL A   1      45.364  37.900  45.931  1.00  0.00     0.023 A 
ATOM     93  C   UNL A   1      46.658  38.237  45.487  1.00  0.00     0.031 A 
ATOM     94  C   UNL A   1      45.112  37.919  47.314  1.00  0.00     0.131 A 
ATOM     95  C   UNL A   1      47.662  38.531  46.417  1.00  0.00     0.055 A 
ATOM     96  C   UNL A   1      46.103  38.266  48.234  1.00  0.00     0.041 A 
ATOM     97  F   UNL A   1      43.901  37.594  47.792  1.00  0.00    -0.206 F 
ATOM     98  C   UNL A   1      47.390  38.557  47.788  1.00  0.00     0.022 A 
BRANCH  95  99
ATOM     99  S   UNL A   1      49.380  38.792  45.892  1.00  0.00     0.124 S 
ATOM    100  O   UNL A   1      49.668  37.555  45.172  1.00  0.00    -0.237 OA
ATOM    101  O   UNL A   1      49.268  39.987  45.058  1.00  0.00    -0.237 OA
ATOM    102  O   UNL A   1      50.109  38.967  47.144  1.00  0.00    -0.744 OA
ENDBRANCH  95  99
ENDBRANCH  69  92
ENDBRANCH  43  44
ENDBRANCH  36  38
ENDBRANCH  35  36
ENDBRANCH  34  35
ENDBRANCH  33  34
ENDBRANCH  32  33
ENDBRANCH  31  32
ENDBRANCH  30  31
ENDBRANCH   1  30
TORSDOF 27
ENDMDL
MODEL 3
REMARK VINA RESULT:      -6.7      8.339     13.323
REMARK SMILES CC(C)CSc1cc2c(cc1Cl)C=C(C(=O)OCCOCCOCCOCCOC(=O)c1ccc(-c3c4nc(c(-c5cc(S(=O)(=O)[O-])ccc5F)c5ccc([nH]5)c(-c5cc(S(=O)(=O)[O-])ccc5F)c5nc(c(-c6cc(S(=O)(=O)[O-])ccc6F)c6ccc3[nH]6)C=C5)C=C4)cc1)[C@H](C(F)(F)F)O2
REMARK SMILES IDX 23 1 22 2 21 3 20 4 19 5 18 6 17 7 15 8 16 9 14 10 6 11 7 12
REMARK SMILES IDX 11 13 8 14 10 15 12 16 9 17 100 18 13 19 95 20 5 21 4 22
REMARK SMILES IDX 2 23 1 24 3 25 96 26 97 27 98 28 99 29 24 30 25 31 26 32
REMARK SMILES IDX 27 33 28 34 29 35 30 36 31 37 32 38 33 39 94 40 34 41 93 42
REMARK SMILES IDX 35 43 36 44 37 45 87 46 38 47 92 48 86 49 88 50 39 51 91 52
REMARK SMILES IDX 85 53 84 54 40 56 72 57 52 58 71 59 53 60 56 61 70 62 89 63
REMARK SMILES IDX 54 64 55 65 69 67 90 68 57 69 41 70 42 71 50 72 43 73 49 74
REMARK SMILES IDX 51 75 48 76 44 77 45 78 46 79 47 80 73 81 74 82 82 83 75 84
REMARK SMILES IDX 81 85 83 86 80 87 76 88 77 89 78 90 79 91 58 92 59 93 67 94
REMARK SMILES IDX 60 95 66 96 68 97 65 98 61 99 62 100 63 101 64 102
REMARK H PARENT 88 55 56 66
REMARK Flexibility Score: inf
ROOT
ATOM      1  O   UNL A   1      33.424  36.623  28.942  1.00  0.00    -0.377 OA
ENDROOT
BRANCH   1   2
ATOM      2  C   UNL A   1      32.968  35.287  28.962  1.00  0.00     0.188 C 
BRANCH   2   3
ATOM      3  C   UNL A   1      33.824  34.294  28.155  1.00  0.00     0.188 C 
BRANCH   3   4
ATOM      4  O   UNL A   1      34.183  33.001  28.636  1.00  0.00    -0.376 OA
BRANCH   4   5
ATOM      5  C   UNL A   1      35.204  32.825  29.608  1.00  0.00     0.202 C 
BRANCH   5   6
ATOM      6  C   UNL A   1      35.626  31.392  29.959  1.00  0.00     0.261 C 
BRANCH   6   7
ATOM      7  O   UNL A   1      36.908  31.295  30.603  1.00  0.00    -0.460 OA
BRANCH   7   8
ATOM      8  C   UNL A   1      37.192  30.105  31.165  1.00  0.00     0.338 C 
ATOM      9  O   UNL A   1      36.458  29.435  31.874  1.00  0.00    -0.246 OA
BRANCH   8  10
ATOM     10  C   UNL A   1      38.491  29.606  30.685  1.00  0.00     0.087 C 
ATOM     11  C   UNL A   1      41.801  26.508  28.541  1.00  0.00     0.030 A 
ATOM     12  C   UNL A   1      41.783  27.261  29.729  1.00  0.00     0.063 A 
ATOM     13  C   UNL A   1      40.772  26.702  27.604  1.00  0.00     0.055 A 
ATOM     14  C   UNL A   1      40.703  28.089  30.033  1.00  0.00     0.129 A 
ATOM     15  C   UNL A   1      39.684  27.523  27.916  1.00  0.00     0.033 A 
ATOM     16  Cl  UNL A   1      40.760  25.962  26.041  1.00  0.00    -0.083 Cl
ATOM     17  C   UNL A   1      39.633  28.184  29.145  1.00  0.00     0.019 A 
ATOM     18  O   UNL A   1      40.704  28.686  31.267  1.00  0.00    -0.475 OA
ATOM     19  C   UNL A   1      38.426  28.866  29.569  1.00  0.00     0.027 C 
ATOM     20  C   UNL A   1      39.761  29.788  31.475  1.00  0.00     0.316 C 
BRANCH  11  21
ATOM     21  S   UNL A   1      43.133  25.322  28.396  1.00  0.00    -0.124 SA
BRANCH  21  22
ATOM     22  C   UNL A   1      44.435  26.268  27.507  1.00  0.00     0.078 C 
BRANCH  22  23
ATOM     23  C   UNL A   1      44.025  27.588  26.823  1.00  0.00    -0.007 C 
ATOM     24  C   UNL A   1      44.787  28.818  27.321  1.00  0.00     0.008 C 
ATOM     25  C   UNL A   1      44.270  27.454  25.313  1.00  0.00     0.008 C 
ENDBRANCH  22  23
ENDBRANCH  21  22
ENDBRANCH  11  21
BRANCH  20  26
ATOM     26  C   UNL A   1      40.505  31.120  31.262  1.00  0.00     0.430 C 
ATOM     27  F   UNL A   1      39.699  32.192  31.461  1.00  0.00    -0.167 F 
ATOM     28  F   UNL A   1      41.575  31.245  32.072  1.00  0.00    -0.167 F 
ATOM     29  F   UNL A   1      40.969  31.212  29.990  1.00  0.00    -0.167 F 
ENDBRANCH  20  26
ENDBRANCH   8  10
ENDBRANCH   7   8
ENDBRANCH   6   7
ENDBRANCH   5   6
ENDBRANCH   4   5
ENDBRANCH   3   4
ENDBRANCH   2   3
ENDBRANCH   1   2
BRANCH   1  30
ATOM     30  C   UNL A   1      33.250  37.352  30.149  1.00  0.00     0.188 C 
BRANCH  30  31
ATOM     31  C   UNL A   1      32.753  36.533  31.348  1.00  0.00     0.188 C 
BRANCH  31  32
ATOM     32  O   UNL A   1      32.900  37.237  32.585  1.00  0.00    -0.376 OA
BRANCH  32  33
ATOM     33  C   UNL A   1      33.937  36.785  33.452  1.00  0.00     0.202 C 
BRANCH  33  34
ATOM     34  C   UNL A   1      34.739  35.579  32.941  1.00  0.00     0.261 C 
BRANCH  34  35
ATOM     35  O   UNL A   1      35.973  35.293  33.621  1.00  0.00    -0.460 OA
BRANCH  35  36
ATOM     36  C   UNL A   1      36.896  34.519  33.010  1.00  0.00     0.338 C 
ATOM     37  O   UNL A   1      37.068  34.398  31.811  1.00  0.00    -0.246 OA
BRANCH  36  38
ATOM     38  C   UNL A   1      37.808  33.998  34.055  1.00  0.00     0.060 A 
ATOM     39  C   UNL A   1      37.393  32.984  34.923  1.00  0.00     0.016 A 
ATOM     40  C   UNL A   1      39.089  34.552  34.182  1.00  0.00     0.016 A 
ATOM     41  C   UNL A   1      38.272  32.502  35.894  1.00  0.00     0.010 A 
ATOM     42  C   UNL A   1      39.969  34.067  35.156  1.00  0.00     0.010 A 
ATOM     43  C   UNL A   1      39.576  33.021  36.004  1.00  0.00    -0.014 A 
BRANCH  43  44
ATOM     44  C   UNL A   1      40.562  32.326  36.871  1.00  0.00     0.031 A 
ATOM     45  C   UNL A   1      41.371  31.159  36.392  1.00  0.00     0.074 A 
ATOM     46  C   UNL A   1      40.725  32.790  38.125  1.00  0.00     0.049 A 
ATOM     47  N   UNL A   1      42.369  30.560  36.990  1.00  0.00    -0.248 NA
ATOM     48  C   UNL A   1      41.015  30.583  35.088  1.00  0.00     0.031 C 
ATOM     49  C   UNL A   1      39.950  33.885  38.709  1.00  0.00     0.029 A 
ATOM     50  N   UNL A   1      41.590  32.421  39.124  1.00  0.00    -0.354 N 
ATOM     51  C   UNL A   1      42.784  29.553  36.128  1.00  0.00     0.074 A 
ATOM     52  C   UNL A   1      41.888  29.586  34.990  1.00  0.00     0.031 C 
ATOM     53  C   UNL A   1      40.399  34.127  39.948  1.00  0.00     0.029 A 
ATOM     54  C   UNL A   1      41.476  33.189  40.261  1.00  0.00     0.049 A 
ATOM     55  H   UNL A   1      42.230  31.679  39.037  1.00  0.00     0.167 HD
ATOM     56  C   UNL A   1      43.828  28.700  36.271  1.00  0.00     0.034 A 
ATOM     57  C   UNL A   1      42.168  33.160  41.418  1.00  0.00     0.034 A 
ATOM     58  C   UNL A   1      44.695  28.674  37.426  1.00  0.00     0.049 A 
ATOM     59  C   UNL A   1      43.321  32.201  41.553  1.00  0.00     0.074 A 
ATOM     60  C   UNL A   1      45.808  27.878  37.640  1.00  0.00     0.029 A 
ATOM     61  N   UNL A   1      44.551  29.465  38.558  1.00  0.00    -0.354 N 
ATOM     62  N   UNL A   1      43.784  31.340  40.677  1.00  0.00    -0.248 NA
ATOM     63  C   UNL A   1      44.068  32.223  42.819  1.00  0.00     0.031 C 
ATOM     64  C   UNL A   1      46.290  28.132  38.924  1.00  0.00     0.029 A 
ATOM     65  C   UNL A   1      45.536  29.151  39.484  1.00  0.00     0.049 A 
ATOM     66  H   UNL A   1      43.854  30.146  38.686  1.00  0.00     0.167 HD
ATOM     67  C   UNL A   1      44.893  30.745  41.269  1.00  0.00     0.074 A 
ATOM     68  C   UNL A   1      45.045  31.357  42.573  1.00  0.00     0.031 C 
ATOM     69  C   UNL A   1      45.706  29.779  40.774  1.00  0.00     0.034 A 
BRANCH  56  70
ATOM     70  C   UNL A   1      44.141  27.733  35.153  1.00  0.00     0.023 A 
ATOM     71  C   UNL A   1      43.937  26.351  35.328  1.00  0.00     0.031 A 
ATOM     72  C   UNL A   1      44.796  28.165  33.985  1.00  0.00     0.131 A 
ATOM     73  C   UNL A   1      44.422  25.448  34.372  1.00  0.00     0.055 A 
ATOM     74  C   UNL A   1      45.240  27.263  33.017  1.00  0.00     0.041 A 
ATOM     75  F   UNL A   1      45.024  29.471  33.774  1.00  0.00    -0.206 F 
ATOM     76  C   UNL A   1      45.066  25.897  33.214  1.00  0.00     0.022 A 
BRANCH  73  77
ATOM     77  S   UNL A   1      44.308  23.655  34.627  1.00  0.00     0.124 S 
ATOM     78  O   UNL A   1      43.063  23.333  33.934  1.00  0.00    -0.237 OA
ATOM     79  O   UNL A   1      45.525  23.175  33.978  1.00  0.00    -0.237 OA
ATOM     80  O   UNL A   1      44.266  23.508  36.077  1.00  0.00    -0.744 OA
ENDBRANCH  73  77
ENDBRANCH  56  70
BRANCH  57  81
ATOM     81  C   UNL A   1      41.830  34.147  42.485  1.00  0.00     0.023 A 
ATOM     82  C   UNL A   1      40.691  33.975  43.292  1.00  0.00     0.031 A 
ATOM     83  C   UNL A   1      42.568  35.334  42.629  1.00  0.00     0.131 A 
ATOM     84  C   UNL A   1      40.286  35.002  44.156  1.00  0.00     0.055 A 
ATOM     85  C   UNL A   1      42.203  36.322  43.544  1.00  0.00     0.041 A 
ATOM     86  F   UNL A   1      43.650  35.553  41.866  1.00  0.00    -0.206 F 
ATOM     87  C   UNL A   1      41.046  36.166  44.301  1.00  0.00     0.022 A 
BRANCH  84  88
ATOM     88  S   UNL A   1      38.688  34.921  45.011  1.00  0.00     0.124 S 
ATOM     89  O   UNL A   1      37.831  35.707  44.129  1.00  0.00    -0.237 OA
ATOM     90  O   UNL A   1      38.429  33.482  45.023  1.00  0.00    -0.237 OA
ATOM     91  O   UNL A   1      38.964  35.511  46.316  1.00  0.00    -0.744 OA
ENDBRANCH  84  88
ENDBRANCH  57  81
BRANCH  69  92
ATOM     92  C   UNL A   1      46.872  29.304  41.614  1.00  0.00     0.023 A 
ATOM     93  C   UNL A   1      48.149  29.870  41.423  1.00  0.00     0.031 A 
ATOM     94  C   UNL A   1      46.762  28.194  42.469  1.00  0.00     0.131 A 
ATOM     95  C   UNL A   1      49.268  29.297  42.039  1.00  0.00     0.055 A 
ATOM     96  C   UNL A   1      47.873  27.659  43.123  1.00  0.00     0.041 A 
ATOM     97  F   UNL A   1      45.572  27.607  42.675  1.00  0.00    -0.206 F 
ATOM     98  C   UNL A   1      49.136  28.200  42.896  1.00  0.00     0.022 A 
BRANCH  95  99
ATOM     99  S   UNL A   1      50.945  29.887  41.674  1.00  0.00     0.124 S 
ATOM    100  O   UNL A   1      50.776  31.336  41.737  1.00  0.00    -0.237 OA
ATOM    101  O   UNL A   1      51.721  29.301  42.764  1.00  0.00    -0.237 OA
ATOM    102  O   UNL A   1      51.226  29.351  40.346  1.00  0.00    -0.744 OA
ENDBRANCH  95  99
ENDBRANCH  69  92
ENDBRANCH  43  44
ENDBRANCH  36  38
ENDBRANCH  35  36
ENDBRANCH  34  35
ENDBRANCH  33  34
ENDBRANCH  32  33
ENDBRANCH  31  32
ENDBRANCH  30  31
ENDBRANCH   1  30
TORSDOF 27
ENDMDL
