MODEL 1
REMARK VINA RESULT:      -9.8      0.000      0.000
REMARK SMILES C[C@H](C(=O)OCCOCCOCCOCCOC(=O)c1ccc(-c2c3nc(c(-c4cc(S(=O)(=O)[O-])ccc4F)c4ccc([nH]4)c(-c4cc(S(=O)(=O)[O-])ccc4F)c4nc(c(-c5cc(S(=O)(=O)[O-])ccc5F)c5ccc2[nH]5)C=C4)C=C3)cc1)N1CCc2ccccc21
REMARK SMILES IDX 12 1 11 2 10 3 9 4 8 5 7 6 6 7 5 8 3 9 4 10 2 11 1 12 83 13
REMARK SMILES IDX 84 14 91 15 85 16 86 17 90 18 87 19 89 20 88 21 13 22 14 23
REMARK SMILES IDX 15 24 16 25 17 26 18 27 19 28 20 29 21 30 82 31 22 32 81 33
REMARK SMILES IDX 23 34 24 35 25 36 75 37 26 38 80 39 74 40 76 41 27 42 79 43
REMARK SMILES IDX 73 44 72 45 28 47 60 48 40 49 59 50 41 51 44 52 58 53 77 54
REMARK SMILES IDX 42 55 43 56 57 58 78 59 45 60 29 61 30 62 38 63 31 64 37 65
REMARK SMILES IDX 39 66 36 67 32 68 33 69 34 70 35 71 61 72 62 73 70 74 63 75
REMARK SMILES IDX 69 76 71 77 68 78 64 79 65 80 66 81 67 82 46 83 47 84 55 85
REMARK SMILES IDX 48 86 54 87 56 88 53 89 49 90 50 91 51 92 52 93
REMARK H PARENT 76 46 44 57
REMARK Flexibility Score: inf
ROOT
ATOM      1  C   UNL A   1      33.711  28.996  26.513  1.00  0.00     0.188 C 
ENDROOT
BRANCH   1   2
ATOM      2  O   UNL A   1      34.035  28.005  25.552  1.00  0.00    -0.377 OA
BRANCH   2   3
ATOM      3  C   UNL A   1      33.221  26.853  25.552  1.00  0.00     0.188 C 
BRANCH   3   4
ATOM      4  C   UNL A   1      33.965  25.527  25.739  1.00  0.00     0.188 C 
BRANCH   4   5
ATOM      5  O   UNL A   1      33.368  24.480  26.484  1.00  0.00    -0.376 OA
BRANCH   5   6
ATOM      6  C   UNL A   1      31.945  24.390  26.498  1.00  0.00     0.202 C 
BRANCH   6   7
ATOM      7  C   UNL A   1      31.290  22.996  26.543  1.00  0.00     0.261 C 
BRANCH   7   8
ATOM      8  O   UNL A   1      30.863  22.456  25.268  1.00  0.00    -0.462 OA
BRANCH   8   9
ATOM      9  C   UNL A   1      31.239  23.137  24.153  1.00  0.00     0.328 C 
ATOM     10  O   UNL A   1      30.683  24.166  23.769  1.00  0.00    -0.250 OA
BRANCH   9  11
ATOM     11  C   UNL A   1      32.486  22.590  23.412  1.00  0.00     0.189 C 
ATOM     12  C   UNL A   1      33.192  23.767  22.751  1.00  0.00     0.044 C 
BRANCH  11  13
ATOM     13  N   UNL A   1      33.377  21.646  24.131  1.00  0.00    -0.358 N 
ATOM     14  C   UNL A   1      34.782  22.049  24.357  1.00  0.00     0.122 C 
ATOM     15  C   UNL A   1      33.350  20.268  24.282  1.00  0.00     0.041 A 
ATOM     16  C   UNL A   1      35.487  20.887  25.066  1.00  0.00     0.059 C 
ATOM     17  C   UNL A   1      34.603  19.760  24.657  1.00  0.00    -0.023 A 
ATOM     18  C   UNL A   1      32.322  19.356  24.098  1.00  0.00     0.026 A 
ATOM     19  C   UNL A   1      34.903  18.405  24.665  1.00  0.00     0.006 A 
ATOM     20  C   UNL A   1      32.597  17.980  24.099  1.00  0.00     0.002 A 
ATOM     21  C   UNL A   1      33.892  17.509  24.338  1.00  0.00     0.000 A 
ENDBRANCH  11  13
ENDBRANCH   9  11
ENDBRANCH   8   9
ENDBRANCH   7   8
ENDBRANCH   6   7
ENDBRANCH   5   6
ENDBRANCH   4   5
ENDBRANCH   3   4
ENDBRANCH   2   3
ENDBRANCH   1   2
BRANCH   1  22
ATOM     22  C   UNL A   1      32.628  29.966  26.021  1.00  0.00     0.188 C 
BRANCH  22  23
ATOM     23  O   UNL A   1      32.054  30.863  26.975  1.00  0.00    -0.376 OA
BRANCH  23  24
ATOM     24  C   UNL A   1      31.471  32.082  26.526  1.00  0.00     0.202 C 
BRANCH  24  25
ATOM     25  C   UNL A   1      31.765  33.375  27.288  1.00  0.00     0.261 C 
BRANCH  25  26
ATOM     26  O   UNL A   1      33.161  33.718  27.275  1.00  0.00    -0.460 OA
BRANCH  26  27
ATOM     27  C   UNL A   1      33.720  33.822  28.501  1.00  0.00     0.338 C 
ATOM     28  O   UNL A   1      33.218  34.342  29.492  1.00  0.00    -0.246 OA
BRANCH  27  29
ATOM     29  C   UNL A   1      34.958  33.033  28.572  1.00  0.00     0.060 A 
ATOM     30  C   UNL A   1      34.836  31.691  28.954  1.00  0.00     0.016 A 
ATOM     31  C   UNL A   1      36.217  33.613  28.390  1.00  0.00     0.016 A 
ATOM     32  C   UNL A   1      35.968  30.940  29.233  1.00  0.00     0.010 A 
ATOM     33  C   UNL A   1      37.357  32.862  28.696  1.00  0.00     0.010 A 
ATOM     34  C   UNL A   1      37.228  31.544  29.173  1.00  0.00    -0.014 A 
BRANCH  34  35
ATOM     35  C   UNL A   1      38.353  30.866  29.856  1.00  0.00     0.031 A 
ATOM     36  C   UNL A   1      38.623  31.218  31.295  1.00  0.00     0.074 A 
ATOM     37  C   UNL A   1      39.043  29.887  29.246  1.00  0.00     0.049 A 
ATOM     38  N   UNL A   1      39.551  30.773  32.101  1.00  0.00    -0.248 NA
ATOM     39  C   UNL A   1      37.717  32.203  31.906  1.00  0.00     0.031 C 
ATOM     40  C   UNL A   1      38.801  29.409  27.886  1.00  0.00     0.029 A 
ATOM     41  N   UNL A   1      40.083  29.116  29.696  1.00  0.00    -0.354 N 
ATOM     42  C   UNL A   1      39.341  31.422  33.312  1.00  0.00     0.074 A 
ATOM     43  C   UNL A   1      38.225  32.324  33.123  1.00  0.00     0.031 C 
ATOM     44  C   UNL A   1      39.679  28.431  27.608  1.00  0.00     0.029 A 
ATOM     45  C   UNL A   1      40.570  28.246  28.752  1.00  0.00     0.049 A 
ATOM     46  H   UNL A   1      40.445  29.179  30.609  1.00  0.00     0.167 HD
ATOM     47  C   UNL A   1      40.011  31.270  34.480  1.00  0.00     0.034 A 
ATOM     48  C   UNL A   1      41.637  27.421  28.798  1.00  0.00     0.034 A 
ATOM     49  C   UNL A   1      41.129  30.374  34.641  1.00  0.00     0.049 A 
ATOM     50  C   UNL A   1      42.443  27.351  30.074  1.00  0.00     0.074 A 
ATOM     51  C   UNL A   1      41.900  30.150  35.768  1.00  0.00     0.029 A 
ATOM     52  N   UNL A   1      41.643  29.557  33.641  1.00  0.00    -0.354 N 
ATOM     53  N   UNL A   1      42.256  27.992  31.207  1.00  0.00    -0.248 NA
ATOM     54  C   UNL A   1      43.594  26.441  30.082  1.00  0.00     0.031 C 
ATOM     55  C   UNL A   1      42.925  29.262  35.427  1.00  0.00     0.029 A 
ATOM     56  C   UNL A   1      42.740  28.856  34.114  1.00  0.00     0.049 A 
ATOM     57  H   UNL A   1      41.279  29.487  32.728  1.00  0.00     0.167 HD
ATOM     58  C   UNL A   1      43.250  27.536  32.070  1.00  0.00     0.074 A 
ATOM     59  C   UNL A   1      44.020  26.557  31.330  1.00  0.00     0.031 C 
ATOM     60  C   UNL A   1      43.502  27.890  33.357  1.00  0.00     0.034 A 
BRANCH  47  61
ATOM     61  C   UNL A   1      39.588  32.134  35.644  1.00  0.00     0.023 A 
ATOM     62  C   UNL A   1      40.166  33.393  35.885  1.00  0.00     0.031 A 
ATOM     63  C   UNL A   1      38.609  31.677  36.545  1.00  0.00     0.131 A 
ATOM     64  C   UNL A   1      39.808  34.120  37.032  1.00  0.00     0.055 A 
ATOM     65  C   UNL A   1      38.198  32.441  37.638  1.00  0.00     0.041 A 
ATOM     66  F   UNL A   1      38.042  30.470  36.385  1.00  0.00    -0.206 F 
ATOM     67  C   UNL A   1      38.809  33.665  37.895  1.00  0.00     0.022 A 
BRANCH  64  68
ATOM     68  S   UNL A   1      40.770  35.597  37.460  1.00  0.00     0.124 S 
ATOM     69  O   UNL A   1      41.717  35.664  36.350  1.00  0.00    -0.237 OA
ATOM     70  O   UNL A   1      39.749  36.639  37.494  1.00  0.00    -0.237 OA
ATOM     71  O   UNL A   1      41.361  35.260  38.754  1.00  0.00    -0.744 OA
ENDBRANCH  64  68
ENDBRANCH  47  61
BRANCH  48  72
ATOM     72  C   UNL A   1      42.040  26.644  27.591  1.00  0.00     0.023 A 
ATOM     73  C   UNL A   1      41.744  25.279  27.463  1.00  0.00     0.031 A 
ATOM     74  C   UNL A   1      42.779  27.256  26.561  1.00  0.00     0.131 A 
ATOM     75  C   UNL A   1      42.223  24.560  26.356  1.00  0.00     0.055 A 
ATOM     76  C   UNL A   1      43.201  26.551  25.432  1.00  0.00     0.041 A 
ATOM     77  F   UNL A   1      43.095  28.559  26.633  1.00  0.00    -0.206 F 
ATOM     78  C   UNL A   1      42.934  25.191  25.332  1.00  0.00     0.022 A 
BRANCH  75  79
ATOM     79  S   UNL A   1      41.984  22.762  26.316  1.00  0.00     0.124 S 
ATOM     80  O   UNL A   1      42.597  22.412  25.039  1.00  0.00    -0.237 OA
ATOM     81  O   UNL A   1      42.702  22.335  27.511  1.00  0.00    -0.237 OA
ATOM     82  O   UNL A   1      40.532  22.611  26.375  1.00  0.00    -0.744 OA
ENDBRANCH  75  79
ENDBRANCH  48  72
BRANCH  60  83
ATOM     83  C   UNL A   1      44.630  27.172  34.061  1.00  0.00     0.023 A 
ATOM     84  C   UNL A   1      44.418  25.984  34.781  1.00  0.00     0.031 A 
ATOM     85  C   UNL A   1      45.937  27.689  34.008  1.00  0.00     0.131 A 
ATOM     86  C   UNL A   1      45.484  25.385  35.469  1.00  0.00     0.055 A 
ATOM     87  C   UNL A   1      47.007  27.050  34.635  1.00  0.00     0.041 A 
ATOM     88  F   UNL A   1      46.198  28.823  33.338  1.00  0.00    -0.206 F 
ATOM     89  C   UNL A   1      46.781  25.898  35.383  1.00  0.00     0.022 A 
BRANCH  86  90
ATOM     90  S   UNL A   1      45.134  23.984  36.566  1.00  0.00     0.124 S 
ATOM     91  O   UNL A   1      44.357  23.107  35.697  1.00  0.00    -0.237 OA
ATOM     92  O   UNL A   1      46.472  23.516  36.912  1.00  0.00    -0.237 OA
ATOM     93  O   UNL A   1      44.385  24.589  37.666  1.00  0.00    -0.744 OA
ENDBRANCH  86  90
ENDBRANCH  60  83
ENDBRANCH  34  35
ENDBRANCH  27  29
ENDBRANCH  26  27
ENDBRANCH  25  26
ENDBRANCH  24  25
ENDBRANCH  23  24
ENDBRANCH  22  23
ENDBRANCH   1  22
TORSDOF 24
ENDMDL
MODEL 2
REMARK VINA RESULT:      -9.2      1.609      2.098
REMARK SMILES C[C@H](C(=O)OCCOCCOCCOCCOC(=O)c1ccc(-c2c3nc(c(-c4cc(S(=O)(=O)[O-])ccc4F)c4ccc([nH]4)c(-c4cc(S(=O)(=O)[O-])ccc4F)c4nc(c(-c5cc(S(=O)(=O)[O-])ccc5F)c5ccc2[nH]5)C=C4)C=C3)cc1)N1CCc2ccccc21
REMARK SMILES IDX 12 1 11 2 10 3 9 4 8 5 7 6 6 7 5 8 3 9 4 10 2 11 1 12 83 13
REMARK SMILES IDX 84 14 91 15 85 16 86 17 90 18 87 19 89 20 88 21 13 22 14 23
REMARK SMILES IDX 15 24 16 25 17 26 18 27 19 28 20 29 21 30 82 31 22 32 81 33
REMARK SMILES IDX 23 34 24 35 25 36 75 37 26 38 80 39 74 40 76 41 27 42 79 43
REMARK SMILES IDX 73 44 72 45 28 47 60 48 40 49 59 50 41 51 44 52 58 53 77 54
REMARK SMILES IDX 42 55 43 56 57 58 78 59 45 60 29 61 30 62 38 63 31 64 37 65
REMARK SMILES IDX 39 66 36 67 32 68 33 69 34 70 35 71 61 72 62 73 70 74 63 75
REMARK SMILES IDX 69 76 71 77 68 78 64 79 65 80 66 81 67 82 46 83 47 84 55 85
REMARK SMILES IDX 48 86 54 87 56 88 53 89 49 90 50 91 51 92 52 93
REMARK H PARENT 76 46 44 57
REMARK Flexibility Score: inf
ROOT
ATOM      1  C   UNL A   1      33.535  27.987  24.064  1.00  0.00     0.188 C 
ENDROOT
BRANCH   1   2
ATOM      2  O   UNL A   1      32.941  26.780  23.621  1.00  0.00    -0.377 OA
BRANCH   2   3
ATOM      3  C   UNL A   1      33.277  25.620  24.350  1.00  0.00     0.188 C 
BRANCH   3   4
ATOM      4  C   UNL A   1      34.286  25.828  25.484  1.00  0.00     0.188 C 
BRANCH   4   5
ATOM      5  O   UNL A   1      35.119  24.758  25.895  1.00  0.00    -0.376 OA
BRANCH   5   6
ATOM      6  C   UNL A   1      34.830  23.453  25.400  1.00  0.00     0.202 C 
BRANCH   6   7
ATOM      7  C   UNL A   1      35.175  22.234  26.279  1.00  0.00     0.261 C 
BRANCH   7   8
ATOM      8  O   UNL A   1      34.048  21.510  26.828  1.00  0.00    -0.462 OA
BRANCH   8   9
ATOM      9  C   UNL A   1      32.893  22.207  27.002  1.00  0.00     0.328 C 
ATOM     10  O   UNL A   1      32.755  23.088  27.850  1.00  0.00    -0.250 OA
BRANCH   9  11
ATOM     11  C   UNL A   1      31.752  21.890  26.000  1.00  0.00     0.189 C 
ATOM     12  C   UNL A   1      30.807  23.085  25.973  1.00  0.00     0.044 C 
BRANCH  11  13
ATOM     13  N   UNL A   1      32.114  21.345  24.668  1.00  0.00    -0.358 N 
ATOM     14  C   UNL A   1      31.639  22.066  23.467  1.00  0.00     0.122 C 
ATOM     15  C   UNL A   1      32.433  20.065  24.239  1.00  0.00     0.041 A 
ATOM     16  C   UNL A   1      32.102  21.274  22.240  1.00  0.00     0.059 C 
ATOM     17  C   UNL A   1      32.274  19.926  22.852  1.00  0.00    -0.023 A 
ATOM     18  C   UNL A   1      32.841  18.947  24.948  1.00  0.00     0.026 A 
ATOM     19  C   UNL A   1      32.319  18.701  22.200  1.00  0.00     0.006 A 
ATOM     20  C   UNL A   1      32.894  17.695  24.315  1.00  0.00     0.002 A 
ATOM     21  C   UNL A   1      32.591  17.567  22.957  1.00  0.00     0.000 A 
ENDBRANCH  11  13
ENDBRANCH   9  11
ENDBRANCH   8   9
ENDBRANCH   7   8
ENDBRANCH   6   7
ENDBRANCH   5   6
ENDBRANCH   4   5
ENDBRANCH   3   4
ENDBRANCH   2   3
ENDBRANCH   1   2
BRANCH   1  22
ATOM     22  C   UNL A   1      32.514  28.967  24.659  1.00  0.00     0.188 C 
BRANCH  22  23
ATOM     23  O   UNL A   1      32.993  29.959  25.569  1.00  0.00    -0.376 OA
BRANCH  23  24
ATOM     24  C   UNL A   1      32.066  30.836  26.200  1.00  0.00     0.202 C 
BRANCH  24  25
ATOM     25  C   UNL A   1      32.454  31.512  27.516  1.00  0.00     0.261 C 
BRANCH  25  26
ATOM     26  O   UNL A   1      32.865  32.878  27.334  1.00  0.00    -0.460 OA
BRANCH  26  27
ATOM     27  C   UNL A   1      33.624  33.369  28.338  1.00  0.00     0.338 C 
ATOM     28  O   UNL A   1      33.269  34.165  29.201  1.00  0.00    -0.246 OA
BRANCH  27  29
ATOM     29  C   UNL A   1      34.911  32.663  28.406  1.00  0.00     0.060 A 
ATOM     30  C   UNL A   1      34.872  31.302  28.737  1.00  0.00     0.016 A 
ATOM     31  C   UNL A   1      36.131  33.331  28.271  1.00  0.00     0.016 A 
ATOM     32  C   UNL A   1      36.047  30.619  29.012  1.00  0.00     0.010 A 
ATOM     33  C   UNL A   1      37.313  32.647  28.572  1.00  0.00     0.010 A 
ATOM     34  C   UNL A   1      37.265  31.307  28.998  1.00  0.00    -0.014 A 
BRANCH  34  35
ATOM     35  C   UNL A   1      38.421  30.681  29.679  1.00  0.00     0.031 A 
ATOM     36  C   UNL A   1      38.694  31.065  31.109  1.00  0.00     0.074 A 
ATOM     37  C   UNL A   1      39.138  29.716  29.077  1.00  0.00     0.049 A 
ATOM     38  N   UNL A   1      39.646  30.667  31.911  1.00  0.00    -0.248 NA
ATOM     39  C   UNL A   1      37.761  32.028  31.715  1.00  0.00     0.031 C 
ATOM     40  C   UNL A   1      38.899  29.208  27.728  1.00  0.00     0.029 A 
ATOM     41  N   UNL A   1      40.210  28.990  29.528  1.00  0.00    -0.354 N 
ATOM     42  C   UNL A   1      39.426  31.328  33.115  1.00  0.00     0.074 A 
ATOM     43  C   UNL A   1      38.277  32.187  32.924  1.00  0.00     0.031 C 
ATOM     44  C   UNL A   1      39.808  28.256  27.456  1.00  0.00     0.029 A 
ATOM     45  C   UNL A   1      40.717  28.122  28.592  1.00  0.00     0.049 A 
ATOM     46  H   UNL A   1      40.580  29.081  30.436  1.00  0.00     0.167 HD
ATOM     47  C   UNL A   1      40.115  31.219  34.277  1.00  0.00     0.034 A 
ATOM     48  C   UNL A   1      41.813  27.337  28.640  1.00  0.00     0.034 A 
ATOM     49  C   UNL A   1      41.266  30.366  34.440  1.00  0.00     0.049 A 
ATOM     50  C   UNL A   1      42.635  27.315  29.907  1.00  0.00     0.074 A 
ATOM     51  C   UNL A   1      42.057  30.188  35.560  1.00  0.00     0.029 A 
ATOM     52  N   UNL A   1      41.797  29.551  33.446  1.00  0.00    -0.354 N 
ATOM     53  N   UNL A   1      42.438  27.969  31.031  1.00  0.00    -0.248 NA
ATOM     54  C   UNL A   1      43.817  26.447  29.916  1.00  0.00     0.031 C 
ATOM     55  C   UNL A   1      43.108  29.332  35.222  1.00  0.00     0.029 A 
ATOM     56  C   UNL A   1      42.923  28.897  33.919  1.00  0.00     0.049 A 
ATOM     57  H   UNL A   1      41.425  29.454  32.539  1.00  0.00     0.167 HD
ATOM     58  C   UNL A   1      43.458  27.563  31.890  1.00  0.00     0.074 A 
ATOM     59  C   UNL A   1      44.254  26.599  31.157  1.00  0.00     0.031 C 
ATOM     60  C   UNL A   1      43.711  27.946  33.168  1.00  0.00     0.034 A 
BRANCH  47  61
ATOM     61  C   UNL A   1      39.674  32.087  35.431  1.00  0.00     0.023 A 
ATOM     62  C   UNL A   1      38.899  31.581  36.490  1.00  0.00     0.031 A 
ATOM     63  C   UNL A   1      40.012  33.453  35.459  1.00  0.00     0.131 A 
ATOM     64  C   UNL A   1      38.434  32.446  37.493  1.00  0.00     0.055 A 
ATOM     65  C   UNL A   1      39.615  34.290  36.503  1.00  0.00     0.041 A 
ATOM     66  F   UNL A   1      40.725  34.001  34.462  1.00  0.00    -0.206 F 
ATOM     67  C   UNL A   1      38.810  33.791  37.521  1.00  0.00     0.022 A 
BRANCH  64  68
ATOM     68  S   UNL A   1      37.213  31.823  38.680  1.00  0.00     0.124 S 
ATOM     69  O   UNL A   1      37.928  31.972  39.945  1.00  0.00    -0.237 OA
ATOM     70  O   UNL A   1      36.084  32.723  38.473  1.00  0.00    -0.237 OA
ATOM     71  O   UNL A   1      36.995  30.440  38.256  1.00  0.00    -0.744 OA
ENDBRANCH  64  68
ENDBRANCH  47  61
BRANCH  48  72
ATOM     72  C   UNL A   1      42.230  26.554  27.440  1.00  0.00     0.023 A 
ATOM     73  C   UNL A   1      41.935  25.188  27.315  1.00  0.00     0.031 A 
ATOM     74  C   UNL A   1      42.981  27.161  26.417  1.00  0.00     0.131 A 
ATOM     75  C   UNL A   1      42.427  24.465  26.217  1.00  0.00     0.055 A 
ATOM     76  C   UNL A   1      43.417  26.451  25.296  1.00  0.00     0.041 A 
ATOM     77  F   UNL A   1      43.297  28.465  26.487  1.00  0.00    -0.206 F 
ATOM     78  C   UNL A   1      43.150  25.091  25.199  1.00  0.00     0.022 A 
BRANCH  75  79
ATOM     79  S   UNL A   1      42.187  22.667  26.181  1.00  0.00     0.124 S 
ATOM     80  O   UNL A   1      42.824  22.309  24.918  1.00  0.00    -0.237 OA
ATOM     81  O   UNL A   1      42.881  22.245  27.392  1.00  0.00    -0.237 OA
ATOM     82  O   UNL A   1      40.734  22.517  26.213  1.00  0.00    -0.744 OA
ENDBRANCH  75  79
ENDBRANCH  48  72
BRANCH  60  83
ATOM     83  C   UNL A   1      44.871  27.281  33.871  1.00  0.00     0.023 A 
ATOM     84  C   UNL A   1      44.738  26.033  34.503  1.00  0.00     0.031 A 
ATOM     85  C   UNL A   1      46.129  27.909  33.904  1.00  0.00     0.131 A 
ATOM     86  C   UNL A   1      45.827  25.482  35.195  1.00  0.00     0.055 A 
ATOM     87  C   UNL A   1      47.228  27.321  34.533  1.00  0.00     0.041 A 
ATOM     88  F   UNL A   1      46.315  29.103  33.320  1.00  0.00    -0.206 F 
ATOM     89  C   UNL A   1      47.077  26.107  35.195  1.00  0.00     0.022 A 
BRANCH  86  90
ATOM     90  S   UNL A   1      45.561  23.985  36.184  1.00  0.00     0.124 S 
ATOM     91  O   UNL A   1      44.535  24.422  37.124  1.00  0.00    -0.237 OA
ATOM     92  O   UNL A   1      45.135  23.017  35.179  1.00  0.00    -0.237 OA
ATOM     93  O   UNL A   1      46.874  23.727  36.775  1.00  0.00    -0.744 OA
ENDBRANCH  86  90
ENDBRANCH  60  83
ENDBRANCH  34  35
ENDBRANCH  27  29
ENDBRANCH  26  27
ENDBRANCH  25  26
ENDBRANCH  24  25
ENDBRANCH  23  24
ENDBRANCH  22  23
ENDBRANCH   1  22
TORSDOF 24
ENDMDL
MODEL 3
REMARK VINA RESULT:      -9.2      2.468      2.975
REMARK SMILES C[C@H](C(=O)OCCOCCOCCOCCOC(=O)c1ccc(-c2c3nc(c(-c4cc(S(=O)(=O)[O-])ccc4F)c4ccc([nH]4)c(-c4cc(S(=O)(=O)[O-])ccc4F)c4nc(c(-c5cc(S(=O)(=O)[O-])ccc5F)c5ccc2[nH]5)C=C4)C=C3)cc1)N1CCc2ccccc21
REMARK SMILES IDX 12 1 11 2 10 3 9 4 8 5 7 6 6 7 5 8 3 9 4 10 2 11 1 12 83 13
REMARK SMILES IDX 84 14 91 15 85 16 86 17 90 18 87 19 89 20 88 21 13 22 14 23
REMARK SMILES IDX 15 24 16 25 17 26 18 27 19 28 20 29 21 30 82 31 22 32 81 33
REMARK SMILES IDX 23 34 24 35 25 36 75 37 26 38 80 39 74 40 76 41 27 42 79 43
REMARK SMILES IDX 73 44 72 45 28 47 60 48 40 49 59 50 41 51 44 52 58 53 77 54
REMARK SMILES IDX 42 55 43 56 57 58 78 59 45 60 29 61 30 62 38 63 31 64 37 65
REMARK SMILES IDX 39 66 36 67 32 68 33 69 34 70 35 71 61 72 62 73 70 74 63 75
REMARK SMILES IDX 69 76 71 77 68 78 64 79 65 80 66 81 67 82 46 83 47 84 55 85
REMARK SMILES IDX 48 86 54 87 56 88 53 89 49 90 50 91 51 92 52 93
REMARK H PARENT 76 46 44 57
REMARK Flexibility Score: inf
ROOT
ATOM      1  C   UNL A   1      33.235  29.124  25.914  1.00  0.00     0.188 C 
ENDROOT
BRANCH   1   2
ATOM      2  O   UNL A   1      32.126  28.294  26.215  1.00  0.00    -0.377 OA
BRANCH   2   3
ATOM      3  C   UNL A   1      31.216  28.070  25.161  1.00  0.00     0.188 C 
BRANCH   3   4
ATOM      4  C   UNL A   1      30.993  29.260  24.223  1.00  0.00     0.188 C 
BRANCH   4   5
ATOM      5  O   UNL A   1      30.777  29.040  22.840  1.00  0.00    -0.376 OA
BRANCH   5   6
ATOM      6  C   UNL A   1      30.883  27.707  22.346  1.00  0.00     0.202 C 
BRANCH   6   7
ATOM      7  C   UNL A   1      32.246  26.992  22.428  1.00  0.00     0.261 C 
BRANCH   7   8
ATOM      8  O   UNL A   1      32.548  26.081  21.343  1.00  0.00    -0.462 OA
BRANCH   8   9
ATOM      9  C   UNL A   1      32.788  24.784  21.677  1.00  0.00     0.328 C 
ATOM     10  O   UNL A   1      33.366  23.991  20.934  1.00  0.00    -0.250 OA
BRANCH   9  11
ATOM     11  C   UNL A   1      32.362  24.361  23.107  1.00  0.00     0.189 C 
ATOM     12  C   UNL A   1      31.426  23.166  22.981  1.00  0.00     0.044 C 
BRANCH  11  13
ATOM     13  N   UNL A   1      33.412  24.231  24.146  1.00  0.00    -0.358 N 
ATOM     14  C   UNL A   1      34.823  24.153  23.705  1.00  0.00     0.122 C 
ATOM     15  C   UNL A   1      33.391  23.723  25.436  1.00  0.00     0.041 A 
ATOM     16  C   UNL A   1      35.688  23.973  24.957  1.00  0.00     0.059 C 
ATOM     17  C   UNL A   1      34.678  23.395  25.888  1.00  0.00    -0.023 A 
ATOM     18  C   UNL A   1      32.332  23.477  26.295  1.00  0.00     0.026 A 
ATOM     19  C   UNL A   1      34.915  22.675  27.051  1.00  0.00     0.006 A 
ATOM     20  C   UNL A   1      32.542  22.751  27.478  1.00  0.00     0.002 A 
ATOM     21  C   UNL A   1      33.822  22.314  27.831  1.00  0.00     0.000 A 
ENDBRANCH  11  13
ENDBRANCH   9  11
ENDBRANCH   8   9
ENDBRANCH   7   8
ENDBRANCH   6   7
ENDBRANCH   5   6
ENDBRANCH   4   5
ENDBRANCH   3   4
ENDBRANCH   2   3
ENDBRANCH   1   2
BRANCH   1  22
ATOM     22  C   UNL A   1      33.422  30.256  26.933  1.00  0.00     0.188 C 
BRANCH  22  23
ATOM     23  O   UNL A   1      32.264  30.990  27.334  1.00  0.00    -0.376 OA
BRANCH  23  24
ATOM     24  C   UNL A   1      31.828  32.093  26.545  1.00  0.00     0.202 C 
BRANCH  24  25
ATOM     25  C   UNL A   1      32.086  33.516  27.044  1.00  0.00     0.261 C 
BRANCH  25  26
ATOM     26  O   UNL A   1      32.543  33.549  28.407  1.00  0.00    -0.460 OA
BRANCH  26  27
ATOM     27  C   UNL A   1      33.697  34.227  28.591  1.00  0.00     0.338 C 
ATOM     28  O   UNL A   1      33.810  35.422  28.843  1.00  0.00    -0.246 OA
BRANCH  27  29
ATOM     29  C   UNL A   1      34.836  33.300  28.658  1.00  0.00     0.060 A 
ATOM     30  C   UNL A   1      34.647  32.113  29.376  1.00  0.00     0.016 A 
ATOM     31  C   UNL A   1      36.091  33.631  28.140  1.00  0.00     0.016 A 
ATOM     32  C   UNL A   1      35.725  31.285  29.650  1.00  0.00     0.010 A 
ATOM     33  C   UNL A   1      37.182  32.807  28.438  1.00  0.00     0.010 A 
ATOM     34  C   UNL A   1      37.008  31.665  29.242  1.00  0.00    -0.014 A 
BRANCH  34  35
ATOM     35  C   UNL A   1      38.164  31.001  29.885  1.00  0.00     0.031 A 
ATOM     36  C   UNL A   1      38.459  31.328  31.324  1.00  0.00     0.074 A 
ATOM     37  C   UNL A   1      38.862  30.051  29.238  1.00  0.00     0.049 A 
ATOM     38  N   UNL A   1      39.415  30.889  32.099  1.00  0.00    -0.248 NA
ATOM     39  C   UNL A   1      37.545  32.279  31.978  1.00  0.00     0.031 C 
ATOM     40  C   UNL A   1      38.600  29.596  27.874  1.00  0.00     0.029 A 
ATOM     41  N   UNL A   1      39.930  29.296  29.648  1.00  0.00    -0.354 N 
ATOM     42  C   UNL A   1      39.218  31.507  33.329  1.00  0.00     0.074 A 
ATOM     43  C   UNL A   1      38.078  32.386  33.185  1.00  0.00     0.031 C 
ATOM     44  C   UNL A   1      39.494  28.645  27.556  1.00  0.00     0.029 A 
ATOM     45  C   UNL A   1      40.415  28.457  28.674  1.00  0.00     0.049 A 
ATOM     46  H   UNL A   1      40.312  29.348  30.554  1.00  0.00     0.167 HD
ATOM     47  C   UNL A   1      39.920  31.347  34.478  1.00  0.00     0.034 A 
ATOM     48  C   UNL A   1      41.502  27.658  28.679  1.00  0.00     0.034 A 
ATOM     49  C   UNL A   1      41.061  30.474  34.594  1.00  0.00     0.049 A 
ATOM     50  C   UNL A   1      42.338  27.579  29.934  1.00  0.00     0.074 A 
ATOM     51  C   UNL A   1      41.864  30.245  35.697  1.00  0.00     0.029 A 
ATOM     52  N   UNL A   1      41.570  29.691  33.565  1.00  0.00    -0.354 N 
ATOM     53  N   UNL A   1      42.163  28.193  31.084  1.00  0.00    -0.248 NA
ATOM     54  C   UNL A   1      43.510  26.697  29.896  1.00  0.00     0.031 C 
ATOM     55  C   UNL A   1      42.900  29.390  35.314  1.00  0.00     0.029 A 
ATOM     56  C   UNL A   1      42.694  29.006  33.998  1.00  0.00     0.049 A 
ATOM     57  H   UNL A   1      41.187  29.632  32.659  1.00  0.00     0.167 HD
ATOM     58  C   UNL A   1      43.188  27.742  31.914  1.00  0.00     0.074 A 
ATOM     59  C   UNL A   1      43.963  26.797  31.137  1.00  0.00     0.031 C 
ATOM     60  C   UNL A   1      43.461  28.075  33.203  1.00  0.00     0.034 A 
BRANCH  47  61
ATOM     61  C   UNL A   1      39.504  32.176  35.669  1.00  0.00     0.023 A 
ATOM     62  C   UNL A   1      38.740  31.638  36.721  1.00  0.00     0.031 A 
ATOM     63  C   UNL A   1      39.853  33.537  35.740  1.00  0.00     0.131 A 
ATOM     64  C   UNL A   1      38.298  32.470  37.761  1.00  0.00     0.055 A 
ATOM     65  C   UNL A   1      39.479  34.339  36.819  1.00  0.00     0.041 A 
ATOM     66  F   UNL A   1      40.555  34.115  34.752  1.00  0.00    -0.206 F 
ATOM     67  C   UNL A   1      38.685  33.810  37.832  1.00  0.00     0.022 A 
BRANCH  64  68
ATOM     68  S   UNL A   1      37.089  31.813  38.944  1.00  0.00     0.124 S 
ATOM     69  O   UNL A   1      36.859  30.471  38.415  1.00  0.00    -0.237 OA
ATOM     70  O   UNL A   1      37.813  31.888  40.208  1.00  0.00    -0.237 OA
ATOM     71  O   UNL A   1      35.955  32.727  38.820  1.00  0.00    -0.744 OA
ENDBRANCH  64  68
ENDBRANCH  47  61
BRANCH  48  72
ATOM     72  C   UNL A   1      41.894  26.916  27.446  1.00  0.00     0.023 A 
ATOM     73  C   UNL A   1      41.723  25.528  27.338  1.00  0.00     0.031 A 
ATOM     74  C   UNL A   1      42.499  27.590  26.368  1.00  0.00     0.131 A 
ATOM     75  C   UNL A   1      42.193  24.852  26.200  1.00  0.00     0.055 A 
ATOM     76  C   UNL A   1      42.910  26.922  25.213  1.00  0.00     0.041 A 
ATOM     77  F   UNL A   1      42.693  28.918  26.420  1.00  0.00    -0.206 F 
ATOM     78  C   UNL A   1      42.768  25.542  25.131  1.00  0.00     0.022 A 
BRANCH  75  79
ATOM     79  S   UNL A   1      42.125  23.039  26.175  1.00  0.00     0.124 S 
ATOM     80  O   UNL A   1      42.825  22.701  27.409  1.00  0.00    -0.237 OA
ATOM     81  O   UNL A   1      40.688  22.791  26.163  1.00  0.00    -0.237 OA
ATOM     82  O   UNL A   1      42.827  22.690  24.942  1.00  0.00    -0.744 OA
ENDBRANCH  75  79
ENDBRANCH  48  72
BRANCH  60  83
ATOM     83  C   UNL A   1      44.621  27.370  33.866  1.00  0.00     0.023 A 
ATOM     84  C   UNL A   1      45.921  27.905  33.852  1.00  0.00     0.031 A 
ATOM     85  C   UNL A   1      44.418  26.142  34.522  1.00  0.00     0.131 A 
ATOM     86  C   UNL A   1      46.978  27.184  34.428  1.00  0.00     0.055 A 
ATOM     87  C   UNL A   1      45.461  25.466  35.156  1.00  0.00     0.041 A 
ATOM     88  F   UNL A   1      43.199  25.582  34.565  1.00  0.00    -0.206 F 
ATOM     89  C   UNL A   1      46.753  25.979  35.099  1.00  0.00     0.022 A 
BRANCH  86  90
ATOM     90  S   UNL A   1      48.671  27.793  34.198  1.00  0.00     0.124 S 
ATOM     91  O   UNL A   1      48.974  28.347  35.514  1.00  0.00    -0.237 OA
ATOM     92  O   UNL A   1      49.393  26.578  33.836  1.00  0.00    -0.237 OA
ATOM     93  O   UNL A   1      48.539  28.778  33.126  1.00  0.00    -0.744 OA
ENDBRANCH  86  90
ENDBRANCH  60  83
ENDBRANCH  34  35
ENDBRANCH  27  29
ENDBRANCH  26  27
ENDBRANCH  25  26
ENDBRANCH  24  25
ENDBRANCH  23  24
ENDBRANCH  22  23
ENDBRANCH   1  22
TORSDOF 24
ENDMDL
