MODEL 1
REMARK VINA RESULT:     -11.0      0.000      0.000
REMARK SMILES O=C(OCCOCCOCCOCCOC(=O)[C@@H](Cc1c[nH]c2ccccc12)NC(=O)c1ccc(F)cc1F)c1ccc(-c2c3nc(c(-c4cc(S(=O)(=O)[O-])ccc4F)c4ccc([nH]4)c(-c4cc(S(=O)(=O)[O-])ccc4F)c4nc(c(-c5cc(S(=O)(=O)[O-])ccc5F)c5ccc2[nH]5)C=C4)C=C3)cc1
REMARK SMILES IDX 8 1 7 2 6 3 5 4 4 5 3 6 2 7 1 8 40 9 41 10 102 11 42 12
REMARK SMILES IDX 101 13 43 14 44 15 45 16 95 17 46 18 100 19 94 20 96 21
REMARK SMILES IDX 47 22 99 23 93 24 92 25 48 27 80 28 60 29 79 30 61 31 64 32
REMARK SMILES IDX 78 33 97 34 62 35 63 36 77 38 98 39 65 40 49 41 50 42 58 43
REMARK SMILES IDX 51 44 57 45 59 46 56 47 52 48 53 49 54 50 55 51 81 52 82 53
REMARK SMILES IDX 90 54 83 55 89 56 91 57 88 58 84 59 85 60 86 61 87 62 66 63
REMARK SMILES IDX 67 64 75 65 68 66 74 67 76 68 73 69 69 70 70 71 71 72 72 73
REMARK SMILES IDX 9 74 10 75 11 76 12 77 13 78 14 79 15 80 16 81 17 82 18 83
REMARK SMILES IDX 19 84 20 85 21 86 28 87 22 88 23 89 27 90 24 92 26 93 25 94
REMARK SMILES IDX 29 95 30 96 31 98 32 99 33 100 38 101 34 102 37 103 39 104
REMARK SMILES IDX 35 105 36 106
REMARK H PARENT 96 26 64 37 22 91 29 97
REMARK Flexibility Score: inf
ROOT
ATOM      1  C   UNL A   1      34.895  30.363  27.710  1.00  0.00     0.188 C 
ENDROOT
BRANCH   1   2
ATOM      2  C   UNL A   1      34.260  31.739  27.768  1.00  0.00     0.188 C 
BRANCH   2   3
ATOM      3  O   UNL A   1      32.895  31.672  27.375  1.00  0.00    -0.376 OA
BRANCH   3   4
ATOM      4  C   UNL A   1      32.215  32.925  27.407  1.00  0.00     0.202 C 
BRANCH   4   5
ATOM      5  C   UNL A   1      33.111  34.071  27.879  1.00  0.00     0.261 C 
BRANCH   5   6
ATOM      6  O   UNL A   1      32.600  34.712  29.060  1.00  0.00    -0.460 OA
BRANCH   6   7
ATOM      7  C   UNL A   1      33.236  34.930  30.240  1.00  0.00     0.338 C 
ATOM      8  O   UNL A   1      32.847  35.878  30.925  1.00  0.00    -0.246 OA
BRANCH   7   9
ATOM      9  C   UNL A   1      34.411  34.139  30.754  1.00  0.00     0.060 A 
ATOM     10  C   UNL A   1      34.352  33.082  31.664  1.00  0.00     0.016 A 
ATOM     11  C   UNL A   1      35.677  34.457  30.225  1.00  0.00     0.016 A 
ATOM     12  C   UNL A   1      35.474  32.357  32.033  1.00  0.00     0.010 A 
ATOM     13  C   UNL A   1      36.829  33.763  30.621  1.00  0.00     0.010 A 
ATOM     14  C   UNL A   1      36.721  32.721  31.545  1.00  0.00    -0.014 A 
BRANCH  14  15
ATOM     15  C   UNL A   1      37.878  32.162  32.262  1.00  0.00     0.031 A 
ATOM     16  C   UNL A   1      38.682  31.123  31.536  1.00  0.00     0.074 A 
ATOM     17  C   UNL A   1      38.310  32.733  33.399  1.00  0.00     0.049 A 
ATOM     18  N   UNL A   1      39.749  30.479  31.916  1.00  0.00    -0.248 NA
ATOM     19  C   UNL A   1      38.230  30.792  30.172  1.00  0.00     0.031 C 
ATOM     20  C   UNL A   1      37.685  33.886  34.050  1.00  0.00     0.029 A 
ATOM     21  N   UNL A   1      39.393  32.450  34.184  1.00  0.00    -0.354 N 
ATOM     22  C   UNL A   1      40.087  29.656  30.847  1.00  0.00     0.074 A 
ATOM     23  C   UNL A   1      39.113  29.882  29.804  1.00  0.00     0.031 C 
ATOM     24  C   UNL A   1      38.401  34.211  35.139  1.00  0.00     0.029 A 
ATOM     25  C   UNL A   1      39.489  33.252  35.297  1.00  0.00     0.049 A 
ATOM     26  H   UNL A   1      40.042  31.740  33.972  1.00  0.00     0.167 HD
ATOM     27  C   UNL A   1      41.114  28.779  30.760  1.00  0.00     0.034 A 
ATOM     28  C   UNL A   1      40.341  33.173  36.339  1.00  0.00     0.034 A 
ATOM     29  C   UNL A   1      42.030  28.561  31.850  1.00  0.00     0.049 A 
ATOM     30  C   UNL A   1      41.382  32.078  36.297  1.00  0.00     0.074 A 
ATOM     31  C   UNL A   1      43.030  27.617  31.973  1.00  0.00     0.029 A 
ATOM     32  N   UNL A   1      42.034  29.308  33.025  1.00  0.00    -0.354 N 
ATOM     33  N   UNL A   1      41.630  31.213  35.336  1.00  0.00    -0.248 NA
ATOM     34  C   UNL A   1      42.244  31.936  37.473  1.00  0.00     0.031 C 
ATOM     35  C   UNL A   1      43.596  27.755  33.247  1.00  0.00     0.029 A 
ATOM     36  C   UNL A   1      43.002  28.832  33.890  1.00  0.00     0.049 A 
ATOM     37  H   UNL A   1      41.436  30.066  33.213  1.00  0.00     0.167 HD
ATOM     38  C   UNL A   1      42.687  30.432  35.788  1.00  0.00     0.074 A 
ATOM     39  C   UNL A   1      43.043  30.947  37.097  1.00  0.00     0.031 C 
ATOM     40  C   UNL A   1      43.309  29.381  35.191  1.00  0.00     0.034 A 
BRANCH  27  41
ATOM     41  C   UNL A   1      41.173  27.932  29.514  1.00  0.00     0.023 A 
ATOM     42  C   UNL A   1      42.088  28.192  28.476  1.00  0.00     0.031 A 
ATOM     43  C   UNL A   1      40.201  26.938  29.299  1.00  0.00     0.131 A 
ATOM     44  C   UNL A   1      41.952  27.536  27.242  1.00  0.00     0.055 A 
ATOM     45  C   UNL A   1      40.125  26.230  28.098  1.00  0.00     0.041 A 
ATOM     46  F   UNL A   1      39.278  26.672  30.235  1.00  0.00    -0.206 F 
ATOM     47  C   UNL A   1      40.990  26.541  27.054  1.00  0.00     0.022 A 
BRANCH  44  48
ATOM     48  S   UNL A   1      42.926  28.126  25.828  1.00  0.00     0.124 S 
ATOM     49  O   UNL A   1      42.868  29.575  26.013  1.00  0.00    -0.237 OA
ATOM     50  O   UNL A   1      44.228  27.506  26.059  1.00  0.00    -0.237 OA
ATOM     51  O   UNL A   1      42.193  27.624  24.670  1.00  0.00    -0.744 OA
ENDBRANCH  44  48
ENDBRANCH  27  41
BRANCH  28  52
ATOM     52  C   UNL A   1      40.187  34.066  37.528  1.00  0.00     0.023 A 
ATOM     53  C   UNL A   1      39.459  33.672  38.663  1.00  0.00     0.031 A 
ATOM     54  C   UNL A   1      40.730  35.367  37.521  1.00  0.00     0.131 A 
ATOM     55  C   UNL A   1      39.263  34.577  39.721  1.00  0.00     0.055 A 
ATOM     56  C   UNL A   1      40.579  36.242  38.598  1.00  0.00     0.041 A 
ATOM     57  F   UNL A   1      41.423  35.809  36.460  1.00  0.00    -0.206 F 
ATOM     58  C   UNL A   1      39.831  35.853  39.702  1.00  0.00     0.022 A 
BRANCH  55  59
ATOM     59  S   UNL A   1      38.174  34.099  41.092  1.00  0.00     0.124 S 
ATOM     60  O   UNL A   1      37.591  35.381  41.470  1.00  0.00    -0.237 OA
ATOM     61  O   UNL A   1      37.275  33.149  40.447  1.00  0.00    -0.237 OA
ATOM     62  O   UNL A   1      39.092  33.519  42.071  1.00  0.00    -0.744 OA
ENDBRANCH  55  59
ENDBRANCH  28  52
BRANCH  40  63
ATOM     63  C   UNL A   1      44.454  28.762  35.948  1.00  0.00     0.023 A 
ATOM     64  C   UNL A   1      44.242  27.744  36.893  1.00  0.00     0.031 A 
ATOM     65  C   UNL A   1      45.770  29.195  35.713  1.00  0.00     0.131 A 
ATOM     66  C   UNL A   1      45.329  27.227  37.610  1.00  0.00     0.055 A 
ATOM     67  C   UNL A   1      46.853  28.634  36.386  1.00  0.00     0.041 A 
ATOM     68  F   UNL A   1      46.021  30.164  34.818  1.00  0.00    -0.206 F 
ATOM     69  C   UNL A   1      46.635  27.653  37.349  1.00  0.00     0.022 A 
BRANCH  66  70
ATOM     70  S   UNL A   1      45.003  26.049  38.948  1.00  0.00     0.124 S 
ATOM     71  O   UNL A   1      44.907  24.786  38.222  1.00  0.00    -0.237 OA
ATOM     72  O   UNL A   1      46.177  26.208  39.798  1.00  0.00    -0.237 OA
ATOM     73  O   UNL A   1      43.749  26.529  39.526  1.00  0.00    -0.744 OA
ENDBRANCH  66  70
ENDBRANCH  40  63
ENDBRANCH  14  15
ENDBRANCH   7   9
ENDBRANCH   6   7
ENDBRANCH   5   6
ENDBRANCH   4   5
ENDBRANCH   3   4
ENDBRANCH   2   3
ENDBRANCH   1   2
BRANCH   1  74
ATOM     74  O   UNL A   1      33.959  29.286  27.633  1.00  0.00    -0.377 OA
BRANCH  74  75
ATOM     75  C   UNL A   1      34.050  28.358  26.557  1.00  0.00     0.188 C 
BRANCH  75  76
ATOM     76  C   UNL A   1      33.527  28.773  25.178  1.00  0.00     0.188 C 
BRANCH  76  77
ATOM     77  O   UNL A   1      32.129  28.628  25.061  1.00  0.00    -0.376 OA
BRANCH  77  78
ATOM     78  C   UNL A   1      31.599  27.349  25.360  1.00  0.00     0.202 C 
BRANCH  78  79
ATOM     79  C   UNL A   1      30.678  26.608  24.360  1.00  0.00     0.261 C 
BRANCH  79  80
ATOM     80  O   UNL A   1      30.210  25.291  24.715  1.00  0.00    -0.462 OA
BRANCH  80  81
ATOM     81  C   UNL A   1      31.031  24.537  25.481  1.00  0.00     0.329 C 
ATOM     82  O   UNL A   1      30.942  24.495  26.709  1.00  0.00    -0.250 OA
BRANCH  81  83
ATOM     83  C   UNL A   1      32.023  23.611  24.735  1.00  0.00     0.197 C 
BRANCH  83  84
ATOM     84  C   UNL A   1      31.812  22.133  24.371  1.00  0.00     0.074 C 
BRANCH  84  85
ATOM     85  C   UNL A   1      32.798  21.071  24.736  1.00  0.00    -0.020 A 
ATOM     86  C   UNL A   1      33.769  21.077  25.714  1.00  0.00     0.087 A 
ATOM     87  C   UNL A   1      32.873  19.779  24.092  1.00  0.00     0.003 A 
ATOM     88  N   UNL A   1      34.472  19.899  25.628  1.00  0.00    -0.361 N 
ATOM     89  C   UNL A   1      33.965  19.102  24.629  1.00  0.00     0.046 A 
ATOM     90  C   UNL A   1      32.146  19.152  23.053  1.00  0.00     0.010 A 
ATOM     91  H   UNL A   1      35.234  19.659  26.204  1.00  0.00     0.166 HD
ATOM     92  C   UNL A   1      34.399  17.859  24.145  1.00  0.00     0.026 A 
ATOM     93  C   UNL A   1      32.565  17.910  22.558  1.00  0.00     0.001 A 
ATOM     94  C   UNL A   1      33.689  17.284  23.086  1.00  0.00     0.002 A 
ENDBRANCH  84  85
ENDBRANCH  83  84
BRANCH  83  95
ATOM     95  N   UNL A   1      32.532  24.344  23.553  1.00  0.00    -0.338 N 
ATOM     96  C   UNL A   1      33.830  24.594  23.181  1.00  0.00     0.254 C 
ATOM     97  H   UNL A   1      31.841  24.703  22.950  1.00  0.00     0.164 HD
ATOM     98  O   UNL A   1      34.058  25.348  22.239  1.00  0.00    -0.269 OA
BRANCH  96  99
ATOM     99  C   UNL A   1      34.956  23.917  23.857  1.00  0.00     0.075 A 
ATOM    100  C   UNL A   1      35.692  22.916  23.203  1.00  0.00     0.020 A 
ATOM    101  C   UNL A   1      35.352  24.346  25.125  1.00  0.00     0.138 A 
ATOM    102  C   UNL A   1      36.785  22.328  23.845  1.00  0.00     0.040 A 
ATOM    103  C   UNL A   1      36.449  23.771  25.762  1.00  0.00     0.079 A 
ATOM    104  F   UNL A   1      34.686  25.319  25.763  1.00  0.00    -0.206 F 
ATOM    105  C   UNL A   1      37.154  22.765  25.116  1.00  0.00     0.126 A 
ATOM    106  F   UNL A   1      38.218  22.214  25.714  1.00  0.00    -0.207 F 
ENDBRANCH  96  99
ENDBRANCH  83  95
ENDBRANCH  81  83
ENDBRANCH  80  81
ENDBRANCH  79  80
ENDBRANCH  78  79
ENDBRANCH  77  78
ENDBRANCH  76  77
ENDBRANCH  75  76
ENDBRANCH  74  75
ENDBRANCH   1  74
TORSDOF 27
ENDMDL
MODEL 2
REMARK VINA RESULT:     -10.5      1.964      7.475
REMARK SMILES O=C(OCCOCCOCCOCCOC(=O)[C@@H](Cc1c[nH]c2ccccc12)NC(=O)c1ccc(F)cc1F)c1ccc(-c2c3nc(c(-c4cc(S(=O)(=O)[O-])ccc4F)c4ccc([nH]4)c(-c4cc(S(=O)(=O)[O-])ccc4F)c4nc(c(-c5cc(S(=O)(=O)[O-])ccc5F)c5ccc2[nH]5)C=C4)C=C3)cc1
REMARK SMILES IDX 8 1 7 2 6 3 5 4 4 5 3 6 2 7 1 8 40 9 41 10 102 11 42 12
REMARK SMILES IDX 101 13 43 14 44 15 45 16 95 17 46 18 100 19 94 20 96 21
REMARK SMILES IDX 47 22 99 23 93 24 92 25 48 27 80 28 60 29 79 30 61 31 64 32
REMARK SMILES IDX 78 33 97 34 62 35 63 36 77 38 98 39 65 40 49 41 50 42 58 43
REMARK SMILES IDX 51 44 57 45 59 46 56 47 52 48 53 49 54 50 55 51 81 52 82 53
REMARK SMILES IDX 90 54 83 55 89 56 91 57 88 58 84 59 85 60 86 61 87 62 66 63
REMARK SMILES IDX 67 64 75 65 68 66 74 67 76 68 73 69 69 70 70 71 71 72 72 73
REMARK SMILES IDX 9 74 10 75 11 76 12 77 13 78 14 79 15 80 16 81 17 82 18 83
REMARK SMILES IDX 19 84 20 85 21 86 28 87 22 88 23 89 27 90 24 92 26 93 25 94
REMARK SMILES IDX 29 95 30 96 31 98 32 99 33 100 38 101 34 102 37 103 39 104
REMARK SMILES IDX 35 105 36 106
REMARK H PARENT 96 26 64 37 22 91 29 97
REMARK Flexibility Score: inf
ROOT
ATOM      1  C   UNL A   1      34.653  30.282  27.510  1.00  0.00     0.188 C 
ENDROOT
BRANCH   1   2
ATOM      2  C   UNL A   1      33.974  31.638  27.500  1.00  0.00     0.188 C 
BRANCH   2   3
ATOM      3  O   UNL A   1      32.574  31.489  27.296  1.00  0.00    -0.376 OA
BRANCH   3   4
ATOM      4  C   UNL A   1      31.846  32.715  27.320  1.00  0.00     0.202 C 
BRANCH   4   5
ATOM      5  C   UNL A   1      32.758  33.941  27.403  1.00  0.00     0.261 C 
BRANCH   5   6
ATOM      6  O   UNL A   1      32.569  34.680  28.621  1.00  0.00    -0.460 OA
BRANCH   6   7
ATOM      7  C   UNL A   1      33.422  34.803  29.670  1.00  0.00     0.338 C 
ATOM      8  O   UNL A   1      33.257  35.765  30.423  1.00  0.00    -0.246 OA
BRANCH   7   9
ATOM      9  C   UNL A   1      34.583  33.888  29.958  1.00  0.00     0.060 A 
ATOM     10  C   UNL A   1      34.537  32.719  30.722  1.00  0.00     0.016 A 
ATOM     11  C   UNL A   1      35.816  34.209  29.357  1.00  0.00     0.016 A 
ATOM     12  C   UNL A   1      35.637  31.893  30.880  1.00  0.00     0.010 A 
ATOM     13  C   UNL A   1      36.950  33.408  29.544  1.00  0.00     0.010 A 
ATOM     14  C   UNL A   1      36.857  32.254  30.327  1.00  0.00    -0.014 A 
BRANCH  14  15
ATOM     15  C   UNL A   1      38.034  31.542  30.848  1.00  0.00     0.031 A 
ATOM     16  C   UNL A   1      38.393  31.795  32.283  1.00  0.00     0.074 A 
ATOM     17  C   UNL A   1      38.595  30.551  30.136  1.00  0.00     0.049 A 
ATOM     18  N   UNL A   1      39.360  31.296  33.000  1.00  0.00    -0.248 NA
ATOM     19  C   UNL A   1      37.510  32.719  33.018  1.00  0.00     0.031 C 
ATOM     20  C   UNL A   1      38.154  30.117  28.808  1.00  0.00     0.029 A 
ATOM     21  N   UNL A   1      39.624  29.703  30.442  1.00  0.00    -0.354 N 
ATOM     22  C   UNL A   1      39.212  31.857  34.264  1.00  0.00     0.074 A 
ATOM     23  C   UNL A   1      38.064  32.731  34.217  1.00  0.00     0.031 C 
ATOM     24  C   UNL A   1      38.914  29.080  28.415  1.00  0.00     0.029 A 
ATOM     25  C   UNL A   1      39.930  28.824  29.430  1.00  0.00     0.049 A 
ATOM     26  H   UNL A   1      40.099  29.721  31.304  1.00  0.00     0.167 HD
ATOM     27  C   UNL A   1      39.984  31.664  35.359  1.00  0.00     0.034 A 
ATOM     28  C   UNL A   1      40.951  27.949  29.335  1.00  0.00     0.034 A 
ATOM     29  C   UNL A   1      41.146  30.814  35.338  1.00  0.00     0.049 A 
ATOM     30  C   UNL A   1      41.899  27.867  30.510  1.00  0.00     0.074 A 
ATOM     31  C   UNL A   1      42.105  30.621  36.313  1.00  0.00     0.029 A 
ATOM     32  N   UNL A   1      41.509  30.017  34.254  1.00  0.00    -0.354 N 
ATOM     33  N   UNL A   1      41.832  28.488  31.668  1.00  0.00    -0.248 NA
ATOM     34  C   UNL A   1      43.061  26.984  30.365  1.00  0.00     0.031 C 
ATOM     35  C   UNL A   1      43.078  29.757  35.794  1.00  0.00     0.029 A 
ATOM     36  C   UNL A   1      42.689  29.351  34.525  1.00  0.00     0.049 A 
ATOM     37  H   UNL A   1      40.998  29.939  33.417  1.00  0.00     0.167 HD
ATOM     38  C   UNL A   1      42.937  28.061  32.396  1.00  0.00     0.074 A 
ATOM     39  C   UNL A   1      43.637  27.110  31.551  1.00  0.00     0.031 C 
ATOM     40  C   UNL A   1      43.349  28.417  33.641  1.00  0.00     0.034 A 
BRANCH  27  41
ATOM     41  C   UNL A   1      39.652  32.495  36.573  1.00  0.00     0.023 A 
ATOM     42  C   UNL A   1      38.785  32.032  37.581  1.00  0.00     0.031 A 
ATOM     43  C   UNL A   1      40.096  33.827  36.650  1.00  0.00     0.131 A 
ATOM     44  C   UNL A   1      38.317  32.919  38.564  1.00  0.00     0.055 A 
ATOM     45  C   UNL A   1      39.693  34.681  37.678  1.00  0.00     0.041 A 
ATOM     46  F   UNL A   1      40.892  34.337  35.698  1.00  0.00    -0.206 F 
ATOM     47  C   UNL A   1      38.783  34.235  38.632  1.00  0.00     0.022 A 
BRANCH  44  48
ATOM     48  S   UNL A   1      36.956  32.389  39.642  1.00  0.00     0.124 S 
ATOM     49  O   UNL A   1      37.187  30.948  39.722  1.00  0.00    -0.237 OA
ATOM     50  O   UNL A   1      37.208  33.144  40.866  1.00  0.00    -0.237 OA
ATOM     51  O   UNL A   1      35.759  32.781  38.903  1.00  0.00    -0.744 OA
ENDBRANCH  44  48
ENDBRANCH  27  41
BRANCH  28  52
ATOM     52  C   UNL A   1      41.188  27.175  28.079  1.00  0.00     0.023 A 
ATOM     53  C   UNL A   1      40.941  25.794  27.999  1.00  0.00     0.031 A 
ATOM     54  C   UNL A   1      41.726  27.807  26.939  1.00  0.00     0.131 A 
ATOM     55  C   UNL A   1      41.264  25.089  26.826  1.00  0.00     0.055 A 
ATOM     56  C   UNL A   1      41.993  27.113  25.758  1.00  0.00     0.041 A 
ATOM     57  F   UNL A   1      42.000  29.121  26.957  1.00  0.00    -0.206 F 
ATOM     58  C   UNL A   1      41.774  25.742  25.701  1.00  0.00     0.022 A 
BRANCH  55  59
ATOM     59  S   UNL A   1      41.095  23.282  26.816  1.00  0.00     0.124 S 
ATOM     60  O   UNL A   1      41.492  22.939  28.177  1.00  0.00    -0.237 OA
ATOM     61  O   UNL A   1      39.683  23.112  26.495  1.00  0.00    -0.237 OA
ATOM     62  O   UNL A   1      42.026  22.859  25.771  1.00  0.00    -0.744 OA
ENDBRANCH  55  59
ENDBRANCH  28  52
BRANCH  40  63
ATOM     63  C   UNL A   1      44.591  27.740  34.156  1.00  0.00     0.023 A 
ATOM     64  C   UNL A   1      44.528  26.518  34.845  1.00  0.00     0.031 A 
ATOM     65  C   UNL A   1      45.851  28.327  33.946  1.00  0.00     0.131 A 
ATOM     66  C   UNL A   1      45.703  25.944  35.349  1.00  0.00     0.055 A 
ATOM     67  C   UNL A   1      47.022  27.720  34.397  1.00  0.00     0.041 A 
ATOM     68  F   UNL A   1      45.961  29.493  33.291  1.00  0.00    -0.206 F 
ATOM     69  C   UNL A   1      46.950  26.529  35.114  1.00  0.00     0.022 A 
BRANCH  66  70
ATOM     70  S   UNL A   1      45.568  24.467  36.389  1.00  0.00     0.124 S 
ATOM     71  O   UNL A   1      44.681  23.620  35.599  1.00  0.00    -0.237 OA
ATOM     72  O   UNL A   1      46.955  24.024  36.484  1.00  0.00    -0.237 OA
ATOM     73  O   UNL A   1      44.995  24.977  37.634  1.00  0.00    -0.744 OA
ENDBRANCH  66  70
ENDBRANCH  40  63
ENDBRANCH  14  15
ENDBRANCH   7   9
ENDBRANCH   6   7
ENDBRANCH   5   6
ENDBRANCH   4   5
ENDBRANCH   3   4
ENDBRANCH   2   3
ENDBRANCH   1   2
BRANCH   1  74
ATOM     74  O   UNL A   1      33.753  29.173  27.488  1.00  0.00    -0.377 OA
BRANCH  74  75
ATOM     75  C   UNL A   1      33.545  28.467  26.270  1.00  0.00     0.188 C 
BRANCH  75  76
ATOM     76  C   UNL A   1      33.488  29.258  24.958  1.00  0.00     0.188 C 
BRANCH  76  77
ATOM     77  O   UNL A   1      32.175  29.635  24.608  1.00  0.00    -0.376 OA
BRANCH  77  78
ATOM     78  C   UNL A   1      31.243  28.584  24.429  1.00  0.00     0.202 C 
BRANCH  78  79
ATOM     79  C   UNL A   1      30.932  28.018  23.021  1.00  0.00     0.261 C 
BRANCH  79  80
ATOM     80  O   UNL A   1      29.948  26.970  22.913  1.00  0.00    -0.462 OA
BRANCH  80  81
ATOM     81  C   UNL A   1      30.016  25.972  23.823  1.00  0.00     0.329 C 
ATOM     82  O   UNL A   1      29.294  25.930  24.820  1.00  0.00    -0.250 OA
BRANCH  81  83
ATOM     83  C   UNL A   1      30.964  24.792  23.493  1.00  0.00     0.197 C 
BRANCH  83  84
ATOM     84  C   UNL A   1      30.615  23.295  23.505  1.00  0.00     0.074 C 
BRANCH  84  85
ATOM     85  C   UNL A   1      31.600  22.249  23.915  1.00  0.00    -0.020 A 
ATOM     86  C   UNL A   1      32.058  21.154  23.213  1.00  0.00     0.087 A 
ATOM     87  C   UNL A   1      32.288  22.237  25.186  1.00  0.00     0.003 A 
ATOM     88  N   UNL A   1      32.909  20.448  24.028  1.00  0.00    -0.361 N 
ATOM     89  C   UNL A   1      33.044  21.070  25.247  1.00  0.00     0.046 A 
ATOM     90  C   UNL A   1      32.282  23.086  26.318  1.00  0.00     0.010 A 
ATOM     91  H   UNL A   1      33.360  19.610  23.774  1.00  0.00     0.166 HD
ATOM     92  C   UNL A   1      33.749  20.682  26.396  1.00  0.00     0.026 A 
ATOM     93  C   UNL A   1      32.981  22.715  27.474  1.00  0.00     0.001 A 
ATOM     94  C   UNL A   1      33.688  21.517  27.516  1.00  0.00     0.002 A 
ENDBRANCH  84  85
ENDBRANCH  83  84
BRANCH  83  95
ATOM     95  N   UNL A   1      31.685  25.122  22.242  1.00  0.00    -0.338 N 
ATOM     96  C   UNL A   1      33.036  25.131  21.998  1.00  0.00     0.254 C 
ATOM     97  H   UNL A   1      31.114  25.370  21.479  1.00  0.00     0.164 HD
ATOM     98  O   UNL A   1      33.459  25.574  20.934  1.00  0.00    -0.269 OA
BRANCH  96  99
ATOM     99  C   UNL A   1      33.987  24.554  22.972  1.00  0.00     0.075 A 
ATOM    100  C   UNL A   1      34.751  23.422  22.649  1.00  0.00     0.020 A 
ATOM    101  C   UNL A   1      34.195  25.202  24.191  1.00  0.00     0.138 A 
ATOM    102  C   UNL A   1      35.681  22.928  23.568  1.00  0.00     0.040 A 
ATOM    103  C   UNL A   1      35.130  24.718  25.104  1.00  0.00     0.079 A 
ATOM    104  F   UNL A   1      33.500  26.301  24.516  1.00  0.00    -0.206 F 
ATOM    105  C   UNL A   1      35.863  23.583  24.783  1.00  0.00     0.126 A 
ATOM    106  F   UNL A   1      36.773  23.118  25.648  1.00  0.00    -0.207 F 
ENDBRANCH  96  99
ENDBRANCH  83  95
ENDBRANCH  81  83
ENDBRANCH  80  81
ENDBRANCH  79  80
ENDBRANCH  78  79
ENDBRANCH  77  78
ENDBRANCH  76  77
ENDBRANCH  75  76
ENDBRANCH  74  75
ENDBRANCH   1  74
TORSDOF 27
ENDMDL
MODEL 3
REMARK VINA RESULT:     -10.4      2.054      3.078
REMARK SMILES O=C(OCCOCCOCCOCCOC(=O)[C@@H](Cc1c[nH]c2ccccc12)NC(=O)c1ccc(F)cc1F)c1ccc(-c2c3nc(c(-c4cc(S(=O)(=O)[O-])ccc4F)c4ccc([nH]4)c(-c4cc(S(=O)(=O)[O-])ccc4F)c4nc(c(-c5cc(S(=O)(=O)[O-])ccc5F)c5ccc2[nH]5)C=C4)C=C3)cc1
REMARK SMILES IDX 8 1 7 2 6 3 5 4 4 5 3 6 2 7 1 8 40 9 41 10 102 11 42 12
REMARK SMILES IDX 101 13 43 14 44 15 45 16 95 17 46 18 100 19 94 20 96 21
REMARK SMILES IDX 47 22 99 23 93 24 92 25 48 27 80 28 60 29 79 30 61 31 64 32
REMARK SMILES IDX 78 33 97 34 62 35 63 36 77 38 98 39 65 40 49 41 50 42 58 43
REMARK SMILES IDX 51 44 57 45 59 46 56 47 52 48 53 49 54 50 55 51 81 52 82 53
REMARK SMILES IDX 90 54 83 55 89 56 91 57 88 58 84 59 85 60 86 61 87 62 66 63
REMARK SMILES IDX 67 64 75 65 68 66 74 67 76 68 73 69 69 70 70 71 71 72 72 73
REMARK SMILES IDX 9 74 10 75 11 76 12 77 13 78 14 79 15 80 16 81 17 82 18 83
REMARK SMILES IDX 19 84 20 85 21 86 28 87 22 88 23 89 27 90 24 92 26 93 25 94
REMARK SMILES IDX 29 95 30 96 31 98 32 99 33 100 38 101 34 102 37 103 39 104
REMARK SMILES IDX 35 105 36 106
REMARK H PARENT 96 26 64 37 22 91 29 97
REMARK Flexibility Score: inf
ROOT
ATOM      1  C   UNL A   1      33.068  30.068  25.957  1.00  0.00     0.188 C 
ENDROOT
BRANCH   1   2
ATOM      2  C   UNL A   1      32.603  30.859  27.165  1.00  0.00     0.188 C 
BRANCH   2   3
ATOM      3  O   UNL A   1      31.453  31.630  26.838  1.00  0.00    -0.376 OA
BRANCH   3   4
ATOM      4  C   UNL A   1      31.689  33.035  26.775  1.00  0.00     0.202 C 
BRANCH   4   5
ATOM      5  C   UNL A   1      32.952  33.455  27.529  1.00  0.00     0.261 C 
BRANCH   5   6
ATOM      6  O   UNL A   1      32.691  34.483  28.500  1.00  0.00    -0.460 OA
BRANCH   6   7
ATOM      7  C   UNL A   1      33.380  34.759  29.637  1.00  0.00     0.338 C 
ATOM      8  O   UNL A   1      33.058  35.772  30.261  1.00  0.00    -0.246 OA
BRANCH   7   9
ATOM      9  C   UNL A   1      34.539  33.956  30.169  1.00  0.00     0.060 A 
ATOM     10  C   UNL A   1      34.459  32.916  31.097  1.00  0.00     0.016 A 
ATOM     11  C   UNL A   1      35.812  34.243  29.639  1.00  0.00     0.016 A 
ATOM     12  C   UNL A   1      35.566  32.178  31.482  1.00  0.00     0.010 A 
ATOM     13  C   UNL A   1      36.950  33.535  30.050  1.00  0.00     0.010 A 
ATOM     14  C   UNL A   1      36.821  32.511  30.992  1.00  0.00    -0.014 A 
BRANCH  14  15
ATOM     15  C   UNL A   1      37.966  31.944  31.722  1.00  0.00     0.031 A 
ATOM     16  C   UNL A   1      38.736  30.859  31.028  1.00  0.00     0.074 A 
ATOM     17  C   UNL A   1      38.419  32.540  32.838  1.00  0.00     0.049 A 
ATOM     18  N   UNL A   1      39.786  30.198  31.425  1.00  0.00    -0.248 NA
ATOM     19  C   UNL A   1      38.268  30.496  29.678  1.00  0.00     0.031 C 
ATOM     20  C   UNL A   1      37.830  33.732  33.452  1.00  0.00     0.029 A 
ATOM     21  N   UNL A   1      39.498  32.253  33.627  1.00  0.00    -0.354 N 
ATOM     22  C   UNL A   1      40.096  29.331  30.383  1.00  0.00     0.074 A 
ATOM     23  C   UNL A   1      39.124  29.549  29.337  1.00  0.00     0.031 C 
ATOM     24  C   UNL A   1      38.561  34.073  34.527  1.00  0.00     0.029 A 
ATOM     25  C   UNL A   1      39.622  33.089  34.712  1.00  0.00     0.049 A 
ATOM     26  H   UNL A   1      40.126  31.519  33.437  1.00  0.00     0.167 HD
ATOM     27  C   UNL A   1      41.097  28.423  30.321  1.00  0.00     0.034 A 
ATOM     28  C   UNL A   1      40.477  33.021  35.753  1.00  0.00     0.034 A 
ATOM     29  C   UNL A   1      42.012  28.215  31.414  1.00  0.00     0.049 A 
ATOM     30  C   UNL A   1      41.486  31.895  35.743  1.00  0.00     0.074 A 
ATOM     31  C   UNL A   1      42.986  27.248  31.565  1.00  0.00     0.029 A 
ATOM     32  N   UNL A   1      42.044  29.001  32.563  1.00  0.00    -0.354 N 
ATOM     33  N   UNL A   1      41.705  30.993  34.810  1.00  0.00    -0.248 NA
ATOM     34  C   UNL A   1      42.350  31.768  36.920  1.00  0.00     0.031 C 
ATOM     35  C   UNL A   1      43.563  27.413  32.831  1.00  0.00     0.029 A 
ATOM     36  C   UNL A   1      43.002  28.527  33.440  1.00  0.00     0.049 A 
ATOM     37  H   UNL A   1      41.468  29.782  32.728  1.00  0.00     0.167 HD
ATOM     38  C   UNL A   1      42.742  30.197  35.284  1.00  0.00     0.074 A 
ATOM     39  C   UNL A   1      43.119  30.746  36.574  1.00  0.00     0.031 C 
ATOM     40  C   UNL A   1      43.332  29.110  34.720  1.00  0.00     0.034 A 
BRANCH  27  41
ATOM     41  C   UNL A   1      41.126  27.533  29.104  1.00  0.00     0.023 A 
ATOM     42  C   UNL A   1      42.050  27.726  28.059  1.00  0.00     0.031 A 
ATOM     43  C   UNL A   1      40.120  26.567  28.921  1.00  0.00     0.131 A 
ATOM     44  C   UNL A   1      41.890  27.035  26.847  1.00  0.00     0.055 A 
ATOM     45  C   UNL A   1      40.018  25.823  27.745  1.00  0.00     0.041 A 
ATOM     46  F   UNL A   1      39.188  26.365  29.865  1.00  0.00    -0.206 F 
ATOM     47  C   UNL A   1      40.894  26.068  26.692  1.00  0.00     0.022 A 
BRANCH  44  48
ATOM     48  S   UNL A   1      42.884  27.543  25.415  1.00  0.00     0.124 S 
ATOM     49  O   UNL A   1      44.101  28.034  26.059  1.00  0.00    -0.237 OA
ATOM     50  O   UNL A   1      43.018  26.298  24.664  1.00  0.00    -0.237 OA
ATOM     51  O   UNL A   1      42.067  28.571  24.776  1.00  0.00    -0.744 OA
ENDBRANCH  44  48
ENDBRANCH  27  41
BRANCH  28  52
ATOM     52  C   UNL A   1      40.355  33.956  36.912  1.00  0.00     0.023 A 
ATOM     53  C   UNL A   1      41.282  34.988  37.134  1.00  0.00     0.031 A 
ATOM     54  C   UNL A   1      39.323  33.794  37.858  1.00  0.00     0.131 A 
ATOM     55  C   UNL A   1      41.181  35.788  38.286  1.00  0.00     0.055 A 
ATOM     56  C   UNL A   1      39.195  34.626  38.972  1.00  0.00     0.041 A 
ATOM     57  F   UNL A   1      38.414  32.816  37.712  1.00  0.00    -0.206 F 
ATOM     58  C   UNL A   1      40.136  35.623  39.198  1.00  0.00     0.022 A 
BRANCH  55  59
ATOM     59  S   UNL A   1      42.492  36.995  38.631  1.00  0.00     0.124 S 
ATOM     60  O   UNL A   1      41.750  38.055  39.305  1.00  0.00    -0.237 OA
ATOM     61  O   UNL A   1      43.405  36.220  39.463  1.00  0.00    -0.237 OA
ATOM     62  O   UNL A   1      42.999  37.337  37.304  1.00  0.00    -0.744 OA
ENDBRANCH  55  59
ENDBRANCH  28  52
BRANCH  40  63
ATOM     63  C   UNL A   1      44.462  28.484  35.493  1.00  0.00     0.023 A 
ATOM     64  C   UNL A   1      44.256  27.366  36.318  1.00  0.00     0.031 A 
ATOM     65  C   UNL A   1      45.760  29.014  35.394  1.00  0.00     0.131 A 
ATOM     66  C   UNL A   1      45.324  26.843  37.056  1.00  0.00     0.055 A 
ATOM     67  C   UNL A   1      46.831  28.451  36.085  1.00  0.00     0.041 A 
ATOM     68  F   UNL A   1      46.006  30.080  34.617  1.00  0.00    -0.206 F 
ATOM     69  C   UNL A   1      46.614  27.367  36.931  1.00  0.00     0.022 A 
BRANCH  66  70
ATOM     70  S   UNL A   1      44.989  25.519  38.248  1.00  0.00     0.124 S 
ATOM     71  O   UNL A   1      43.724  24.983  37.755  1.00  0.00    -0.237 OA
ATOM     72  O   UNL A   1      46.153  24.655  38.092  1.00  0.00    -0.237 OA
ATOM     73  O   UNL A   1      44.908  26.224  39.526  1.00  0.00    -0.744 OA
ENDBRANCH  66  70
ENDBRANCH  40  63
ENDBRANCH  14  15
ENDBRANCH   7   9
ENDBRANCH   6   7
ENDBRANCH   5   6
ENDBRANCH   4   5
ENDBRANCH   3   4
ENDBRANCH   2   3
ENDBRANCH   1   2
BRANCH   1  74
ATOM     74  O   UNL A   1      32.037  29.771  25.015  1.00  0.00    -0.377 OA
BRANCH  74  75
ATOM     75  C   UNL A   1      32.031  28.506  24.362  1.00  0.00     0.188 C 
BRANCH  75  76
ATOM     76  C   UNL A   1      32.264  28.456  22.848  1.00  0.00     0.188 C 
BRANCH  76  77
ATOM     77  O   UNL A   1      31.460  27.492  22.206  1.00  0.00    -0.376 OA
BRANCH  77  78
ATOM     78  C   UNL A   1      31.515  26.176  22.726  1.00  0.00     0.202 C 
BRANCH  78  79
ATOM     79  C   UNL A   1      32.390  25.086  22.060  1.00  0.00     0.261 C 
BRANCH  79  80
ATOM     80  O   UNL A   1      32.464  23.793  22.694  1.00  0.00    -0.462 OA
BRANCH  80  81
ATOM     81  C   UNL A   1      33.697  23.333  23.002  1.00  0.00     0.329 C 
ATOM     82  O   UNL A   1      34.621  23.307  22.188  1.00  0.00    -0.250 OA
BRANCH  81  83
ATOM     83  C   UNL A   1      33.947  22.951  24.482  1.00  0.00     0.197 C 
BRANCH  83  84
ATOM     84  C   UNL A   1      34.906  23.642  25.466  1.00  0.00     0.074 C 
BRANCH  84  85
ATOM     85  C   UNL A   1      36.310  23.176  25.673  1.00  0.00    -0.020 A 
ATOM     86  C   UNL A   1      37.414  23.884  26.100  1.00  0.00     0.087 A 
ATOM     87  C   UNL A   1      36.751  21.814  25.469  1.00  0.00     0.003 A 
ATOM     88  N   UNL A   1      38.499  23.042  26.075  1.00  0.00    -0.361 N 
ATOM     89  C   UNL A   1      38.129  21.782  25.666  1.00  0.00     0.046 A 
ATOM     90  C   UNL A   1      36.107  20.620  25.070  1.00  0.00     0.010 A 
ATOM     91  H   UNL A   1      39.417  23.305  26.316  1.00  0.00     0.166 HD
ATOM     92  C   UNL A   1      38.902  20.636  25.433  1.00  0.00     0.026 A 
ATOM     93  C   UNL A   1      36.863  19.464  24.833  1.00  0.00     0.001 A 
ATOM     94  C   UNL A   1      38.245  19.481  24.994  1.00  0.00     0.002 A 
ENDBRANCH  84  85
ENDBRANCH  83  84
BRANCH  83  95
ATOM     95  N   UNL A   1      32.631  22.753  25.132  1.00  0.00    -0.338 N 
ATOM     96  C   UNL A   1      31.829  21.639  25.141  1.00  0.00     0.254 C 
ATOM     97  H   UNL A   1      32.283  23.530  25.626  1.00  0.00     0.164 HD
ATOM     98  O   UNL A   1      30.698  21.708  25.614  1.00  0.00    -0.269 OA
BRANCH  96  99
ATOM     99  C   UNL A   1      32.330  20.339  24.648  1.00  0.00     0.075 A 
ATOM    100  C   UNL A   1      32.861  19.389  25.533  1.00  0.00     0.020 A 
ATOM    101  C   UNL A   1      32.185  20.016  23.297  1.00  0.00     0.138 A 
ATOM    102  C   UNL A   1      33.280  18.147  25.048  1.00  0.00     0.040 A 
ATOM    103  C   UNL A   1      32.590  18.775  22.813  1.00  0.00     0.079 A 
ATOM    104  F   UNL A   1      31.655  20.893  22.431  1.00  0.00    -0.206 F 
ATOM    105  C   UNL A   1      33.136  17.852  23.695  1.00  0.00     0.126 A 
ATOM    106  F   UNL A   1      33.518  16.651  23.242  1.00  0.00    -0.207 F 
ENDBRANCH  96  99
ENDBRANCH  83  95
ENDBRANCH  81  83
ENDBRANCH  80  81
ENDBRANCH  79  80
ENDBRANCH  78  79
ENDBRANCH  77  78
ENDBRANCH  76  77
ENDBRANCH  75  76
ENDBRANCH  74  75
ENDBRANCH   1  74
TORSDOF 27
ENDMDL
