MODEL 1
REMARK VINA RESULT:      -7.6      0.000      0.000
REMARK SMILES COCC[C@H](NC(=O)c1ccc(Br)nc1)C(=O)OCCOCCOCCOCCOC(=O)c1ccc(-c2c3nc(c(-c4cc(S(=O)(=O)[O-])ccc4F)c4ccc([nH]4)c(-c4cc(S(=O)(=O)[O-])ccc4F)c4nc(c(-c5cc(S(=O)(=O)[O-])ccc5F)c5ccc2[nH]5)C=C4)C=C3)cc1
REMARK SMILES IDX 24 1 23 2 22 3 21 4 20 5 19 6 18 7 16 8 17 9 5 10 4 11 3 12
REMARK SMILES IDX 2 13 1 14 6 15 7 16 8 18 9 19 10 20 15 21 11 22 14 23 12 24
REMARK SMILES IDX 13 25 25 26 26 27 27 28 28 29 29 30 30 31 31 32 32 33 33 34
REMARK SMILES IDX 34 35 95 36 35 37 94 38 36 39 37 40 38 41 88 42 39 43 93 44
REMARK SMILES IDX 87 45 89 46 40 47 92 48 86 49 85 50 41 52 73 53 53 54 72 55
REMARK SMILES IDX 54 56 57 57 71 58 90 59 55 60 56 61 70 63 91 64 58 65 42 66
REMARK SMILES IDX 43 67 51 68 44 69 50 70 52 71 49 72 45 73 46 74 47 75 48 76
REMARK SMILES IDX 74 77 75 78 83 79 76 80 82 81 84 82 81 83 77 84 78 85 79 86
REMARK SMILES IDX 80 87 59 88 60 89 68 90 61 91 67 92 69 93 66 94 62 95 63 96
REMARK SMILES IDX 64 97 65 98
REMARK H PARENT 6 17 89 51 57 62
REMARK Flexibility Score: inf
ROOT
ATOM      1  O   UNL A   1      38.124  28.245  30.137  1.00  0.00    -0.377 OA
ENDROOT
BRANCH   1   2
ATOM      2  C   UNL A   1      39.055  27.208  29.863  1.00  0.00     0.188 C 
BRANCH   2   3
ATOM      3  C   UNL A   1      39.841  27.079  28.540  1.00  0.00     0.188 C 
BRANCH   3   4
ATOM      4  O   UNL A   1      39.303  26.179  27.593  1.00  0.00    -0.376 OA
BRANCH   4   5
ATOM      5  C   UNL A   1      39.338  24.779  27.770  1.00  0.00     0.202 C 
BRANCH   5   6
ATOM      6  C   UNL A   1      39.075  23.837  26.577  1.00  0.00     0.261 C 
BRANCH   6   7
ATOM      7  O   UNL A   1      37.835  24.003  25.871  1.00  0.00    -0.462 OA
BRANCH   7   8
ATOM      8  C   UNL A   1      37.236  22.835  25.549  1.00  0.00     0.328 C 
ATOM      9  O   UNL A   1      37.868  21.813  25.309  1.00  0.00    -0.250 OA
BRANCH   8  10
ATOM     10  C   UNL A   1      35.704  22.912  25.441  1.00  0.00     0.194 C 
BRANCH  10  11
ATOM     11  C   UNL A   1      35.063  21.737  26.181  1.00  0.00     0.065 C 
BRANCH  11  12
ATOM     12  C   UNL A   1      33.978  20.984  25.409  1.00  0.00     0.162 C 
BRANCH  12  13
ATOM     13  O   UNL A   1      34.513  19.891  24.669  1.00  0.00    -0.385 OA
ATOM     14  C   UNL A   1      33.688  18.733  24.624  1.00  0.00     0.194 C 
ENDBRANCH  12  13
ENDBRANCH  11  12
ENDBRANCH  10  11
BRANCH  10  15
ATOM     15  N   UNL A   1      35.180  22.960  24.061  1.00  0.00    -0.338 N 
ATOM     16  C   UNL A   1      34.265  23.819  23.498  1.00  0.00     0.253 C 
ATOM     17  H   UNL A   1      35.539  22.275  23.453  1.00  0.00     0.164 HD
ATOM     18  O   UNL A   1      33.914  23.697  22.331  1.00  0.00    -0.269 OA
BRANCH  16  19
ATOM     19  C   UNL A   1      33.644  24.870  24.315  1.00  0.00     0.058 A 
ATOM     20  C   UNL A   1      34.027  26.208  24.254  1.00  0.00     0.018 A 
ATOM     21  C   UNL A   1      32.629  24.509  25.187  1.00  0.00     0.126 A 
ATOM     22  C   UNL A   1      33.457  27.111  25.150  1.00  0.00     0.037 A 
ATOM     23  N   UNL A   1      32.052  25.369  26.061  1.00  0.00    -0.249 NA
ATOM     24  C   UNL A   1      32.495  26.646  26.040  1.00  0.00     0.106 A 
ATOM     25  Br  UNL A   1      31.775  27.846  27.318  1.00  0.00    -0.029 Br
ENDBRANCH  16  19
ENDBRANCH  10  15
ENDBRANCH   8  10
ENDBRANCH   7   8
ENDBRANCH   6   7
ENDBRANCH   5   6
ENDBRANCH   4   5
ENDBRANCH   3   4
ENDBRANCH   2   3
ENDBRANCH   1   2
BRANCH   1  26
ATOM     26  C   UNL A   1      38.151  29.433  29.367  1.00  0.00     0.188 C 
BRANCH  26  27
ATOM     27  C   UNL A   1      37.252  29.424  28.118  1.00  0.00     0.188 C 
BRANCH  27  28
ATOM     28  O   UNL A   1      36.449  30.593  28.000  1.00  0.00    -0.376 OA
BRANCH  28  29
ATOM     29  C   UNL A   1      35.771  31.037  29.166  1.00  0.00     0.202 C 
BRANCH  29  30
ATOM     30  C   UNL A   1      35.257  32.488  29.230  1.00  0.00     0.261 C 
BRANCH  30  31
ATOM     31  O   UNL A   1      35.964  33.398  30.087  1.00  0.00    -0.460 OA
BRANCH  31  32
ATOM     32  C   UNL A   1      37.310  33.314  30.125  1.00  0.00     0.338 C 
ATOM     33  O   UNL A   1      38.069  33.365  29.171  1.00  0.00    -0.246 OA
BRANCH  32  34
ATOM     34  C   UNL A   1      37.727  33.397  31.543  1.00  0.00     0.060 A 
ATOM     35  C   UNL A   1      37.184  34.415  32.339  1.00  0.00     0.016 A 
ATOM     36  C   UNL A   1      38.610  32.465  32.095  1.00  0.00     0.016 A 
ATOM     37  C   UNL A   1      37.560  34.533  33.675  1.00  0.00     0.010 A 
ATOM     38  C   UNL A   1      39.012  32.603  33.429  1.00  0.00     0.010 A 
ATOM     39  C   UNL A   1      38.523  33.666  34.208  1.00  0.00    -0.014 A 
BRANCH  39  40
ATOM     40  C   UNL A   1      39.190  34.062  35.473  1.00  0.00     0.031 A 
ATOM     41  C   UNL A   1      40.378  34.983  35.379  1.00  0.00     0.074 A 
ATOM     42  C   UNL A   1      38.691  33.713  36.673  1.00  0.00     0.049 A 
ATOM     43  N   UNL A   1      41.077  35.543  36.330  1.00  0.00    -0.248 NA
ATOM     44  C   UNL A   1      40.831  35.320  34.019  1.00  0.00     0.031 C 
ATOM     45  C   UNL A   1      37.516  32.871  36.886  1.00  0.00     0.029 A 
ATOM     46  N   UNL A   1      39.106  34.040  37.940  1.00  0.00    -0.354 N 
ATOM     47  C   UNL A   1      42.047  36.306  35.686  1.00  0.00     0.074 A 
ATOM     48  C   UNL A   1      41.876  36.093  34.265  1.00  0.00     0.031 C 
ATOM     49  C   UNL A   1      37.298  32.756  38.208  1.00  0.00     0.029 A 
ATOM     50  C   UNL A   1      38.333  33.490  38.935  1.00  0.00     0.049 A 
ATOM     51  H   UNL A   1      39.884  34.616  38.119  1.00  0.00     0.167 HD
ATOM     52  C   UNL A   1      42.983  37.122  36.227  1.00  0.00     0.034 A 
ATOM     53  C   UNL A   1      38.457  33.565  40.277  1.00  0.00     0.034 A 
ATOM     54  C   UNL A   1      43.156  37.305  37.647  1.00  0.00     0.049 A 
ATOM     55  C   UNL A   1      39.568  34.408  40.860  1.00  0.00     0.074 A 
ATOM     56  C   UNL A   1      44.076  38.097  38.309  1.00  0.00     0.029 A 
ATOM     57  N   UNL A   1      42.399  36.674  38.628  1.00  0.00    -0.354 N 
ATOM     58  N   UNL A   1      40.476  35.131  40.241  1.00  0.00    -0.248 NA
ATOM     59  C   UNL A   1      39.656  34.461  42.324  1.00  0.00     0.031 C 
ATOM     60  C   UNL A   1      43.932  37.881  39.683  1.00  0.00     0.029 A 
ATOM     61  C   UNL A   1      42.855  37.035  39.887  1.00  0.00     0.049 A 
ATOM     62  H   UNL A   1      41.649  36.061  38.454  1.00  0.00     0.167 HD
ATOM     63  C   UNL A   1      41.215  35.755  41.245  1.00  0.00     0.074 A 
ATOM     64  C   UNL A   1      40.633  35.337  42.504  1.00  0.00     0.031 C 
ATOM     65  C   UNL A   1      42.274  36.600  41.137  1.00  0.00     0.034 A 
BRANCH  52  66
ATOM     66  C   UNL A   1      43.925  37.822  35.274  1.00  0.00     0.023 A 
ATOM     67  C   UNL A   1      43.597  39.048  34.668  1.00  0.00     0.031 A 
ATOM     68  C   UNL A   1      45.154  37.228  34.932  1.00  0.00     0.131 A 
ATOM     69  C   UNL A   1      44.450  39.603  33.701  1.00  0.00     0.055 A 
ATOM     70  C   UNL A   1      46.037  37.829  34.033  1.00  0.00     0.041 A 
ATOM     71  F   UNL A   1      45.510  36.043  35.452  1.00  0.00    -0.206 F 
ATOM     72  C   UNL A   1      45.680  39.016  33.401  1.00  0.00     0.022 A 
BRANCH  69  73
ATOM     73  S   UNL A   1      43.857  41.014  32.726  1.00  0.00     0.124 S 
ATOM     74  O   UNL A   1      42.413  40.930  32.934  1.00  0.00    -0.237 OA
ATOM     75  O   UNL A   1      44.529  42.140  33.362  1.00  0.00    -0.237 OA
ATOM     76  O   UNL A   1      44.303  40.705  31.370  1.00  0.00    -0.744 OA
ENDBRANCH  69  73
ENDBRANCH  52  66
BRANCH  53  77
ATOM     77  C   UNL A   1      37.531  32.807  41.169  1.00  0.00     0.023 A 
ATOM     78  C   UNL A   1      36.234  33.271  41.446  1.00  0.00     0.031 A 
ATOM     79  C   UNL A   1      37.958  31.633  41.815  1.00  0.00     0.131 A 
ATOM     80  C   UNL A   1      35.432  32.596  42.381  1.00  0.00     0.055 A 
ATOM     81  C   UNL A   1      37.137  30.932  42.699  1.00  0.00     0.041 A 
ATOM     82  F   UNL A   1      39.190  31.146  41.593  1.00  0.00    -0.206 F 
ATOM     83  C   UNL A   1      35.869  31.422  42.997  1.00  0.00     0.022 A 
BRANCH  80  84
ATOM     84  S   UNL A   1      33.840  33.327  42.855  1.00  0.00     0.124 S 
ATOM     85  O   UNL A   1      34.260  34.580  43.469  1.00  0.00    -0.237 OA
ATOM     86  O   UNL A   1      33.164  33.437  41.566  1.00  0.00    -0.237 OA
ATOM     87  O   UNL A   1      33.272  32.339  43.770  1.00  0.00    -0.744 OA
ENDBRANCH  80  84
ENDBRANCH  53  77
BRANCH  65  88
ATOM     88  C   UNL A   1      42.830  37.173  42.424  1.00  0.00     0.023 A 
ATOM     89  C   UNL A   1      42.380  38.397  42.950  1.00  0.00     0.031 A 
ATOM     90  C   UNL A   1      43.855  36.499  43.113  1.00  0.00     0.131 A 
ATOM     91  C   UNL A   1      43.015  38.951  44.072  1.00  0.00     0.055 A 
ATOM     92  C   UNL A   1      44.424  37.014  44.278  1.00  0.00     0.041 A 
ATOM     93  F   UNL A   1      44.327  35.326  42.661  1.00  0.00    -0.206 F 
ATOM     94  C   UNL A   1      44.020  38.259  44.752  1.00  0.00     0.022 A 
BRANCH  91  95
ATOM     95  S   UNL A   1      42.613  40.657  44.543  1.00  0.00     0.124 S 
ATOM     96  O   UNL A   1      42.482  40.546  45.993  1.00  0.00    -0.237 OA
ATOM     97  O   UNL A   1      43.777  41.395  44.065  1.00  0.00    -0.237 OA
ATOM     98  O   UNL A   1      41.369  40.926  43.827  1.00  0.00    -0.744 OA
ENDBRANCH  91  95
ENDBRANCH  65  88
ENDBRANCH  39  40
ENDBRANCH  32  34
ENDBRANCH  31  32
ENDBRANCH  30  31
ENDBRANCH  29  30
ENDBRANCH  28  29
ENDBRANCH  27  28
ENDBRANCH  26  27
ENDBRANCH   1  26
TORSDOF 28
ENDMDL
MODEL 2
REMARK VINA RESULT:      -7.6      5.986     11.118
REMARK SMILES COCC[C@H](NC(=O)c1ccc(Br)nc1)C(=O)OCCOCCOCCOCCOC(=O)c1ccc(-c2c3nc(c(-c4cc(S(=O)(=O)[O-])ccc4F)c4ccc([nH]4)c(-c4cc(S(=O)(=O)[O-])ccc4F)c4nc(c(-c5cc(S(=O)(=O)[O-])ccc5F)c5ccc2[nH]5)C=C4)C=C3)cc1
REMARK SMILES IDX 24 1 23 2 22 3 21 4 20 5 19 6 18 7 16 8 17 9 5 10 4 11 3 12
REMARK SMILES IDX 2 13 1 14 6 15 7 16 8 18 9 19 10 20 15 21 11 22 14 23 12 24
REMARK SMILES IDX 13 25 25 26 26 27 27 28 28 29 29 30 30 31 31 32 32 33 33 34
REMARK SMILES IDX 34 35 95 36 35 37 94 38 36 39 37 40 38 41 88 42 39 43 93 44
REMARK SMILES IDX 87 45 89 46 40 47 92 48 86 49 85 50 41 52 73 53 53 54 72 55
REMARK SMILES IDX 54 56 57 57 71 58 90 59 55 60 56 61 70 63 91 64 58 65 42 66
REMARK SMILES IDX 43 67 51 68 44 69 50 70 52 71 49 72 45 73 46 74 47 75 48 76
REMARK SMILES IDX 74 77 75 78 83 79 76 80 82 81 84 82 81 83 77 84 78 85 79 86
REMARK SMILES IDX 80 87 59 88 60 89 68 90 61 91 67 92 69 93 66 94 62 95 63 96
REMARK SMILES IDX 64 97 65 98
REMARK H PARENT 6 17 89 51 57 62
REMARK Flexibility Score: inf
ROOT
ATOM      1  O   UNL A   1      42.442  22.051  26.871  1.00  0.00    -0.377 OA
ENDROOT
BRANCH   1   2
ATOM      2  C   UNL A   1      41.862  22.936  27.818  1.00  0.00     0.188 C 
BRANCH   2   3
ATOM      3  C   UNL A   1      40.595  23.779  27.552  1.00  0.00     0.188 C 
BRANCH   3   4
ATOM      4  O   UNL A   1      39.543  23.110  26.888  1.00  0.00    -0.376 OA
BRANCH   4   5
ATOM      5  C   UNL A   1      38.395  23.781  26.414  1.00  0.00     0.202 C 
BRANCH   5   6
ATOM      6  C   UNL A   1      37.569  23.187  25.255  1.00  0.00     0.261 C 
BRANCH   6   7
ATOM      7  O   UNL A   1      36.365  23.880  24.884  1.00  0.00    -0.462 OA
BRANCH   7   8
ATOM      8  C   UNL A   1      35.837  23.455  23.715  1.00  0.00     0.328 C 
ATOM      9  O   UNL A   1      36.528  23.077  22.777  1.00  0.00    -0.250 OA
BRANCH   8  10
ATOM     10  C   UNL A   1      34.305  23.554  23.634  1.00  0.00     0.194 C 
BRANCH  10  11
ATOM     11  C   UNL A   1      33.894  24.865  22.965  1.00  0.00     0.065 C 
BRANCH  11  12
ATOM     12  C   UNL A   1      33.476  25.989  23.915  1.00  0.00     0.162 C 
BRANCH  12  13
ATOM     13  O   UNL A   1      32.327  26.686  23.441  1.00  0.00    -0.385 OA
ATOM     14  C   UNL A   1      31.431  27.127  24.453  1.00  0.00     0.194 C 
ENDBRANCH  12  13
ENDBRANCH  11  12
ENDBRANCH  10  11
BRANCH  10  15
ATOM     15  N   UNL A   1      33.604  23.430  24.929  1.00  0.00    -0.338 N 
ATOM     16  C   UNL A   1      33.134  22.309  25.571  1.00  0.00     0.253 C 
ATOM     17  H   UNL A   1      33.451  24.279  25.404  1.00  0.00     0.164 HD
ATOM     18  O   UNL A   1      32.541  22.389  26.639  1.00  0.00    -0.269 OA
BRANCH  16  19
ATOM     19  C   UNL A   1      33.287  20.987  24.947  1.00  0.00     0.058 A 
ATOM     20  C   UNL A   1      32.287  20.384  24.187  1.00  0.00     0.018 A 
ATOM     21  C   UNL A   1      34.484  20.312  25.124  1.00  0.00     0.126 A 
ATOM     22  C   UNL A   1      32.483  19.081  23.732  1.00  0.00     0.037 A 
ATOM     23  N   UNL A   1      34.705  19.050  24.683  1.00  0.00    -0.249 NA
ATOM     24  C   UNL A   1      33.691  18.453  24.018  1.00  0.00     0.106 A 
ATOM     25  Br  UNL A   1      33.936  16.653  23.475  1.00  0.00    -0.029 Br
ENDBRANCH  16  19
ENDBRANCH  10  15
ENDBRANCH   8  10
ENDBRANCH   7   8
ENDBRANCH   6   7
ENDBRANCH   5   6
ENDBRANCH   4   5
ENDBRANCH   3   4
ENDBRANCH   2   3
ENDBRANCH   1   2
BRANCH   1  26
ATOM     26  C   UNL A   1      42.684  22.498  25.550  1.00  0.00     0.188 C 
BRANCH  26  27
ATOM     27  C   UNL A   1      43.708  21.669  24.755  1.00  0.00     0.188 C 
BRANCH  27  28
ATOM     28  O   UNL A   1      44.943  21.501  25.441  1.00  0.00    -0.376 OA
BRANCH  28  29
ATOM     29  C   UNL A   1      46.118  21.964  24.791  1.00  0.00     0.202 C 
BRANCH  29  30
ATOM     30  C   UNL A   1      46.126  23.373  24.168  1.00  0.00     0.261 C 
BRANCH  30  31
ATOM     31  O   UNL A   1      45.808  24.475  25.032  1.00  0.00    -0.460 OA
BRANCH  31  32
ATOM     32  C   UNL A   1      46.716  25.466  25.152  1.00  0.00     0.338 C 
ATOM     33  O   UNL A   1      47.765  25.569  24.539  1.00  0.00    -0.246 OA
BRANCH  32  34
ATOM     34  C   UNL A   1      46.108  26.536  25.975  1.00  0.00     0.060 A 
ATOM     35  C   UNL A   1      46.932  27.572  26.436  1.00  0.00     0.016 A 
ATOM     36  C   UNL A   1      44.739  26.544  26.258  1.00  0.00     0.016 A 
ATOM     37  C   UNL A   1      46.398  28.591  27.223  1.00  0.00     0.010 A 
ATOM     38  C   UNL A   1      44.210  27.550  27.076  1.00  0.00     0.010 A 
ATOM     39  C   UNL A   1      45.049  28.550  27.598  1.00  0.00    -0.014 A 
BRANCH  39  40
ATOM     40  C   UNL A   1      44.620  29.395  28.739  1.00  0.00     0.031 A 
ATOM     41  C   UNL A   1      44.537  28.748  30.097  1.00  0.00     0.074 A 
ATOM     42  C   UNL A   1      44.421  30.719  28.602  1.00  0.00     0.049 A 
ATOM     43  N   UNL A   1      44.276  29.280  31.261  1.00  0.00    -0.248 NA
ATOM     44  C   UNL A   1      44.792  27.298  30.141  1.00  0.00     0.031 C 
ATOM     45  C   UNL A   1      44.527  31.463  27.348  1.00  0.00     0.029 A 
ATOM     46  N   UNL A   1      44.105  31.674  29.535  1.00  0.00    -0.354 N 
ATOM     47  C   UNL A   1      44.344  28.236  32.178  1.00  0.00     0.074 A 
ATOM     48  C   UNL A   1      44.619  27.031  31.425  1.00  0.00     0.031 C 
ATOM     49  C   UNL A   1      44.288  32.764  27.593  1.00  0.00     0.029 A 
ATOM     50  C   UNL A   1      43.985  32.941  29.013  1.00  0.00     0.049 A 
ATOM     51  H   UNL A   1      43.978  31.472  30.490  1.00  0.00     0.167 HD
ATOM     52  C   UNL A   1      44.206  28.277  33.525  1.00  0.00     0.034 A 
ATOM     53  C   UNL A   1      43.658  34.104  29.614  1.00  0.00     0.034 A 
ATOM     54  C   UNL A   1      43.908  29.483  34.258  1.00  0.00     0.049 A 
ATOM     55  C   UNL A   1      43.418  34.110  31.106  1.00  0.00     0.074 A 
ATOM     56  C   UNL A   1      43.737  29.643  35.621  1.00  0.00     0.029 A 
ATOM     57  N   UNL A   1      43.722  30.736  33.686  1.00  0.00    -0.354 N 
ATOM     58  N   UNL A   1      43.491  33.117  31.965  1.00  0.00    -0.248 NA
ATOM     59  C   UNL A   1      43.071  35.401  31.712  1.00  0.00     0.031 C 
ATOM     60  C   UNL A   1      43.366  30.969  35.863  1.00  0.00     0.029 A 
ATOM     61  C   UNL A   1      43.406  31.665  34.666  1.00  0.00     0.049 A 
ATOM     62  H   UNL A   1      43.804  30.935  32.726  1.00  0.00     0.167 HD
ATOM     63  C   UNL A   1      43.238  33.676  33.217  1.00  0.00     0.074 A 
ATOM     64  C   UNL A   1      43.031  35.093  32.999  1.00  0.00     0.031 C 
ATOM     65  C   UNL A   1      43.188  33.075  34.435  1.00  0.00     0.034 A 
BRANCH  52  66
ATOM     66  C   UNL A   1      44.316  26.968  34.272  1.00  0.00     0.023 A 
ATOM     67  C   UNL A   1      45.557  26.431  34.658  1.00  0.00     0.031 A 
ATOM     68  C   UNL A   1      43.159  26.223  34.565  1.00  0.00     0.131 A 
ATOM     69  C   UNL A   1      45.619  25.158  35.245  1.00  0.00     0.055 A 
ATOM     70  C   UNL A   1      43.222  24.996  35.227  1.00  0.00     0.041 A 
ATOM     71  F   UNL A   1      41.948  26.666  34.195  1.00  0.00    -0.206 F 
ATOM     72  C   UNL A   1      44.458  24.450  35.557  1.00  0.00     0.022 A 
BRANCH  69  73
ATOM     73  S   UNL A   1      47.242  24.373  35.448  1.00  0.00     0.124 S 
ATOM     74  O   UNL A   1      47.900  25.292  36.374  1.00  0.00    -0.237 OA
ATOM     75  O   UNL A   1      46.893  23.064  35.988  1.00  0.00    -0.237 OA
ATOM     76  O   UNL A   1      47.791  24.364  34.095  1.00  0.00    -0.744 OA
ENDBRANCH  69  73
ENDBRANCH  52  66
BRANCH  53  77
ATOM     77  C   UNL A   1      43.511  35.356  28.816  1.00  0.00     0.023 A 
ATOM     78  C   UNL A   1      44.619  36.156  28.491  1.00  0.00     0.031 A 
ATOM     79  C   UNL A   1      42.238  35.809  28.421  1.00  0.00     0.131 A 
ATOM     80  C   UNL A   1      44.429  37.387  27.841  1.00  0.00     0.055 A 
ATOM     81  C   UNL A   1      42.060  37.004  27.722  1.00  0.00     0.041 A 
ATOM     82  F   UNL A   1      41.142  35.088  28.708  1.00  0.00    -0.206 F 
ATOM     83  C   UNL A   1      43.160  37.808  27.442  1.00  0.00     0.022 A 
BRANCH  80  84
ATOM     84  S   UNL A   1      45.860  38.479  27.606  1.00  0.00     0.124 S 
ATOM     85  O   UNL A   1      46.964  37.611  27.997  1.00  0.00    -0.237 OA
ATOM     86  O   UNL A   1      45.764  38.799  26.185  1.00  0.00    -0.237 OA
ATOM     87  O   UNL A   1      45.587  39.593  28.512  1.00  0.00    -0.744 OA
ENDBRANCH  80  84
ENDBRANCH  53  77
BRANCH  65  88
ATOM     88  C   UNL A   1      42.954  33.970  35.634  1.00  0.00     0.023 A 
ATOM     89  C   UNL A   1      41.668  34.409  35.997  1.00  0.00     0.031 A 
ATOM     90  C   UNL A   1      44.043  34.422  36.402  1.00  0.00     0.131 A 
ATOM     91  C   UNL A   1      41.514  35.341  37.035  1.00  0.00     0.055 A 
ATOM     92  C   UNL A   1      43.874  35.283  37.487  1.00  0.00     0.041 A 
ATOM     93  F   UNL A   1      45.295  34.039  36.105  1.00  0.00    -0.206 F 
ATOM     94  C   UNL A   1      42.605  35.765  37.796  1.00  0.00     0.022 A 
BRANCH  91  95
ATOM     95  S   UNL A   1      39.887  36.106  37.280  1.00  0.00     0.124 S 
ATOM     96  O   UNL A   1      39.573  36.583  35.936  1.00  0.00    -0.237 OA
ATOM     97  O   UNL A   1      39.085  34.987  37.761  1.00  0.00    -0.237 OA
ATOM     98  O   UNL A   1      40.146  37.154  38.264  1.00  0.00    -0.744 OA
ENDBRANCH  91  95
ENDBRANCH  65  88
ENDBRANCH  39  40
ENDBRANCH  32  34
ENDBRANCH  31  32
ENDBRANCH  30  31
ENDBRANCH  29  30
ENDBRANCH  28  29
ENDBRANCH  27  28
ENDBRANCH  26  27
ENDBRANCH   1  26
TORSDOF 28
ENDMDL
MODEL 3
REMARK VINA RESULT:      -7.4      7.905     11.607
REMARK SMILES COCC[C@H](NC(=O)c1ccc(Br)nc1)C(=O)OCCOCCOCCOCCOC(=O)c1ccc(-c2c3nc(c(-c4cc(S(=O)(=O)[O-])ccc4F)c4ccc([nH]4)c(-c4cc(S(=O)(=O)[O-])ccc4F)c4nc(c(-c5cc(S(=O)(=O)[O-])ccc5F)c5ccc2[nH]5)C=C4)C=C3)cc1
REMARK SMILES IDX 24 1 23 2 22 3 21 4 20 5 19 6 18 7 16 8 17 9 5 10 4 11 3 12
REMARK SMILES IDX 2 13 1 14 6 15 7 16 8 18 9 19 10 20 15 21 11 22 14 23 12 24
REMARK SMILES IDX 13 25 25 26 26 27 27 28 28 29 29 30 30 31 31 32 32 33 33 34
REMARK SMILES IDX 34 35 95 36 35 37 94 38 36 39 37 40 38 41 88 42 39 43 93 44
REMARK SMILES IDX 87 45 89 46 40 47 92 48 86 49 85 50 41 52 73 53 53 54 72 55
REMARK SMILES IDX 54 56 57 57 71 58 90 59 55 60 56 61 70 63 91 64 58 65 42 66
REMARK SMILES IDX 43 67 51 68 44 69 50 70 52 71 49 72 45 73 46 74 47 75 48 76
REMARK SMILES IDX 74 77 75 78 83 79 76 80 82 81 84 82 81 83 77 84 78 85 79 86
REMARK SMILES IDX 80 87 59 88 60 89 68 90 61 91 67 92 69 93 66 94 62 95 63 96
REMARK SMILES IDX 64 97 65 98
REMARK H PARENT 6 17 89 51 57 62
REMARK Flexibility Score: inf
ROOT
ATOM      1  O   UNL A   1      42.801  21.962  25.808  1.00  0.00    -0.377 OA
ENDROOT
BRANCH   1   2
ATOM      2  C   UNL A   1      42.148  21.229  26.834  1.00  0.00     0.188 C 
BRANCH   2   3
ATOM      3  C   UNL A   1      40.636  21.322  27.135  1.00  0.00     0.188 C 
BRANCH   3   4
ATOM      4  O   UNL A   1      39.780  21.192  26.019  1.00  0.00    -0.376 OA
BRANCH   4   5
ATOM      5  C   UNL A   1      38.603  21.959  25.871  1.00  0.00     0.202 C 
BRANCH   5   6
ATOM      6  C   UNL A   1      37.571  21.597  24.783  1.00  0.00     0.261 C 
BRANCH   6   7
ATOM      7  O   UNL A   1      36.273  22.206  24.882  1.00  0.00    -0.462 OA
BRANCH   7   8
ATOM      8  C   UNL A   1      35.885  22.837  23.752  1.00  0.00     0.328 C 
ATOM      9  O   UNL A   1      36.567  22.844  22.733  1.00  0.00    -0.250 OA
BRANCH   8  10
ATOM     10  C   UNL A   1      34.558  23.602  23.871  1.00  0.00     0.194 C 
BRANCH  10  11
ATOM     11  C   UNL A   1      33.944  23.815  22.487  1.00  0.00     0.065 C 
BRANCH  11  12
ATOM     12  C   UNL A   1      33.135  25.101  22.313  1.00  0.00     0.162 C 
BRANCH  12  13
ATOM     13  O   UNL A   1      33.909  26.139  21.718  1.00  0.00    -0.385 OA
ATOM     14  C   UNL A   1      33.627  27.449  22.195  1.00  0.00     0.194 C 
ENDBRANCH  12  13
ENDBRANCH  11  12
ENDBRANCH  10  11
BRANCH  10  15
ATOM     15  N   UNL A   1      34.650  24.904  24.565  1.00  0.00    -0.338 N 
ATOM     16  C   UNL A   1      33.783  25.486  25.460  1.00  0.00     0.253 C 
ATOM     17  H   UNL A   1      35.452  25.433  24.355  1.00  0.00     0.164 HD
ATOM     18  O   UNL A   1      34.000  26.599  25.923  1.00  0.00    -0.269 OA
BRANCH  16  19
ATOM     19  C   UNL A   1      32.540  24.797  25.833  1.00  0.00     0.058 A 
ATOM     20  C   UNL A   1      31.279  25.374  25.698  1.00  0.00     0.018 A 
ATOM     21  C   UNL A   1      32.630  23.511  26.342  1.00  0.00     0.126 A 
ATOM     22  C   UNL A   1      30.169  24.685  26.184  1.00  0.00     0.037 A 
ATOM     23  N   UNL A   1      31.566  22.816  26.813  1.00  0.00    -0.249 NA
ATOM     24  C   UNL A   1      30.362  23.428  26.746  1.00  0.00     0.106 A 
ATOM     25  Br  UNL A   1      28.873  22.518  27.485  1.00  0.00    -0.029 Br
ENDBRANCH  16  19
ENDBRANCH  10  15
ENDBRANCH   8  10
ENDBRANCH   7   8
ENDBRANCH   6   7
ENDBRANCH   5   6
ENDBRANCH   4   5
ENDBRANCH   3   4
ENDBRANCH   2   3
ENDBRANCH   1   2
BRANCH   1  26
ATOM     26  C   UNL A   1      42.513  23.338  25.638  1.00  0.00     0.188 C 
BRANCH  26  27
ATOM     27  C   UNL A   1      42.815  24.226  26.858  1.00  0.00     0.188 C 
BRANCH  27  28
ATOM     28  O   UNL A   1      44.106  24.822  26.808  1.00  0.00    -0.376 OA
BRANCH  28  29
ATOM     29  C   UNL A   1      44.877  24.608  25.635  1.00  0.00     0.202 C 
BRANCH  29  30
ATOM     30  C   UNL A   1      46.405  24.801  25.694  1.00  0.00     0.261 C 
BRANCH  30  31
ATOM     31  O   UNL A   1      46.890  26.126  25.961  1.00  0.00    -0.460 OA
BRANCH  31  32
ATOM     32  C   UNL A   1      46.915  26.542  27.244  1.00  0.00     0.338 C 
ATOM     33  O   UNL A   1      47.037  25.841  28.235  1.00  0.00    -0.246 OA
BRANCH  32  34
ATOM     34  C   UNL A   1      47.016  28.019  27.236  1.00  0.00     0.060 A 
ATOM     35  C   UNL A   1      47.653  28.650  28.313  1.00  0.00     0.016 A 
ATOM     36  C   UNL A   1      46.525  28.773  26.166  1.00  0.00     0.016 A 
ATOM     37  C   UNL A   1      47.758  30.039  28.346  1.00  0.00     0.010 A 
ATOM     38  C   UNL A   1      46.602  30.171  26.215  1.00  0.00     0.010 A 
ATOM     39  C   UNL A   1      47.177  30.808  27.329  1.00  0.00    -0.014 A 
BRANCH  39  40
ATOM     40  C   UNL A   1      46.949  32.250  27.593  1.00  0.00     0.031 A 
ATOM     41  C   UNL A   1      48.029  33.216  27.181  1.00  0.00     0.074 A 
ATOM     42  C   UNL A   1      45.777  32.702  28.076  1.00  0.00     0.049 A 
ATOM     43  N   UNL A   1      48.039  34.522  27.220  1.00  0.00    -0.248 NA
ATOM     44  C   UNL A   1      49.264  32.619  26.646  1.00  0.00     0.031 C 
ATOM     45  C   UNL A   1      44.642  31.865  28.457  1.00  0.00     0.029 A 
ATOM     46  N   UNL A   1      45.345  33.983  28.310  1.00  0.00    -0.354 N 
ATOM     47  C   UNL A   1      49.275  34.905  26.707  1.00  0.00     0.074 A 
ATOM     48  C   UNL A   1      50.004  33.690  26.414  1.00  0.00     0.031 C 
ATOM     49  C   UNL A   1      43.636  32.657  28.870  1.00  0.00     0.029 A 
ATOM     50  C   UNL A   1      44.066  34.054  28.811  1.00  0.00     0.049 A 
ATOM     51  H   UNL A   1      45.899  34.778  28.135  1.00  0.00     0.167 HD
ATOM     52  C   UNL A   1      49.752  36.152  26.484  1.00  0.00     0.034 A 
ATOM     53  C   UNL A   1      43.335  35.124  29.185  1.00  0.00     0.034 A 
ATOM     54  C   UNL A   1      49.022  37.354  26.804  1.00  0.00     0.049 A 
ATOM     55  C   UNL A   1      43.924  36.506  29.014  1.00  0.00     0.074 A 
ATOM     56  C   UNL A   1      49.409  38.670  26.632  1.00  0.00     0.029 A 
ATOM     57  N   UNL A   1      47.755  37.385  27.377  1.00  0.00    -0.354 N 
ATOM     58  N   UNL A   1      45.092  36.856  28.521  1.00  0.00    -0.248 NA
ATOM     59  C   UNL A   1      43.086  37.636  29.431  1.00  0.00     0.031 C 
ATOM     60  C   UNL A   1      48.417  39.494  27.176  1.00  0.00     0.029 A 
ATOM     61  C   UNL A   1      47.363  38.698  27.595  1.00  0.00     0.049 A 
ATOM     62  H   UNL A   1      47.216  36.592  27.596  1.00  0.00     0.167 HD
ATOM     63  C   UNL A   1      45.108  38.250  28.533  1.00  0.00     0.074 A 
ATOM     64  C   UNL A   1      43.826  38.670  29.063  1.00  0.00     0.031 C 
ATOM     65  C   UNL A   1      46.087  39.105  28.137  1.00  0.00     0.034 A 
BRANCH  52  66
ATOM     66  C   UNL A   1      51.152  36.268  25.925  1.00  0.00     0.023 A 
ATOM     67  C   UNL A   1      52.291  36.198  26.747  1.00  0.00     0.031 A 
ATOM     68  C   UNL A   1      51.348  36.497  24.551  1.00  0.00     0.131 A 
ATOM     69  C   UNL A   1      53.564  36.428  26.203  1.00  0.00     0.055 A 
ATOM     70  C   UNL A   1      52.623  36.639  24.002  1.00  0.00     0.041 A 
ATOM     71  F   UNL A   1      50.300  36.606  23.719  1.00  0.00    -0.206 F 
ATOM     72  C   UNL A   1      53.740  36.620  24.832  1.00  0.00     0.022 A 
BRANCH  69  73
ATOM     73  S   UNL A   1      54.969  36.631  27.334  1.00  0.00     0.124 S 
ATOM     74  O   UNL A   1      55.079  38.086  27.408  1.00  0.00    -0.237 OA
ATOM     75  O   UNL A   1      54.500  35.964  28.542  1.00  0.00    -0.237 OA
ATOM     76  O   UNL A   1      56.067  35.965  26.638  1.00  0.00    -0.744 OA
ENDBRANCH  69  73
ENDBRANCH  52  66
BRANCH  53  77
ATOM     77  C   UNL A   1      41.978  34.946  29.783  1.00  0.00     0.023 A 
ATOM     78  C   UNL A   1      41.810  34.516  31.109  1.00  0.00     0.031 A 
ATOM     79  C   UNL A   1      40.822  35.141  29.006  1.00  0.00     0.131 A 
ATOM     80  C   UNL A   1      40.523  34.247  31.602  1.00  0.00     0.055 A 
ATOM     81  C   UNL A   1      39.541  34.929  29.517  1.00  0.00     0.041 A 
ATOM     82  F   UNL A   1      40.921  35.547  27.729  1.00  0.00    -0.206 F 
ATOM     83  C   UNL A   1      39.387  34.464  30.819  1.00  0.00     0.022 A 
BRANCH  80  84
ATOM     84  S   UNL A   1      40.356  33.514  33.254  1.00  0.00     0.124 S 
ATOM     85  O   UNL A   1      41.747  33.425  33.681  1.00  0.00    -0.237 OA
ATOM     86  O   UNL A   1      39.534  34.506  33.941  1.00  0.00    -0.237 OA
ATOM     87  O   UNL A   1      39.696  32.236  32.993  1.00  0.00    -0.744 OA
ENDBRANCH  80  84
ENDBRANCH  53  77
BRANCH  65  88
ATOM     88  C   UNL A   1      45.779  40.586  28.212  1.00  0.00     0.023 A 
ATOM     89  C   UNL A   1      45.453  41.337  27.069  1.00  0.00     0.031 A 
ATOM     90  C   UNL A   1      45.851  41.261  29.444  1.00  0.00     0.131 A 
ATOM     91  C   UNL A   1      45.303  42.729  27.167  1.00  0.00     0.055 A 
ATOM     92  C   UNL A   1      45.618  42.634  29.548  1.00  0.00     0.041 A 
ATOM     93  F   UNL A   1      46.159  40.600  30.571  1.00  0.00    -0.206 F 
ATOM     94  C   UNL A   1      45.363  43.380  28.401  1.00  0.00     0.022 A 
BRANCH  91  95
ATOM     95  S   UNL A   1      45.179  43.698  25.638  1.00  0.00     0.124 S 
ATOM     96  O   UNL A   1      46.298  43.178  24.858  1.00  0.00    -0.237 OA
ATOM     97  O   UNL A   1      43.848  43.347  25.153  1.00  0.00    -0.237 OA
ATOM     98  O   UNL A   1      45.329  45.079  26.093  1.00  0.00    -0.744 OA
ENDBRANCH  91  95
ENDBRANCH  65  88
ENDBRANCH  39  40
ENDBRANCH  32  34
ENDBRANCH  31  32
ENDBRANCH  30  31
ENDBRANCH  29  30
ENDBRANCH  28  29
ENDBRANCH  27  28
ENDBRANCH  26  27
ENDBRANCH   1  26
TORSDOF 28
ENDMDL
