MODEL 1
REMARK VINA RESULT:      -9.2      0.000      0.000
REMARK SMILES C[C@@H]1[C@@H](C(=O)OCCOCCOCCOCCOC(=O)c2ccc(-c3c4nc(c(-c5cc(S(=O)(=O)[O-])ccc5F)c5ccc([nH]5)c(-c5cc(S(=O)(=O)[O-])ccc5F)c5nc(c(-c6cc(S(=O)(=O)[O-])ccc6F)c6ccc3[nH]6)C=C5)C=C4)cc2)CCN1C(=O)[C@@H](C)OCc1ccccc1
REMARK SMILES IDX 11 1 10 2 9 3 8 4 7 5 6 6 4 7 5 8 3 9 1 10 2 11 86 12 84 13
REMARK SMILES IDX 85 14 87 15 88 16 89 17 90 18 91 19 92 20 93 21 94 22 98 23
REMARK SMILES IDX 95 24 97 25 96 26 12 27 13 28 14 29 15 30 16 31 17 32 18 33
REMARK SMILES IDX 19 34 20 35 21 36 22 37 83 38 23 39 82 40 24 41 25 42 26 43
REMARK SMILES IDX 76 44 27 45 81 46 75 47 77 48 28 49 80 50 74 51 73 52 29 54
REMARK SMILES IDX 61 55 41 56 60 57 42 58 45 59 59 60 78 61 43 62 44 63 58 65
REMARK SMILES IDX 79 66 46 67 30 68 31 69 39 70 32 71 38 72 40 73 37 74 33 75
REMARK SMILES IDX 34 76 35 77 36 78 62 79 63 80 71 81 64 82 70 83 72 84 69 85
REMARK SMILES IDX 65 86 66 87 67 88 68 89 47 90 48 91 56 92 49 93 55 94 57 95
REMARK SMILES IDX 54 96 50 97 51 98 52 99 53 100
REMARK H PARENT 77 53 45 64
REMARK Flexibility Score: inf
ROOT
ATOM      1  C   UNL A   1      42.331  18.862  25.794  1.00  0.00     0.188 C 
ENDROOT
BRANCH   1   2
ATOM      2  C   UNL A   1      41.317  19.482  26.773  1.00  0.00     0.188 C 
BRANCH   2   3
ATOM      3  O   UNL A   1      40.169  20.094  26.235  1.00  0.00    -0.376 OA
BRANCH   3   4
ATOM      4  C   UNL A   1      39.803  21.444  26.449  1.00  0.00     0.202 C 
BRANCH   4   5
ATOM      5  C   UNL A   1      38.655  22.214  25.779  1.00  0.00     0.261 C 
BRANCH   5   6
ATOM      6  O   UNL A   1      37.401  21.554  25.668  1.00  0.00    -0.463 OA
BRANCH   6   7
ATOM      7  C   UNL A   1      36.324  22.349  25.874  1.00  0.00     0.311 C 
ATOM      8  O   UNL A   1      36.374  23.564  26.008  1.00  0.00    -0.252 OA
BRANCH   7   9
ATOM      9  C   UNL A   1      35.054  21.526  25.864  1.00  0.00     0.123 C 
ATOM     10  C   UNL A   1      33.242  20.656  24.337  1.00  0.00     0.032 C 
ATOM     11  C   UNL A   1      34.270  21.777  24.570  1.00  0.00     0.096 C 
ATOM     12  N   UNL A   1      33.595  23.041  24.843  1.00  0.00    -0.337 N 
ATOM     13  C   UNL A   1      34.107  22.022  26.948  1.00  0.00     0.039 C 
ATOM     14  C   UNL A   1      33.438  23.225  26.289  1.00  0.00     0.121 C 
BRANCH  12  15
ATOM     15  C   UNL A   1      33.359  24.124  24.020  1.00  0.00     0.251 C 
ATOM     16  O   UNL A   1      34.332  24.715  23.525  1.00  0.00    -0.272 OA
BRANCH  15  17
ATOM     17  C   UNL A   1      31.914  24.595  23.591  1.00  0.00     0.204 C 
ATOM     18  C   UNL A   1      30.928  23.437  23.424  1.00  0.00     0.049 C 
BRANCH  17  19
ATOM     19  O   UNL A   1      31.294  25.821  23.951  1.00  0.00    -0.364 OA
BRANCH  19  20
ATOM     20  C   UNL A   1      31.965  27.055  23.767  1.00  0.00     0.196 C 
BRANCH  20  21
ATOM     21  C   UNL A   1      32.408  27.758  25.027  1.00  0.00    -0.022 A 
ATOM     22  C   UNL A   1      31.501  28.483  25.811  1.00  0.00     0.006 A 
ATOM     23  C   UNL A   1      33.754  27.721  25.421  1.00  0.00     0.006 A 
ATOM     24  C   UNL A   1      31.902  29.050  27.021  1.00  0.00     0.000 A 
ATOM     25  C   UNL A   1      34.161  28.311  26.618  1.00  0.00     0.000 A 
ATOM     26  C   UNL A   1      33.229  28.947  27.434  1.00  0.00     0.000 A 
ENDBRANCH  20  21
ENDBRANCH  19  20
ENDBRANCH  17  19
ENDBRANCH  15  17
ENDBRANCH  12  15
ENDBRANCH   7   9
ENDBRANCH   6   7
ENDBRANCH   5   6
ENDBRANCH   4   5
ENDBRANCH   3   4
ENDBRANCH   2   3
ENDBRANCH   1   2
BRANCH   1  27
ATOM     27  O   UNL A   1      43.687  19.182  26.023  1.00  0.00    -0.377 OA
BRANCH  27  28
ATOM     28  C   UNL A   1      44.638  18.935  24.987  1.00  0.00     0.188 C 
BRANCH  28  29
ATOM     29  C   UNL A   1      45.598  20.031  24.458  1.00  0.00     0.188 C 
BRANCH  29  30
ATOM     30  O   UNL A   1      46.052  20.963  25.429  1.00  0.00    -0.376 OA
BRANCH  30  31
ATOM     31  C   UNL A   1      46.089  22.332  25.062  1.00  0.00     0.202 C 
BRANCH  31  32
ATOM     32  C   UNL A   1      45.126  22.753  23.943  1.00  0.00     0.261 C 
BRANCH  32  33
ATOM     33  O   UNL A   1      44.134  23.723  24.310  1.00  0.00    -0.460 OA
BRANCH  33  34
ATOM     34  C   UNL A   1      43.140  23.304  25.124  1.00  0.00     0.338 C 
ATOM     35  O   UNL A   1      42.618  22.201  25.129  1.00  0.00    -0.246 OA
BRANCH  34  36
ATOM     36  C   UNL A   1      42.935  24.342  26.155  1.00  0.00     0.060 A 
ATOM     37  C   UNL A   1      43.693  25.519  26.094  1.00  0.00     0.016 A 
ATOM     38  C   UNL A   1      41.983  24.163  27.161  1.00  0.00     0.016 A 
ATOM     39  C   UNL A   1      43.523  26.509  27.062  1.00  0.00     0.010 A 
ATOM     40  C   UNL A   1      41.832  25.145  28.144  1.00  0.00     0.010 A 
ATOM     41  C   UNL A   1      42.625  26.306  28.117  1.00  0.00    -0.014 A 
BRANCH  41  42
ATOM     42  C   UNL A   1      42.678  27.194  29.306  1.00  0.00     0.031 A 
ATOM     43  C   UNL A   1      43.570  26.788  30.449  1.00  0.00     0.074 A 
ATOM     44  C   UNL A   1      41.980  28.341  29.363  1.00  0.00     0.049 A 
ATOM     45  N   UNL A   1      43.742  27.355  31.614  1.00  0.00    -0.248 NA
ATOM     46  C   UNL A   1      44.372  25.571  30.246  1.00  0.00     0.031 C 
ATOM     47  C   UNL A   1      41.130  28.868  28.297  1.00  0.00     0.029 A 
ATOM     48  N   UNL A   1      41.872  29.270  30.369  1.00  0.00    -0.354 N 
ATOM     49  C   UNL A   1      44.666  26.561  32.286  1.00  0.00     0.074 A 
ATOM     50  C   UNL A   1      44.985  25.452  31.412  1.00  0.00     0.031 C 
ATOM     51  C   UNL A   1      40.579  30.023  28.711  1.00  0.00     0.029 A 
ATOM     52  C   UNL A   1      41.000  30.295  30.085  1.00  0.00     0.049 A 
ATOM     53  H   UNL A   1      42.372  29.207  31.215  1.00  0.00     0.167 HD
ATOM     54  C   UNL A   1      45.206  26.746  33.515  1.00  0.00     0.034 A 
ATOM     55  C   UNL A   1      40.571  31.315  30.857  1.00  0.00     0.034 A 
ATOM     56  C   UNL A   1      44.865  27.848  34.380  1.00  0.00     0.049 A 
ATOM     57  C   UNL A   1      41.105  31.442  32.267  1.00  0.00     0.074 A 
ATOM     58  C   UNL A   1      45.354  28.135  35.642  1.00  0.00     0.029 A 
ATOM     59  N   UNL A   1      43.936  28.837  34.080  1.00  0.00    -0.354 N 
ATOM     60  N   UNL A   1      41.981  30.688  32.893  1.00  0.00    -0.248 NA
ATOM     61  C   UNL A   1      40.599  32.562  33.071  1.00  0.00     0.031 C 
ATOM     62  C   UNL A   1      44.661  29.244  36.138  1.00  0.00     0.029 A 
ATOM     63  C   UNL A   1      43.810  29.711  35.149  1.00  0.00     0.049 A 
ATOM     64  H   UNL A   1      43.440  28.906  33.232  1.00  0.00     0.167 HD
ATOM     65  C   UNL A   1      42.156  31.267  34.148  1.00  0.00     0.074 A 
ATOM     66  C   UNL A   1      41.306  32.439  34.185  1.00  0.00     0.031 C 
ATOM     67  C   UNL A   1      42.953  30.874  35.176  1.00  0.00     0.034 A 
BRANCH  54  68
ATOM     68  C   UNL A   1      46.173  25.698  34.013  1.00  0.00     0.023 A 
ATOM     69  C   UNL A   1      45.745  24.591  34.767  1.00  0.00     0.031 A 
ATOM     70  C   UNL A   1      47.549  25.826  33.754  1.00  0.00     0.131 A 
ATOM     71  C   UNL A   1      46.690  23.698  35.294  1.00  0.00     0.055 A 
ATOM     72  C   UNL A   1      48.475  24.885  34.208  1.00  0.00     0.041 A 
ATOM     73  F   UNL A   1      48.021  26.877  33.065  1.00  0.00    -0.206 F 
ATOM     74  C   UNL A   1      48.049  23.820  34.997  1.00  0.00     0.022 A 
BRANCH  71  75
ATOM     75  S   UNL A   1      46.134  22.464  36.502  1.00  0.00     0.124 S 
ATOM     76  O   UNL A   1      47.389  21.792  36.835  1.00  0.00    -0.237 OA
ATOM     77  O   UNL A   1      45.554  23.289  37.554  1.00  0.00    -0.237 OA
ATOM     78  O   UNL A   1      45.182  21.650  35.749  1.00  0.00    -0.744 OA
ENDBRANCH  71  75
ENDBRANCH  54  68
BRANCH  55  79
ATOM     79  C   UNL A   1      39.549  32.278  30.348  1.00  0.00     0.023 A 
ATOM     80  C   UNL A   1      38.208  31.897  30.182  1.00  0.00     0.031 A 
ATOM     81  C   UNL A   1      39.916  33.578  29.952  1.00  0.00     0.131 A 
ATOM     82  C   UNL A   1      37.296  32.783  29.586  1.00  0.00     0.055 A 
ATOM     83  C   UNL A   1      38.991  34.477  29.418  1.00  0.00     0.041 A 
ATOM     84  F   UNL A   1      41.186  33.994  30.080  1.00  0.00    -0.206 F 
ATOM     85  C   UNL A   1      37.675  34.075  29.218  1.00  0.00     0.022 A 
BRANCH  82  86
ATOM     86  S   UNL A   1      35.628  32.182  29.200  1.00  0.00     0.124 S 
ATOM     87  O   UNL A   1      34.861  32.693  30.330  1.00  0.00    -0.237 OA
ATOM     88  O   UNL A   1      35.371  32.812  27.910  1.00  0.00    -0.237 OA
ATOM     89  O   UNL A   1      35.792  30.730  29.161  1.00  0.00    -0.744 OA
ENDBRANCH  82  86
ENDBRANCH  55  79
BRANCH  67  90
ATOM     90  C   UNL A   1      42.985  31.750  36.407  1.00  0.00     0.023 A 
ATOM     91  C   UNL A   1      41.912  31.805  37.313  1.00  0.00     0.031 A 
ATOM     92  C   UNL A   1      44.113  32.549  36.673  1.00  0.00     0.131 A 
ATOM     93  C   UNL A   1      41.965  32.682  38.408  1.00  0.00     0.055 A 
ATOM     94  C   UNL A   1      44.189  33.365  37.802  1.00  0.00     0.041 A 
ATOM     95  F   UNL A   1      45.167  32.542  35.842  1.00  0.00    -0.206 F 
ATOM     96  C   UNL A   1      43.105  33.446  38.670  1.00  0.00     0.022 A 
BRANCH  93  97
ATOM     97  S   UNL A   1      40.479  32.892  39.429  1.00  0.00     0.124 S 
ATOM     98  O   UNL A   1      40.783  32.050  40.581  1.00  0.00    -0.237 OA
ATOM     99  O   UNL A   1      40.470  34.330  39.674  1.00  0.00    -0.237 OA
ATOM    100  O   UNL A   1      39.401  32.403  38.570  1.00  0.00    -0.744 OA
ENDBRANCH  93  97
ENDBRANCH  67  90
ENDBRANCH  41  42
ENDBRANCH  34  36
ENDBRANCH  33  34
ENDBRANCH  32  33
ENDBRANCH  31  32
ENDBRANCH  30  31
ENDBRANCH  29  30
ENDBRANCH  28  29
ENDBRANCH  27  28
ENDBRANCH   1  27
TORSDOF 28
ENDMDL
MODEL 2
REMARK VINA RESULT:      -8.8      5.827      8.494
REMARK SMILES C[C@@H]1[C@@H](C(=O)OCCOCCOCCOCCOC(=O)c2ccc(-c3c4nc(c(-c5cc(S(=O)(=O)[O-])ccc5F)c5ccc([nH]5)c(-c5cc(S(=O)(=O)[O-])ccc5F)c5nc(c(-c6cc(S(=O)(=O)[O-])ccc6F)c6ccc3[nH]6)C=C5)C=C4)cc2)CCN1C(=O)[C@@H](C)OCc1ccccc1
REMARK SMILES IDX 11 1 10 2 9 3 8 4 7 5 6 6 4 7 5 8 3 9 1 10 2 11 86 12 84 13
REMARK SMILES IDX 85 14 87 15 88 16 89 17 90 18 91 19 92 20 93 21 94 22 98 23
REMARK SMILES IDX 95 24 97 25 96 26 12 27 13 28 14 29 15 30 16 31 17 32 18 33
REMARK SMILES IDX 19 34 20 35 21 36 22 37 83 38 23 39 82 40 24 41 25 42 26 43
REMARK SMILES IDX 76 44 27 45 81 46 75 47 77 48 28 49 80 50 74 51 73 52 29 54
REMARK SMILES IDX 61 55 41 56 60 57 42 58 45 59 59 60 78 61 43 62 44 63 58 65
REMARK SMILES IDX 79 66 46 67 30 68 31 69 39 70 32 71 38 72 40 73 37 74 33 75
REMARK SMILES IDX 34 76 35 77 36 78 62 79 63 80 71 81 64 82 70 83 72 84 69 85
REMARK SMILES IDX 65 86 66 87 67 88 68 89 47 90 48 91 56 92 49 93 55 94 57 95
REMARK SMILES IDX 54 96 50 97 51 98 52 99 53 100
REMARK H PARENT 77 53 45 64
REMARK Flexibility Score: inf
ROOT
ATOM      1  C   UNL A   1      36.747  21.431  25.151  1.00  0.00     0.188 C 
ENDROOT
BRANCH   1   2
ATOM      2  C   UNL A   1      35.329  21.343  25.744  1.00  0.00     0.188 C 
BRANCH   2   3
ATOM      3  O   UNL A   1      34.308  22.094  25.131  1.00  0.00    -0.376 OA
BRANCH   3   4
ATOM      4  C   UNL A   1      34.335  23.498  24.962  1.00  0.00     0.202 C 
BRANCH   4   5
ATOM      5  C   UNL A   1      34.353  24.276  23.637  1.00  0.00     0.261 C 
BRANCH   5   6
ATOM      6  O   UNL A   1      33.119  24.811  23.176  1.00  0.00    -0.463 OA
BRANCH   6   7
ATOM      7  C   UNL A   1      32.918  26.114  23.486  1.00  0.00     0.311 C 
ATOM      8  O   UNL A   1      33.804  26.899  23.795  1.00  0.00    -0.252 OA
BRANCH   7   9
ATOM      9  C   UNL A   1      31.453  26.468  23.344  1.00  0.00     0.123 C 
ATOM     10  C   UNL A   1      29.837  28.404  23.469  1.00  0.00     0.032 C 
ATOM     11  C   UNL A   1      31.174  27.836  23.978  1.00  0.00     0.096 C 
ATOM     12  N   UNL A   1      31.086  27.520  25.399  1.00  0.00    -0.337 N 
ATOM     13  C   UNL A   1      30.607  25.517  24.179  1.00  0.00     0.039 C 
ATOM     14  C   UNL A   1      30.707  26.115  25.580  1.00  0.00     0.121 C 
BRANCH  12  15
ATOM     15  C   UNL A   1      31.546  28.216  26.499  1.00  0.00     0.251 C 
ATOM     16  O   UNL A   1      31.305  27.763  27.631  1.00  0.00    -0.272 OA
BRANCH  15  17
ATOM     17  C   UNL A   1      32.448  29.508  26.399  1.00  0.00     0.204 C 
ATOM     18  C   UNL A   1      31.643  30.809  26.428  1.00  0.00     0.049 C 
BRANCH  17  19
ATOM     19  O   UNL A   1      33.768  29.646  26.903  1.00  0.00    -0.364 OA
BRANCH  19  20
ATOM     20  C   UNL A   1      34.276  30.916  27.272  1.00  0.00     0.196 C 
BRANCH  20  21
ATOM     21  C   UNL A   1      35.556  30.906  28.072  1.00  0.00    -0.022 A 
ATOM     22  C   UNL A   1      36.261  32.089  28.329  1.00  0.00     0.006 A 
ATOM     23  C   UNL A   1      36.080  29.696  28.552  1.00  0.00     0.006 A 
ATOM     24  C   UNL A   1      37.391  32.080  29.148  1.00  0.00     0.000 A 
ATOM     25  C   UNL A   1      37.225  29.684  29.349  1.00  0.00     0.000 A 
ATOM     26  C   UNL A   1      37.861  30.879  29.674  1.00  0.00     0.000 A 
ENDBRANCH  20  21
ENDBRANCH  19  20
ENDBRANCH  17  19
ENDBRANCH  15  17
ENDBRANCH  12  15
ENDBRANCH   7   9
ENDBRANCH   6   7
ENDBRANCH   5   6
ENDBRANCH   4   5
ENDBRANCH   3   4
ENDBRANCH   2   3
ENDBRANCH   1   2
BRANCH   1  27
ATOM     27  O   UNL A   1      37.701  22.126  25.924  1.00  0.00    -0.377 OA
BRANCH  27  28
ATOM     28  C   UNL A   1      39.082  21.799  25.774  1.00  0.00     0.188 C 
BRANCH  28  29
ATOM     29  C   UNL A   1      40.102  21.932  26.933  1.00  0.00     0.188 C 
BRANCH  29  30
ATOM     30  O   UNL A   1      41.026  23.005  26.810  1.00  0.00    -0.376 OA
BRANCH  30  31
ATOM     31  C   UNL A   1      42.324  22.703  26.326  1.00  0.00     0.202 C 
BRANCH  31  32
ATOM     32  C   UNL A   1      42.984  23.782  25.457  1.00  0.00     0.261 C 
BRANCH  32  33
ATOM     33  O   UNL A   1      43.106  25.078  26.061  1.00  0.00    -0.460 OA
BRANCH  33  34
ATOM     34  C   UNL A   1      42.231  26.026  25.655  1.00  0.00     0.338 C 
ATOM     35  O   UNL A   1      41.164  25.841  25.093  1.00  0.00    -0.246 OA
BRANCH  34  36
ATOM     36  C   UNL A   1      42.687  27.321  26.201  1.00  0.00     0.060 A 
ATOM     37  C   UNL A   1      43.726  27.335  27.140  1.00  0.00     0.016 A 
ATOM     38  C   UNL A   1      42.106  28.515  25.768  1.00  0.00     0.016 A 
ATOM     39  C   UNL A   1      44.167  28.545  27.675  1.00  0.00     0.010 A 
ATOM     40  C   UNL A   1      42.532  29.725  26.324  1.00  0.00     0.010 A 
ATOM     41  C   UNL A   1      43.541  29.741  27.305  1.00  0.00    -0.014 A 
BRANCH  41  42
ATOM     42  C   UNL A   1      43.780  30.972  28.100  1.00  0.00     0.031 A 
ATOM     43  C   UNL A   1      42.840  31.267  29.239  1.00  0.00     0.074 A 
ATOM     44  C   UNL A   1      44.814  31.791  27.842  1.00  0.00     0.049 A 
ATOM     45  N   UNL A   1      42.798  32.301  30.037  1.00  0.00    -0.248 NA
ATOM     46  C   UNL A   1      41.804  30.256  29.505  1.00  0.00     0.031 C 
ATOM     47  C   UNL A   1      45.822  31.579  26.805  1.00  0.00     0.029 A 
ATOM     48  N   UNL A   1      45.183  32.974  28.433  1.00  0.00    -0.354 N 
ATOM     49  C   UNL A   1      41.728  32.069  30.896  1.00  0.00     0.074 A 
ATOM     50  C   UNL A   1      41.126  30.816  30.493  1.00  0.00     0.031 C 
ATOM     51  C   UNL A   1      46.691  32.605  26.828  1.00  0.00     0.029 A 
ATOM     52  C   UNL A   1      46.276  33.568  27.847  1.00  0.00     0.049 A 
ATOM     53  H   UNL A   1      44.708  33.361  29.204  1.00  0.00     0.167 HD
ATOM     54  C   UNL A   1      41.295  32.827  31.933  1.00  0.00     0.034 A 
ATOM     55  C   UNL A   1      46.853  34.764  28.089  1.00  0.00     0.034 A 
ATOM     56  C   UNL A   1      41.897  34.081  32.312  1.00  0.00     0.049 A 
ATOM     57  C   UNL A   1      46.286  35.645  29.180  1.00  0.00     0.074 A 
ATOM     58  C   UNL A   1      41.542  34.928  33.347  1.00  0.00     0.029 A 
ATOM     59  N   UNL A   1      42.969  34.679  31.660  1.00  0.00    -0.354 N 
ATOM     60  N   UNL A   1      45.276  35.416  29.990  1.00  0.00    -0.248 NA
ATOM     61  C   UNL A   1      46.941  36.942  29.396  1.00  0.00     0.031 C 
ATOM     62  C   UNL A   1      42.341  36.073  33.269  1.00  0.00     0.029 A 
ATOM     63  C   UNL A   1      43.261  35.900  32.247  1.00  0.00     0.049 A 
ATOM     64  H   UNL A   1      43.450  34.291  30.894  1.00  0.00     0.167 HD
ATOM     65  C   UNL A   1      45.203  36.523  30.833  1.00  0.00     0.074 A 
ATOM     66  C   UNL A   1      46.278  37.411  30.442  1.00  0.00     0.031 C 
ATOM     67  C   UNL A   1      44.334  36.781  31.844  1.00  0.00     0.034 A 
BRANCH  54  68
ATOM     68  C   UNL A   1      40.077  32.344  32.685  1.00  0.00     0.023 A 
ATOM     69  C   UNL A   1      38.811  32.926  32.501  1.00  0.00     0.031 A 
ATOM     70  C   UNL A   1      40.193  31.302  33.623  1.00  0.00     0.131 A 
ATOM     71  C   UNL A   1      37.730  32.513  33.294  1.00  0.00     0.055 A 
ATOM     72  C   UNL A   1      39.094  30.837  34.347  1.00  0.00     0.041 A 
ATOM     73  F   UNL A   1      41.382  30.727  33.864  1.00  0.00    -0.206 F 
ATOM     74  C   UNL A   1      37.855  31.453  34.195  1.00  0.00     0.022 A 
BRANCH  71  75
ATOM     75  S   UNL A   1      36.199  33.483  33.244  1.00  0.00     0.124 S 
ATOM     76  O   UNL A   1      35.556  33.085  34.495  1.00  0.00    -0.237 OA
ATOM     77  O   UNL A   1      36.694  34.854  33.189  1.00  0.00    -0.237 OA
ATOM     78  O   UNL A   1      35.533  33.011  32.032  1.00  0.00    -0.744 OA
ENDBRANCH  71  75
ENDBRANCH  54  68
BRANCH  55  79
ATOM     79  C   UNL A   1      48.003  35.235  27.261  1.00  0.00     0.023 A 
ATOM     80  C   UNL A   1      49.329  34.932  27.616  1.00  0.00     0.031 A 
ATOM     81  C   UNL A   1      47.797  36.058  26.139  1.00  0.00     0.131 A 
ATOM     82  C   UNL A   1      50.393  35.492  26.891  1.00  0.00     0.055 A 
ATOM     83  C   UNL A   1      48.858  36.560  25.384  1.00  0.00     0.041 A 
ATOM     84  F   UNL A   1      46.552  36.388  25.758  1.00  0.00    -0.206 F 
ATOM     85  C   UNL A   1      50.167  36.289  25.768  1.00  0.00     0.022 A 
BRANCH  82  86
ATOM     86  S   UNL A   1      52.083  35.246  27.504  1.00  0.00     0.124 S 
ATOM     87  O   UNL A   1      51.863  34.340  28.625  1.00  0.00    -0.237 OA
ATOM     88  O   UNL A   1      52.748  34.677  26.337  1.00  0.00    -0.237 OA
ATOM     89  O   UNL A   1      52.512  36.596  27.866  1.00  0.00    -0.744 OA
ENDBRANCH  82  86
ENDBRANCH  55  79
BRANCH  67  90
ATOM     90  C   UNL A   1      44.544  38.051  32.637  1.00  0.00     0.023 A 
ATOM     91  C   UNL A   1      43.771  39.204  32.419  1.00  0.00     0.031 A 
ATOM     92  C   UNL A   1      45.543  38.105  33.627  1.00  0.00     0.131 A 
ATOM     93  C   UNL A   1      44.048  40.378  33.137  1.00  0.00     0.055 A 
ATOM     94  C   UNL A   1      45.766  39.252  34.388  1.00  0.00     0.041 A 
ATOM     95  F   UNL A   1      46.316  37.036  33.878  1.00  0.00    -0.206 F 
ATOM     96  C   UNL A   1      45.026  40.403  34.136  1.00  0.00     0.022 A 
BRANCH  93  97
ATOM     97  S   UNL A   1      43.184  41.906  32.677  1.00  0.00     0.124 S 
ATOM     98  O   UNL A   1      44.295  42.816  32.422  1.00  0.00    -0.237 OA
ATOM     99  O   UNL A   1      42.419  41.490  31.506  1.00  0.00    -0.237 OA
ATOM    100  O   UNL A   1      42.384  42.218  33.861  1.00  0.00    -0.744 OA
ENDBRANCH  93  97
ENDBRANCH  67  90
ENDBRANCH  41  42
ENDBRANCH  34  36
ENDBRANCH  33  34
ENDBRANCH  32  33
ENDBRANCH  31  32
ENDBRANCH  30  31
ENDBRANCH  29  30
ENDBRANCH  28  29
ENDBRANCH  27  28
ENDBRANCH   1  27
TORSDOF 28
ENDMDL
MODEL 3
REMARK VINA RESULT:      -8.3      4.430     10.285
REMARK SMILES C[C@@H]1[C@@H](C(=O)OCCOCCOCCOCCOC(=O)c2ccc(-c3c4nc(c(-c5cc(S(=O)(=O)[O-])ccc5F)c5ccc([nH]5)c(-c5cc(S(=O)(=O)[O-])ccc5F)c5nc(c(-c6cc(S(=O)(=O)[O-])ccc6F)c6ccc3[nH]6)C=C5)C=C4)cc2)CCN1C(=O)[C@@H](C)OCc1ccccc1
REMARK SMILES IDX 11 1 10 2 9 3 8 4 7 5 6 6 4 7 5 8 3 9 1 10 2 11 86 12 84 13
REMARK SMILES IDX 85 14 87 15 88 16 89 17 90 18 91 19 92 20 93 21 94 22 98 23
REMARK SMILES IDX 95 24 97 25 96 26 12 27 13 28 14 29 15 30 16 31 17 32 18 33
REMARK SMILES IDX 19 34 20 35 21 36 22 37 83 38 23 39 82 40 24 41 25 42 26 43
REMARK SMILES IDX 76 44 27 45 81 46 75 47 77 48 28 49 80 50 74 51 73 52 29 54
REMARK SMILES IDX 61 55 41 56 60 57 42 58 45 59 59 60 78 61 43 62 44 63 58 65
REMARK SMILES IDX 79 66 46 67 30 68 31 69 39 70 32 71 38 72 40 73 37 74 33 75
REMARK SMILES IDX 34 76 35 77 36 78 62 79 63 80 71 81 64 82 70 83 72 84 69 85
REMARK SMILES IDX 65 86 66 87 67 88 68 89 47 90 48 91 56 92 49 93 55 94 57 95
REMARK SMILES IDX 54 96 50 97 51 98 52 99 53 100
REMARK H PARENT 77 53 45 64
REMARK Flexibility Score: inf
ROOT
ATOM      1  C   UNL A   1      34.916  32.757  31.027  1.00  0.00     0.188 C 
ENDROOT
BRANCH   1   2
ATOM      2  C   UNL A   1      34.389  32.815  29.581  1.00  0.00     0.188 C 
BRANCH   2   3
ATOM      3  O   UNL A   1      34.740  31.769  28.708  1.00  0.00    -0.376 OA
BRANCH   3   4
ATOM      4  C   UNL A   1      33.853  31.156  27.790  1.00  0.00     0.202 C 
BRANCH   4   5
ATOM      5  C   UNL A   1      34.115  29.906  26.938  1.00  0.00     0.261 C 
BRANCH   5   6
ATOM      6  O   UNL A   1      33.130  29.552  25.976  1.00  0.00    -0.463 OA
BRANCH   6   7
ATOM      7  C   UNL A   1      32.253  28.605  26.387  1.00  0.00     0.311 C 
ATOM      8  O   UNL A   1      32.144  28.215  27.541  1.00  0.00    -0.252 OA
BRANCH   7   9
ATOM      9  C   UNL A   1      31.399  28.140  25.226  1.00  0.00     0.123 C 
ATOM     10  C   UNL A   1      29.675  26.417  24.572  1.00  0.00     0.032 C 
ATOM     11  C   UNL A   1      30.869  26.726  25.492  1.00  0.00     0.096 C 
ATOM     12  N   UNL A   1      32.011  25.885  25.147  1.00  0.00    -0.337 N 
ATOM     13  C   UNL A   1      32.262  27.964  23.986  1.00  0.00     0.039 C 
ATOM     14  C   UNL A   1      32.882  26.584  24.197  1.00  0.00     0.121 C 
BRANCH  12  15
ATOM     15  C   UNL A   1      32.493  24.742  25.752  1.00  0.00     0.251 C 
ATOM     16  O   UNL A   1      33.526  24.824  26.436  1.00  0.00    -0.272 OA
BRANCH  15  17
ATOM     17  C   UNL A   1      31.749  23.350  25.705  1.00  0.00     0.204 C 
ATOM     18  C   UNL A   1      30.593  23.251  26.702  1.00  0.00     0.049 C 
BRANCH  17  19
ATOM     19  O   UNL A   1      31.580  22.532  24.556  1.00  0.00    -0.364 OA
BRANCH  19  20
ATOM     20  C   UNL A   1      32.692  21.913  23.936  1.00  0.00     0.196 C 
BRANCH  20  21
ATOM     21  C   UNL A   1      32.683  20.404  23.922  1.00  0.00    -0.022 A 
ATOM     22  C   UNL A   1      32.278  19.690  22.786  1.00  0.00     0.006 A 
ATOM     23  C   UNL A   1      33.054  19.684  25.067  1.00  0.00     0.006 A 
ATOM     24  C   UNL A   1      32.362  18.298  22.753  1.00  0.00     0.000 A 
ATOM     25  C   UNL A   1      33.113  18.290  25.043  1.00  0.00     0.000 A 
ATOM     26  C   UNL A   1      32.799  17.599  23.876  1.00  0.00     0.000 A 
ENDBRANCH  20  21
ENDBRANCH  19  20
ENDBRANCH  17  19
ENDBRANCH  15  17
ENDBRANCH  12  15
ENDBRANCH   7   9
ENDBRANCH   6   7
ENDBRANCH   5   6
ENDBRANCH   4   5
ENDBRANCH   3   4
ENDBRANCH   2   3
ENDBRANCH   1   2
BRANCH   1  27
ATOM     27  O   UNL A   1      33.965  32.990  32.043  1.00  0.00    -0.377 OA
BRANCH  27  28
ATOM     28  C   UNL A   1      34.253  33.961  33.048  1.00  0.00     0.188 C 
BRANCH  28  29
ATOM     29  C   UNL A   1      35.275  35.106  32.833  1.00  0.00     0.188 C 
BRANCH  29  30
ATOM     30  O   UNL A   1      36.490  34.981  33.559  1.00  0.00    -0.376 OA
BRANCH  30  31
ATOM     31  C   UNL A   1      37.606  34.426  32.884  1.00  0.00     0.202 C 
BRANCH  31  32
ATOM     32  C   UNL A   1      37.805  32.913  33.046  1.00  0.00     0.261 C 
BRANCH  32  33
ATOM     33  O   UNL A   1      38.554  32.269  32.005  1.00  0.00    -0.460 OA
BRANCH  33  34
ATOM     34  C   UNL A   1      38.368  30.938  31.851  1.00  0.00     0.338 C 
ATOM     35  O   UNL A   1      37.428  30.393  31.297  1.00  0.00    -0.246 OA
BRANCH  34  36
ATOM     36  C   UNL A   1      39.607  30.259  32.283  1.00  0.00     0.060 A 
ATOM     37  C   UNL A   1      40.787  31.005  32.398  1.00  0.00     0.016 A 
ATOM     38  C   UNL A   1      39.595  28.898  32.597  1.00  0.00     0.016 A 
ATOM     39  C   UNL A   1      41.970  30.383  32.795  1.00  0.00     0.010 A 
ATOM     40  C   UNL A   1      40.787  28.271  32.971  1.00  0.00     0.010 A 
ATOM     41  C   UNL A   1      41.985  29.004  33.038  1.00  0.00    -0.014 A 
BRANCH  41  42
ATOM     42  C   UNL A   1      43.284  28.291  33.141  1.00  0.00     0.031 A 
ATOM     43  C   UNL A   1      43.861  28.073  34.515  1.00  0.00     0.074 A 
ATOM     44  C   UNL A   1      43.922  27.826  32.053  1.00  0.00     0.049 A 
ATOM     45  N   UNL A   1      45.001  27.539  34.864  1.00  0.00    -0.248 NA
ATOM     46  C   UNL A   1      43.035  28.528  35.645  1.00  0.00     0.031 C 
ATOM     47  C   UNL A   1      43.435  27.925  30.679  1.00  0.00     0.029 A 
ATOM     48  N   UNL A   1      45.128  27.179  31.937  1.00  0.00    -0.354 N 
ATOM     49  C   UNL A   1      45.033  27.598  36.254  1.00  0.00     0.074 A 
ATOM     50  C   UNL A   1      43.817  28.257  36.677  1.00  0.00     0.031 C 
ATOM     51  C   UNL A   1      44.339  27.366  29.856  1.00  0.00     0.029 A 
ATOM     52  C   UNL A   1      45.489  26.911  30.637  1.00  0.00     0.049 A 
ATOM     53  H   UNL A   1      45.682  26.930  32.712  1.00  0.00     0.167 HD
ATOM     54  C   UNL A   1      45.987  27.135  37.099  1.00  0.00     0.034 A 
ATOM     55  C   UNL A   1      46.629  26.388  30.138  1.00  0.00     0.034 A 
ATOM     56  C   UNL A   1      47.201  26.495  36.659  1.00  0.00     0.049 A 
ATOM     57  C   UNL A   1      47.727  25.977  31.094  1.00  0.00     0.074 A 
ATOM     58  C   UNL A   1      48.232  25.984  37.428  1.00  0.00     0.029 A 
ATOM     59  N   UNL A   1      47.559  26.291  35.332  1.00  0.00    -0.354 N 
ATOM     60  N   UNL A   1      47.747  26.034  32.407  1.00  0.00    -0.248 NA
ATOM     61  C   UNL A   1      48.952  25.424  30.501  1.00  0.00     0.031 C 
ATOM     62  C   UNL A   1      49.247  25.551  36.568  1.00  0.00     0.029 A 
ATOM     63  C   UNL A   1      48.810  25.699  35.262  1.00  0.00     0.049 A 
ATOM     64  H   UNL A   1      47.003  26.532  34.556  1.00  0.00     0.167 HD
ATOM     65  C   UNL A   1      48.970  25.489  32.794  1.00  0.00     0.074 A 
ATOM     66  C   UNL A   1      49.652  25.098  31.578  1.00  0.00     0.031 C 
ATOM     67  C   UNL A   1      49.483  25.318  34.041  1.00  0.00     0.034 A 
BRANCH  54  68
ATOM     68  C   UNL A   1      45.775  27.365  38.576  1.00  0.00     0.023 A 
ATOM     69  C   UNL A   1      46.310  28.483  39.239  1.00  0.00     0.031 A 
ATOM     70  C   UNL A   1      45.049  26.432  39.340  1.00  0.00     0.131 A 
ATOM     71  C   UNL A   1      46.174  28.603  40.630  1.00  0.00     0.055 A 
ATOM     72  C   UNL A   1      44.843  26.603  40.710  1.00  0.00     0.041 A 
ATOM     73  F   UNL A   1      44.539  25.330  38.769  1.00  0.00    -0.206 F 
ATOM     74  C   UNL A   1      45.420  27.686  41.366  1.00  0.00     0.022 A 
BRANCH  71  75
ATOM     75  S   UNL A   1      47.126  29.888  41.486  1.00  0.00     0.124 S 
ATOM     76  O   UNL A   1      48.231  29.112  42.047  1.00  0.00    -0.237 OA
ATOM     77  O   UNL A   1      47.473  30.799  40.402  1.00  0.00    -0.237 OA
ATOM     78  O   UNL A   1      46.184  30.416  42.470  1.00  0.00    -0.744 OA
ENDBRANCH  71  75
ENDBRANCH  54  68
BRANCH  55  79
ATOM     79  C   UNL A   1      46.825  26.259  28.663  1.00  0.00     0.023 A 
ATOM     80  C   UNL A   1      47.297  27.335  27.894  1.00  0.00     0.031 A 
ATOM     81  C   UNL A   1      46.476  25.074  27.989  1.00  0.00     0.131 A 
ATOM     82  C   UNL A   1      47.353  27.225  26.495  1.00  0.00     0.055 A 
ATOM     83  C   UNL A   1      46.594  24.949  26.604  1.00  0.00     0.041 A 
ATOM     84  F   UNL A   1      46.012  24.015  28.672  1.00  0.00    -0.206 F 
ATOM     85  C   UNL A   1      47.021  26.035  25.847  1.00  0.00     0.022 A 
BRANCH  82  86
ATOM     86  S   UNL A   1      47.768  28.701  25.525  1.00  0.00     0.124 S 
ATOM     87  O   UNL A   1      46.446  29.228  25.208  1.00  0.00    -0.237 OA
ATOM     88  O   UNL A   1      48.559  29.475  26.476  1.00  0.00    -0.237 OA
ATOM     89  O   UNL A   1      48.515  28.162  24.390  1.00  0.00    -0.744 OA
ENDBRANCH  82  86
ENDBRANCH  55  79
BRANCH  67  90
ATOM     90  C   UNL A   1      50.823  24.628  34.154  1.00  0.00     0.023 A 
ATOM     91  C   UNL A   1      50.937  23.230  34.252  1.00  0.00     0.031 A 
ATOM     92  C   UNL A   1      52.007  25.388  34.168  1.00  0.00     0.131 A 
ATOM     93  C   UNL A   1      52.200  22.642  34.419  1.00  0.00     0.055 A 
ATOM     94  C   UNL A   1      53.265  24.793  34.262  1.00  0.00     0.041 A 
ATOM     95  F   UNL A   1      51.961  26.728  34.082  1.00  0.00    -0.206 F 
ATOM     96  C   UNL A   1      53.367  23.413  34.402  1.00  0.00     0.022 A 
BRANCH  93  97
ATOM     97  S   UNL A   1      52.294  20.864  34.765  1.00  0.00     0.124 S 
ATOM     98  O   UNL A   1      51.646  20.774  36.068  1.00  0.00    -0.237 OA
ATOM     99  O   UNL A   1      51.557  20.289  33.645  1.00  0.00    -0.237 OA
ATOM    100  O   UNL A   1      53.731  20.590  34.766  1.00  0.00    -0.744 OA
ENDBRANCH  93  97
ENDBRANCH  67  90
ENDBRANCH  41  42
ENDBRANCH  34  36
ENDBRANCH  33  34
ENDBRANCH  32  33
ENDBRANCH  31  32
ENDBRANCH  30  31
ENDBRANCH  29  30
ENDBRANCH  28  29
ENDBRANCH  27  28
ENDBRANCH   1  27
TORSDOF 28
ENDMDL
