MODEL 1
REMARK VINA RESULT:      -9.9      0.000      0.000
REMARK SMILES Cc1cc(Br)cc2c1O[C@H](C(F)(F)F)C(C(=O)OCCOCCOCCOCCOC(=O)c1ccc(-c3c4nc(c(-c5cc(S(=O)(=O)[O-])ccc5F)c5ccc([nH]5)c(-c5cc(S(=O)(=O)[O-])ccc5F)c5nc(c(-c6cc(S(=O)(=O)[O-])ccc6F)c6ccc3[nH]6)C=C5)C=C4)cc1)=C2
REMARK SMILES IDX 25 1 24 2 23 3 22 4 21 5 20 6 19 7 18 8 16 9 17 10 15 11
REMARK SMILES IDX 1 12 2 13 3 14 8 15 4 16 7 17 9 18 5 19 6 20 96 21 10 22
REMARK SMILES IDX 11 23 12 24 13 25 14 26 26 27 27 28 28 29 29 30 30 31 31 32
REMARK SMILES IDX 32 33 33 34 34 35 95 36 35 37 94 38 36 39 37 40 38 41 88 42
REMARK SMILES IDX 39 43 93 44 87 45 89 46 40 47 92 48 86 49 85 50 41 52 73 53
REMARK SMILES IDX 53 54 72 55 54 56 57 57 71 58 90 59 55 60 56 61 70 63 91 64
REMARK SMILES IDX 58 65 42 66 43 67 51 68 44 69 50 70 52 71 49 72 45 73 46 74
REMARK SMILES IDX 47 75 48 76 74 77 75 78 83 79 76 80 82 81 84 82 81 83 77 84
REMARK SMILES IDX 78 85 79 86 80 87 59 88 60 89 68 90 61 91 67 92 69 93 66 94
REMARK SMILES IDX 62 95 63 96 64 97 65 98
REMARK H PARENT 89 51 57 62
REMARK Flexibility Score: inf
ROOT
ATOM      1  C   UNL A   1      32.719  27.743  24.371  1.00  0.00     0.188 C 
ENDROOT
BRANCH   1   2
ATOM      2  O   UNL A   1      32.209  26.411  24.432  1.00  0.00    -0.377 OA
BRANCH   2   3
ATOM      3  C   UNL A   1      32.076  25.712  23.206  1.00  0.00     0.188 C 
BRANCH   3   4
ATOM      4  C   UNL A   1      33.410  25.573  22.449  1.00  0.00     0.188 C 
BRANCH   4   5
ATOM      5  O   UNL A   1      33.901  24.254  22.313  1.00  0.00    -0.376 OA
BRANCH   5   6
ATOM      6  C   UNL A   1      33.108  23.179  21.835  1.00  0.00     0.202 C 
BRANCH   6   7
ATOM      7  C   UNL A   1      32.500  22.031  22.669  1.00  0.00     0.261 C 
BRANCH   7   8
ATOM      8  O   UNL A   1      33.389  21.114  23.300  1.00  0.00    -0.460 OA
BRANCH   8   9
ATOM      9  C   UNL A   1      33.456  21.137  24.642  1.00  0.00     0.338 C 
ATOM     10  O   UNL A   1      32.670  20.640  25.429  1.00  0.00    -0.246 OA
BRANCH   9  11
ATOM     11  C   UNL A   1      34.764  21.722  25.007  1.00  0.00     0.087 C 
ATOM     12  C   UNL A   1      38.576  24.714  26.645  1.00  0.00     0.048 C 
ATOM     13  C   UNL A   1      38.450  23.281  26.205  1.00  0.00    -0.007 A 
ATOM     14  C   UNL A   1      39.536  22.407  26.361  1.00  0.00     0.023 A 
ATOM     15  C   UNL A   1      37.229  22.778  25.725  1.00  0.00     0.130 A 
ATOM     16  C   UNL A   1      39.412  21.063  26.009  1.00  0.00     0.019 A 
ATOM     17  C   UNL A   1      37.098  21.418  25.423  1.00  0.00     0.019 A 
ATOM     18  O   UNL A   1      36.205  23.673  25.597  1.00  0.00    -0.475 OA
ATOM     19  Br  UNL A   1      40.882  19.895  26.227  1.00  0.00    -0.051 Br
ATOM     20  C   UNL A   1      38.201  20.566  25.534  1.00  0.00     0.027 A 
ATOM     21  C   UNL A   1      35.799  20.877  25.070  1.00  0.00     0.027 C 
ATOM     22  C   UNL A   1      34.884  23.212  25.200  1.00  0.00     0.316 C 
BRANCH  22  23
ATOM     23  C   UNL A   1      33.877  23.747  26.226  1.00  0.00     0.430 C 
ATOM     24  F   UNL A   1      34.087  25.061  26.484  1.00  0.00    -0.167 F 
ATOM     25  F   UNL A   1      32.600  23.630  25.799  1.00  0.00    -0.167 F 
ATOM     26  F   UNL A   1      33.973  23.085  27.404  1.00  0.00    -0.167 F 
ENDBRANCH  22  23
ENDBRANCH   9  11
ENDBRANCH   8   9
ENDBRANCH   7   8
ENDBRANCH   6   7
ENDBRANCH   5   6
ENDBRANCH   4   5
ENDBRANCH   3   4
ENDBRANCH   2   3
ENDBRANCH   1   2
BRANCH   1  27
ATOM     27  C   UNL A   1      31.840  28.901  23.842  1.00  0.00     0.188 C 
BRANCH  27  28
ATOM     28  O   UNL A   1      31.339  29.761  24.861  1.00  0.00    -0.376 OA
BRANCH  28  29
ATOM     29  C   UNL A   1      32.112  29.902  26.044  1.00  0.00     0.202 C 
BRANCH  29  30
ATOM     30  C   UNL A   1      32.127  31.306  26.662  1.00  0.00     0.261 C 
BRANCH  30  31
ATOM     31  O   UNL A   1      32.974  31.470  27.809  1.00  0.00    -0.460 OA
BRANCH  31  32
ATOM     32  C   UNL A   1      33.934  32.418  27.737  1.00  0.00     0.338 C 
ATOM     33  O   UNL A   1      33.777  33.601  27.494  1.00  0.00    -0.246 OA
BRANCH  32  34
ATOM     34  C   UNL A   1      35.196  31.808  28.205  1.00  0.00     0.060 A 
ATOM     35  C   UNL A   1      35.200  30.458  28.580  1.00  0.00     0.016 A 
ATOM     36  C   UNL A   1      36.369  32.564  28.259  1.00  0.00     0.016 A 
ATOM     37  C   UNL A   1      36.377  29.869  29.044  1.00  0.00     0.010 A 
ATOM     38  C   UNL A   1      37.540  31.979  28.749  1.00  0.00     0.010 A 
ATOM     39  C   UNL A   1      37.539  30.640  29.175  1.00  0.00    -0.014 A 
BRANCH  39  40
ATOM     40  C   UNL A   1      38.678  30.117  29.969  1.00  0.00     0.031 A 
ATOM     41  C   UNL A   1      38.846  30.632  31.373  1.00  0.00     0.074 A 
ATOM     42  C   UNL A   1      39.515  29.185  29.480  1.00  0.00     0.049 A 
ATOM     43  N   UNL A   1      39.786  30.377  32.244  1.00  0.00    -0.248 NA
ATOM     44  C   UNL A   1      37.810  31.558  31.861  1.00  0.00     0.031 C 
ATOM     45  C   UNL A   1      39.410  28.559  28.164  1.00  0.00     0.029 A 
ATOM     46  N   UNL A   1      40.621  28.600  30.045  1.00  0.00    -0.354 N 
ATOM     47  C   UNL A   1      39.453  31.103  33.381  1.00  0.00     0.074 A 
ATOM     48  C   UNL A   1      38.244  31.837  33.080  1.00  0.00     0.031 C 
ATOM     49  C   UNL A   1      40.413  27.673  28.022  1.00  0.00     0.029 A 
ATOM     50  C   UNL A   1      41.254  27.699  29.219  1.00  0.00     0.049 A 
ATOM     51  H   UNL A   1      40.933  28.805  30.956  1.00  0.00     0.167 HD
ATOM     52  C   UNL A   1      40.091  31.146  34.573  1.00  0.00     0.034 A 
ATOM     53  C   UNL A   1      42.392  26.997  29.402  1.00  0.00     0.034 A 
ATOM     54  C   UNL A   1      41.298  30.418  34.864  1.00  0.00     0.049 A 
ATOM     55  C   UNL A   1      43.152  27.153  30.699  1.00  0.00     0.074 A 
ATOM     56  C   UNL A   1      42.028  30.401  36.038  1.00  0.00     0.029 A 
ATOM     57  N   UNL A   1      41.954  29.582  33.972  1.00  0.00    -0.354 N 
ATOM     58  N   UNL A   1      42.845  27.872  31.754  1.00  0.00    -0.248 NA
ATOM     59  C   UNL A   1      44.413  26.408  30.827  1.00  0.00     0.031 C 
ATOM     60  C   UNL A   1      43.161  29.609  35.835  1.00  0.00     0.029 A 
ATOM     61  C   UNL A   1      43.099  29.071  34.560  1.00  0.00     0.049 A 
ATOM     62  H   UNL A   1      41.651  29.382  33.056  1.00  0.00     0.167 HD
ATOM     63  C   UNL A   1      43.864  27.646  32.678  1.00  0.00     0.074 A 
ATOM     64  C   UNL A   1      44.789  26.719  32.060  1.00  0.00     0.031 C 
ATOM     65  C   UNL A   1      44.017  28.156  33.927  1.00  0.00     0.034 A 
BRANCH  52  66
ATOM     66  C   UNL A   1      39.517  32.035  35.643  1.00  0.00     0.023 A 
ATOM     67  C   UNL A   1      39.997  33.339  35.850  1.00  0.00     0.031 A 
ATOM     68  C   UNL A   1      38.457  31.580  36.446  1.00  0.00     0.131 A 
ATOM     69  C   UNL A   1      39.434  34.135  36.859  1.00  0.00     0.055 A 
ATOM     70  C   UNL A   1      37.862  32.397  37.407  1.00  0.00     0.041 A 
ATOM     71  F   UNL A   1      37.979  30.333  36.303  1.00  0.00    -0.206 F 
ATOM     72  C   UNL A   1      38.353  33.681  37.621  1.00  0.00     0.022 A 
BRANCH  69  73
ATOM     73  S   UNL A   1      40.177  35.750  37.207  1.00  0.00     0.124 S 
ATOM     74  O   UNL A   1      41.600  35.460  37.048  1.00  0.00    -0.237 OA
ATOM     75  O   UNL A   1      39.581  36.602  36.185  1.00  0.00    -0.237 OA
ATOM     76  O   UNL A   1      39.754  36.034  38.577  1.00  0.00    -0.744 OA
ENDBRANCH  69  73
ENDBRANCH  52  66
BRANCH  53  77
ATOM     77  C   UNL A   1      42.912  26.109  28.324  1.00  0.00     0.023 A 
ATOM     78  C   UNL A   1      44.004  26.494  27.530  1.00  0.00     0.031 A 
ATOM     79  C   UNL A   1      42.299  24.873  28.047  1.00  0.00     0.131 A 
ATOM     80  C   UNL A   1      44.435  25.664  26.483  1.00  0.00     0.055 A 
ATOM     81  C   UNL A   1      42.758  24.032  27.033  1.00  0.00     0.041 A 
ATOM     82  F   UNL A   1      41.247  24.460  28.773  1.00  0.00    -0.206 F 
ATOM     83  C   UNL A   1      43.828  24.430  26.238  1.00  0.00     0.022 A 
BRANCH  80  84
ATOM     84  S   UNL A   1      45.779  26.241  25.411  1.00  0.00     0.124 S 
ATOM     85  O   UNL A   1      45.190  27.436  24.816  1.00  0.00    -0.237 OA
ATOM     86  O   UNL A   1      46.858  26.465  26.367  1.00  0.00    -0.237 OA
ATOM     87  O   UNL A   1      45.986  25.124  24.493  1.00  0.00    -0.744 OA
ENDBRANCH  80  84
ENDBRANCH  53  77
BRANCH  65  88
ATOM     88  C   UNL A   1      45.215  27.709  34.724  1.00  0.00     0.023 A 
ATOM     89  C   UNL A   1      45.166  26.570  35.544  1.00  0.00     0.031 A 
ATOM     90  C   UNL A   1      46.435  28.400  34.617  1.00  0.00     0.131 A 
ATOM     91  C   UNL A   1      46.311  26.169  36.250  1.00  0.00     0.055 A 
ATOM     92  C   UNL A   1      47.585  27.967  35.280  1.00  0.00     0.041 A 
ATOM     93  F   UNL A   1      46.537  29.491  33.841  1.00  0.00    -0.206 F 
ATOM     94  C   UNL A   1      47.524  26.849  36.107  1.00  0.00     0.022 A 
BRANCH  91  95
ATOM     95  S   UNL A   1      46.184  24.765  37.390  1.00  0.00     0.124 S 
ATOM     96  O   UNL A   1      47.387  24.927  38.201  1.00  0.00    -0.237 OA
ATOM     97  O   UNL A   1      44.919  25.022  38.069  1.00  0.00    -0.237 OA
ATOM     98  O   UNL A   1      46.185  23.603  36.504  1.00  0.00    -0.744 OA
ENDBRANCH  91  95
ENDBRANCH  65  88
ENDBRANCH  39  40
ENDBRANCH  32  34
ENDBRANCH  31  32
ENDBRANCH  30  31
ENDBRANCH  29  30
ENDBRANCH  28  29
ENDBRANCH  27  28
ENDBRANCH   1  27
TORSDOF 24
ENDMDL
MODEL 2
REMARK VINA RESULT:      -9.9      2.611      7.872
REMARK SMILES Cc1cc(Br)cc2c1O[C@H](C(F)(F)F)C(C(=O)OCCOCCOCCOCCOC(=O)c1ccc(-c3c4nc(c(-c5cc(S(=O)(=O)[O-])ccc5F)c5ccc([nH]5)c(-c5cc(S(=O)(=O)[O-])ccc5F)c5nc(c(-c6cc(S(=O)(=O)[O-])ccc6F)c6ccc3[nH]6)C=C5)C=C4)cc1)=C2
REMARK SMILES IDX 25 1 24 2 23 3 22 4 21 5 20 6 19 7 18 8 16 9 17 10 15 11
REMARK SMILES IDX 1 12 2 13 3 14 8 15 4 16 7 17 9 18 5 19 6 20 96 21 10 22
REMARK SMILES IDX 11 23 12 24 13 25 14 26 26 27 27 28 28 29 29 30 30 31 31 32
REMARK SMILES IDX 32 33 33 34 34 35 95 36 35 37 94 38 36 39 37 40 38 41 88 42
REMARK SMILES IDX 39 43 93 44 87 45 89 46 40 47 92 48 86 49 85 50 41 52 73 53
REMARK SMILES IDX 53 54 72 55 54 56 57 57 71 58 90 59 55 60 56 61 70 63 91 64
REMARK SMILES IDX 58 65 42 66 43 67 51 68 44 69 50 70 52 71 49 72 45 73 46 74
REMARK SMILES IDX 47 75 48 76 74 77 75 78 83 79 76 80 82 81 84 82 81 83 77 84
REMARK SMILES IDX 78 85 79 86 80 87 59 88 60 89 68 90 61 91 67 92 69 93 66 94
REMARK SMILES IDX 62 95 63 96 64 97 65 98
REMARK H PARENT 89 51 57 62
REMARK Flexibility Score: inf
ROOT
ATOM      1  C   UNL A   1      33.178  28.765  22.610  1.00  0.00     0.188 C 
ENDROOT
BRANCH   1   2
ATOM      2  O   UNL A   1      33.548  27.590  21.887  1.00  0.00    -0.377 OA
BRANCH   2   3
ATOM      3  C   UNL A   1      32.524  26.652  21.608  1.00  0.00     0.188 C 
BRANCH   3   4
ATOM      4  C   UNL A   1      33.057  25.216  21.445  1.00  0.00     0.188 C 
BRANCH   4   5
ATOM      5  O   UNL A   1      32.609  24.284  22.409  1.00  0.00    -0.376 OA
BRANCH   5   6
ATOM      6  C   UNL A   1      31.285  24.279  22.923  1.00  0.00     0.202 C 
BRANCH   6   7
ATOM      7  C   UNL A   1      30.857  24.509  24.388  1.00  0.00     0.261 C 
BRANCH   7   8
ATOM      8  O   UNL A   1      30.653  23.367  25.216  1.00  0.00    -0.460 OA
BRANCH   8   9
ATOM      9  C   UNL A   1      31.502  23.186  26.241  1.00  0.00     0.338 C 
ATOM     10  O   UNL A   1      31.399  23.629  27.372  1.00  0.00    -0.246 OA
BRANCH   9  11
ATOM     11  C   UNL A   1      32.506  22.189  25.811  1.00  0.00     0.087 C 
ATOM     12  C   UNL A   1      36.789  19.658  24.624  1.00  0.00     0.048 C 
ATOM     13  C   UNL A   1      35.336  19.297  24.771  1.00  0.00    -0.007 A 
ATOM     14  C   UNL A   1      34.944  17.951  24.731  1.00  0.00     0.023 A 
ATOM     15  C   UNL A   1      34.372  20.284  25.040  1.00  0.00     0.130 A 
ATOM     16  C   UNL A   1      33.608  17.603  24.922  1.00  0.00     0.019 A 
ATOM     17  C   UNL A   1      33.042  19.921  25.282  1.00  0.00     0.019 A 
ATOM     18  O   UNL A   1      34.809  21.577  25.071  1.00  0.00    -0.475 OA
ATOM     19  Br  UNL A   1      33.094  15.785  24.869  1.00  0.00    -0.051 Br
ATOM     20  C   UNL A   1      32.654  18.580  25.190  1.00  0.00     0.027 A 
ATOM     21  C   UNL A   1      32.083  20.924  25.705  1.00  0.00     0.027 C 
ATOM     22  C   UNL A   1      33.893  22.645  25.440  1.00  0.00     0.316 C 
BRANCH  22  23
ATOM     23  C   UNL A   1      34.555  23.460  26.558  1.00  0.00     0.430 C 
ATOM     24  F   UNL A   1      35.903  23.486  26.418  1.00  0.00    -0.167 F 
ATOM     25  F   UNL A   1      34.137  24.746  26.571  1.00  0.00    -0.167 F 
ATOM     26  F   UNL A   1      34.287  22.935  27.778  1.00  0.00    -0.167 F 
ENDBRANCH  22  23
ENDBRANCH   9  11
ENDBRANCH   8   9
ENDBRANCH   7   8
ENDBRANCH   6   7
ENDBRANCH   5   6
ENDBRANCH   4   5
ENDBRANCH   3   4
ENDBRANCH   2   3
ENDBRANCH   1   2
BRANCH   1  27
ATOM     27  C   UNL A   1      31.743  28.931  23.163  1.00  0.00     0.188 C 
BRANCH  27  28
ATOM     28  O   UNL A   1      31.661  28.884  24.585  1.00  0.00    -0.376 OA
BRANCH  28  29
ATOM     29  C   UNL A   1      32.631  29.609  25.326  1.00  0.00     0.202 C 
BRANCH  29  30
ATOM     30  C   UNL A   1      32.081  30.477  26.466  1.00  0.00     0.261 C 
BRANCH  30  31
ATOM     31  O   UNL A   1      32.950  30.641  27.595  1.00  0.00    -0.460 OA
BRANCH  31  32
ATOM     32  C   UNL A   1      33.753  31.727  27.603  1.00  0.00     0.338 C 
ATOM     33  O   UNL A   1      33.419  32.885  27.423  1.00  0.00    -0.246 OA
BRANCH  32  34
ATOM     34  C   UNL A   1      35.085  31.292  28.070  1.00  0.00     0.060 A 
ATOM     35  C   UNL A   1      35.310  29.930  28.311  1.00  0.00     0.016 A 
ATOM     36  C   UNL A   1      36.109  32.224  28.256  1.00  0.00     0.016 A 
ATOM     37  C   UNL A   1      36.555  29.501  28.772  1.00  0.00     0.010 A 
ATOM     38  C   UNL A   1      37.347  31.795  28.744  1.00  0.00     0.010 A 
ATOM     39  C   UNL A   1      37.563  30.437  29.035  1.00  0.00    -0.014 A 
BRANCH  39  40
ATOM     40  C   UNL A   1      38.748  30.032  29.830  1.00  0.00     0.031 A 
ATOM     41  C   UNL A   1      39.674  29.008  29.232  1.00  0.00     0.074 A 
ATOM     42  C   UNL A   1      39.021  30.582  31.027  1.00  0.00     0.049 A 
ATOM     43  N   UNL A   1      40.738  28.450  29.746  1.00  0.00    -0.248 NA
ATOM     44  C   UNL A   1      39.358  28.555  27.866  1.00  0.00     0.031 C 
ATOM     45  C   UNL A   1      38.240  31.632  31.674  1.00  0.00     0.029 A 
ATOM     46  N   UNL A   1      40.042  30.329  31.909  1.00  0.00    -0.354 N 
ATOM     47  C   UNL A   1      41.220  27.588  28.768  1.00  0.00     0.074 A 
ATOM     48  C   UNL A   1      40.315  27.669  27.643  1.00  0.00     0.031 C 
ATOM     49  C   UNL A   1      38.812  31.937  32.854  1.00  0.00     0.029 A 
ATOM     50  C   UNL A   1      39.976  31.074  33.063  1.00  0.00     0.049 A 
ATOM     51  H   UNL A   1      40.756  29.674  31.732  1.00  0.00     0.167 HD
ATOM     52  C   UNL A   1      42.325  26.807  28.801  1.00  0.00     0.034 A 
ATOM     53  C   UNL A   1      40.751  31.046  34.167  1.00  0.00     0.034 A 
ATOM     54  C   UNL A   1      43.217  26.726  29.926  1.00  0.00     0.049 A 
ATOM     55  C   UNL A   1      41.910  30.078  34.227  1.00  0.00     0.074 A 
ATOM     56  C   UNL A   1      44.359  25.958  30.063  1.00  0.00     0.029 A 
ATOM     57  N   UNL A   1      43.067  27.435  31.109  1.00  0.00    -0.354 N 
ATOM     58  N   UNL A   1      42.334  29.241  33.309  1.00  0.00    -0.248 NA
ATOM     59  C   UNL A   1      42.690  30.049  35.473  1.00  0.00     0.031 C 
ATOM     60  C   UNL A   1      44.862  26.150  31.352  1.00  0.00     0.029 A 
ATOM     61  C   UNL A   1      44.078  27.096  31.994  1.00  0.00     0.049 A 
ATOM     62  H   UNL A   1      42.349  28.083  31.294  1.00  0.00     0.167 HD
ATOM     63  C   UNL A   1      43.445  28.603  33.859  1.00  0.00     0.074 A 
ATOM     64  C   UNL A   1      43.629  29.158  35.185  1.00  0.00     0.031 C 
ATOM     65  C   UNL A   1      44.242  27.649  33.316  1.00  0.00     0.034 A 
BRANCH  52  66
ATOM     66  C   UNL A   1      42.612  25.951  27.597  1.00  0.00     0.023 A 
ATOM     67  C   UNL A   1      42.129  24.635  27.500  1.00  0.00     0.031 A 
ATOM     68  C   UNL A   1      43.354  26.469  26.522  1.00  0.00     0.131 A 
ATOM     69  C   UNL A   1      42.420  23.870  26.361  1.00  0.00     0.055 A 
ATOM     70  C   UNL A   1      43.590  25.724  25.367  1.00  0.00     0.041 A 
ATOM     71  F   UNL A   1      43.857  27.712  26.577  1.00  0.00    -0.206 F 
ATOM     72  C   UNL A   1      43.125  24.414  25.283  1.00  0.00     0.022 A 
BRANCH  69  73
ATOM     73  S   UNL A   1      41.921  22.128  26.332  1.00  0.00     0.124 S 
ATOM     74  O   UNL A   1      42.827  21.579  25.326  1.00  0.00    -0.237 OA
ATOM     75  O   UNL A   1      42.161  21.705  27.707  1.00  0.00    -0.237 OA
ATOM     76  O   UNL A   1      40.515  22.181  25.934  1.00  0.00    -0.744 OA
ENDBRANCH  69  73
ENDBRANCH  52  66
BRANCH  53  77
ATOM     77  C   UNL A   1      40.443  31.930  35.328  1.00  0.00     0.023 A 
ATOM     78  C   UNL A   1      39.353  31.667  36.171  1.00  0.00     0.031 A 
ATOM     79  C   UNL A   1      41.218  33.075  35.588  1.00  0.00     0.131 A 
ATOM     80  C   UNL A   1      39.052  32.549  37.221  1.00  0.00     0.055 A 
ATOM     81  C   UNL A   1      40.941  33.925  36.659  1.00  0.00     0.041 A 
ATOM     82  F   UNL A   1      42.269  33.375  34.808  1.00  0.00    -0.206 F 
ATOM     83  C   UNL A   1      39.847  33.668  37.479  1.00  0.00     0.022 A 
BRANCH  80  84
ATOM     84  S   UNL A   1      37.574  32.236  38.225  1.00  0.00     0.124 S 
ATOM     85  O   UNL A   1      36.600  33.126  37.603  1.00  0.00    -0.237 OA
ATOM     86  O   UNL A   1      37.362  30.808  38.020  1.00  0.00    -0.237 OA
ATOM     87  O   UNL A   1      37.992  32.614  39.573  1.00  0.00    -0.744 OA
ENDBRANCH  80  84
ENDBRANCH  53  77
BRANCH  65  88
ATOM     88  C   UNL A   1      45.404  27.154  34.138  1.00  0.00     0.023 A 
ATOM     89  C   UNL A   1      46.640  27.821  34.135  1.00  0.00     0.031 A 
ATOM     90  C   UNL A   1      45.253  26.035  34.977  1.00  0.00     0.131 A 
ATOM     91  C   UNL A   1      47.690  27.345  34.935  1.00  0.00     0.055 A 
ATOM     92  C   UNL A   1      46.284  25.598  35.810  1.00  0.00     0.041 A 
ATOM     93  F   UNL A   1      44.089  25.367  35.021  1.00  0.00    -0.206 F 
ATOM     94  C   UNL A   1      47.512  26.251  35.787  1.00  0.00     0.022 A 
BRANCH  91  95
ATOM     95  S   UNL A   1      49.308  28.156  34.822  1.00  0.00     0.124 S 
ATOM     96  O   UNL A   1      50.213  27.073  35.194  1.00  0.00    -0.237 OA
ATOM     97  O   UNL A   1      49.355  28.573  33.425  1.00  0.00    -0.237 OA
ATOM     98  O   UNL A   1      49.214  29.247  35.790  1.00  0.00    -0.744 OA
ENDBRANCH  91  95
ENDBRANCH  65  88
ENDBRANCH  39  40
ENDBRANCH  32  34
ENDBRANCH  31  32
ENDBRANCH  30  31
ENDBRANCH  29  30
ENDBRANCH  28  29
ENDBRANCH  27  28
ENDBRANCH   1  27
TORSDOF 24
ENDMDL
MODEL 3
REMARK VINA RESULT:      -9.7      1.427      7.376
REMARK SMILES Cc1cc(Br)cc2c1O[C@H](C(F)(F)F)C(C(=O)OCCOCCOCCOCCOC(=O)c1ccc(-c3c4nc(c(-c5cc(S(=O)(=O)[O-])ccc5F)c5ccc([nH]5)c(-c5cc(S(=O)(=O)[O-])ccc5F)c5nc(c(-c6cc(S(=O)(=O)[O-])ccc6F)c6ccc3[nH]6)C=C5)C=C4)cc1)=C2
REMARK SMILES IDX 25 1 24 2 23 3 22 4 21 5 20 6 19 7 18 8 16 9 17 10 15 11
REMARK SMILES IDX 1 12 2 13 3 14 8 15 4 16 7 17 9 18 5 19 6 20 96 21 10 22
REMARK SMILES IDX 11 23 12 24 13 25 14 26 26 27 27 28 28 29 29 30 30 31 31 32
REMARK SMILES IDX 32 33 33 34 34 35 95 36 35 37 94 38 36 39 37 40 38 41 88 42
REMARK SMILES IDX 39 43 93 44 87 45 89 46 40 47 92 48 86 49 85 50 41 52 73 53
REMARK SMILES IDX 53 54 72 55 54 56 57 57 71 58 90 59 55 60 56 61 70 63 91 64
REMARK SMILES IDX 58 65 42 66 43 67 51 68 44 69 50 70 52 71 49 72 45 73 46 74
REMARK SMILES IDX 47 75 48 76 74 77 75 78 83 79 76 80 82 81 84 82 81 83 77 84
REMARK SMILES IDX 78 85 79 86 80 87 59 88 60 89 68 90 61 91 67 92 69 93 66 94
REMARK SMILES IDX 62 95 63 96 64 97 65 98
REMARK H PARENT 89 51 57 62
REMARK Flexibility Score: inf
ROOT
ATOM      1  C   UNL A   1      33.720  28.102  22.223  1.00  0.00     0.188 C 
ENDROOT
BRANCH   1   2
ATOM      2  O   UNL A   1      33.729  26.881  21.483  1.00  0.00    -0.377 OA
BRANCH   2   3
ATOM      3  C   UNL A   1      32.831  25.866  21.897  1.00  0.00     0.188 C 
BRANCH   3   4
ATOM      4  C   UNL A   1      33.025  24.546  21.129  1.00  0.00     0.188 C 
BRANCH   4   5
ATOM      5  O   UNL A   1      33.461  23.447  21.904  1.00  0.00    -0.376 OA
BRANCH   5   6
ATOM      6  C   UNL A   1      32.726  22.236  22.011  1.00  0.00     0.202 C 
BRANCH   6   7
ATOM      7  C   UNL A   1      32.404  21.457  23.303  1.00  0.00     0.261 C 
BRANCH   7   8
ATOM      8  O   UNL A   1      33.335  20.471  23.744  1.00  0.00    -0.460 OA
BRANCH   8   9
ATOM      9  C   UNL A   1      33.584  20.399  25.062  1.00  0.00     0.338 C 
ATOM     10  O   UNL A   1      32.980  19.744  25.893  1.00  0.00    -0.246 OA
BRANCH   9  11
ATOM     11  C   UNL A   1      34.852  21.119  25.310  1.00  0.00     0.087 C 
ATOM     12  C   UNL A   1      38.463  24.504  26.597  1.00  0.00     0.048 C 
ATOM     13  C   UNL A   1      38.448  23.060  26.179  1.00  0.00    -0.007 A 
ATOM     14  C   UNL A   1      39.627  22.302  26.246  1.00  0.00     0.023 A 
ATOM     15  C   UNL A   1      37.248  22.429  25.808  1.00  0.00     0.130 A 
ATOM     16  C   UNL A   1      39.611  20.948  25.914  1.00  0.00     0.019 A 
ATOM     17  C   UNL A   1      37.232  21.058  25.526  1.00  0.00     0.019 A 
ATOM     18  O   UNL A   1      36.131  23.213  25.763  1.00  0.00    -0.475 OA
ATOM     19  Br  UNL A   1      41.206  19.938  26.012  1.00  0.00    -0.051 Br
ATOM     20  C   UNL A   1      38.422  20.324  25.548  1.00  0.00     0.027 A 
ATOM     21  C   UNL A   1      35.970  20.383  25.289  1.00  0.00     0.027 C 
ATOM     22  C   UNL A   1      34.835  22.615  25.483  1.00  0.00     0.316 C 
BRANCH  22  23
ATOM     23  C   UNL A   1      33.869  23.060  26.589  1.00  0.00     0.430 C 
ATOM     24  F   UNL A   1      32.606  22.637  26.340  1.00  0.00    -0.167 F 
ATOM     25  F   UNL A   1      34.217  22.570  27.800  1.00  0.00    -0.167 F 
ATOM     26  F   UNL A   1      33.827  24.410  26.695  1.00  0.00    -0.167 F 
ENDBRANCH  22  23
ENDBRANCH   9  11
ENDBRANCH   8   9
ENDBRANCH   7   8
ENDBRANCH   6   7
ENDBRANCH   5   6
ENDBRANCH   4   5
ENDBRANCH   3   4
ENDBRANCH   2   3
ENDBRANCH   1   2
BRANCH   1  27
ATOM     27  C   UNL A   1      32.420  28.611  22.890  1.00  0.00     0.188 C 
BRANCH  27  28
ATOM     28  O   UNL A   1      32.437  28.551  24.314  1.00  0.00    -0.376 OA
BRANCH  28  29
ATOM     29  C   UNL A   1      32.877  29.703  25.017  1.00  0.00     0.202 C 
BRANCH  29  30
ATOM     30  C   UNL A   1      32.054  30.076  26.257  1.00  0.00     0.261 C 
BRANCH  30  31
ATOM     31  O   UNL A   1      32.812  30.396  27.433  1.00  0.00    -0.460 OA
BRANCH  31  32
ATOM     32  C   UNL A   1      33.617  31.479  27.372  1.00  0.00     0.338 C 
ATOM     33  O   UNL A   1      33.301  32.607  27.038  1.00  0.00    -0.246 OA
BRANCH  32  34
ATOM     34  C   UNL A   1      34.913  31.104  27.975  1.00  0.00     0.060 A 
ATOM     35  C   UNL A   1      35.100  29.789  28.422  1.00  0.00     0.016 A 
ATOM     36  C   UNL A   1      35.939  32.045  28.087  1.00  0.00     0.016 A 
ATOM     37  C   UNL A   1      36.308  29.421  29.013  1.00  0.00     0.010 A 
ATOM     38  C   UNL A   1      37.139  31.680  28.704  1.00  0.00     0.010 A 
ATOM     39  C   UNL A   1      37.315  30.377  29.199  1.00  0.00    -0.014 A 
BRANCH  39  40
ATOM     40  C   UNL A   1      38.445  30.080  30.113  1.00  0.00     0.031 A 
ATOM     41  C   UNL A   1      39.521  29.152  29.617  1.00  0.00     0.074 A 
ATOM     42  C   UNL A   1      38.540  30.646  31.330  1.00  0.00     0.049 A 
ATOM     43  N   UNL A   1      40.574  28.694  30.240  1.00  0.00    -0.248 NA
ATOM     44  C   UNL A   1      39.391  28.680  28.228  1.00  0.00     0.031 C 
ATOM     45  C   UNL A   1      37.601  31.614  31.890  1.00  0.00     0.029 A 
ATOM     46  N   UNL A   1      39.485  30.485  32.313  1.00  0.00    -0.354 N 
ATOM     47  C   UNL A   1      41.234  27.887  29.321  1.00  0.00     0.074 A 
ATOM     48  C   UNL A   1      40.445  27.889  28.108  1.00  0.00     0.031 C 
ATOM     49  C   UNL A   1      38.018  31.964  33.121  1.00  0.00     0.029 A 
ATOM     50  C   UNL A   1      39.229  31.214  33.452  1.00  0.00     0.049 A 
ATOM     51  H   UNL A   1      40.272  29.902  32.214  1.00  0.00     0.167 HD
ATOM     52  C   UNL A   1      42.398  27.214  29.470  1.00  0.00     0.034 A 
ATOM     53  C   UNL A   1      39.886  31.252  34.630  1.00  0.00     0.034 A 
ATOM     54  C   UNL A   1      43.173  27.211  30.682  1.00  0.00     0.049 A 
ATOM     55  C   UNL A   1      41.119  30.398  34.813  1.00  0.00     0.074 A 
ATOM     56  C   UNL A   1      44.362  26.553  30.938  1.00  0.00     0.029 A 
ATOM     57  N   UNL A   1      42.836  27.895  31.841  1.00  0.00    -0.354 N 
ATOM     58  N   UNL A   1      41.713  29.610  33.946  1.00  0.00    -0.248 NA
ATOM     59  C   UNL A   1      41.766  30.435  36.132  1.00  0.00     0.031 C 
ATOM     60  C   UNL A   1      44.709  26.784  32.272  1.00  0.00     0.029 A 
ATOM     61  C   UNL A   1      43.778  27.647  32.826  1.00  0.00     0.049 A 
ATOM     62  H   UNL A   1      42.044  28.471  31.948  1.00  0.00     0.167 HD
ATOM     63  C   UNL A   1      42.816  29.076  34.611  1.00  0.00     0.074 A 
ATOM     64  C   UNL A   1      42.810  29.638  35.946  1.00  0.00     0.031 C 
ATOM     65  C   UNL A   1      43.752  28.205  34.155  1.00  0.00     0.034 A 
BRANCH  52  66
ATOM     66  C   UNL A   1      42.887  26.396  28.305  1.00  0.00     0.023 A 
ATOM     67  C   UNL A   1      43.985  26.806  27.530  1.00  0.00     0.031 A 
ATOM     68  C   UNL A   1      42.263  25.178  27.985  1.00  0.00     0.131 A 
ATOM     69  C   UNL A   1      44.409  26.015  26.453  1.00  0.00     0.055 A 
ATOM     70  C   UNL A   1      42.727  24.367  26.950  1.00  0.00     0.041 A 
ATOM     71  F   UNL A   1      41.196  24.755  28.681  1.00  0.00    -0.206 F 
ATOM     72  C   UNL A   1      43.803  24.786  26.173  1.00  0.00     0.022 A 
BRANCH  69  73
ATOM     73  S   UNL A   1      45.724  26.644  25.376  1.00  0.00     0.124 S 
ATOM     74  O   UNL A   1      45.975  25.492  24.514  1.00  0.00    -0.237 OA
ATOM     75  O   UNL A   1      45.091  27.792  24.738  1.00  0.00    -0.237 OA
ATOM     76  O   UNL A   1      46.804  26.967  26.307  1.00  0.00    -0.744 OA
ENDBRANCH  69  73
ENDBRANCH  52  66
BRANCH  53  77
ATOM     77  C   UNL A   1      39.378  32.096  35.750  1.00  0.00     0.023 A 
ATOM     78  C   UNL A   1      38.611  31.541  36.785  1.00  0.00     0.031 A 
ATOM     79  C   UNL A   1      39.625  33.481  35.779  1.00  0.00     0.131 A 
ATOM     80  C   UNL A   1      38.096  32.370  37.796  1.00  0.00     0.055 A 
ATOM     81  C   UNL A   1      39.148  34.293  36.808  1.00  0.00     0.041 A 
ATOM     82  F   UNL A   1      40.350  34.062  34.809  1.00  0.00    -0.206 F 
ATOM     83  C   UNL A   1      38.371  33.739  37.821  1.00  0.00     0.022 A 
BRANCH  80  84
ATOM     84  S   UNL A   1      37.020  31.639  39.059  1.00  0.00     0.124 S 
ATOM     85  O   UNL A   1      37.882  31.670  40.236  1.00  0.00    -0.237 OA
ATOM     86  O   UNL A   1      35.888  32.558  39.066  1.00  0.00    -0.237 OA
ATOM     87  O   UNL A   1      36.733  30.306  38.532  1.00  0.00    -0.744 OA
ENDBRANCH  80  84
ENDBRANCH  53  77
BRANCH  65  88
ATOM     88  C   UNL A   1      44.865  27.818  35.095  1.00  0.00     0.023 A 
ATOM     89  C   UNL A   1      44.809  26.635  35.849  1.00  0.00     0.031 A 
ATOM     90  C   UNL A   1      46.019  28.615  35.190  1.00  0.00     0.131 A 
ATOM     91  C   UNL A   1      45.878  26.296  36.692  1.00  0.00     0.055 A 
ATOM     92  C   UNL A   1      47.102  28.246  35.990  1.00  0.00     0.041 A 
ATOM     93  F   UNL A   1      46.125  29.752  34.484  1.00  0.00    -0.206 F 
ATOM     94  C   UNL A   1      47.032  27.083  36.751  1.00  0.00     0.022 A 
BRANCH  91  95
ATOM     95  S   UNL A   1      45.727  24.825  37.742  1.00  0.00     0.124 S 
ATOM     96  O   UNL A   1      45.872  23.746  36.771  1.00  0.00    -0.237 OA
ATOM     97  O   UNL A   1      46.833  24.991  38.679  1.00  0.00    -0.237 OA
ATOM     98  O   UNL A   1      44.395  24.958  38.328  1.00  0.00    -0.744 OA
ENDBRANCH  91  95
ENDBRANCH  65  88
ENDBRANCH  39  40
ENDBRANCH  32  34
ENDBRANCH  31  32
ENDBRANCH  30  31
ENDBRANCH  29  30
ENDBRANCH  28  29
ENDBRANCH  27  28
ENDBRANCH   1  27
TORSDOF 24
ENDMDL
