MODEL 1
REMARK VINA RESULT:      -9.9      0.000      0.000
REMARK SMILES CC[C@H]1CO[C@@H](C)CN1c1cccc(F)c1C(=O)OCCOCCOCCOCCOC(=O)c1ccc(-c2c3nc(c(-c4cc(S(=O)(=O)[O-])ccc4F)c4ccc([nH]4)c(-c4cc(S(=O)(=O)[O-])ccc4F)c4nc(c(-c5cc(S(=O)(=O)[O-])ccc5F)c5ccc2[nH]5)C=C4)C=C3)cc1
REMARK SMILES IDX 26 1 25 2 24 3 23 4 22 5 21 6 20 7 19 8 17 9 18 10 16 11
REMARK SMILES IDX 10 12 11 13 12 14 14 15 13 16 15 17 9 18 3 19 4 20 5 21 8 22
REMARK SMILES IDX 6 23 7 24 2 25 1 26 27 27 28 28 29 29 30 30 31 31 32 32
REMARK SMILES IDX 33 33 34 34 35 35 96 36 36 37 95 38 37 39 38 40 39 41 89 42
REMARK SMILES IDX 40 43 94 44 88 45 90 46 41 47 93 48 87 49 86 50 42 52 74 53
REMARK SMILES IDX 54 54 73 55 55 56 58 57 72 58 91 59 56 60 57 61 71 63 92 64
REMARK SMILES IDX 59 65 43 66 44 67 52 68 45 69 51 70 53 71 50 72 46 73 47 74
REMARK SMILES IDX 48 75 49 76 75 77 76 78 84 79 77 80 83 81 85 82 82 83 78 84
REMARK SMILES IDX 79 85 80 86 81 87 60 88 61 89 69 90 62 91 68 92 70 93 67 94
REMARK SMILES IDX 63 95 64 96 65 97 66 98
REMARK H PARENT 90 51 58 62
REMARK Flexibility Score: inf
ROOT
ATOM      1  C   UNL A   1      32.937  28.970  25.578  1.00  0.00     0.188 C 
ENDROOT
BRANCH   1   2
ATOM      2  O   UNL A   1      31.975  28.699  24.573  1.00  0.00    -0.377 OA
BRANCH   2   3
ATOM      3  C   UNL A   1      32.206  27.575  23.735  1.00  0.00     0.188 C 
BRANCH   3   4
ATOM      4  C   UNL A   1      33.632  27.157  23.327  1.00  0.00     0.188 C 
BRANCH   4   5
ATOM      5  O   UNL A   1      33.743  26.579  22.033  1.00  0.00    -0.376 OA
BRANCH   5   6
ATOM      6  C   UNL A   1      33.167  25.285  21.901  1.00  0.00     0.202 C 
BRANCH   6   7
ATOM      7  C   UNL A   1      33.750  24.286  22.900  1.00  0.00     0.261 C 
BRANCH   7   8
ATOM      8  O   UNL A   1      33.443  22.920  22.565  1.00  0.00    -0.460 OA
BRANCH   8   9
ATOM      9  C   UNL A   1      32.280  22.376  23.007  1.00  0.00     0.343 C 
ATOM     10  O   UNL A   1      31.205  22.929  23.067  1.00  0.00    -0.246 OA
BRANCH   9  11
ATOM     11  C   UNL A   1      32.558  20.942  23.303  1.00  0.00     0.119 A 
ATOM     12  C   UNL A   1      33.185  20.512  24.500  1.00  0.00     0.055 A 
ATOM     13  C   UNL A   1      33.382  19.127  24.669  1.00  0.00     0.027 A 
ATOM     14  C   UNL A   1      32.972  18.200  23.703  1.00  0.00     0.005 A 
ATOM     15  C   UNL A   1      32.152  20.002  22.346  1.00  0.00     0.139 A 
ATOM     16  C   UNL A   1      32.349  18.640  22.543  1.00  0.00     0.040 A 
ATOM     17  F   UNL A   1      31.565  20.387  21.202  1.00  0.00    -0.206 F 
BRANCH  12  18
ATOM     18  N   UNL A   1      33.609  21.395  25.492  1.00  0.00    -0.363 N 
ATOM     19  C   UNL A   1      35.046  21.475  25.873  1.00  0.00     0.108 C 
ATOM     20  C   UNL A   1      35.263  22.842  26.572  1.00  0.00     0.185 C 
ATOM     21  O   UNL A   1      34.437  22.974  27.744  1.00  0.00    -0.375 OA
ATOM     22  C   UNL A   1      32.774  21.476  26.716  1.00  0.00     0.148 C 
ATOM     23  C   UNL A   1      33.032  22.819  27.444  1.00  0.00     0.134 C 
ATOM     24  C   UNL A   1      32.510  24.050  26.704  1.00  0.00     0.040 C 
BRANCH  19  25
ATOM     25  C   UNL A   1      36.047  21.289  24.724  1.00  0.00     0.024 C 
ATOM     26  C   UNL A   1      36.913  20.059  24.988  1.00  0.00     0.006 C 
ENDBRANCH  19  25
ENDBRANCH  12  18
ENDBRANCH   9  11
ENDBRANCH   8   9
ENDBRANCH   7   8
ENDBRANCH   6   7
ENDBRANCH   5   6
ENDBRANCH   4   5
ENDBRANCH   3   4
ENDBRANCH   2   3
ENDBRANCH   1   2
BRANCH   1  27
ATOM     27  C   UNL A   1      32.740  30.326  26.285  1.00  0.00     0.188 C 
BRANCH  27  28
ATOM     28  O   UNL A   1      31.462  30.913  26.029  1.00  0.00    -0.376 OA
BRANCH  28  29
ATOM     29  C   UNL A   1      31.264  32.239  26.500  1.00  0.00     0.202 C 
BRANCH  29  30
ATOM     30  C   UNL A   1      32.500  32.967  27.047  1.00  0.00     0.261 C 
BRANCH  30  31
ATOM     31  O   UNL A   1      32.296  33.758  28.226  1.00  0.00    -0.460 OA
BRANCH  31  32
ATOM     32  C   UNL A   1      33.252  34.650  28.566  1.00  0.00     0.338 C 
ATOM     33  O   UNL A   1      33.134  35.859  28.631  1.00  0.00    -0.246 OA
BRANCH  32  34
ATOM     34  C   UNL A   1      34.403  33.870  29.077  1.00  0.00     0.060 A 
ATOM     35  C   UNL A   1      34.153  32.743  29.874  1.00  0.00     0.016 A 
ATOM     36  C   UNL A   1      35.708  34.188  28.688  1.00  0.00     0.016 A 
ATOM     37  C   UNL A   1      35.214  31.947  30.304  1.00  0.00     0.010 A 
ATOM     38  C   UNL A   1      36.772  33.411  29.145  1.00  0.00     0.010 A 
ATOM     39  C   UNL A   1      36.529  32.311  29.985  1.00  0.00    -0.014 A 
BRANCH  39  40
ATOM     40  C   UNL A   1      37.643  31.738  30.776  1.00  0.00     0.031 A 
ATOM     41  C   UNL A   1      38.506  30.714  30.093  1.00  0.00     0.074 A 
ATOM     42  C   UNL A   1      37.913  32.136  32.030  1.00  0.00     0.049 A 
ATOM     43  N   UNL A   1      39.535  30.052  30.550  1.00  0.00    -0.248 NA
ATOM     44  C   UNL A   1      38.154  30.396  28.698  1.00  0.00     0.031 C 
ATOM     45  C   UNL A   1      37.188  33.167  32.767  1.00  0.00     0.029 A 
ATOM     46  N   UNL A   1      38.890  31.721  32.898  1.00  0.00    -0.354 N 
ATOM     47  C   UNL A   1      39.962  29.255  29.494  1.00  0.00     0.074 A 
ATOM     48  C   UNL A   1      39.051  29.475  28.394  1.00  0.00     0.031 C 
ATOM     49  C   UNL A   1      37.756  33.314  33.978  1.00  0.00     0.029 A 
ATOM     50  C   UNL A   1      38.862  32.365  34.112  1.00  0.00     0.049 A 
ATOM     51  H   UNL A   1      39.551  31.026  32.674  1.00  0.00     0.167 HD
ATOM     52  C   UNL A   1      41.031  28.427  29.439  1.00  0.00     0.034 A 
ATOM     53  C   UNL A   1      39.636  32.198  35.204  1.00  0.00     0.034 A 
ATOM     54  C   UNL A   1      41.912  28.192  30.551  1.00  0.00     0.049 A 
ATOM     55  C   UNL A   1      40.735  31.166  35.176  1.00  0.00     0.074 A 
ATOM     56  C   UNL A   1      43.012  27.358  30.617  1.00  0.00     0.029 A 
ATOM     57  N   UNL A   1      41.781  28.784  31.800  1.00  0.00    -0.354 N 
ATOM     58  N   UNL A   1      41.113  30.390  34.186  1.00  0.00    -0.248 NA
ATOM     59  C   UNL A   1      41.509  30.978  36.412  1.00  0.00     0.031 C 
ATOM     60  C   UNL A   1      43.506  27.394  31.923  1.00  0.00     0.029 A 
ATOM     61  C   UNL A   1      42.758  28.306  32.654  1.00  0.00     0.049 A 
ATOM     62  H   UNL A   1      41.092  29.445  32.042  1.00  0.00     0.167 HD
ATOM     63  C   UNL A   1      42.180  29.639  34.671  1.00  0.00     0.074 A 
ATOM     64  C   UNL A   1      42.383  30.048  36.046  1.00  0.00     0.031 C 
ATOM     65  C   UNL A   1      42.933  28.710  34.030  1.00  0.00     0.034 A 
BRANCH  52  66
ATOM     66  C   UNL A   1      41.257  27.689  28.146  1.00  0.00     0.023 A 
ATOM     67  C   UNL A   1      40.980  26.316  28.028  1.00  0.00     0.031 A 
ATOM     68  C   UNL A   1      41.806  28.351  27.036  1.00  0.00     0.131 A 
ATOM     69  C   UNL A   1      41.318  25.634  26.851  1.00  0.00     0.055 A 
ATOM     70  C   UNL A   1      42.069  27.682  25.839  1.00  0.00     0.041 A 
ATOM     71  F   UNL A   1      42.117  29.656  27.102  1.00  0.00    -0.206 F 
ATOM     72  C   UNL A   1      41.838  26.312  25.747  1.00  0.00     0.022 A 
BRANCH  69  73
ATOM     73  S   UNL A   1      41.191  23.825  26.831  1.00  0.00     0.124 S 
ATOM     74  O   UNL A   1      42.087  23.479  25.731  1.00  0.00    -0.237 OA
ATOM     75  O   UNL A   1      41.648  23.459  28.166  1.00  0.00    -0.237 OA
ATOM     76  O   UNL A   1      39.773  23.584  26.569  1.00  0.00    -0.744 OA
ENDBRANCH  69  73
ENDBRANCH  52  66
BRANCH  53  77
ATOM     77  C   UNL A   1      39.381  33.021  36.417  1.00  0.00     0.023 A 
ATOM     78  C   UNL A   1      38.526  32.566  37.432  1.00  0.00     0.031 A 
ATOM     79  C   UNL A   1      40.025  34.259  36.595  1.00  0.00     0.131 A 
ATOM     80  C   UNL A   1      38.338  33.345  38.585  1.00  0.00     0.055 A 
ATOM     81  C   UNL A   1      39.856  35.016  37.754  1.00  0.00     0.041 A 
ATOM     82  F   UNL A   1      40.856  34.731  35.652  1.00  0.00    -0.206 F 
ATOM     83  C   UNL A   1      39.008  34.560  38.759  1.00  0.00     0.022 A 
BRANCH  80  84
ATOM     84  S   UNL A   1      37.213  32.742  39.875  1.00  0.00     0.124 S 
ATOM     85  O   UNL A   1      35.938  32.718  39.169  1.00  0.00    -0.237 OA
ATOM     86  O   UNL A   1      37.790  31.443  40.204  1.00  0.00    -0.237 OA
ATOM     87  O   UNL A   1      37.327  33.752  40.925  1.00  0.00    -0.744 OA
ENDBRANCH  80  84
ENDBRANCH  53  77
BRANCH  65  88
ATOM     88  C   UNL A   1      44.070  28.076  34.786  1.00  0.00     0.023 A 
ATOM     89  C   UNL A   1      43.883  26.918  35.558  1.00  0.00     0.031 A 
ATOM     90  C   UNL A   1      45.374  28.581  34.642  1.00  0.00     0.131 A 
ATOM     91  C   UNL A   1      44.988  26.304  36.166  1.00  0.00     0.055 A 
ATOM     92  C   UNL A   1      46.474  27.944  35.215  1.00  0.00     0.041 A 
ATOM     93  F   UNL A   1      45.602  29.680  33.905  1.00  0.00    -0.206 F 
ATOM     94  C   UNL A   1      46.284  26.799  35.983  1.00  0.00     0.022 A 
BRANCH  91  95
ATOM     95  S   UNL A   1      44.719  24.841  37.202  1.00  0.00     0.124 S 
ATOM     96  O   UNL A   1      45.271  23.777  36.370  1.00  0.00    -0.237 OA
ATOM     97  O   UNL A   1      45.473  25.162  38.410  1.00  0.00    -0.237 OA
ATOM     98  O   UNL A   1      43.267  24.804  37.374  1.00  0.00    -0.744 OA
ENDBRANCH  91  95
ENDBRANCH  65  88
ENDBRANCH  39  40
ENDBRANCH  32  34
ENDBRANCH  31  32
ENDBRANCH  30  31
ENDBRANCH  29  30
ENDBRANCH  28  29
ENDBRANCH  27  28
ENDBRANCH   1  27
TORSDOF 25
ENDMDL
MODEL 2
REMARK VINA RESULT:      -9.3      1.982      7.529
REMARK SMILES CC[C@H]1CO[C@@H](C)CN1c1cccc(F)c1C(=O)OCCOCCOCCOCCOC(=O)c1ccc(-c2c3nc(c(-c4cc(S(=O)(=O)[O-])ccc4F)c4ccc([nH]4)c(-c4cc(S(=O)(=O)[O-])ccc4F)c4nc(c(-c5cc(S(=O)(=O)[O-])ccc5F)c5ccc2[nH]5)C=C4)C=C3)cc1
REMARK SMILES IDX 26 1 25 2 24 3 23 4 22 5 21 6 20 7 19 8 17 9 18 10 16 11
REMARK SMILES IDX 10 12 11 13 12 14 14 15 13 16 15 17 9 18 3 19 4 20 5 21 8 22
REMARK SMILES IDX 6 23 7 24 2 25 1 26 27 27 28 28 29 29 30 30 31 31 32 32
REMARK SMILES IDX 33 33 34 34 35 35 96 36 36 37 95 38 37 39 38 40 39 41 89 42
REMARK SMILES IDX 40 43 94 44 88 45 90 46 41 47 93 48 87 49 86 50 42 52 74 53
REMARK SMILES IDX 54 54 73 55 55 56 58 57 72 58 91 59 56 60 57 61 71 63 92 64
REMARK SMILES IDX 59 65 43 66 44 67 52 68 45 69 51 70 53 71 50 72 46 73 47 74
REMARK SMILES IDX 48 75 49 76 75 77 76 78 84 79 77 80 83 81 85 82 82 83 78 84
REMARK SMILES IDX 79 85 80 86 81 87 60 88 61 89 69 90 62 91 68 92 70 93 67 94
REMARK SMILES IDX 63 95 64 96 65 97 66 98
REMARK H PARENT 90 51 58 62
REMARK Flexibility Score: inf
ROOT
ATOM      1  C   UNL A   1      32.503  28.227  25.686  1.00  0.00     0.188 C 
ENDROOT
BRANCH   1   2
ATOM      2  O   UNL A   1      32.918  28.754  24.437  1.00  0.00    -0.377 OA
BRANCH   2   3
ATOM      3  C   UNL A   1      32.454  28.098  23.265  1.00  0.00     0.188 C 
BRANCH   3   4
ATOM      4  C   UNL A   1      33.397  27.237  22.402  1.00  0.00     0.188 C 
BRANCH   4   5
ATOM      5  O   UNL A   1      32.747  26.305  21.548  1.00  0.00    -0.376 OA
BRANCH   5   6
ATOM      6  C   UNL A   1      31.759  25.499  22.178  1.00  0.00     0.202 C 
BRANCH   6   7
ATOM      7  C   UNL A   1      32.266  24.866  23.474  1.00  0.00     0.261 C 
BRANCH   7   8
ATOM      8  O   UNL A   1      32.138  23.432  23.480  1.00  0.00    -0.460 OA
BRANCH   8   9
ATOM      9  C   UNL A   1      32.910  22.695  22.641  1.00  0.00     0.343 C 
ATOM     10  O   UNL A   1      33.625  23.121  21.763  1.00  0.00    -0.246 OA
BRANCH   9  11
ATOM     11  C   UNL A   1      32.792  21.276  23.079  1.00  0.00     0.119 A 
ATOM     12  C   UNL A   1      33.195  20.832  24.364  1.00  0.00     0.055 A 
ATOM     13  C   UNL A   1      33.020  19.466  24.664  1.00  0.00     0.027 A 
ATOM     14  C   UNL A   1      32.464  18.573  23.741  1.00  0.00     0.005 A 
ATOM     15  C   UNL A   1      32.235  20.370  22.166  1.00  0.00     0.139 A 
ATOM     16  C   UNL A   1      32.064  19.029  22.492  1.00  0.00     0.040 A 
ATOM     17  F   UNL A   1      31.855  20.766  20.942  1.00  0.00    -0.206 F 
BRANCH  12  18
ATOM     18  N   UNL A   1      33.752  21.682  25.318  1.00  0.00    -0.363 N 
ATOM     19  C   UNL A   1      35.223  21.714  25.540  1.00  0.00     0.108 C 
ATOM     20  C   UNL A   1      35.556  23.059  26.234  1.00  0.00     0.185 C 
ATOM     21  O   UNL A   1      34.868  23.191  27.493  1.00  0.00    -0.375 OA
ATOM     22  C   UNL A   1      33.058  21.761  26.629  1.00  0.00     0.148 C 
ATOM     23  C   UNL A   1      33.435  23.081  27.347  1.00  0.00     0.134 C 
ATOM     24  C   UNL A   1      32.872  24.341  26.691  1.00  0.00     0.040 C 
BRANCH  19  25
ATOM     25  C   UNL A   1      36.086  21.524  24.285  1.00  0.00     0.024 C 
ATOM     26  C   UNL A   1      36.484  22.886  23.721  1.00  0.00     0.006 C 
ENDBRANCH  19  25
ENDBRANCH  12  18
ENDBRANCH   9  11
ENDBRANCH   8   9
ENDBRANCH   7   8
ENDBRANCH   6   7
ENDBRANCH   5   6
ENDBRANCH   4   5
ENDBRANCH   3   4
ENDBRANCH   2   3
ENDBRANCH   1   2
BRANCH   1  27
ATOM     27  C   UNL A   1      31.730  29.229  26.564  1.00  0.00     0.188 C 
BRANCH  27  28
ATOM     28  O   UNL A   1      31.221  30.346  25.830  1.00  0.00    -0.376 OA
BRANCH  28  29
ATOM     29  C   UNL A   1      31.476  31.634  26.371  1.00  0.00     0.202 C 
BRANCH  29  30
ATOM     30  C   UNL A   1      32.786  31.806  27.152  1.00  0.00     0.261 C 
BRANCH  30  31
ATOM     31  O   UNL A   1      32.824  32.892  28.089  1.00  0.00    -0.460 OA
BRANCH  31  32
ATOM     32  C   UNL A   1      33.864  33.752  28.023  1.00  0.00     0.338 C 
ATOM     33  O   UNL A   1      33.808  34.955  27.852  1.00  0.00    -0.246 OA
BRANCH  32  34
ATOM     34  C   UNL A   1      35.069  32.998  28.436  1.00  0.00     0.060 A 
ATOM     35  C   UNL A   1      34.941  31.634  28.738  1.00  0.00     0.016 A 
ATOM     36  C   UNL A   1      36.329  33.606  28.424  1.00  0.00     0.016 A 
ATOM     37  C   UNL A   1      36.072  30.883  29.055  1.00  0.00     0.010 A 
ATOM     38  C   UNL A   1      37.457  32.862  28.773  1.00  0.00     0.010 A 
ATOM     39  C   UNL A   1      37.325  31.508  29.125  1.00  0.00    -0.014 A 
BRANCH  39  40
ATOM     40  C   UNL A   1      38.421  30.837  29.860  1.00  0.00     0.031 A 
ATOM     41  C   UNL A   1      38.627  31.240  31.293  1.00  0.00     0.074 A 
ATOM     42  C   UNL A   1      39.177  29.877  29.302  1.00  0.00     0.049 A 
ATOM     43  N   UNL A   1      39.511  30.822  32.159  1.00  0.00    -0.248 NA
ATOM     44  C   UNL A   1      37.702  32.260  31.819  1.00  0.00     0.031 C 
ATOM     45  C   UNL A   1      39.026  29.358  27.945  1.00  0.00     0.029 A 
ATOM     46  N   UNL A   1      40.221  29.157  29.826  1.00  0.00    -0.354 N 
ATOM     47  C   UNL A   1      39.236  31.512  33.333  1.00  0.00     0.074 A 
ATOM     48  C   UNL A   1      38.142  32.415  33.055  1.00  0.00     0.031 C 
ATOM     49  C   UNL A   1      39.938  28.390  27.746  1.00  0.00     0.029 A 
ATOM     50  C   UNL A   1      40.759  28.245  28.950  1.00  0.00     0.049 A 
ATOM     51  H   UNL A   1      40.555  29.282  30.744  1.00  0.00     0.167 HD
ATOM     52  C   UNL A   1      39.830  31.392  34.543  1.00  0.00     0.034 A 
ATOM     53  C   UNL A   1      41.799  27.399  29.104  1.00  0.00     0.034 A 
ATOM     54  C   UNL A   1      40.940  30.514  34.800  1.00  0.00     0.049 A 
ATOM     55  C   UNL A   1      42.544  27.380  30.415  1.00  0.00     0.074 A 
ATOM     56  C   UNL A   1      41.636  30.327  35.979  1.00  0.00     0.029 A 
ATOM     57  N   UNL A   1      41.526  29.686  33.852  1.00  0.00    -0.354 N 
ATOM     58  N   UNL A   1      42.302  28.062  31.511  1.00  0.00    -0.248 NA
ATOM     59  C   UNL A   1      43.708  26.487  30.510  1.00  0.00     0.031 C 
ATOM     60  C   UNL A   1      42.683  29.437  35.728  1.00  0.00     0.029 A 
ATOM     61  C   UNL A   1      42.598  29.013  34.410  1.00  0.00     0.049 A 
ATOM     62  H   UNL A   1      41.224  29.593  32.919  1.00  0.00     0.167 HD
ATOM     63  C   UNL A   1      43.267  27.664  32.432  1.00  0.00     0.074 A 
ATOM     64  C   UNL A   1      44.102  26.688  31.762  1.00  0.00     0.031 C 
ATOM     65  C   UNL A   1      43.433  28.058  33.720  1.00  0.00     0.034 A 
BRANCH  52  66
ATOM     66  C   UNL A   1      39.312  32.274  35.649  1.00  0.00     0.023 A 
ATOM     67  C   UNL A   1      39.743  33.605  35.787  1.00  0.00     0.031 A 
ATOM     68  C   UNL A   1      38.421  31.763  36.607  1.00  0.00     0.131 A 
ATOM     69  C   UNL A   1      39.337  34.358  36.898  1.00  0.00     0.055 A 
ATOM     70  C   UNL A   1      37.960  32.543  37.669  1.00  0.00     0.041 A 
ATOM     71  F   UNL A   1      38.000  30.490  36.539  1.00  0.00    -0.206 F 
ATOM     72  C   UNL A   1      38.430  33.845  37.826  1.00  0.00     0.022 A 
BRANCH  69  73
ATOM     73  S   UNL A   1      40.115  35.971  37.182  1.00  0.00     0.124 S 
ATOM     74  O   UNL A   1      41.512  35.593  37.383  1.00  0.00    -0.237 OA
ATOM     75  O   UNL A   1      39.820  36.688  35.948  1.00  0.00    -0.237 OA
ATOM     76  O   UNL A   1      39.435  36.474  38.374  1.00  0.00    -0.744 OA
ENDBRANCH  69  73
ENDBRANCH  52  66
BRANCH  53  77
ATOM     77  C   UNL A   1      42.198  26.515  27.976  1.00  0.00     0.023 A 
ATOM     78  C   UNL A   1      41.705  25.206  27.876  1.00  0.00     0.031 A 
ATOM     79  C   UNL A   1      43.050  26.985  26.960  1.00  0.00     0.131 A 
ATOM     80  C   UNL A   1      42.066  24.408  26.777  1.00  0.00     0.055 A 
ATOM     81  C   UNL A   1      43.383  26.199  25.858  1.00  0.00     0.041 A 
ATOM     82  F   UNL A   1      43.542  28.233  27.012  1.00  0.00    -0.206 F 
ATOM     83  C   UNL A   1      42.890  24.901  25.761  1.00  0.00     0.022 A 
BRANCH  80  84
ATOM     84  S   UNL A   1      41.429  22.712  26.680  1.00  0.00     0.124 S 
ATOM     85  O   UNL A   1      42.037  22.237  25.443  1.00  0.00    -0.237 OA
ATOM     86  O   UNL A   1      41.935  22.122  27.914  1.00  0.00    -0.237 OA
ATOM     87  O   UNL A   1      39.980  22.896  26.633  1.00  0.00    -0.744 OA
ENDBRANCH  80  84
ENDBRANCH  53  77
BRANCH  65  88
ATOM     88  C   UNL A   1      44.544  27.426  34.515  1.00  0.00     0.023 A 
ATOM     89  C   UNL A   1      45.771  28.079  34.710  1.00  0.00     0.031 A 
ATOM     90  C   UNL A   1      44.326  26.202  35.172  1.00  0.00     0.131 A 
ATOM     91  C   UNL A   1      46.743  27.498  35.540  1.00  0.00     0.055 A 
ATOM     92  C   UNL A   1      45.278  25.649  36.028  1.00  0.00     0.041 A 
ATOM     93  F   UNL A   1      43.163  25.546  35.024  1.00  0.00    -0.206 F 
ATOM     94  C   UNL A   1      46.495  26.298  36.215  1.00  0.00     0.022 A 
BRANCH  91  95
ATOM     95  S   UNL A   1      48.341  28.331  35.735  1.00  0.00     0.124 S 
ATOM     96  O   UNL A   1      48.286  29.340  34.682  1.00  0.00    -0.237 OA
ATOM     97  O   UNL A   1      48.274  28.833  37.104  1.00  0.00    -0.237 OA
ATOM     98  O   UNL A   1      49.315  27.261  35.518  1.00  0.00    -0.744 OA
ENDBRANCH  91  95
ENDBRANCH  65  88
ENDBRANCH  39  40
ENDBRANCH  32  34
ENDBRANCH  31  32
ENDBRANCH  30  31
ENDBRANCH  29  30
ENDBRANCH  28  29
ENDBRANCH  27  28
ENDBRANCH   1  27
TORSDOF 25
ENDMDL
MODEL 3
REMARK VINA RESULT:      -9.3      1.976      7.533
REMARK SMILES CC[C@H]1CO[C@@H](C)CN1c1cccc(F)c1C(=O)OCCOCCOCCOCCOC(=O)c1ccc(-c2c3nc(c(-c4cc(S(=O)(=O)[O-])ccc4F)c4ccc([nH]4)c(-c4cc(S(=O)(=O)[O-])ccc4F)c4nc(c(-c5cc(S(=O)(=O)[O-])ccc5F)c5ccc2[nH]5)C=C4)C=C3)cc1
REMARK SMILES IDX 26 1 25 2 24 3 23 4 22 5 21 6 20 7 19 8 17 9 18 10 16 11
REMARK SMILES IDX 10 12 11 13 12 14 14 15 13 16 15 17 9 18 3 19 4 20 5 21 8 22
REMARK SMILES IDX 6 23 7 24 2 25 1 26 27 27 28 28 29 29 30 30 31 31 32 32
REMARK SMILES IDX 33 33 34 34 35 35 96 36 36 37 95 38 37 39 38 40 39 41 89 42
REMARK SMILES IDX 40 43 94 44 88 45 90 46 41 47 93 48 87 49 86 50 42 52 74 53
REMARK SMILES IDX 54 54 73 55 55 56 58 57 72 58 91 59 56 60 57 61 71 63 92 64
REMARK SMILES IDX 59 65 43 66 44 67 52 68 45 69 51 70 53 71 50 72 46 73 47 74
REMARK SMILES IDX 48 75 49 76 75 77 76 78 84 79 77 80 83 81 85 82 82 83 78 84
REMARK SMILES IDX 79 85 80 86 81 87 60 88 61 89 69 90 62 91 68 92 70 93 67 94
REMARK SMILES IDX 63 95 64 96 65 97 66 98
REMARK H PARENT 90 51 58 62
REMARK Flexibility Score: inf
ROOT
ATOM      1  C   UNL A   1      32.830  27.980  26.114  1.00  0.00     0.188 C 
ENDROOT
BRANCH   1   2
ATOM      2  O   UNL A   1      33.128  28.424  24.801  1.00  0.00    -0.377 OA
BRANCH   2   3
ATOM      3  C   UNL A   1      32.549  27.706  23.722  1.00  0.00     0.188 C 
BRANCH   3   4
ATOM      4  C   UNL A   1      33.402  26.807  22.806  1.00  0.00     0.188 C 
BRANCH   4   5
ATOM      5  O   UNL A   1      32.679  26.123  21.791  1.00  0.00    -0.376 OA
BRANCH   5   6
ATOM      6  C   UNL A   1      31.559  25.376  22.250  1.00  0.00     0.202 C 
BRANCH   6   7
ATOM      7  C   UNL A   1      31.843  24.656  23.569  1.00  0.00     0.261 C 
BRANCH   7   8
ATOM      8  O   UNL A   1      31.774  23.223  23.447  1.00  0.00    -0.460 OA
BRANCH   8   9
ATOM      9  C   UNL A   1      32.739  22.571  22.750  1.00  0.00     0.343 C 
ATOM     10  O   UNL A   1      33.561  23.074  22.017  1.00  0.00    -0.246 OA
BRANCH   9  11
ATOM     11  C   UNL A   1      32.662  21.136  23.143  1.00  0.00     0.119 A 
ATOM     12  C   UNL A   1      33.014  20.674  24.436  1.00  0.00     0.055 A 
ATOM     13  C   UNL A   1      32.885  19.293  24.690  1.00  0.00     0.027 A 
ATOM     14  C   UNL A   1      32.422  18.403  23.714  1.00  0.00     0.005 A 
ATOM     15  C   UNL A   1      32.198  20.233  22.177  1.00  0.00     0.139 A 
ATOM     16  C   UNL A   1      32.071  18.877  22.457  1.00  0.00     0.040 A 
ATOM     17  F   UNL A   1      31.868  20.647  20.944  1.00  0.00    -0.206 F 
BRANCH  12  18
ATOM     18  N   UNL A   1      33.478  21.519  25.442  1.00  0.00    -0.363 N 
ATOM     19  C   UNL A   1      34.930  21.591  25.764  1.00  0.00     0.108 C 
ATOM     20  C   UNL A   1      35.172  22.931  26.505  1.00  0.00     0.185 C 
ATOM     21  O   UNL A   1      34.397  23.015  27.716  1.00  0.00    -0.375 OA
ATOM     22  C   UNL A   1      32.696  21.550  26.704  1.00  0.00     0.148 C 
ATOM     23  C   UNL A   1      32.982  22.865  27.471  1.00  0.00     0.134 C 
ATOM     24  C   UNL A   1      32.425  24.122  26.802  1.00  0.00     0.040 C 
BRANCH  19  25
ATOM     25  C   UNL A   1      35.881  21.453  24.567  1.00  0.00     0.024 C 
ATOM     26  C   UNL A   1      36.313  22.838  24.090  1.00  0.00     0.006 C 
ENDBRANCH  19  25
ENDBRANCH  12  18
ENDBRANCH   9  11
ENDBRANCH   8   9
ENDBRANCH   7   8
ENDBRANCH   6   7
ENDBRANCH   5   6
ENDBRANCH   4   5
ENDBRANCH   3   4
ENDBRANCH   2   3
ENDBRANCH   1   2
BRANCH   1  27
ATOM     27  C   UNL A   1      32.075  29.015  26.970  1.00  0.00     0.188 C 
BRANCH  27  28
ATOM     28  O   UNL A   1      31.460  30.047  26.194  1.00  0.00    -0.376 OA
BRANCH  28  29
ATOM     29  C   UNL A   1      31.721  31.385  26.592  1.00  0.00     0.202 C 
BRANCH  29  30
ATOM     30  C   UNL A   1      33.077  31.653  27.261  1.00  0.00     0.261 C 
BRANCH  30  31
ATOM     31  O   UNL A   1      33.139  32.797  28.125  1.00  0.00    -0.460 OA
BRANCH  31  32
ATOM     32  C   UNL A   1      34.187  33.639  27.989  1.00  0.00     0.338 C 
ATOM     33  O   UNL A   1      34.141  34.826  27.729  1.00  0.00    -0.246 OA
BRANCH  32  34
ATOM     34  C   UNL A   1      35.388  32.906  28.451  1.00  0.00     0.060 A 
ATOM     35  C   UNL A   1      35.258  31.556  28.809  1.00  0.00     0.016 A 
ATOM     36  C   UNL A   1      36.646  33.516  28.430  1.00  0.00     0.016 A 
ATOM     37  C   UNL A   1      36.386  30.822  29.174  1.00  0.00     0.010 A 
ATOM     38  C   UNL A   1      37.770  32.791  28.826  1.00  0.00     0.010 A 
ATOM     39  C   UNL A   1      37.636  31.453  29.234  1.00  0.00    -0.014 A 
BRANCH  39  40
ATOM     40  C   UNL A   1      38.723  30.816  30.012  1.00  0.00     0.031 A 
ATOM     41  C   UNL A   1      38.854  31.219  31.455  1.00  0.00     0.074 A 
ATOM     42  C   UNL A   1      39.535  29.886  29.484  1.00  0.00     0.049 A 
ATOM     43  N   UNL A   1      39.714  30.827  32.356  1.00  0.00    -0.248 NA
ATOM     44  C   UNL A   1      37.873  32.203  31.944  1.00  0.00     0.031 C 
ATOM     45  C   UNL A   1      39.459  29.370  28.120  1.00  0.00     0.029 A 
ATOM     46  N   UNL A   1      40.580  29.200  30.049  1.00  0.00    -0.354 N 
ATOM     47  C   UNL A   1      39.366  31.502  33.520  1.00  0.00     0.074 A 
ATOM     48  C   UNL A   1      38.254  32.367  33.199  1.00  0.00     0.031 C 
ATOM     49  C   UNL A   1      40.413  28.434  27.956  1.00  0.00     0.029 A 
ATOM     50  C   UNL A   1      41.186  28.312  29.193  1.00  0.00     0.049 A 
ATOM     51  H   UNL A   1      40.870  29.332  30.980  1.00  0.00     0.167 HD
ATOM     52  C   UNL A   1      39.913  31.396  34.753  1.00  0.00     0.034 A 
ATOM     53  C   UNL A   1      42.247  27.502  29.388  1.00  0.00     0.034 A 
ATOM     54  C   UNL A   1      41.040  30.556  35.054  1.00  0.00     0.049 A 
ATOM     55  C   UNL A   1      42.937  27.502  30.729  1.00  0.00     0.074 A 
ATOM     56  C   UNL A   1      41.692  30.387  36.261  1.00  0.00     0.029 A 
ATOM     57  N   UNL A   1      41.694  29.754  34.128  1.00  0.00    -0.354 N 
ATOM     58  N   UNL A   1      42.625  28.169  31.817  1.00  0.00    -0.248 NA
ATOM     59  C   UNL A   1      44.126  26.649  30.871  1.00  0.00     0.031 C 
ATOM     60  C   UNL A   1      42.779  29.535  36.051  1.00  0.00     0.029 A 
ATOM     61  C   UNL A   1      42.765  29.115  34.729  1.00  0.00     0.049 A 
ATOM     62  H   UNL A   1      41.435  29.655  33.183  1.00  0.00     0.167 HD
ATOM     63  C   UNL A   1      43.564  27.800  32.777  1.00  0.00     0.074 A 
ATOM     64  C   UNL A   1      44.460  26.857  32.139  1.00  0.00     0.031 C 
ATOM     65  C   UNL A   1      43.662  28.194  34.072  1.00  0.00     0.034 A 
BRANCH  52  66
ATOM     66  C   UNL A   1      39.318  32.253  35.839  1.00  0.00     0.023 A 
ATOM     67  C   UNL A   1      39.718  33.589  36.020  1.00  0.00     0.031 A 
ATOM     68  C   UNL A   1      38.382  31.715  36.738  1.00  0.00     0.131 A 
ATOM     69  C   UNL A   1      39.237  34.319  37.116  1.00  0.00     0.055 A 
ATOM     70  C   UNL A   1      37.848  32.472  37.782  1.00  0.00     0.041 A 
ATOM     71  F   UNL A   1      37.986  30.437  36.629  1.00  0.00    -0.206 F 
ATOM     72  C   UNL A   1      38.287  33.779  37.983  1.00  0.00     0.022 A 
BRANCH  69  73
ATOM     73  S   UNL A   1      39.972  35.940  37.466  1.00  0.00     0.124 S 
ATOM     74  O   UNL A   1      41.353  35.577  37.776  1.00  0.00    -0.237 OA
ATOM     75  O   UNL A   1      39.766  36.659  36.215  1.00  0.00    -0.237 OA
ATOM     76  O   UNL A   1      39.193  36.430  38.602  1.00  0.00    -0.744 OA
ENDBRANCH  69  73
ENDBRANCH  52  66
BRANCH  53  77
ATOM     77  C   UNL A   1      42.725  26.638  28.275  1.00  0.00     0.023 A 
ATOM     78  C   UNL A   1      43.837  27.005  27.503  1.00  0.00     0.031 A 
ATOM     79  C   UNL A   1      42.097  25.411  27.996  1.00  0.00     0.131 A 
ATOM     80  C   UNL A   1      44.292  26.149  26.486  1.00  0.00     0.055 A 
ATOM     81  C   UNL A   1      42.569  24.552  27.003  1.00  0.00     0.041 A 
ATOM     82  F   UNL A   1      41.033  25.017  28.712  1.00  0.00    -0.206 F 
ATOM     83  C   UNL A   1      43.674  24.920  26.241  1.00  0.00     0.022 A 
BRANCH  80  84
ATOM     84  S   UNL A   1      45.722  26.655  25.490  1.00  0.00     0.124 S 
ATOM     85  O   UNL A   1      45.239  27.890  24.884  1.00  0.00    -0.237 OA
ATOM     86  O   UNL A   1      46.765  26.801  26.500  1.00  0.00    -0.237 OA
ATOM     87  O   UNL A   1      45.907  25.537  24.568  1.00  0.00    -0.744 OA
ENDBRANCH  80  84
ENDBRANCH  53  77
BRANCH  65  88
ATOM     88  C   UNL A   1      44.759  27.596  34.911  1.00  0.00     0.023 A 
ATOM     89  C   UNL A   1      44.626  26.328  35.499  1.00  0.00     0.031 A 
ATOM     90  C   UNL A   1      45.991  28.264  35.030  1.00  0.00     0.131 A 
ATOM     91  C   UNL A   1      45.711  25.767  36.190  1.00  0.00     0.055 A 
ATOM     92  C   UNL A   1      47.078  27.684  35.683  1.00  0.00     0.041 A 
ATOM     93  F   UNL A   1      46.167  29.474  34.475  1.00  0.00    -0.206 F 
ATOM     94  C   UNL A   1      46.941  26.429  36.268  1.00  0.00     0.022 A 
BRANCH  91  95
ATOM     95  S   UNL A   1      45.502  24.153  36.988  1.00  0.00     0.124 S 
ATOM     96  O   UNL A   1      46.719  23.456  36.582  1.00  0.00    -0.237 OA
ATOM     97  O   UNL A   1      45.410  24.505  38.402  1.00  0.00    -0.237 OA
ATOM     98  O   UNL A   1      44.267  23.636  36.400  1.00  0.00    -0.744 OA
ENDBRANCH  91  95
ENDBRANCH  65  88
ENDBRANCH  39  40
ENDBRANCH  32  34
ENDBRANCH  31  32
ENDBRANCH  30  31
ENDBRANCH  29  30
ENDBRANCH  28  29
ENDBRANCH  27  28
ENDBRANCH   1  27
TORSDOF 25
ENDMDL
