MODEL 1
REMARK VINA RESULT:     -10.2      0.000      0.000
REMARK SMILES Cc1cccc(OC2(C(=O)OCCOCCOCCOCCOC(=O)c3ccc(-c4c5nc(c(-c6cc(S(=O)(=O)[O-])ccc6F)c6ccc([nH]6)c(-c6cc(S(=O)(=O)[O-])ccc6F)c6nc(c(-c7cc(S(=O)(=O)[O-])ccc7F)c7ccc4[nH]7)C=C6)C=C5)cc3)CCN(C(=O)c3cnc[nH]c3=O)CC2)c1
REMARK SMILES IDX 18 1 17 2 16 3 15 4 14 5 13 6 12 7 11 8 9 9 10 10 8 11 89 12
REMARK SMILES IDX 102 13 90 14 101 15 91 16 92 17 93 18 7 19 6 20 1 21 2 22
REMARK SMILES IDX 3 23 103 24 4 25 5 26 94 27 95 28 99 29 96 30 98 31 100 32
REMARK SMILES IDX 97 33 19 35 20 36 21 37 22 38 23 39 24 40 25 41 26 42 27 43
REMARK SMILES IDX 88 44 28 45 87 46 29 47 30 48 31 49 81 50 32 51 86 52 80 53
REMARK SMILES IDX 82 54 33 55 85 56 79 57 78 58 34 60 66 61 46 62 65 63 47 64
REMARK SMILES IDX 50 65 64 66 83 67 48 68 49 69 63 71 84 72 51 73 35 74 36 75
REMARK SMILES IDX 44 76 37 77 43 78 45 79 42 80 38 81 39 82 40 83 41 84 67 85
REMARK SMILES IDX 68 86 76 87 69 88 75 89 77 90 74 91 70 92 71 93 72 94 73 95
REMARK SMILES IDX 52 96 53 97 61 98 54 99 60 100 62 101 59 102 55 103 56 104
REMARK SMILES IDX 57 105 58 106
REMARK H PARENT 98 34 82 59 50 70
REMARK Flexibility Score: inf
ROOT
ATOM      1  C   UNL A   1      39.785  24.938  27.202  1.00  0.00     0.188 C 
ENDROOT
BRANCH   1   2
ATOM      2  O   UNL A   1      38.712  24.072  26.866  1.00  0.00    -0.377 OA
BRANCH   2   3
ATOM      3  C   UNL A   1      39.140  22.728  26.636  1.00  0.00     0.188 C 
BRANCH   3   4
ATOM      4  C   UNL A   1      38.289  21.950  25.568  1.00  0.00     0.188 C 
BRANCH   4   5
ATOM      5  O   UNL A   1      36.791  22.215  25.290  1.00  0.00    -0.376 OA
BRANCH   5   6
ATOM      6  C   UNL A   1      35.902  22.595  23.980  1.00  0.00     0.202 C 
BRANCH   6   7
ATOM      7  C   UNL A   1      34.168  23.006  23.485  1.00  0.00     0.261 C 
BRANCH   7   8
ATOM      8  O   UNL A   1      33.317  24.528  22.860  1.00  0.00    -0.460 OA
BRANCH   8   9
ATOM      9  C   UNL A   1      32.184  25.571  22.817  1.00  0.00     0.350 C 
ATOM     10  O   UNL A   1      31.201  25.242  22.130  1.00  0.00    -0.247 OA
BRANCH   9  11
ATOM     11  C   UNL A   1      32.082  27.260  23.538  1.00  0.00     0.209 C 
ATOM     12  C   UNL A   1      31.216  27.660  24.814  1.00  0.00     0.082 C 
ATOM     13  C   UNL A   1      33.548  27.879  23.710  1.00  0.00     0.082 C 
ATOM     14  C   UNL A   1      31.505  28.921  25.623  1.00  0.00     0.124 C 
ATOM     15  C   UNL A   1      33.639  29.213  24.507  1.00  0.00     0.124 C 
ATOM     16  N   UNL A   1      32.918  29.152  25.765  1.00  0.00    -0.338 N 
ATOM     17  C   UNL A   1      33.450  29.282  27.036  1.00  0.00     0.261 C 
ATOM     18  O   UNL A   1      33.215  28.512  27.963  1.00  0.00    -0.269 OA
BRANCH  11  19
ATOM     19  O   UNL A   1      31.603  28.183  22.453  1.00  0.00    -0.475 OA
BRANCH  19  20
ATOM     20  C   UNL A   1      30.334  28.683  22.544  1.00  0.00     0.121 A 
ATOM     21  C   UNL A   1      28.554  31.990  22.028  1.00  0.00     0.044 C 
ATOM     22  C   UNL A   1      28.756  30.526  22.293  1.00  0.00    -0.047 A 
ATOM     23  C   UNL A   1      27.738  29.700  22.758  1.00  0.00     0.003 A 
ATOM     24  C   UNL A   1      30.011  29.958  22.074  1.00  0.00     0.050 A 
ATOM     25  C   UNL A   1      28.012  28.362  23.071  1.00  0.00     0.004 A 
ATOM     26  C   UNL A   1      29.315  27.863  22.994  1.00  0.00     0.046 A 
ENDBRANCH  19  20
ENDBRANCH  11  19
BRANCH  17  27
ATOM     27  C   UNL A   1      34.213  30.516  27.323  1.00  0.00     0.123 A 
ATOM     28  C   UNL A   1      35.491  30.429  27.726  1.00  0.00     0.132 A 
ATOM     29  C   UNL A   1      33.564  31.833  27.473  1.00  0.00     0.263 A 
ATOM     30  N   UNL A   1      36.271  31.483  28.152  1.00  0.00    -0.246 NA
ATOM     31  N   UNL A   1      34.365  32.828  27.962  1.00  0.00    -0.312 N 
ATOM     32  O   UNL A   1      32.383  32.061  27.201  1.00  0.00    -0.269 OA
ATOM     33  C   UNL A   1      35.675  32.620  28.268  1.00  0.00     0.199 A 
ATOM     34  H   UNL A   1      33.980  33.725  28.097  1.00  0.00     0.171 HD
ENDBRANCH  17  27
ENDBRANCH   9  11
ENDBRANCH   8   9
ENDBRANCH   7   8
ENDBRANCH   6   7
ENDBRANCH   5   6
ENDBRANCH   4   5
ENDBRANCH   3   4
ENDBRANCH   2   3
ENDBRANCH   1   2
BRANCH   1  35
ATOM     35  C   UNL A   1      40.588  25.325  25.962  1.00  0.00     0.188 C 
BRANCH  35  36
ATOM     36  O   UNL A   1      41.964  25.552  26.271  1.00  0.00    -0.376 OA
BRANCH  36  37
ATOM     37  C   UNL A   1      42.669  26.437  25.418  1.00  0.00     0.202 C 
BRANCH  37  38
ATOM     38  C   UNL A   1      44.181  26.415  25.678  1.00  0.00     0.261 C 
BRANCH  38  39
ATOM     39  O   UNL A   1      44.769  25.237  25.085  1.00  0.00    -0.460 OA
BRANCH  39  40
ATOM     40  C   UNL A   1      45.987  24.895  25.589  1.00  0.00     0.338 C 
ATOM     41  O   UNL A   1      47.018  24.839  24.937  1.00  0.00    -0.246 OA
BRANCH  40  42
ATOM     42  C   UNL A   1      45.834  24.403  26.995  1.00  0.00     0.060 A 
ATOM     43  C   UNL A   1      44.840  23.485  27.304  1.00  0.00     0.016 A 
ATOM     44  C   UNL A   1      46.481  25.058  28.048  1.00  0.00     0.016 A 
ATOM     45  C   UNL A   1      44.426  23.349  28.643  1.00  0.00     0.010 A 
ATOM     46  C   UNL A   1      45.921  25.067  29.334  1.00  0.00     0.010 A 
ATOM     47  C   UNL A   1      44.813  24.273  29.653  1.00  0.00    -0.014 A 
BRANCH  47  48
ATOM     48  C   UNL A   1      44.177  24.420  31.151  1.00  0.00     0.031 A 
ATOM     49  C   UNL A   1      43.472  25.992  30.737  1.00  0.00     0.074 A 
ATOM     50  C   UNL A   1      44.434  23.684  32.605  1.00  0.00     0.049 A 
ATOM     51  N   UNL A   1      43.786  27.132  31.311  1.00  0.00    -0.248 NA
ATOM     52  C   UNL A   1      42.668  26.319  29.537  1.00  0.00     0.031 C 
ATOM     53  C   UNL A   1      43.992  24.024  34.206  1.00  0.00     0.029 A 
ATOM     54  N   UNL A   1      45.423  22.715  33.204  1.00  0.00    -0.354 N 
ATOM     55  C   UNL A   1      42.834  28.049  31.028  1.00  0.00     0.074 A 
ATOM     56  C   UNL A   1      42.381  27.621  29.726  1.00  0.00     0.031 C 
ATOM     57  C   UNL A   1      44.572  23.352  35.191  1.00  0.00     0.029 A 
ATOM     58  C   UNL A   1      45.725  22.850  34.595  1.00  0.00     0.049 A 
ATOM     59  H   UNL A   1      45.845  22.013  32.656  1.00  0.00     0.167 HD
ATOM     60  C   UNL A   1      42.338  28.892  31.992  1.00  0.00     0.034 A 
ATOM     61  C   UNL A   1      46.932  23.143  35.170  1.00  0.00     0.034 A 
ATOM     62  C   UNL A   1      42.745  28.541  33.399  1.00  0.00     0.049 A 
ATOM     63  C   UNL A   1      46.888  24.586  35.817  1.00  0.00     0.074 A 
ATOM     64  C   UNL A   1      42.010  27.968  34.432  1.00  0.00     0.029 A 
ATOM     65  N   UNL A   1      44.079  28.518  33.873  1.00  0.00    -0.354 N 
ATOM     66  N   UNL A   1      46.016  25.518  35.484  1.00  0.00    -0.248 NA
ATOM     67  C   UNL A   1      47.697  25.051  36.935  1.00  0.00     0.031 C 
ATOM     68  C   UNL A   1      42.891  27.531  35.466  1.00  0.00     0.029 A 
ATOM     69  C   UNL A   1      44.196  27.863  35.129  1.00  0.00     0.049 A 
ATOM     70  H   UNL A   1      44.840  28.910  33.388  1.00  0.00     0.167 HD
ATOM     71  C   UNL A   1      46.149  26.685  36.207  1.00  0.00     0.074 A 
ATOM     72  C   UNL A   1      47.188  26.285  37.161  1.00  0.00     0.031 C 
ATOM     73  C   UNL A   1      45.433  27.864  35.980  1.00  0.00     0.034 A 
BRANCH  60  74
ATOM     74  C   UNL A   1      41.101  29.715  31.614  1.00  0.00     0.023 A 
ATOM     75  C   UNL A   1      39.852  29.549  32.243  1.00  0.00     0.031 A 
ATOM     76  C   UNL A   1      41.121  30.658  30.560  1.00  0.00     0.131 A 
ATOM     77  C   UNL A   1      38.686  30.164  31.729  1.00  0.00     0.055 A 
ATOM     78  C   UNL A   1      39.959  31.210  30.002  1.00  0.00     0.041 A 
ATOM     79  F   UNL A   1      42.284  31.071  30.026  1.00  0.00    -0.206 F 
ATOM     80  C   UNL A   1      38.726  30.943  30.574  1.00  0.00     0.022 A 
BRANCH  77  81
ATOM     81  S   UNL A   1      37.108  29.987  32.614  1.00  0.00     0.124 S 
ATOM     82  O   UNL A   1      37.172  28.618  33.109  1.00  0.00    -0.237 OA
ATOM     83  O   UNL A   1      37.195  31.043  33.617  1.00  0.00    -0.237 OA
ATOM     84  O   UNL A   1      36.105  30.218  31.571  1.00  0.00    -0.744 OA
ENDBRANCH  77  81
ENDBRANCH  60  74
BRANCH  61  85
ATOM     85  C   UNL A   1      48.052  22.374  34.546  1.00  0.00     0.023 A 
ATOM     86  C   UNL A   1      49.185  23.128  34.115  1.00  0.00     0.031 A 
ATOM     87  C   UNL A   1      48.218  20.993  34.671  1.00  0.00     0.131 A 
ATOM     88  C   UNL A   1      50.450  22.531  33.979  1.00  0.00     0.055 A 
ATOM     89  C   UNL A   1      49.487  20.402  34.560  1.00  0.00     0.041 A 
ATOM     90  F   UNL A   1      47.191  20.213  35.039  1.00  0.00    -0.206 F 
ATOM     91  C   UNL A   1      50.612  21.174  34.256  1.00  0.00     0.022 A 
BRANCH  88  92
ATOM     92  S   UNL A   1      51.922  23.563  33.638  1.00  0.00     0.124 S 
ATOM     93  O   UNL A   1      52.985  22.783  34.261  1.00  0.00    -0.237 OA
ATOM     94  O   UNL A   1      51.964  23.637  32.183  1.00  0.00    -0.237 OA
ATOM     95  O   UNL A   1      51.607  24.825  34.309  1.00  0.00    -0.744 OA
ENDBRANCH  88  92
ENDBRANCH  61  85
BRANCH  73  96
ATOM     96  C   UNL A   1      45.721  29.197  36.697  1.00  0.00     0.023 A 
ATOM     97  C   UNL A   1      46.191  30.340  36.041  1.00  0.00     0.031 A 
ATOM     98  C   UNL A   1      45.477  29.374  38.089  1.00  0.00     0.131 A 
ATOM     99  C   UNL A   1      46.497  31.523  36.744  1.00  0.00     0.055 A 
ATOM    100  C   UNL A   1      45.693  30.577  38.769  1.00  0.00     0.041 A 
ATOM    101  F   UNL A   1      45.006  28.392  38.868  1.00  0.00    -0.206 F 
ATOM    102  C   UNL A   1      46.227  31.662  38.101  1.00  0.00     0.022 A 
BRANCH  99 103
ATOM    103  S   UNL A   1      47.325  32.856  35.841  1.00  0.00     0.124 S 
ATOM    104  O   UNL A   1      46.279  33.281  34.916  1.00  0.00    -0.237 OA
ATOM    105  O   UNL A   1      47.648  33.799  36.908  1.00  0.00    -0.237 OA
ATOM    106  O   UNL A   1      48.472  32.194  35.224  1.00  0.00    -0.744 OA
ENDBRANCH  99 103
ENDBRANCH  73  96
ENDBRANCH  47  48
ENDBRANCH  40  42
ENDBRANCH  39  40
ENDBRANCH  38  39
ENDBRANCH  37  38
ENDBRANCH  36  37
ENDBRANCH  35  36
ENDBRANCH   1  35
TORSDOF 26
ENDMDL
MODEL 2
REMARK VINA RESULT:      -9.9      5.418     10.583
REMARK SMILES Cc1cccc(OC2(C(=O)OCCOCCOCCOCCOC(=O)c3ccc(-c4c5nc(c(-c6cc(S(=O)(=O)[O-])ccc6F)c6ccc([nH]6)c(-c6cc(S(=O)(=O)[O-])ccc6F)c6nc(c(-c7cc(S(=O)(=O)[O-])ccc7F)c7ccc4[nH]7)C=C6)C=C5)cc3)CCN(C(=O)c3cnc[nH]c3=O)CC2)c1
REMARK SMILES IDX 18 1 17 2 16 3 15 4 14 5 13 6 12 7 11 8 9 9 10 10 8 11 89 12
REMARK SMILES IDX 102 13 90 14 101 15 91 16 92 17 93 18 7 19 6 20 1 21 2 22
REMARK SMILES IDX 3 23 103 24 4 25 5 26 94 27 95 28 99 29 96 30 98 31 100 32
REMARK SMILES IDX 97 33 19 35 20 36 21 37 22 38 23 39 24 40 25 41 26 42 27 43
REMARK SMILES IDX 88 44 28 45 87 46 29 47 30 48 31 49 81 50 32 51 86 52 80 53
REMARK SMILES IDX 82 54 33 55 85 56 79 57 78 58 34 60 66 61 46 62 65 63 47 64
REMARK SMILES IDX 50 65 64 66 83 67 48 68 49 69 63 71 84 72 51 73 35 74 36 75
REMARK SMILES IDX 44 76 37 77 43 78 45 79 42 80 38 81 39 82 40 83 41 84 67 85
REMARK SMILES IDX 68 86 76 87 69 88 75 89 77 90 74 91 70 92 71 93 72 94 73 95
REMARK SMILES IDX 52 96 53 97 61 98 54 99 60 100 62 101 59 102 55 103 56 104
REMARK SMILES IDX 57 105 58 106
REMARK H PARENT 98 34 82 59 50 70
REMARK Flexibility Score: inf
ROOT
ATOM      1  C   UNL A   1      45.729  29.515  27.548  1.00  0.00     0.188 C 
ENDROOT
BRANCH   1   2
ATOM      2  O   UNL A   1      45.952  30.916  27.509  1.00  0.00    -0.377 OA
BRANCH   2   3
ATOM      3  C   UNL A   1      44.782  31.649  27.142  1.00  0.00     0.188 C 
BRANCH   3   4
ATOM      4  C   UNL A   1      43.772  31.891  28.322  1.00  0.00     0.188 C 
BRANCH   4   5
ATOM      5  O   UNL A   1      43.950  31.323  29.749  1.00  0.00    -0.376 OA
BRANCH   5   6
ATOM      6  C   UNL A   1      43.592  31.828  31.255  1.00  0.00     0.202 C 
BRANCH   6   7
ATOM      7  C   UNL A   1      42.990  31.191  32.884  1.00  0.00     0.261 C 
BRANCH   7   8
ATOM      8  O   UNL A   1      41.342  30.678  33.555  1.00  0.00    -0.460 OA
BRANCH   8   9
ATOM      9  C   UNL A   1      39.803  30.597  33.556  1.00  0.00     0.350 C 
ATOM     10  O   UNL A   1      39.327  29.769  34.352  1.00  0.00    -0.247 OA
BRANCH   9  11
ATOM     11  C   UNL A   1      38.557  31.457  32.511  1.00  0.00     0.209 C 
ATOM     12  C   UNL A   1      37.053  30.979  32.302  1.00  0.00     0.082 C 
ATOM     13  C   UNL A   1      38.548  33.025  32.834  1.00  0.00     0.082 C 
ATOM     14  C   UNL A   1      35.964  31.931  31.813  1.00  0.00     0.124 C 
ATOM     15  C   UNL A   1      37.399  33.851  32.187  1.00  0.00     0.124 C 
ATOM     16  N   UNL A   1      36.099  33.239  32.395  1.00  0.00    -0.338 N 
ATOM     17  C   UNL A   1      35.026  33.780  33.082  1.00  0.00     0.261 C 
ATOM     18  O   UNL A   1      34.382  33.178  33.936  1.00  0.00    -0.269 OA
BRANCH  11  19
ATOM     19  O   UNL A   1      39.122  31.544  31.120  1.00  0.00    -0.475 OA
BRANCH  19  20
ATOM     20  C   UNL A   1      38.767  30.581  30.218  1.00  0.00     0.121 A 
ATOM     21  C   UNL A   1      38.969  26.810  29.883  1.00  0.00     0.044 C 
ATOM     22  C   UNL A   1      38.608  28.234  29.571  1.00  0.00    -0.047 A 
ATOM     23  C   UNL A   1      38.058  28.621  28.354  1.00  0.00     0.003 A 
ATOM     24  C   UNL A   1      38.831  29.220  30.532  1.00  0.00     0.050 A 
ATOM     25  C   UNL A   1      37.826  29.976  28.091  1.00  0.00     0.004 A 
ATOM     26  C   UNL A   1      38.208  30.958  29.010  1.00  0.00     0.046 A 
ENDBRANCH  19  20
ENDBRANCH  11  19
BRANCH  17  27
ATOM     27  C   UNL A   1      34.537  35.102  32.634  1.00  0.00     0.123 A 
ATOM     28  C   UNL A   1      34.512  36.129  33.498  1.00  0.00     0.132 A 
ATOM     29  C   UNL A   1      33.800  35.288  31.369  1.00  0.00     0.263 A 
ATOM     30  N   UNL A   1      33.960  37.369  33.254  1.00  0.00    -0.246 NA
ATOM     31  N   UNL A   1      33.217  36.513  31.206  1.00  0.00    -0.312 N 
ATOM     32  O   UNL A   1      33.682  34.422  30.499  1.00  0.00    -0.269 OA
ATOM     33  C   UNL A   1      33.328  37.500  32.139  1.00  0.00     0.199 A 
ATOM     34  H   UNL A   1      32.699  36.689  30.386  1.00  0.00     0.171 HD
ENDBRANCH  17  27
ENDBRANCH   9  11
ENDBRANCH   8   9
ENDBRANCH   7   8
ENDBRANCH   6   7
ENDBRANCH   5   6
ENDBRANCH   4   5
ENDBRANCH   3   4
ENDBRANCH   2   3
ENDBRANCH   1   2
BRANCH   1  35
ATOM     35  C   UNL A   1      46.431  28.814  26.387  1.00  0.00     0.188 C 
BRANCH  35  36
ATOM     36  O   UNL A   1      47.847  28.776  26.568  1.00  0.00    -0.376 OA
BRANCH  36  37
ATOM     37  C   UNL A   1      48.594  28.074  25.590  1.00  0.00     0.202 C 
BRANCH  37  38
ATOM     38  C   UNL A   1      48.482  26.552  25.754  1.00  0.00     0.261 C 
BRANCH  38  39
ATOM     39  O   UNL A   1      49.630  25.904  25.166  1.00  0.00    -0.460 OA
BRANCH  39  40
ATOM     40  C   UNL A   1      50.832  26.377  25.597  1.00  0.00     0.338 C 
ATOM     41  O   UNL A   1      51.728  26.767  24.864  1.00  0.00    -0.246 OA
BRANCH  40  42
ATOM     42  C   UNL A   1      50.965  26.155  27.072  1.00  0.00     0.060 A 
ATOM     43  C   UNL A   1      50.398  25.033  27.658  1.00  0.00     0.016 A 
ATOM     44  C   UNL A   1      51.400  27.190  27.907  1.00  0.00     0.016 A 
ATOM     45  C   UNL A   1      50.154  25.033  29.045  1.00  0.00     0.010 A 
ATOM     46  C   UNL A   1      50.964  27.263  29.238  1.00  0.00     0.010 A 
ATOM     47  C   UNL A   1      50.246  26.216  29.829  1.00  0.00    -0.014 A 
BRANCH  47  48
ATOM     48  C   UNL A   1      49.704  26.432  31.356  1.00  0.00     0.031 A 
ATOM     49  C   UNL A   1      50.964  25.363  31.994  1.00  0.00     0.074 A 
ATOM     50  C   UNL A   1      48.311  27.006  32.028  1.00  0.00     0.049 A 
ATOM     51  N   UNL A   1      50.743  24.228  32.618  1.00  0.00    -0.248 NA
ATOM     52  C   UNL A   1      52.413  25.414  31.690  1.00  0.00     0.031 C 
ATOM     53  C   UNL A   1      47.634  26.965  33.582  1.00  0.00     0.029 A 
ATOM     54  N   UNL A   1      46.935  27.416  31.563  1.00  0.00    -0.354 N 
ATOM     55  C   UNL A   1      51.864  23.858  33.277  1.00  0.00     0.074 A 
ATOM     56  C   UNL A   1      52.901  24.407  32.438  1.00  0.00     0.031 C 
ATOM     57  C   UNL A   1      46.366  27.317  33.742  1.00  0.00     0.029 A 
ATOM     58  C   UNL A   1      45.841  27.199  32.458  1.00  0.00     0.049 A 
ATOM     59  H   UNL A   1      46.796  27.820  30.676  1.00  0.00     0.167 HD
ATOM     60  C   UNL A   1      51.818  23.378  34.563  1.00  0.00     0.034 A 
ATOM     61  C   UNL A   1      44.751  26.392  32.275  1.00  0.00     0.034 A 
ATOM     62  C   UNL A   1      50.484  23.540  35.243  1.00  0.00     0.049 A 
ATOM     63  C   UNL A   1      44.816  25.160  33.266  1.00  0.00     0.074 A 
ATOM     64  C   UNL A   1      50.084  24.424  36.241  1.00  0.00     0.029 A 
ATOM     65  N   UNL A   1      49.275  22.949  34.805  1.00  0.00    -0.354 N 
ATOM     66  N   UNL A   1      45.924  24.737  33.845  1.00  0.00    -0.248 NA
ATOM     67  C   UNL A   1      43.680  24.405  33.774  1.00  0.00     0.031 C 
ATOM     68  C   UNL A   1      48.661  24.429  36.340  1.00  0.00     0.029 A 
ATOM     69  C   UNL A   1      48.135  23.511  35.441  1.00  0.00     0.049 A 
ATOM     70  H   UNL A   1      49.227  22.231  34.135  1.00  0.00     0.167 HD
ATOM     71  C   UNL A   1      45.730  23.668  34.695  1.00  0.00     0.074 A 
ATOM     72  C   UNL A   1      44.268  23.563  34.654  1.00  0.00     0.031 C 
ATOM     73  C   UNL A   1      46.743  22.956  35.345  1.00  0.00     0.034 A 
BRANCH  60  74
ATOM     74  C   UNL A   1      53.160  23.221  35.286  1.00  0.00     0.023 A 
ATOM     75  C   UNL A   1      53.812  24.292  35.927  1.00  0.00     0.031 A 
ATOM     76  C   UNL A   1      53.864  21.994  35.303  1.00  0.00     0.131 A 
ATOM     77  C   UNL A   1      55.141  24.165  36.394  1.00  0.00     0.055 A 
ATOM     78  C   UNL A   1      55.205  21.884  35.696  1.00  0.00     0.041 A 
ATOM     79  F   UNL A   1      53.265  20.851  34.925  1.00  0.00    -0.206 F 
ATOM     80  C   UNL A   1      55.861  22.984  36.224  1.00  0.00     0.022 A 
BRANCH  77  81
ATOM     81  S   UNL A   1      55.920  25.546  37.285  1.00  0.00     0.124 S 
ATOM     82  O   UNL A   1      56.410  26.389  36.201  1.00  0.00    -0.237 OA
ATOM     83  O   UNL A   1      54.808  26.078  38.065  1.00  0.00    -0.237 OA
ATOM     84  O   UNL A   1      56.964  24.894  38.079  1.00  0.00    -0.744 OA
ENDBRANCH  77  81
ENDBRANCH  60  74
BRANCH  61  85
ATOM     85  C   UNL A   1      44.180  26.524  30.899  1.00  0.00     0.023 A 
ATOM     86  C   UNL A   1      44.504  25.492  29.969  1.00  0.00     0.031 A 
ATOM     87  C   UNL A   1      43.109  27.360  30.575  1.00  0.00     0.131 A 
ATOM     88  C   UNL A   1      43.684  25.228  28.858  1.00  0.00     0.055 A 
ATOM     89  C   UNL A   1      42.276  27.079  29.479  1.00  0.00     0.041 A 
ATOM     90  F   UNL A   1      42.764  28.373  31.383  1.00  0.00    -0.206 F 
ATOM     91  C   UNL A   1      42.537  25.989  28.643  1.00  0.00     0.022 A 
BRANCH  88  92
ATOM     92  S   UNL A   1      44.004  23.763  27.807  1.00  0.00     0.124 S 
ATOM     93  O   UNL A   1      44.093  24.361  26.480  1.00  0.00    -0.237 OA
ATOM     94  O   UNL A   1      45.247  23.219  28.339  1.00  0.00    -0.237 OA
ATOM     95  O   UNL A   1      42.823  22.929  28.030  1.00  0.00    -0.744 OA
ENDBRANCH  88  92
ENDBRANCH  61  85
BRANCH  73  96
ATOM     96  C   UNL A   1      46.505  21.668  36.155  1.00  0.00     0.023 A 
ATOM     97  C   UNL A   1      46.387  21.644  37.549  1.00  0.00     0.031 A 
ATOM     98  C   UNL A   1      46.336  20.402  35.527  1.00  0.00     0.131 A 
ATOM     99  C   UNL A   1      46.228  20.435  38.257  1.00  0.00     0.055 A 
ATOM    100  C   UNL A   1      46.085  19.215  36.225  1.00  0.00     0.041 A 
ATOM    101  F   UNL A   1      46.396  20.243  34.198  1.00  0.00    -0.206 F 
ATOM    102  C   UNL A   1      46.049  19.220  37.605  1.00  0.00     0.022 A 
BRANCH  99 103
ATOM    103  S   UNL A   1      46.331  20.491  40.064  1.00  0.00     0.124 S 
ATOM    104  O   UNL A   1      47.769  20.642  40.272  1.00  0.00    -0.237 OA
ATOM    105  O   UNL A   1      45.520  21.661  40.385  1.00  0.00    -0.237 OA
ATOM    106  O   UNL A   1      45.771  19.209  40.482  1.00  0.00    -0.744 OA
ENDBRANCH  99 103
ENDBRANCH  73  96
ENDBRANCH  47  48
ENDBRANCH  40  42
ENDBRANCH  39  40
ENDBRANCH  38  39
ENDBRANCH  37  38
ENDBRANCH  36  37
ENDBRANCH  35  36
ENDBRANCH   1  35
TORSDOF 26
ENDMDL
MODEL 3
REMARK VINA RESULT:      -9.9      5.561      8.483
REMARK SMILES Cc1cccc(OC2(C(=O)OCCOCCOCCOCCOC(=O)c3ccc(-c4c5nc(c(-c6cc(S(=O)(=O)[O-])ccc6F)c6ccc([nH]6)c(-c6cc(S(=O)(=O)[O-])ccc6F)c6nc(c(-c7cc(S(=O)(=O)[O-])ccc7F)c7ccc4[nH]7)C=C6)C=C5)cc3)CCN(C(=O)c3cnc[nH]c3=O)CC2)c1
REMARK SMILES IDX 18 1 17 2 16 3 15 4 14 5 13 6 12 7 11 8 9 9 10 10 8 11 89 12
REMARK SMILES IDX 102 13 90 14 101 15 91 16 92 17 93 18 7 19 6 20 1 21 2 22
REMARK SMILES IDX 3 23 103 24 4 25 5 26 94 27 95 28 99 29 96 30 98 31 100 32
REMARK SMILES IDX 97 33 19 35 20 36 21 37 22 38 23 39 24 40 25 41 26 42 27 43
REMARK SMILES IDX 88 44 28 45 87 46 29 47 30 48 31 49 81 50 32 51 86 52 80 53
REMARK SMILES IDX 82 54 33 55 85 56 79 57 78 58 34 60 66 61 46 62 65 63 47 64
REMARK SMILES IDX 50 65 64 66 83 67 48 68 49 69 63 71 84 72 51 73 35 74 36 75
REMARK SMILES IDX 44 76 37 77 43 78 45 79 42 80 38 81 39 82 40 83 41 84 67 85
REMARK SMILES IDX 68 86 76 87 69 88 75 89 77 90 74 91 70 92 71 93 72 94 73 95
REMARK SMILES IDX 52 96 53 97 61 98 54 99 60 100 62 101 59 102 55 103 56 104
REMARK SMILES IDX 57 105 58 106
REMARK H PARENT 98 34 82 59 50 70
REMARK Flexibility Score: inf
ROOT
ATOM      1  C   UNL A   1      49.077  31.079  27.127  1.00  0.00     0.188 C 
ENDROOT
BRANCH   1   2
ATOM      2  O   UNL A   1      49.583  31.816  28.229  1.00  0.00    -0.377 OA
BRANCH   2   3
ATOM      3  C   UNL A   1      49.492  33.229  28.035  1.00  0.00     0.188 C 
BRANCH   3   4
ATOM      4  C   UNL A   1      48.284  33.682  27.138  1.00  0.00     0.188 C 
BRANCH   4   5
ATOM      5  O   UNL A   1      46.814  33.270  27.385  1.00  0.00    -0.376 OA
BRANCH   5   6
ATOM      6  C   UNL A   1      45.670  32.479  26.539  1.00  0.00     0.202 C 
BRANCH   6   7
ATOM      7  C   UNL A   1      44.372  31.176  26.738  1.00  0.00     0.261 C 
BRANCH   7   8
ATOM      8  O   UNL A   1      44.325  29.338  26.514  1.00  0.00    -0.460 OA
BRANCH   8   9
ATOM      9  C   UNL A   1      44.646  28.015  25.794  1.00  0.00     0.350 C 
ATOM     10  O   UNL A   1      45.368  28.132  24.788  1.00  0.00    -0.247 OA
BRANCH   9  11
ATOM     11  C   UNL A   1      44.064  26.301  26.122  1.00  0.00     0.209 C 
ATOM     12  C   UNL A   1      43.022  25.501  25.221  1.00  0.00     0.082 C 
ATOM     13  C   UNL A   1      45.308  25.340  26.427  1.00  0.00     0.082 C 
ATOM     14  C   UNL A   1      42.916  23.979  25.267  1.00  0.00     0.124 C 
ATOM     15  C   UNL A   1      44.994  23.818  26.509  1.00  0.00     0.124 C 
ATOM     16  N   UNL A   1      44.209  23.358  25.379  1.00  0.00    -0.338 N 
ATOM     17  C   UNL A   1      44.583  22.418  24.434  1.00  0.00     0.261 C 
ATOM     18  O   UNL A   1      44.473  22.579  23.221  1.00  0.00    -0.269 OA
BRANCH  11  19
ATOM     19  O   UNL A   1      43.460  26.288  27.499  1.00  0.00    -0.475 OA
BRANCH  19  20
ATOM     20  C   UNL A   1      42.137  26.606  27.626  1.00  0.00     0.121 A 
ATOM     21  C   UNL A   1      38.904  24.901  28.630  1.00  0.00     0.044 C 
ATOM     22  C   UNL A   1      39.855  25.992  28.233  1.00  0.00    -0.047 A 
ATOM     23  C   UNL A   1      39.429  27.262  27.860  1.00  0.00     0.003 A 
ATOM     24  C   UNL A   1      41.226  25.734  28.229  1.00  0.00     0.050 A 
ATOM     25  C   UNL A   1      40.360  28.209  27.414  1.00  0.00     0.004 A 
ATOM     26  C   UNL A   1      41.709  27.871  27.269  1.00  0.00     0.046 A 
ENDBRANCH  19  20
ENDBRANCH  11  19
BRANCH  17  27
ATOM     27  C   UNL A   1      44.985  21.085  24.932  1.00  0.00     0.123 A 
ATOM     28  C   UNL A   1      46.261  20.685  24.807  1.00  0.00     0.132 A 
ATOM     29  C   UNL A   1      44.003  20.047  25.301  1.00  0.00     0.263 A 
ATOM     30  N   UNL A   1      46.739  19.427  25.104  1.00  0.00    -0.246 NA
ATOM     31  N   UNL A   1      44.522  18.802  25.520  1.00  0.00    -0.312 N 
ATOM     32  O   UNL A   1      42.790  20.242  25.401  1.00  0.00    -0.269 OA
ATOM     33  C   UNL A   1      45.857  18.545  25.427  1.00  0.00     0.199 A 
ATOM     34  H   UNL A   1      43.911  18.065  25.755  1.00  0.00     0.171 HD
ENDBRANCH  17  27
ENDBRANCH   9  11
ENDBRANCH   8   9
ENDBRANCH   7   8
ENDBRANCH   6   7
ENDBRANCH   5   6
ENDBRANCH   4   5
ENDBRANCH   3   4
ENDBRANCH   2   3
ENDBRANCH   1   2
BRANCH   1  35
ATOM     35  C   UNL A   1      48.164  29.947  27.596  1.00  0.00     0.188 C 
BRANCH  35  36
ATOM     36  O   UNL A   1      48.328  28.771  26.801  1.00  0.00    -0.376 OA
BRANCH  36  37
ATOM     37  C   UNL A   1      49.624  28.200  26.772  1.00  0.00     0.202 C 
BRANCH  37  38
ATOM     38  C   UNL A   1      49.594  26.707  26.417  1.00  0.00     0.261 C 
BRANCH  38  39
ATOM     39  O   UNL A   1      48.536  26.045  27.143  1.00  0.00    -0.460 OA
BRANCH  39  40
ATOM     40  C   UNL A   1      48.914  25.516  28.339  1.00  0.00     0.338 C 
ATOM     41  O   UNL A   1      49.869  24.772  28.500  1.00  0.00    -0.246 OA
BRANCH  40  42
ATOM     42  C   UNL A   1      47.874  25.812  29.376  1.00  0.00     0.060 A 
ATOM     43  C   UNL A   1      48.247  26.363  30.594  1.00  0.00     0.016 A 
ATOM     44  C   UNL A   1      46.583  25.287  29.254  1.00  0.00     0.016 A 
ATOM     45  C   UNL A   1      47.373  26.249  31.693  1.00  0.00     0.010 A 
ATOM     46  C   UNL A   1      45.820  24.996  30.395  1.00  0.00     0.010 A 
ATOM     47  C   UNL A   1      46.236  25.395  31.671  1.00  0.00    -0.014 A 
BRANCH  47  48
ATOM     48  C   UNL A   1      45.326  24.932  32.947  1.00  0.00     0.031 A 
ATOM     49  C   UNL A   1      44.511  26.504  32.984  1.00  0.00     0.074 A 
ATOM     50  C   UNL A   1      45.410  23.715  34.059  1.00  0.00     0.049 A 
ATOM     51  N   UNL A   1      44.566  27.358  33.982  1.00  0.00    -0.248 NA
ATOM     52  C   UNL A   1      43.902  27.218  31.838  1.00  0.00     0.031 C 
ATOM     53  C   UNL A   1      44.645  23.401  35.539  1.00  0.00     0.029 A 
ATOM     54  N   UNL A   1      46.391  22.644  34.468  1.00  0.00    -0.354 N 
ATOM     55  C   UNL A   1      43.571  28.261  33.849  1.00  0.00     0.074 A 
ATOM     56  C   UNL A   1      43.420  28.335  32.416  1.00  0.00     0.031 C 
ATOM     57  C   UNL A   1      45.119  22.437  36.317  1.00  0.00     0.029 A 
ATOM     58  C   UNL A   1      46.416  22.259  35.845  1.00  0.00     0.049 A 
ATOM     59  H   UNL A   1      46.991  22.225  33.810  1.00  0.00     0.167 HD
ATOM     60  C   UNL A   1      42.804  28.651  34.919  1.00  0.00     0.034 A 
ATOM     61  C   UNL A   1      47.451  22.376  36.732  1.00  0.00     0.034 A 
ATOM     62  C   UNL A   1      42.992  27.816  36.159  1.00  0.00     0.049 A 
ATOM     63  C   UNL A   1      47.105  23.462  37.829  1.00  0.00     0.074 A 
ATOM     64  C   UNL A   1      42.163  26.857  36.733  1.00  0.00     0.029 A 
ATOM     65  N   UNL A   1      44.209  27.685  36.869  1.00  0.00    -0.354 N 
ATOM     66  N   UNL A   1      46.194  24.405  37.672  1.00  0.00    -0.248 NA
ATOM     67  C   UNL A   1      47.631  23.512  39.185  1.00  0.00     0.031 C 
ATOM     68  C   UNL A   1      42.891  26.108  37.704  1.00  0.00     0.029 A 
ATOM     69  C   UNL A   1      44.182  26.611  37.800  1.00  0.00     0.049 A 
ATOM     70  H   UNL A   1      44.988  28.271  36.734  1.00  0.00     0.167 HD
ATOM     71  C   UNL A   1      46.043  25.216  38.777  1.00  0.00     0.074 A 
ATOM     72  C   UNL A   1      46.936  24.541  39.723  1.00  0.00     0.031 C 
ATOM     73  C   UNL A   1      45.234  26.355  38.840  1.00  0.00     0.034 A 
BRANCH  60  74
ATOM     74  C   UNL A   1      41.560  29.489  34.605  1.00  0.00     0.023 A 
ATOM     75  C   UNL A   1      40.506  29.020  33.798  1.00  0.00     0.031 A 
ATOM     76  C   UNL A   1      41.419  30.821  35.060  1.00  0.00     0.131 A 
ATOM     77  C   UNL A   1      39.482  29.889  33.353  1.00  0.00     0.055 A 
ATOM     78  C   UNL A   1      40.451  31.704  34.562  1.00  0.00     0.041 A 
ATOM     79  F   UNL A   1      42.235  31.317  36.007  1.00  0.00    -0.206 F 
ATOM     80  C   UNL A   1      39.486  31.243  33.680  1.00  0.00     0.022 A 
BRANCH  77  81
ATOM     81  S   UNL A   1      38.098  29.226  32.377  1.00  0.00     0.124 S 
ATOM     82  O   UNL A   1      37.139  30.324  32.397  1.00  0.00    -0.237 OA
ATOM     83  O   UNL A   1      38.731  28.943  31.093  1.00  0.00    -0.237 OA
ATOM     84  O   UNL A   1      37.689  28.038  33.129  1.00  0.00    -0.744 OA
ENDBRANCH  77  81
ENDBRANCH  60  74
BRANCH  61  85
ATOM     85  C   UNL A   1      48.756  21.960  36.131  1.00  0.00     0.023 A 
ATOM     86  C   UNL A   1      49.820  22.909  36.189  1.00  0.00     0.031 A 
ATOM     87  C   UNL A   1      49.099  20.636  35.848  1.00  0.00     0.131 A 
ATOM     88  C   UNL A   1      51.164  22.503  36.124  1.00  0.00     0.055 A 
ATOM     89  C   UNL A   1      50.442  20.228  35.808  1.00  0.00     0.041 A 
ATOM     90  F   UNL A   1      48.152  19.692  35.744  1.00  0.00    -0.206 F 
ATOM     91  C   UNL A   1      51.476  21.151  35.988  1.00  0.00     0.022 A 
BRANCH  88  92
ATOM     92  S   UNL A   1      52.505  23.713  36.419  1.00  0.00     0.124 S 
ATOM     93  O   UNL A   1      51.753  24.930  36.704  1.00  0.00    -0.237 OA
ATOM     94  O   UNL A   1      53.240  23.148  37.544  1.00  0.00    -0.237 OA
ATOM     95  O   UNL A   1      53.233  23.720  35.150  1.00  0.00    -0.744 OA
ENDBRANCH  88  92
ENDBRANCH  61  85
BRANCH  73  96
ATOM     96  C   UNL A   1      45.213  27.331  40.032  1.00  0.00     0.023 A 
ATOM     97  C   UNL A   1      45.778  28.610  39.992  1.00  0.00     0.031 A 
ATOM     98  C   UNL A   1      44.562  27.012  41.257  1.00  0.00     0.131 A 
ATOM     99  C   UNL A   1      45.788  29.451  41.123  1.00  0.00     0.055 A 
ATOM    100  C   UNL A   1      44.492  27.884  42.350  1.00  0.00     0.041 A 
ATOM    101  F   UNL A   1      43.949  25.840  41.464  1.00  0.00    -0.206 F 
ATOM    102  C   UNL A   1      45.126  29.109  42.297  1.00  0.00     0.022 A 
BRANCH  99 103
ATOM    103  S   UNL A   1      46.757  30.978  41.037  1.00  0.00     0.124 S 
ATOM    104  O   UNL A   1      45.879  31.840  40.250  1.00  0.00    -0.237 OA
ATOM    105  O   UNL A   1      46.898  31.335  42.445  1.00  0.00    -0.237 OA
ATOM    106  O   UNL A   1      47.990  30.568  40.369  1.00  0.00    -0.744 OA
ENDBRANCH  99 103
ENDBRANCH  73  96
ENDBRANCH  47  48
ENDBRANCH  40  42
ENDBRANCH  39  40
ENDBRANCH  38  39
ENDBRANCH  37  38
ENDBRANCH  36  37
ENDBRANCH  35  36
ENDBRANCH   1  35
TORSDOF 26
ENDMDL
