MODEL 1
REMARK VINA RESULT:      -8.7      0.000      0.000
REMARK SMILES CC(=O)Nc1cccc(-c2ccc(F)c(C(=O)OCCOCCOCCOCCOC(=O)c3ccc(-c4c5nc(c(-c6cc(S(=O)(=O)[O-])ccc6F)c6ccc([nH]6)c(-c6cc(S(=O)(=O)[O-])ccc6F)c6nc(c(-c7cc(S(=O)(=O)[O-])ccc7F)c7ccc4[nH]7)C=C6)C=C5)cc3)c2)c1
REMARK SMILES IDX 25 1 24 2 23 3 22 4 21 5 20 6 19 7 18 8 16 9 17 10 15 11
REMARK SMILES IDX 10 12 11 13 96 14 12 15 13 16 14 17 9 18 5 19 6 20 97 21
REMARK SMILES IDX 7 22 8 23 4 24 1 25 2 26 3 27 26 29 27 30 28 31 29 32 30 33
REMARK SMILES IDX 31 34 32 35 33 36 34 37 95 38 35 39 94 40 36 41 37 42 38 43
REMARK SMILES IDX 88 44 39 45 93 46 87 47 89 48 40 49 92 50 86 51 85 52 41 54
REMARK SMILES IDX 73 55 53 56 72 57 54 58 57 59 71 60 90 61 55 62 56 63 70 65
REMARK SMILES IDX 91 66 58 67 42 68 43 69 51 70 44 71 50 72 52 73 49 74 45 75
REMARK SMILES IDX 46 76 47 77 48 78 74 79 75 80 83 81 76 82 82 83 84 84 81 85
REMARK SMILES IDX 77 86 78 87 79 88 80 89 59 90 60 91 68 92 61 93 67 94 69 95
REMARK SMILES IDX 66 96 62 97 63 98 64 99 65 100
REMARK H PARENT 4 28 89 53 57 64
REMARK Flexibility Score: inf
ROOT
ATOM      1  C   UNL A   1      44.914  19.374  24.091  1.00  0.00     0.188 C 
ENDROOT
BRANCH   1   2
ATOM      2  O   UNL A   1      45.232  20.765  24.030  1.00  0.00    -0.377 OA
BRANCH   2   3
ATOM      3  C   UNL A   1      46.135  21.276  24.996  1.00  0.00     0.188 C 
BRANCH   3   4
ATOM      4  C   UNL A   1      45.593  22.513  25.737  1.00  0.00     0.188 C 
BRANCH   4   5
ATOM      5  O   UNL A   1      46.622  23.388  26.193  1.00  0.00    -0.376 OA
BRANCH   5   6
ATOM      6  C   UNL A   1      46.380  24.085  27.411  1.00  0.00     0.202 C 
BRANCH   6   7
ATOM      7  C   UNL A   1      45.270  23.540  28.318  1.00  0.00     0.261 C 
BRANCH   7   8
ATOM      8  O   UNL A   1      45.124  24.228  29.570  1.00  0.00    -0.460 OA
BRANCH   8   9
ATOM      9  C   UNL A   1      44.154  23.836  30.422  1.00  0.00     0.341 C 
ATOM     10  O   UNL A   1      43.327  22.960  30.245  1.00  0.00    -0.246 OA
BRANCH   9  11
ATOM     11  C   UNL A   1      44.385  24.570  31.685  1.00  0.00     0.096 A 
ATOM     12  C   UNL A   1      44.672  26.696  32.873  1.00  0.00    -0.017 A 
ATOM     13  C   UNL A   1      45.039  25.971  34.018  1.00  0.00     0.012 A 
ATOM     14  C   UNL A   1      44.370  25.973  31.704  1.00  0.00     0.027 A 
ATOM     15  C   UNL A   1      45.069  24.571  33.999  1.00  0.00     0.041 A 
ATOM     16  C   UNL A   1      44.730  23.878  32.838  1.00  0.00     0.137 A 
ATOM     17  F   UNL A   1      44.816  22.542  32.847  1.00  0.00    -0.206 F 
BRANCH  12  18
ATOM     18  C   UNL A   1      44.540  28.165  32.889  1.00  0.00    -0.016 A 
ATOM     19  C   UNL A   1      44.230  30.203  34.221  1.00  0.00     0.041 A 
ATOM     20  C   UNL A   1      44.226  30.959  33.048  1.00  0.00     0.026 A 
ATOM     21  C   UNL A   1      44.358  28.820  34.121  1.00  0.00     0.034 A 
ATOM     22  C   UNL A   1      44.420  30.338  31.811  1.00  0.00     0.003 A 
ATOM     23  C   UNL A   1      44.584  28.952  31.732  1.00  0.00     0.009 A 
BRANCH  19  24
ATOM     24  N   UNL A   1      44.051  30.870  35.444  1.00  0.00    -0.326 N 
ATOM     25  C   UNL A   1      41.919  29.825  36.228  1.00  0.00     0.114 C 
ATOM     26  C   UNL A   1      43.005  30.865  36.326  1.00  0.00     0.221 C 
ATOM     27  O   UNL A   1      43.001  31.680  37.251  1.00  0.00    -0.275 OA
ATOM     28  H   UNL A   1      44.807  31.439  35.712  1.00  0.00     0.169 HD
ENDBRANCH  19  24
ENDBRANCH  12  18
ENDBRANCH   9  11
ENDBRANCH   8   9
ENDBRANCH   7   8
ENDBRANCH   6   7
ENDBRANCH   5   6
ENDBRANCH   4   5
ENDBRANCH   3   4
ENDBRANCH   2   3
ENDBRANCH   1   2
BRANCH   1  29
ATOM     29  C   UNL A   1      43.774  18.849  24.990  1.00  0.00     0.188 C 
BRANCH  29  30
ATOM     30  O   UNL A   1      42.846  19.850  25.410  1.00  0.00    -0.376 OA
BRANCH  30  31
ATOM     31  C   UNL A   1      41.995  19.514  26.498  1.00  0.00     0.202 C 
BRANCH  31  32
ATOM     32  C   UNL A   1      40.556  20.022  26.335  1.00  0.00     0.261 C 
BRANCH  32  33
ATOM     33  O   UNL A   1      40.256  21.213  27.078  1.00  0.00    -0.460 OA
BRANCH  33  34
ATOM     34  C   UNL A   1      39.519  22.147  26.435  1.00  0.00     0.338 C 
ATOM     35  O   UNL A   1      38.702  21.951  25.554  1.00  0.00    -0.246 OA
BRANCH  34  36
ATOM     36  C   UNL A   1      39.723  23.441  27.114  1.00  0.00     0.060 A 
ATOM     37  C   UNL A   1      38.977  24.542  26.680  1.00  0.00     0.016 A 
ATOM     38  C   UNL A   1      40.651  23.569  28.150  1.00  0.00     0.016 A 
ATOM     39  C   UNL A   1      39.205  25.795  27.245  1.00  0.00     0.010 A 
ATOM     40  C   UNL A   1      40.884  24.829  28.709  1.00  0.00     0.010 A 
ATOM     41  C   UNL A   1      40.193  25.952  28.226  1.00  0.00    -0.014 A 
BRANCH  41  42
ATOM     42  C   UNL A   1      40.635  27.322  28.581  1.00  0.00     0.031 A 
ATOM     43  C   UNL A   1      42.077  27.689  28.358  1.00  0.00     0.074 A 
ATOM     44  C   UNL A   1      39.761  28.241  29.024  1.00  0.00     0.049 A 
ATOM     45  N   UNL A   1      42.675  28.844  28.493  1.00  0.00    -0.248 NA
ATOM     46  C   UNL A   1      42.961  26.597  27.925  1.00  0.00     0.031 C 
ATOM     47  C   UNL A   1      38.336  28.010  29.254  1.00  0.00     0.029 A 
ATOM     48  N   UNL A   1      39.946  29.561  29.344  1.00  0.00    -0.354 N 
ATOM     49  C   UNL A   1      44.002  28.624  28.137  1.00  0.00     0.074 A 
ATOM     50  C   UNL A   1      44.130  27.210  27.853  1.00  0.00     0.031 C 
ATOM     51  C   UNL A   1      37.770  29.159  29.661  1.00  0.00     0.029 A 
ATOM     52  C   UNL A   1      38.795  30.200  29.737  1.00  0.00     0.049 A 
ATOM     53  H   UNL A   1      40.821  30.009  29.297  1.00  0.00     0.167 HD
ATOM     54  C   UNL A   1      45.015  29.521  28.033  1.00  0.00     0.034 A 
ATOM     55  C   UNL A   1      38.593  31.480  30.107  1.00  0.00     0.034 A 
ATOM     56  C   UNL A   1      44.882  30.920  28.365  1.00  0.00     0.049 A 
ATOM     57  C   UNL A   1      39.756  32.442  30.081  1.00  0.00     0.074 A 
ATOM     58  C   UNL A   1      45.839  31.916  28.315  1.00  0.00     0.029 A 
ATOM     59  N   UNL A   1      43.716  31.516  28.832  1.00  0.00    -0.354 N 
ATOM     60  N   UNL A   1      41.002  32.233  29.721  1.00  0.00    -0.248 NA
ATOM     61  C   UNL A   1      39.473  33.822  30.498  1.00  0.00     0.031 C 
ATOM     62  C   UNL A   1      45.274  33.095  28.817  1.00  0.00     0.029 A 
ATOM     63  C   UNL A   1      43.939  32.859  29.104  1.00  0.00     0.049 A 
ATOM     64  H   UNL A   1      42.855  31.053  28.952  1.00  0.00     0.167 HD
ATOM     65  C   UNL A   1      41.642  33.464  29.833  1.00  0.00     0.074 A 
ATOM     66  C   UNL A   1      40.640  34.411  30.282  1.00  0.00     0.031 C 
ATOM     67  C   UNL A   1      42.937  33.788  29.577  1.00  0.00     0.034 A 
BRANCH  54  68
ATOM     68  C   UNL A   1      46.356  28.980  27.590  1.00  0.00     0.023 A 
ATOM     69  C   UNL A   1      46.623  28.694  26.238  1.00  0.00     0.031 A 
ATOM     70  C   UNL A   1      47.347  28.663  28.535  1.00  0.00     0.131 A 
ATOM     71  C   UNL A   1      47.799  28.017  25.882  1.00  0.00     0.055 A 
ATOM     72  C   UNL A   1      48.557  28.074  28.162  1.00  0.00     0.041 A 
ATOM     73  F   UNL A   1      47.143  28.888  29.842  1.00  0.00    -0.206 F 
ATOM     74  C   UNL A   1      48.780  27.727  26.832  1.00  0.00     0.022 A 
BRANCH  71  75
ATOM     75  S   UNL A   1      47.937  27.347  24.201  1.00  0.00     0.124 S 
ATOM     76  O   UNL A   1      48.097  25.919  24.465  1.00  0.00    -0.237 OA
ATOM     77  O   UNL A   1      46.673  27.749  23.597  1.00  0.00    -0.237 OA
ATOM     78  O   UNL A   1      49.125  28.009  23.666  1.00  0.00    -0.744 OA
ENDBRANCH  71  75
ENDBRANCH  54  68
BRANCH  55  79
ATOM     79  C   UNL A   1      37.239  31.936  30.525  1.00  0.00     0.023 A 
ATOM     80  C   UNL A   1      36.368  32.551  29.611  1.00  0.00     0.031 A 
ATOM     81  C   UNL A   1      36.811  31.798  31.858  1.00  0.00     0.131 A 
ATOM     82  C   UNL A   1      35.127  33.038  30.049  1.00  0.00     0.055 A 
ATOM     83  C   UNL A   1      35.558  32.244  32.278  1.00  0.00     0.041 A 
ATOM     84  F   UNL A   1      37.607  31.215  32.768  1.00  0.00    -0.206 F 
ATOM     85  C   UNL A   1      34.711  32.878  31.373  1.00  0.00     0.022 A 
BRANCH  82  86
ATOM     86  S   UNL A   1      34.080  33.935  28.870  1.00  0.00     0.124 S 
ATOM     87  O   UNL A   1      34.915  35.086  28.547  1.00  0.00    -0.237 OA
ATOM     88  O   UNL A   1      33.906  32.950  27.807  1.00  0.00    -0.237 OA
ATOM     89  O   UNL A   1      32.875  34.232  29.643  1.00  0.00    -0.744 OA
ENDBRANCH  82  86
ENDBRANCH  55  79
BRANCH  67  90
ATOM     90  C   UNL A   1      43.323  35.241  29.740  1.00  0.00     0.023 A 
ATOM     91  C   UNL A   1      43.875  35.734  30.937  1.00  0.00     0.031 A 
ATOM     92  C   UNL A   1      43.096  36.155  28.695  1.00  0.00     0.131 A 
ATOM     93  C   UNL A   1      44.110  37.109  31.085  1.00  0.00     0.055 A 
ATOM     94  C   UNL A   1      43.396  37.512  28.824  1.00  0.00     0.041 A 
ATOM     95  F   UNL A   1      42.571  35.745  27.530  1.00  0.00    -0.206 F 
ATOM     96  C   UNL A   1      43.889  38.000  30.031  1.00  0.00     0.022 A 
BRANCH  93  97
ATOM     97  S   UNL A   1      44.589  37.739  32.718  1.00  0.00     0.124 S 
ATOM     98  O   UNL A   1      46.045  37.698  32.645  1.00  0.00    -0.237 OA
ATOM     99  O   UNL A   1      43.987  39.068  32.728  1.00  0.00    -0.237 OA
ATOM    100  O   UNL A   1      43.988  36.782  33.646  1.00  0.00    -0.744 OA
ENDBRANCH  93  97
ENDBRANCH  67  90
ENDBRANCH  41  42
ENDBRANCH  34  36
ENDBRANCH  33  34
ENDBRANCH  32  33
ENDBRANCH  31  32
ENDBRANCH  30  31
ENDBRANCH  29  30
ENDBRANCH   1  29
TORSDOF 25
ENDMDL
MODEL 2
REMARK VINA RESULT:      -8.6      2.601      7.950
REMARK SMILES CC(=O)Nc1cccc(-c2ccc(F)c(C(=O)OCCOCCOCCOCCOC(=O)c3ccc(-c4c5nc(c(-c6cc(S(=O)(=O)[O-])ccc6F)c6ccc([nH]6)c(-c6cc(S(=O)(=O)[O-])ccc6F)c6nc(c(-c7cc(S(=O)(=O)[O-])ccc7F)c7ccc4[nH]7)C=C6)C=C5)cc3)c2)c1
REMARK SMILES IDX 25 1 24 2 23 3 22 4 21 5 20 6 19 7 18 8 16 9 17 10 15 11
REMARK SMILES IDX 10 12 11 13 96 14 12 15 13 16 14 17 9 18 5 19 6 20 97 21
REMARK SMILES IDX 7 22 8 23 4 24 1 25 2 26 3 27 26 29 27 30 28 31 29 32 30 33
REMARK SMILES IDX 31 34 32 35 33 36 34 37 95 38 35 39 94 40 36 41 37 42 38 43
REMARK SMILES IDX 88 44 39 45 93 46 87 47 89 48 40 49 92 50 86 51 85 52 41 54
REMARK SMILES IDX 73 55 53 56 72 57 54 58 57 59 71 60 90 61 55 62 56 63 70 65
REMARK SMILES IDX 91 66 58 67 42 68 43 69 51 70 44 71 50 72 52 73 49 74 45 75
REMARK SMILES IDX 46 76 47 77 48 78 74 79 75 80 83 81 76 82 82 83 84 84 81 85
REMARK SMILES IDX 77 86 78 87 79 88 80 89 59 90 60 91 68 92 61 93 67 94 69 95
REMARK SMILES IDX 66 96 62 97 63 98 64 99 65 100
REMARK H PARENT 4 28 89 53 57 64
REMARK Flexibility Score: inf
ROOT
ATOM      1  C   UNL A   1      44.801  19.146  24.204  1.00  0.00     0.188 C 
ENDROOT
BRANCH   1   2
ATOM      2  O   UNL A   1      45.127  20.522  24.007  1.00  0.00    -0.377 OA
BRANCH   2   3
ATOM      3  C   UNL A   1      46.080  21.104  24.880  1.00  0.00     0.188 C 
BRANCH   3   4
ATOM      4  C   UNL A   1      45.481  22.197  25.787  1.00  0.00     0.188 C 
BRANCH   4   5
ATOM      5  O   UNL A   1      46.432  23.189  26.170  1.00  0.00    -0.376 OA
BRANCH   5   6
ATOM      6  C   UNL A   1      46.304  23.729  27.480  1.00  0.00     0.202 C 
BRANCH   6   7
ATOM      7  C   UNL A   1      45.007  23.420  28.239  1.00  0.00     0.261 C 
BRANCH   7   8
ATOM      8  O   UNL A   1      44.585  24.445  29.152  1.00  0.00    -0.460 OA
BRANCH   8   9
ATOM      9  C   UNL A   1      44.496  24.153  30.466  1.00  0.00     0.341 C 
ATOM     10  O   UNL A   1      44.115  23.111  30.966  1.00  0.00    -0.246 OA
BRANCH   9  11
ATOM     11  C   UNL A   1      45.100  25.294  31.189  1.00  0.00     0.096 A 
ATOM     12  C   UNL A   1      46.800  27.056  31.316  1.00  0.00    -0.017 A 
ATOM     13  C   UNL A   1      46.396  27.307  32.637  1.00  0.00     0.012 A 
ATOM     14  C   UNL A   1      46.151  26.023  30.613  1.00  0.00     0.027 A 
ATOM     15  C   UNL A   1      45.358  26.572  33.220  1.00  0.00     0.041 A 
ATOM     16  C   UNL A   1      44.707  25.578  32.490  1.00  0.00     0.137 A 
ATOM     17  F   UNL A   1      43.750  24.866  33.098  1.00  0.00    -0.206 F 
BRANCH  12  18
ATOM     18  C   UNL A   1      47.825  27.877  30.644  1.00  0.00    -0.016 A 
ATOM     19  C   UNL A   1      50.038  27.971  29.588  1.00  0.00     0.041 A 
ATOM     20  C   UNL A   1      49.879  29.343  29.395  1.00  0.00     0.026 A 
ATOM     21  C   UNL A   1      49.025  27.267  30.233  1.00  0.00     0.034 A 
ATOM     22  C   UNL A   1      48.693  29.974  29.778  1.00  0.00     0.003 A 
ATOM     23  C   UNL A   1      47.669  29.245  30.391  1.00  0.00     0.009 A 
BRANCH  19  24
ATOM     24  N   UNL A   1      51.240  27.374  29.170  1.00  0.00    -0.326 N 
ATOM     25  C   UNL A   1      51.780  25.978  31.173  1.00  0.00     0.114 C 
ATOM     26  C   UNL A   1      52.137  26.593  29.844  1.00  0.00     0.221 C 
ATOM     27  O   UNL A   1      53.220  26.335  29.313  1.00  0.00    -0.275 OA
ATOM     28  H   UNL A   1      51.476  27.549  28.231  1.00  0.00     0.169 HD
ENDBRANCH  19  24
ENDBRANCH  12  18
ENDBRANCH   9  11
ENDBRANCH   8   9
ENDBRANCH   7   8
ENDBRANCH   6   7
ENDBRANCH   5   6
ENDBRANCH   4   5
ENDBRANCH   3   4
ENDBRANCH   2   3
ENDBRANCH   1   2
BRANCH   1  29
ATOM     29  C   UNL A   1      43.681  18.716  25.176  1.00  0.00     0.188 C 
BRANCH  29  30
ATOM     30  O   UNL A   1      42.976  19.802  25.780  1.00  0.00    -0.376 OA
BRANCH  30  31
ATOM     31  C   UNL A   1      41.965  19.462  26.719  1.00  0.00     0.202 C 
BRANCH  31  32
ATOM     32  C   UNL A   1      40.539  19.601  26.168  1.00  0.00     0.261 C 
BRANCH  32  33
ATOM     33  O   UNL A   1      39.702  20.507  26.902  1.00  0.00    -0.460 OA
BRANCH  33  34
ATOM     34  C   UNL A   1      39.097  21.478  26.180  1.00  0.00     0.338 C 
ATOM     35  O   UNL A   1      38.179  21.336  25.394  1.00  0.00    -0.246 OA
BRANCH  34  36
ATOM     36  C   UNL A   1      39.604  22.782  26.647  1.00  0.00     0.060 A 
ATOM     37  C   UNL A   1      39.102  23.943  26.049  1.00  0.00     0.016 A 
ATOM     38  C   UNL A   1      40.576  22.857  27.649  1.00  0.00     0.016 A 
ATOM     39  C   UNL A   1      39.620  25.184  26.410  1.00  0.00     0.010 A 
ATOM     40  C   UNL A   1      41.100  24.103  28.003  1.00  0.00     0.010 A 
ATOM     41  C   UNL A   1      40.655  25.265  27.352  1.00  0.00    -0.014 A 
BRANCH  41  42
ATOM     42  C   UNL A   1      41.398  26.541  27.487  1.00  0.00     0.031 A 
ATOM     43  C   UNL A   1      40.788  27.640  28.313  1.00  0.00     0.074 A 
ATOM     44  C   UNL A   1      42.619  26.694  26.948  1.00  0.00     0.049 A 
ATOM     45  N   UNL A   1      41.287  28.798  28.662  1.00  0.00    -0.248 NA
ATOM     46  C   UNL A   1      39.426  27.394  28.811  1.00  0.00     0.031 C 
ATOM     47  C   UNL A   1      43.322  25.691  26.151  1.00  0.00     0.029 A 
ATOM     48  N   UNL A   1      43.490  27.751  27.008  1.00  0.00    -0.354 N 
ATOM     49  C   UNL A   1      40.309  29.409  29.441  1.00  0.00     0.074 A 
ATOM     50  C   UNL A   1      39.165  28.522  29.449  1.00  0.00     0.031 C 
ATOM     51  C   UNL A   1      44.529  26.175  25.810  1.00  0.00     0.029 A 
ATOM     52  C   UNL A   1      44.675  27.526  26.349  1.00  0.00     0.049 A 
ATOM     53  H   UNL A   1      43.285  28.591  27.477  1.00  0.00     0.167 HD
ATOM     54  C   UNL A   1      40.369  30.589  30.109  1.00  0.00     0.034 A 
ATOM     55  C   UNL A   1      45.755  28.320  26.208  1.00  0.00     0.034 A 
ATOM     56  C   UNL A   1      41.500  31.483  30.052  1.00  0.00     0.049 A 
ATOM     57  C   UNL A   1      45.763  29.674  26.876  1.00  0.00     0.074 A 
ATOM     58  C   UNL A   1      41.666  32.710  30.671  1.00  0.00     0.029 A 
ATOM     59  N   UNL A   1      42.655  31.255  29.313  1.00  0.00    -0.354 N 
ATOM     60  N   UNL A   1      44.845  30.234  27.630  1.00  0.00    -0.248 NA
ATOM     61  C   UNL A   1      46.966  30.492  26.683  1.00  0.00     0.031 C 
ATOM     62  C   UNL A   1      42.886  33.253  30.251  1.00  0.00     0.029 A 
ATOM     63  C   UNL A   1      43.523  32.331  29.435  1.00  0.00     0.049 A 
ATOM     64  H   UNL A   1      42.832  30.446  28.781  1.00  0.00     0.167 HD
ATOM     65  C   UNL A   1      45.378  31.457  28.032  1.00  0.00     0.074 A 
ATOM     66  C   UNL A   1      46.701  31.543  27.444  1.00  0.00     0.031 C 
ATOM     67  C   UNL A   1      44.831  32.417  28.823  1.00  0.00     0.034 A 
BRANCH  54  68
ATOM     68  C   UNL A   1      39.143  30.978  30.904  1.00  0.00     0.023 A 
ATOM     69  C   UNL A   1      38.011  31.540  30.283  1.00  0.00     0.031 A 
ATOM     70  C   UNL A   1      39.134  30.870  32.305  1.00  0.00     0.131 A 
ATOM     71  C   UNL A   1      36.970  32.066  31.063  1.00  0.00     0.055 A 
ATOM     72  C   UNL A   1      38.052  31.309  33.071  1.00  0.00     0.041 A 
ATOM     73  F   UNL A   1      40.193  30.365  32.959  1.00  0.00    -0.206 F 
ATOM     74  C   UNL A   1      36.972  31.932  32.453  1.00  0.00     0.022 A 
BRANCH  71  75
ATOM     75  S   UNL A   1      35.718  33.099  30.252  1.00  0.00     0.124 S 
ATOM     76  O   UNL A   1      36.203  33.125  28.874  1.00  0.00    -0.237 OA
ATOM     77  O   UNL A   1      34.491  32.347  30.485  1.00  0.00    -0.237 OA
ATOM     78  O   UNL A   1      35.815  34.374  30.960  1.00  0.00    -0.744 OA
ENDBRANCH  71  75
ENDBRANCH  54  68
BRANCH  55  79
ATOM     79  C   UNL A   1      46.926  27.859  25.412  1.00  0.00     0.023 A 
ATOM     80  C   UNL A   1      47.030  28.151  24.043  1.00  0.00     0.031 A 
ATOM     81  C   UNL A   1      47.940  27.085  26.004  1.00  0.00     0.131 A 
ATOM     82  C   UNL A   1      48.107  27.642  23.301  1.00  0.00     0.055 A 
ATOM     83  C   UNL A   1      49.032  26.619  25.271  1.00  0.00     0.041 A 
ATOM     84  F   UNL A   1      47.887  26.781  27.310  1.00  0.00    -0.206 F 
ATOM     85  C   UNL A   1      49.115  26.889  23.907  1.00  0.00     0.022 A 
BRANCH  82  86
ATOM     86  S   UNL A   1      48.146  27.936  21.511  1.00  0.00     0.124 S 
ATOM     87  O   UNL A   1      48.472  26.611  20.999  1.00  0.00    -0.237 OA
ATOM     88  O   UNL A   1      46.789  28.408  21.252  1.00  0.00    -0.237 OA
ATOM     89  O   UNL A   1      49.193  28.943  21.354  1.00  0.00    -0.744 OA
ENDBRANCH  82  86
ENDBRANCH  55  79
BRANCH  67  90
ATOM     90  C   UNL A   1      45.691  33.623  29.128  1.00  0.00     0.023 A 
ATOM     91  C   UNL A   1      45.634  34.793  28.348  1.00  0.00     0.031 A 
ATOM     92  C   UNL A   1      46.611  33.586  30.191  1.00  0.00     0.131 A 
ATOM     93  C   UNL A   1      46.531  35.843  28.595  1.00  0.00     0.055 A 
ATOM     94  C   UNL A   1      47.454  34.661  30.475  1.00  0.00     0.041 A 
ATOM     95  F   UNL A   1      46.712  32.496  30.969  1.00  0.00    -0.206 F 
ATOM     96  C   UNL A   1      47.430  35.792  29.663  1.00  0.00     0.022 A 
BRANCH  93  97
ATOM     97  S   UNL A   1      46.596  37.227  27.422  1.00  0.00     0.124 S 
ATOM     98  O   UNL A   1      47.148  38.297  28.245  1.00  0.00    -0.237 OA
ATOM     99  O   UNL A   1      47.471  36.708  26.377  1.00  0.00    -0.237 OA
ATOM    100  O   UNL A   1      45.200  37.407  27.027  1.00  0.00    -0.744 OA
ENDBRANCH  93  97
ENDBRANCH  67  90
ENDBRANCH  41  42
ENDBRANCH  34  36
ENDBRANCH  33  34
ENDBRANCH  32  33
ENDBRANCH  31  32
ENDBRANCH  30  31
ENDBRANCH  29  30
ENDBRANCH   1  29
TORSDOF 25
ENDMDL
MODEL 3
REMARK VINA RESULT:      -8.3      4.321     10.271
REMARK SMILES CC(=O)Nc1cccc(-c2ccc(F)c(C(=O)OCCOCCOCCOCCOC(=O)c3ccc(-c4c5nc(c(-c6cc(S(=O)(=O)[O-])ccc6F)c6ccc([nH]6)c(-c6cc(S(=O)(=O)[O-])ccc6F)c6nc(c(-c7cc(S(=O)(=O)[O-])ccc7F)c7ccc4[nH]7)C=C6)C=C5)cc3)c2)c1
REMARK SMILES IDX 25 1 24 2 23 3 22 4 21 5 20 6 19 7 18 8 16 9 17 10 15 11
REMARK SMILES IDX 10 12 11 13 96 14 12 15 13 16 14 17 9 18 5 19 6 20 97 21
REMARK SMILES IDX 7 22 8 23 4 24 1 25 2 26 3 27 26 29 27 30 28 31 29 32 30 33
REMARK SMILES IDX 31 34 32 35 33 36 34 37 95 38 35 39 94 40 36 41 37 42 38 43
REMARK SMILES IDX 88 44 39 45 93 46 87 47 89 48 40 49 92 50 86 51 85 52 41 54
REMARK SMILES IDX 73 55 53 56 72 57 54 58 57 59 71 60 90 61 55 62 56 63 70 65
REMARK SMILES IDX 91 66 58 67 42 68 43 69 51 70 44 71 50 72 52 73 49 74 45 75
REMARK SMILES IDX 46 76 47 77 48 78 74 79 75 80 83 81 76 82 82 83 84 84 81 85
REMARK SMILES IDX 77 86 78 87 79 88 80 89 59 90 60 91 68 92 61 93 67 94 69 95
REMARK SMILES IDX 66 96 62 97 63 98 64 99 65 100
REMARK H PARENT 4 28 89 53 57 64
REMARK Flexibility Score: inf
ROOT
ATOM      1  C   UNL A   1      42.330  21.757  27.789  1.00  0.00     0.188 C 
ENDROOT
BRANCH   1   2
ATOM      2  O   UNL A   1      41.464  22.874  27.995  1.00  0.00    -0.377 OA
BRANCH   2   3
ATOM      3  C   UNL A   1      42.058  24.113  28.343  1.00  0.00     0.188 C 
BRANCH   3   4
ATOM      4  C   UNL A   1      41.206  25.328  27.933  1.00  0.00     0.188 C 
BRANCH   4   5
ATOM      5  O   UNL A   1      40.416  25.091  26.768  1.00  0.00    -0.376 OA
BRANCH   5   6
ATOM      6  C   UNL A   1      39.015  24.933  26.964  1.00  0.00     0.202 C 
BRANCH   6   7
ATOM      7  C   UNL A   1      38.366  23.673  26.378  1.00  0.00     0.261 C 
BRANCH   7   8
ATOM      8  O   UNL A   1      36.967  23.799  26.079  1.00  0.00    -0.460 OA
BRANCH   8   9
ATOM      9  C   UNL A   1      36.310  22.739  25.564  1.00  0.00     0.341 C 
ATOM     10  O   UNL A   1      36.566  21.561  25.732  1.00  0.00    -0.246 OA
BRANCH   9  11
ATOM     11  C   UNL A   1      35.117  23.280  24.878  1.00  0.00     0.096 A 
ATOM     12  C   UNL A   1      33.614  25.161  24.416  1.00  0.00    -0.017 A 
ATOM     13  C   UNL A   1      32.745  24.268  23.769  1.00  0.00     0.012 A 
ATOM     14  C   UNL A   1      34.790  24.640  24.987  1.00  0.00     0.027 A 
ATOM     15  C   UNL A   1      33.060  22.907  23.670  1.00  0.00     0.041 A 
ATOM     16  C   UNL A   1      34.249  22.423  24.213  1.00  0.00     0.137 A 
ATOM     17  F   UNL A   1      34.493  21.108  24.139  1.00  0.00    -0.206 F 
BRANCH  12  18
ATOM     18  C   UNL A   1      33.354  26.613  24.453  1.00  0.00    -0.016 A 
ATOM     19  C   UNL A   1      32.320  28.561  23.377  1.00  0.00     0.041 A 
ATOM     20  C   UNL A   1      32.833  29.379  24.384  1.00  0.00     0.026 A 
ATOM     21  C   UNL A   1      32.612  27.200  23.411  1.00  0.00     0.034 A 
ATOM     22  C   UNL A   1      33.560  28.823  25.440  1.00  0.00     0.003 A 
ATOM     23  C   UNL A   1      33.812  27.448  25.479  1.00  0.00     0.009 A 
BRANCH  19  24
ATOM     24  N   UNL A   1      31.579  29.160  22.345  1.00  0.00    -0.326 N 
ATOM     25  C   UNL A   1      29.480  29.748  23.569  1.00  0.00     0.114 C 
ATOM     26  C   UNL A   1      30.282  29.591  22.302  1.00  0.00     0.221 C 
ATOM     27  O   UNL A   1      29.798  29.921  21.217  1.00  0.00    -0.275 OA
ATOM     28  H   UNL A   1      32.080  29.293  21.509  1.00  0.00     0.169 HD
ENDBRANCH  19  24
ENDBRANCH  12  18
ENDBRANCH   9  11
ENDBRANCH   8   9
ENDBRANCH   7   8
ENDBRANCH   6   7
ENDBRANCH   5   6
ENDBRANCH   4   5
ENDBRANCH   3   4
ENDBRANCH   2   3
ENDBRANCH   1   2
BRANCH   1  29
ATOM     29  C   UNL A   1      42.034  20.699  26.704  1.00  0.00     0.188 C 
BRANCH  29  30
ATOM     30  O   UNL A   1      42.686  20.938  25.456  1.00  0.00    -0.376 OA
BRANCH  30  31
ATOM     31  C   UNL A   1      43.806  21.814  25.479  1.00  0.00     0.202 C 
BRANCH  31  32
ATOM     32  C   UNL A   1      43.739  22.928  24.426  1.00  0.00     0.261 C 
BRANCH  32  33
ATOM     33  O   UNL A   1      43.535  24.244  24.962  1.00  0.00    -0.460 OA
BRANCH  33  34
ATOM     34  C   UNL A   1      44.644  25.000  25.125  1.00  0.00     0.338 C 
ATOM     35  O   UNL A   1      45.701  24.881  24.532  1.00  0.00    -0.246 OA
BRANCH  34  36
ATOM     36  C   UNL A   1      44.304  26.132  26.008  1.00  0.00     0.060 A 
ATOM     37  C   UNL A   1      43.648  27.235  25.451  1.00  0.00     0.016 A 
ATOM     38  C   UNL A   1      44.645  26.113  27.363  1.00  0.00     0.016 A 
ATOM     39  C   UNL A   1      43.387  28.352  26.240  1.00  0.00     0.010 A 
ATOM     40  C   UNL A   1      44.390  27.239  28.151  1.00  0.00     0.010 A 
ATOM     41  C   UNL A   1      43.800  28.378  27.578  1.00  0.00    -0.014 A 
BRANCH  41  42
ATOM     42  C   UNL A   1      43.799  29.673  28.302  1.00  0.00     0.031 A 
ATOM     43  C   UNL A   1      42.541  30.093  29.012  1.00  0.00     0.074 A 
ATOM     44  C   UNL A   1      44.909  30.423  28.385  1.00  0.00     0.049 A 
ATOM     45  N   UNL A   1      42.326  31.122  29.791  1.00  0.00    -0.248 NA
ATOM     46  C   UNL A   1      41.367  29.231  28.811  1.00  0.00     0.031 C 
ATOM     47  C   UNL A   1      46.192  30.105  27.761  1.00  0.00     0.029 A 
ATOM     48  N   UNL A   1      45.137  31.602  29.047  1.00  0.00    -0.354 N 
ATOM     49  C   UNL A   1      40.998  31.017  30.194  1.00  0.00     0.074 A 
ATOM     50  C   UNL A   1      40.444  29.866  29.513  1.00  0.00     0.031 C 
ATOM     51  C   UNL A   1      47.082  31.060  28.086  1.00  0.00     0.029 A 
ATOM     52  C   UNL A   1      46.426  32.062  28.925  1.00  0.00     0.049 A 
ATOM     53  H   UNL A   1      44.442  32.074  29.560  1.00  0.00     0.167 HD
ATOM     54  C   UNL A   1      40.312  31.794  31.069  1.00  0.00     0.034 A 
ATOM     55  C   UNL A   1      47.009  33.162  29.441  1.00  0.00     0.034 A 
ATOM     56  C   UNL A   1      40.866  32.965  31.704  1.00  0.00     0.049 A 
ATOM     57  C   UNL A   1      46.199  34.071  30.334  1.00  0.00     0.074 A 
ATOM     58  C   UNL A   1      40.261  33.837  32.593  1.00  0.00     0.029 A 
ATOM     59  N   UNL A   1      42.155  33.444  31.499  1.00  0.00    -0.354 N 
ATOM     60  N   UNL A   1      44.952  33.953  30.729  1.00  0.00    -0.248 NA
ATOM     61  C   UNL A   1      46.889  35.255  30.862  1.00  0.00     0.031 C 
ATOM     62  C   UNL A   1      41.158  34.877  32.868  1.00  0.00     0.029 A 
ATOM     63  C   UNL A   1      42.354  34.614  32.218  1.00  0.00     0.049 A 
ATOM     64  H   UNL A   1      42.831  33.013  30.926  1.00  0.00     0.167 HD
ATOM     65  C   UNL A   1      44.720  35.028  31.584  1.00  0.00     0.074 A 
ATOM     66  C   UNL A   1      45.961  35.774  31.653  1.00  0.00     0.031 C 
ATOM     67  C   UNL A   1      43.589  35.364  32.259  1.00  0.00     0.034 A 
BRANCH  54  68
ATOM     68  C   UNL A   1      38.873  31.409  31.330  1.00  0.00     0.023 A 
ATOM     69  C   UNL A   1      37.816  31.961  30.581  1.00  0.00     0.031 A 
ATOM     70  C   UNL A   1      38.543  30.550  32.393  1.00  0.00     0.131 A 
ATOM     71  C   UNL A   1      36.487  31.734  30.969  1.00  0.00     0.055 A 
ATOM     72  C   UNL A   1      37.217  30.252  32.714  1.00  0.00     0.041 A 
ATOM     73  F   UNL A   1      39.503  30.011  33.160  1.00  0.00    -0.206 F 
ATOM     74  C   UNL A   1      36.179  30.863  32.016  1.00  0.00     0.022 A 
BRANCH  71  75
ATOM     75  S   UNL A   1      35.182  32.745  30.215  1.00  0.00     0.124 S 
ATOM     76  O   UNL A   1      34.641  31.831  29.212  1.00  0.00    -0.237 OA
ATOM     77  O   UNL A   1      34.315  33.036  31.350  1.00  0.00    -0.237 OA
ATOM     78  O   UNL A   1      35.908  33.892  29.672  1.00  0.00    -0.744 OA
ENDBRANCH  71  75
ENDBRANCH  54  68
BRANCH  55  79
ATOM     79  C   UNL A   1      48.434  33.468  29.140  1.00  0.00     0.023 A 
ATOM     80  C   UNL A   1      48.795  34.166  27.977  1.00  0.00     0.031 A 
ATOM     81  C   UNL A   1      49.462  33.030  29.995  1.00  0.00     0.131 A 
ATOM     82  C   UNL A   1      50.151  34.377  27.680  1.00  0.00     0.055 A 
ATOM     83  C   UNL A   1      50.806  33.281  29.718  1.00  0.00     0.041 A 
ATOM     84  F   UNL A   1      49.167  32.361  31.121  1.00  0.00    -0.206 F 
ATOM     85  C   UNL A   1      51.158  33.950  28.549  1.00  0.00     0.022 A 
BRANCH  82  86
ATOM     86  S   UNL A   1      50.584  35.174  26.109  1.00  0.00     0.124 S 
ATOM     87  O   UNL A   1      50.092  36.530  26.318  1.00  0.00    -0.237 OA
ATOM     88  O   UNL A   1      52.034  35.015  26.078  1.00  0.00    -0.237 OA
ATOM     89  O   UNL A   1      49.853  34.388  25.117  1.00  0.00    -0.744 OA
ENDBRANCH  82  86
ENDBRANCH  55  79
BRANCH  67  90
ATOM     90  C   UNL A   1      43.668  36.573  33.165  1.00  0.00     0.023 A 
ATOM     91  C   UNL A   1      43.375  37.869  32.701  1.00  0.00     0.031 A 
ATOM     92  C   UNL A   1      44.083  36.430  34.501  1.00  0.00     0.131 A 
ATOM     93  C   UNL A   1      43.573  38.975  33.542  1.00  0.00     0.055 A 
ATOM     94  C   UNL A   1      44.211  37.527  35.354  1.00  0.00     0.041 A 
ATOM     95  F   UNL A   1      44.377  35.219  34.999  1.00  0.00    -0.206 F 
ATOM     96  C   UNL A   1      43.974  38.811  34.871  1.00  0.00     0.022 A 
BRANCH  93  97
ATOM     97  S   UNL A   1      43.421  40.641  32.840  1.00  0.00     0.124 S 
ATOM     98  O   UNL A   1      43.580  40.385  31.412  1.00  0.00    -0.237 OA
ATOM     99  O   UNL A   1      42.087  41.041  33.273  1.00  0.00    -0.237 OA
ATOM    100  O   UNL A   1      44.520  41.377  33.463  1.00  0.00    -0.744 OA
ENDBRANCH  93  97
ENDBRANCH  67  90
ENDBRANCH  41  42
ENDBRANCH  34  36
ENDBRANCH  33  34
ENDBRANCH  32  33
ENDBRANCH  31  32
ENDBRANCH  30  31
ENDBRANCH  29  30
ENDBRANCH   1  29
TORSDOF 25
ENDMDL
