MODEL 1
REMARK VINA RESULT:      -8.3      0.000      0.000
REMARK SMILES Cn1cc(S(=O)(=O)N2CCC(C(=O)OCCOCCOCCOCCOC(=O)c3ccc(-c4c5nc(c(-c6cc(S(=O)(=O)[O-])ccc6F)c6ccc([nH]6)c(-c6cc(S(=O)(=O)[O-])ccc6F)c6nc(c(-c7cc(S(=O)(=O)[O-])ccc7F)c7ccc4[nH]7)C=C6)C=C5)cc3)CC2)cc1C(=O)N1CCCCC1
REMARK SMILES IDX 20 1 19 2 18 3 17 4 16 5 15 6 14 7 12 8 13 9 11 10 8 11 9 12
REMARK SMILES IDX 93 13 10 14 92 15 5 16 6 17 7 18 4 19 1 20 2 21 3 22 95 23
REMARK SMILES IDX 94 24 96 25 97 26 98 27 99 28 103 29 100 30 102 31 101 32
REMARK SMILES IDX 21 33 22 34 23 35 24 36 25 37 26 38 27 39 28 40 29 41 30 42
REMARK SMILES IDX 91 43 31 44 90 45 32 46 33 47 34 48 84 49 35 50 89 51 83 52
REMARK SMILES IDX 85 53 36 54 88 55 82 56 81 57 37 59 69 60 49 61 68 62 50 63
REMARK SMILES IDX 53 64 67 65 86 66 51 67 52 68 66 70 87 71 54 72 38 73 39 74
REMARK SMILES IDX 47 75 40 76 46 77 48 78 45 79 41 80 42 81 43 82 44 83 70 84
REMARK SMILES IDX 71 85 79 86 72 87 78 88 80 89 77 90 73 91 74 92 75 93 76 94
REMARK SMILES IDX 55 95 56 96 64 97 57 98 63 99 65 100 62 101 58 102 59 103
REMARK SMILES IDX 60 104 61 105
REMARK H PARENT 85 58 53 69
REMARK Flexibility Score: inf
ROOT
ATOM      1  O   UNL A   1      35.164  34.098  33.250  1.00  0.00    -0.377 OA
ENDROOT
BRANCH   1   2
ATOM      2  C   UNL A   1      36.039  33.236  32.550  1.00  0.00     0.188 C 
BRANCH   2   3
ATOM      3  C   UNL A   1      35.507  32.768  31.188  1.00  0.00     0.188 C 
BRANCH   3   4
ATOM      4  O   UNL A   1      36.397  32.572  30.098  1.00  0.00    -0.376 OA
BRANCH   4   5
ATOM      5  C   UNL A   1      36.123  33.163  28.828  1.00  0.00     0.202 C 
BRANCH   5   6
ATOM      6  C   UNL A   1      35.611  32.293  27.673  1.00  0.00     0.261 C 
BRANCH   6   7
ATOM      7  O   UNL A   1      34.581  31.354  28.038  1.00  0.00    -0.463 OA
BRANCH   7   8
ATOM      8  C   UNL A   1      34.930  30.052  27.973  1.00  0.00     0.309 C 
ATOM      9  O   UNL A   1      35.993  29.591  28.386  1.00  0.00    -0.252 OA
BRANCH   8  10
ATOM     10  C   UNL A   1      33.900  29.144  27.341  1.00  0.00     0.102 C 
ATOM     11  N   UNL A   1      32.069  27.869  25.525  1.00  0.00    -0.198 NA
ATOM     12  C   UNL A   1      31.614  28.289  26.876  1.00  0.00     0.103 C 
ATOM     13  C   UNL A   1      33.528  27.753  25.310  1.00  0.00     0.103 C 
ATOM     14  C   UNL A   1      32.415  29.495  27.381  1.00  0.00     0.032 C 
ATOM     15  C   UNL A   1      34.276  28.944  25.876  1.00  0.00     0.032 C 
BRANCH  11  16
ATOM     16  S   UNL A   1      31.141  26.660  24.764  1.00  0.00     0.244 S 
ATOM     17  O   UNL A   1      30.441  27.258  23.646  1.00  0.00    -0.207 OA
ATOM     18  O   UNL A   1      30.446  25.893  25.775  1.00  0.00    -0.207 OA
BRANCH  16  19
ATOM     19  C   UNL A   1      32.148  25.472  23.992  1.00  0.00     0.101 A 
ATOM     20  C   UNL A   1      32.988  23.516  21.086  1.00  0.00     0.150 C 
ATOM     21  N   UNL A   1      32.965  24.155  22.384  1.00  0.00    -0.345 N 
ATOM     22  C   UNL A   1      32.174  25.251  22.631  1.00  0.00     0.107 A 
ATOM     23  C   UNL A   1      33.544  23.710  23.561  1.00  0.00     0.108 A 
ATOM     24  C   UNL A   1      33.027  24.527  24.569  1.00  0.00     0.055 A 
BRANCH  23  25
ATOM     25  C   UNL A   1      34.333  22.503  23.786  1.00  0.00     0.270 C 
ATOM     26  O   UNL A   1      35.552  22.519  23.613  1.00  0.00    -0.267 OA
ATOM     27  N   UNL A   1      33.713  21.352  24.269  1.00  0.00    -0.337 N 
ATOM     28  C   UNL A   1      34.470  20.491  25.172  1.00  0.00     0.120 C 
ATOM     29  C   UNL A   1      32.369  20.907  23.906  1.00  0.00     0.120 C 
ATOM     30  C   UNL A   1      34.481  19.036  24.722  1.00  0.00     0.022 C 
ATOM     31  C   UNL A   1      32.367  19.447  23.445  1.00  0.00     0.022 C 
ATOM     32  C   UNL A   1      33.063  18.542  24.460  1.00  0.00     0.004 C 
ENDBRANCH  23  25
ENDBRANCH  16  19
ENDBRANCH  11  16
ENDBRANCH   8  10
ENDBRANCH   7   8
ENDBRANCH   6   7
ENDBRANCH   5   6
ENDBRANCH   4   5
ENDBRANCH   3   4
ENDBRANCH   2   3
ENDBRANCH   1   2
BRANCH   1  33
ATOM     33  C   UNL A   1      35.506  34.417  34.599  1.00  0.00     0.188 C 
BRANCH  33  34
ATOM     34  C   UNL A   1      36.838  33.872  35.148  1.00  0.00     0.188 C 
BRANCH  34  35
ATOM     35  O   UNL A   1      36.688  33.196  36.398  1.00  0.00    -0.376 OA
BRANCH  35  36
ATOM     36  C   UNL A   1      37.772  32.366  36.808  1.00  0.00     0.202 C 
BRANCH  36  37
ATOM     37  C   UNL A   1      38.996  32.367  35.878  1.00  0.00     0.261 C 
BRANCH  37  38
ATOM     38  O   UNL A   1      39.121  31.226  35.007  1.00  0.00    -0.460 OA
BRANCH  38  39
ATOM     39  C   UNL A   1      40.118  30.351  35.251  1.00  0.00     0.338 C 
ATOM     40  O   UNL A   1      40.082  29.393  36.004  1.00  0.00    -0.246 OA
BRANCH  39  41
ATOM     41  C   UNL A   1      41.212  30.625  34.299  1.00  0.00     0.060 A 
ATOM     42  C   UNL A   1      42.421  31.128  34.796  1.00  0.00     0.016 A 
ATOM     43  C   UNL A   1      41.038  30.423  32.927  1.00  0.00     0.016 A 
ATOM     44  C   UNL A   1      43.443  31.481  33.914  1.00  0.00     0.010 A 
ATOM     45  C   UNL A   1      42.056  30.795  32.044  1.00  0.00     0.010 A 
ATOM     46  C   UNL A   1      43.246  31.364  32.532  1.00  0.00    -0.014 A 
BRANCH  46  47
ATOM     47  C   UNL A   1      44.180  32.040  31.598  1.00  0.00     0.031 A 
ATOM     48  C   UNL A   1      45.366  31.259  31.096  1.00  0.00     0.074 A 
ATOM     49  C   UNL A   1      43.976  33.305  31.189  1.00  0.00     0.049 A 
ATOM     50  N   UNL A   1      46.342  31.637  30.313  1.00  0.00    -0.248 NA
ATOM     51  C   UNL A   1      45.460  29.861  31.545  1.00  0.00     0.031 C 
ATOM     52  C   UNL A   1      42.842  34.144  31.569  1.00  0.00     0.029 A 
ATOM     53  N   UNL A   1      44.726  34.106  30.365  1.00  0.00    -0.354 N 
ATOM     54  C   UNL A   1      47.165  30.525  30.172  1.00  0.00     0.074 A 
ATOM     55  C   UNL A   1      46.592  29.470  30.982  1.00  0.00     0.031 C 
ATOM     56  C   UNL A   1      42.979  35.350  30.989  1.00  0.00     0.029 A 
ATOM     57  C   UNL A   1      44.226  35.380  30.225  1.00  0.00     0.049 A 
ATOM     58  H   UNL A   1      45.546  33.798  29.914  1.00  0.00     0.167 HD
ATOM     59  C   UNL A   1      48.292  30.391  29.432  1.00  0.00     0.034 A 
ATOM     60  C   UNL A   1      44.733  36.450  29.578  1.00  0.00     0.034 A 
ATOM     61  C   UNL A   1      48.866  31.457  28.647  1.00  0.00     0.049 A 
ATOM     62  C   UNL A   1      46.042  36.305  28.835  1.00  0.00     0.074 A 
ATOM     63  C   UNL A   1      50.002  31.431  27.859  1.00  0.00     0.029 A 
ATOM     64  N   UNL A   1      48.354  32.745  28.566  1.00  0.00    -0.354 N 
ATOM     65  N   UNL A   1      46.805  35.245  28.700  1.00  0.00    -0.248 NA
ATOM     66  C   UNL A   1      46.553  37.501  28.151  1.00  0.00     0.031 C 
ATOM     67  C   UNL A   1      50.215  32.719  27.355  1.00  0.00     0.029 A 
ATOM     68  C   UNL A   1      49.170  33.531  27.766  1.00  0.00     0.049 A 
ATOM     69  H   UNL A   1      47.533  33.055  29.010  1.00  0.00     0.167 HD
ATOM     70  C   UNL A   1      47.866  35.640  27.887  1.00  0.00     0.074 A 
ATOM     71  C   UNL A   1      47.638  37.030  27.555  1.00  0.00     0.031 C 
ATOM     72  C   UNL A   1      48.929  34.918  27.447  1.00  0.00     0.034 A 
BRANCH  59  73
ATOM     73  C   UNL A   1      49.001  29.062  29.487  1.00  0.00     0.023 A 
ATOM     74  C   UNL A   1      48.758  28.053  28.539  1.00  0.00     0.031 A 
ATOM     75  C   UNL A   1      49.910  28.787  30.524  1.00  0.00     0.131 A 
ATOM     76  C   UNL A   1      49.367  26.797  28.682  1.00  0.00     0.055 A 
ATOM     77  C   UNL A   1      50.569  27.561  30.618  1.00  0.00     0.041 A 
ATOM     78  F   UNL A   1      50.162  29.703  31.472  1.00  0.00    -0.206 F 
ATOM     79  C   UNL A   1      50.289  26.552  29.702  1.00  0.00     0.022 A 
BRANCH  76  80
ATOM     80  S   UNL A   1      48.837  25.446  27.594  1.00  0.00     0.124 S 
ATOM     81  O   UNL A   1      47.542  25.093  28.172  1.00  0.00    -0.237 OA
ATOM     82  O   UNL A   1      48.799  26.089  26.286  1.00  0.00    -0.237 OA
ATOM     83  O   UNL A   1      49.882  24.438  27.764  1.00  0.00    -0.744 OA
ENDBRANCH  76  80
ENDBRANCH  59  73
BRANCH  60  84
ATOM     84  C   UNL A   1      44.041  37.771  29.631  1.00  0.00     0.023 A 
ATOM     85  C   UNL A   1      44.250  38.661  30.697  1.00  0.00     0.031 A 
ATOM     86  C   UNL A   1      43.096  38.128  28.651  1.00  0.00     0.131 A 
ATOM     87  C   UNL A   1      43.487  39.837  30.787  1.00  0.00     0.055 A 
ATOM     88  C   UNL A   1      42.380  39.325  28.717  1.00  0.00     0.041 A 
ATOM     89  F   UNL A   1      42.853  37.311  27.614  1.00  0.00    -0.206 F 
ATOM     90  C   UNL A   1      42.562  40.180  29.798  1.00  0.00     0.022 A 
BRANCH  87  91
ATOM     91  S   UNL A   1      43.650  40.867  32.272  1.00  0.00     0.124 S 
ATOM     92  O   UNL A   1      42.692  40.241  33.175  1.00  0.00    -0.237 OA
ATOM     93  O   UNL A   1      45.060  40.691  32.608  1.00  0.00    -0.237 OA
ATOM     94  O   UNL A   1      43.286  42.202  31.802  1.00  0.00    -0.744 OA
ENDBRANCH  87  91
ENDBRANCH  60  84
BRANCH  72  95
ATOM     95  C   UNL A   1      49.894  35.609  26.514  1.00  0.00     0.023 A 
ATOM     96  C   UNL A   1      51.027  36.292  26.987  1.00  0.00     0.031 A 
ATOM     97  C   UNL A   1      49.671  35.580  25.125  1.00  0.00     0.131 A 
ATOM     98  C   UNL A   1      51.867  36.962  26.084  1.00  0.00     0.055 A 
ATOM     99  C   UNL A   1      50.541  36.198  24.227  1.00  0.00     0.041 A 
ATOM    100  F   UNL A   1      48.604  34.940  24.617  1.00  0.00    -0.206 F 
ATOM    101  C   UNL A   1      51.640  36.905  24.706  1.00  0.00     0.022 A 
BRANCH  98 102
ATOM    102  S   UNL A   1      53.218  37.980  26.738  1.00  0.00     0.124 S 
ATOM    103  O   UNL A   1      52.707  38.357  28.052  1.00  0.00    -0.237 OA
ATOM    104  O   UNL A   1      54.341  37.048  26.734  1.00  0.00    -0.237 OA
ATOM    105  O   UNL A   1      53.321  39.075  25.776  1.00  0.00    -0.744 OA
ENDBRANCH  98 102
ENDBRANCH  72  95
ENDBRANCH  46  47
ENDBRANCH  39  41
ENDBRANCH  38  39
ENDBRANCH  37  38
ENDBRANCH  36  37
ENDBRANCH  35  36
ENDBRANCH  34  35
ENDBRANCH  33  34
ENDBRANCH   1  33
TORSDOF 26
ENDMDL
MODEL 2
REMARK VINA RESULT:      -8.1      6.767     12.403
REMARK SMILES Cn1cc(S(=O)(=O)N2CCC(C(=O)OCCOCCOCCOCCOC(=O)c3ccc(-c4c5nc(c(-c6cc(S(=O)(=O)[O-])ccc6F)c6ccc([nH]6)c(-c6cc(S(=O)(=O)[O-])ccc6F)c6nc(c(-c7cc(S(=O)(=O)[O-])ccc7F)c7ccc4[nH]7)C=C6)C=C5)cc3)CC2)cc1C(=O)N1CCCCC1
REMARK SMILES IDX 20 1 19 2 18 3 17 4 16 5 15 6 14 7 12 8 13 9 11 10 8 11 9 12
REMARK SMILES IDX 93 13 10 14 92 15 5 16 6 17 7 18 4 19 1 20 2 21 3 22 95 23
REMARK SMILES IDX 94 24 96 25 97 26 98 27 99 28 103 29 100 30 102 31 101 32
REMARK SMILES IDX 21 33 22 34 23 35 24 36 25 37 26 38 27 39 28 40 29 41 30 42
REMARK SMILES IDX 91 43 31 44 90 45 32 46 33 47 34 48 84 49 35 50 89 51 83 52
REMARK SMILES IDX 85 53 36 54 88 55 82 56 81 57 37 59 69 60 49 61 68 62 50 63
REMARK SMILES IDX 53 64 67 65 86 66 51 67 52 68 66 70 87 71 54 72 38 73 39 74
REMARK SMILES IDX 47 75 40 76 46 77 48 78 45 79 41 80 42 81 43 82 44 83 70 84
REMARK SMILES IDX 71 85 79 86 72 87 78 88 80 89 77 90 73 91 74 92 75 93 76 94
REMARK SMILES IDX 55 95 56 96 64 97 57 98 63 99 65 100 62 101 58 102 59 103
REMARK SMILES IDX 60 104 61 105
REMARK H PARENT 85 58 53 69
REMARK Flexibility Score: inf
ROOT
ATOM      1  O   UNL A   1      38.958  34.598  29.312  1.00  0.00    -0.377 OA
ENDROOT
BRANCH   1   2
ATOM      2  C   UNL A   1      40.337  34.687  29.611  1.00  0.00     0.188 C 
BRANCH   2   3
ATOM      3  C   UNL A   1      41.146  35.521  28.606  1.00  0.00     0.188 C 
BRANCH   3   4
ATOM      4  O   UNL A   1      42.527  35.256  28.401  1.00  0.00    -0.376 OA
BRANCH   4   5
ATOM      5  C   UNL A   1      43.119  35.470  27.120  1.00  0.00     0.202 C 
BRANCH   5   6
ATOM      6  C   UNL A   1      43.751  34.296  26.363  1.00  0.00     0.261 C 
BRANCH   6   7
ATOM      7  O   UNL A   1      44.631  33.473  27.154  1.00  0.00    -0.463 OA
BRANCH   7   8
ATOM      8  C   UNL A   1      44.739  32.187  26.760  1.00  0.00     0.309 C 
ATOM      9  O   UNL A   1      45.285  31.817  25.723  1.00  0.00    -0.252 OA
BRANCH   8  10
ATOM     10  C   UNL A   1      44.128  31.176  27.703  1.00  0.00     0.102 C 
ATOM     11  N   UNL A   1      42.367  29.316  29.014  1.00  0.00    -0.198 NA
ATOM     12  C   UNL A   1      43.021  30.402  29.789  1.00  0.00     0.103 C 
ATOM     13  C   UNL A   1      42.950  28.982  27.695  1.00  0.00     0.103 C 
ATOM     14  C   UNL A   1      43.300  31.623  28.905  1.00  0.00     0.032 C 
ATOM     15  C   UNL A   1      43.257  30.227  26.886  1.00  0.00     0.032 C 
BRANCH  11  16
ATOM     16  S   UNL A   1      41.829  27.973  29.912  1.00  0.00     0.244 S 
ATOM     17  O   UNL A   1      40.434  28.174  30.245  1.00  0.00    -0.207 OA
ATOM     18  O   UNL A   1      42.815  27.658  30.924  1.00  0.00    -0.207 OA
BRANCH  16  19
ATOM     19  C   UNL A   1      41.786  26.531  28.943  1.00  0.00     0.101 A 
ATOM     20  C   UNL A   1      39.900  23.963  27.263  1.00  0.00     0.150 C 
ATOM     21  N   UNL A   1      40.943  24.832  27.764  1.00  0.00    -0.345 N 
ATOM     22  C   UNL A   1      40.653  26.055  28.318  1.00  0.00     0.107 A 
ATOM     23  C   UNL A   1      42.286  24.539  27.931  1.00  0.00     0.108 A 
ATOM     24  C   UNL A   1      42.814  25.597  28.676  1.00  0.00     0.055 A 
BRANCH  23  25
ATOM     25  C   UNL A   1      42.991  23.298  27.627  1.00  0.00     0.270 C 
ATOM     26  O   UNL A   1      43.291  22.519  28.533  1.00  0.00    -0.267 OA
ATOM     27  N   UNL A   1      43.259  22.962  26.301  1.00  0.00    -0.337 N 
ATOM     28  C   UNL A   1      43.225  21.551  25.930  1.00  0.00     0.120 C 
ATOM     29  C   UNL A   1      43.620  23.912  25.251  1.00  0.00     0.120 C 
ATOM     30  C   UNL A   1      44.487  21.106  25.204  1.00  0.00     0.022 C 
ATOM     31  C   UNL A   1      44.892  23.480  24.517  1.00  0.00     0.022 C 
ATOM     32  C   UNL A   1      44.792  22.034  24.033  1.00  0.00     0.004 C 
ENDBRANCH  23  25
ENDBRANCH  16  19
ENDBRANCH  11  16
ENDBRANCH   8  10
ENDBRANCH   7   8
ENDBRANCH   6   7
ENDBRANCH   5   6
ENDBRANCH   4   5
ENDBRANCH   3   4
ENDBRANCH   2   3
ENDBRANCH   1   2
BRANCH   1  33
ATOM     33  C   UNL A   1      38.464  33.327  28.892  1.00  0.00     0.188 C 
BRANCH  33  34
ATOM     34  C   UNL A   1      36.940  33.106  28.917  1.00  0.00     0.188 C 
BRANCH  34  35
ATOM     35  O   UNL A   1      36.204  34.322  29.055  1.00  0.00    -0.376 OA
BRANCH  35  36
ATOM     36  C   UNL A   1      35.075  34.291  29.925  1.00  0.00     0.202 C 
BRANCH  36  37
ATOM     37  C   UNL A   1      34.455  32.903  30.154  1.00  0.00     0.261 C 
BRANCH  37  38
ATOM     38  O   UNL A   1      34.571  32.379  31.492  1.00  0.00    -0.460 OA
BRANCH  38  39
ATOM     39  C   UNL A   1      35.572  31.512  31.746  1.00  0.00     0.338 C 
ATOM     40  O   UNL A   1      35.954  30.605  31.027  1.00  0.00    -0.246 OA
BRANCH  39  41
ATOM     41  C   UNL A   1      36.272  31.965  32.964  1.00  0.00     0.060 A 
ATOM     42  C   UNL A   1      35.890  33.182  33.542  1.00  0.00     0.016 A 
ATOM     43  C   UNL A   1      37.318  31.216  33.512  1.00  0.00     0.016 A 
ATOM     44  C   UNL A   1      36.591  33.680  34.641  1.00  0.00     0.010 A 
ATOM     45  C   UNL A   1      38.030  31.726  34.601  1.00  0.00     0.010 A 
ATOM     46  C   UNL A   1      37.695  32.980  35.143  1.00  0.00    -0.014 A 
BRANCH  46  47
ATOM     47  C   UNL A   1      38.631  33.657  36.075  1.00  0.00     0.031 A 
ATOM     48  C   UNL A   1      38.393  33.500  37.554  1.00  0.00     0.074 A 
ATOM     49  C   UNL A   1      39.675  34.377  35.627  1.00  0.00     0.049 A 
ATOM     50  N   UNL A   1      39.039  34.023  38.562  1.00  0.00    -0.248 NA
ATOM     51  C   UNL A   1      37.268  32.634  37.942  1.00  0.00     0.031 C 
ATOM     52  C   UNL A   1      40.034  34.563  34.223  1.00  0.00     0.029 A 
ATOM     53  N   UNL A   1      40.623  35.092  36.314  1.00  0.00    -0.354 N 
ATOM     54  C   UNL A   1      38.402  33.549  39.705  1.00  0.00     0.074 A 
ATOM     55  C   UNL A   1      37.296  32.726  39.262  1.00  0.00     0.031 C 
ATOM     56  C   UNL A   1      41.119  35.356  34.152  1.00  0.00     0.029 A 
ATOM     57  C   UNL A   1      41.510  35.760  35.502  1.00  0.00     0.049 A 
ATOM     58  H   UNL A   1      40.666  35.125  37.298  1.00  0.00     0.167 HD
ATOM     59  C   UNL A   1      38.713  33.774  41.005  1.00  0.00     0.034 A 
ATOM     60  C   UNL A   1      42.503  36.619  35.815  1.00  0.00     0.034 A 
ATOM     61  C   UNL A   1      39.803  34.614  41.433  1.00  0.00     0.049 A 
ATOM     62  C   UNL A   1      42.773  36.930  37.269  1.00  0.00     0.074 A 
ATOM     63  C   UNL A   1      40.209  34.909  42.723  1.00  0.00     0.029 A 
ATOM     64  N   UNL A   1      40.652  35.308  40.581  1.00  0.00    -0.354 N 
ATOM     65  N   UNL A   1      42.171  36.466  38.342  1.00  0.00    -0.248 NA
ATOM     66  C   UNL A   1      43.862  37.874  37.557  1.00  0.00     0.031 C 
ATOM     67  C   UNL A   1      41.258  35.832  42.652  1.00  0.00     0.029 A 
ATOM     68  C   UNL A   1      41.558  36.055  41.318  1.00  0.00     0.049 A 
ATOM     69  H   UNL A   1      40.616  35.274  39.598  1.00  0.00     0.167 HD
ATOM     70  C   UNL A   1      42.833  37.036  39.427  1.00  0.00     0.074 A 
ATOM     71  C   UNL A   1      43.885  37.868  38.881  1.00  0.00     0.031 C 
ATOM     72  C   UNL A   1      42.600  36.883  40.756  1.00  0.00     0.034 A 
BRANCH  59  73
ATOM     73  C   UNL A   1      37.823  33.143  42.046  1.00  0.00     0.023 A 
ATOM     74  C   UNL A   1      36.654  33.777  42.503  1.00  0.00     0.031 A 
ATOM     75  C   UNL A   1      38.166  31.904  42.615  1.00  0.00     0.131 A 
ATOM     76  C   UNL A   1      35.906  33.201  43.541  1.00  0.00     0.055 A 
ATOM     77  C   UNL A   1      37.377  31.301  43.595  1.00  0.00     0.041 A 
ATOM     78  F   UNL A   1      39.284  31.266  42.236  1.00  0.00    -0.206 F 
ATOM     79  C   UNL A   1      36.246  31.956  44.073  1.00  0.00     0.022 A 
BRANCH  76  80
ATOM     80  S   UNL A   1      34.556  34.164  44.277  1.00  0.00     0.124 S 
ATOM     81  O   UNL A   1      35.277  35.314  44.821  1.00  0.00    -0.237 OA
ATOM     82  O   UNL A   1      33.698  34.433  43.130  1.00  0.00    -0.237 OA
ATOM     83  O   UNL A   1      33.995  33.259  45.277  1.00  0.00    -0.744 OA
ENDBRANCH  76  80
ENDBRANCH  59  73
BRANCH  60  84
ATOM     84  C   UNL A   1      43.295  37.291  34.743  1.00  0.00     0.023 A 
ATOM     85  C   UNL A   1      42.997  38.599  34.329  1.00  0.00     0.031 A 
ATOM     86  C   UNL A   1      44.314  36.600  34.062  1.00  0.00     0.131 A 
ATOM     87  C   UNL A   1      43.673  39.156  33.230  1.00  0.00     0.055 A 
ATOM     88  C   UNL A   1      45.021  37.180  33.006  1.00  0.00     0.041 A 
ATOM     89  F   UNL A   1      44.637  35.346  34.414  1.00  0.00    -0.206 F 
ATOM     90  C   UNL A   1      44.690  38.460  32.574  1.00  0.00     0.022 A 
BRANCH  87  91
ATOM     91  S   UNL A   1      43.132  40.772  32.607  1.00  0.00     0.124 S 
ATOM     92  O   UNL A   1      44.397  41.488  32.495  1.00  0.00    -0.237 OA
ATOM     93  O   UNL A   1      42.486  40.410  31.349  1.00  0.00    -0.237 OA
ATOM     94  O   UNL A   1      42.231  41.256  33.650  1.00  0.00    -0.744 OA
ENDBRANCH  87  91
ENDBRANCH  60  84
BRANCH  72  95
ATOM     95  C   UNL A   1      43.536  37.587  41.708  1.00  0.00     0.023 A 
ATOM     96  C   UNL A   1      44.759  37.020  42.104  1.00  0.00     0.031 A 
ATOM     97  C   UNL A   1      43.193  38.849  42.227  1.00  0.00     0.131 A 
ATOM     98  C   UNL A   1      45.572  37.689  43.032  1.00  0.00     0.055 A 
ATOM     99  C   UNL A   1      44.032  39.537  43.104  1.00  0.00     0.041 A 
ATOM    100  F   UNL A   1      42.037  39.438  41.881  1.00  0.00    -0.206 F 
ATOM    101  C   UNL A   1      45.224  38.952  43.521  1.00  0.00     0.022 A 
BRANCH  98 102
ATOM    102  S   UNL A   1      47.056  36.854  43.658  1.00  0.00     0.124 S 
ATOM    103  O   UNL A   1      47.970  36.969  42.525  1.00  0.00    -0.237 OA
ATOM    104  O   UNL A   1      47.392  37.653  44.832  1.00  0.00    -0.237 OA
ATOM    105  O   UNL A   1      46.593  35.498  43.945  1.00  0.00    -0.744 OA
ENDBRANCH  98 102
ENDBRANCH  72  95
ENDBRANCH  46  47
ENDBRANCH  39  41
ENDBRANCH  38  39
ENDBRANCH  37  38
ENDBRANCH  36  37
ENDBRANCH  35  36
ENDBRANCH  34  35
ENDBRANCH  33  34
ENDBRANCH   1  33
TORSDOF 26
ENDMDL
MODEL 3
REMARK VINA RESULT:      -8.1      4.010      7.448
REMARK SMILES Cn1cc(S(=O)(=O)N2CCC(C(=O)OCCOCCOCCOCCOC(=O)c3ccc(-c4c5nc(c(-c6cc(S(=O)(=O)[O-])ccc6F)c6ccc([nH]6)c(-c6cc(S(=O)(=O)[O-])ccc6F)c6nc(c(-c7cc(S(=O)(=O)[O-])ccc7F)c7ccc4[nH]7)C=C6)C=C5)cc3)CC2)cc1C(=O)N1CCCCC1
REMARK SMILES IDX 20 1 19 2 18 3 17 4 16 5 15 6 14 7 12 8 13 9 11 10 8 11 9 12
REMARK SMILES IDX 93 13 10 14 92 15 5 16 6 17 7 18 4 19 1 20 2 21 3 22 95 23
REMARK SMILES IDX 94 24 96 25 97 26 98 27 99 28 103 29 100 30 102 31 101 32
REMARK SMILES IDX 21 33 22 34 23 35 24 36 25 37 26 38 27 39 28 40 29 41 30 42
REMARK SMILES IDX 91 43 31 44 90 45 32 46 33 47 34 48 84 49 35 50 89 51 83 52
REMARK SMILES IDX 85 53 36 54 88 55 82 56 81 57 37 59 69 60 49 61 68 62 50 63
REMARK SMILES IDX 53 64 67 65 86 66 51 67 52 68 66 70 87 71 54 72 38 73 39 74
REMARK SMILES IDX 47 75 40 76 46 77 48 78 45 79 41 80 42 81 43 82 44 83 70 84
REMARK SMILES IDX 71 85 79 86 72 87 78 88 80 89 77 90 73 91 74 92 75 93 76 94
REMARK SMILES IDX 55 95 56 96 64 97 57 98 63 99 65 100 62 101 58 102 59 103
REMARK SMILES IDX 60 104 61 105
REMARK H PARENT 85 58 53 69
REMARK Flexibility Score: inf
ROOT
ATOM      1  O   UNL A   1      37.096  29.048  30.409  1.00  0.00    -0.377 OA
ENDROOT
BRANCH   1   2
ATOM      2  C   UNL A   1      37.984  29.534  29.421  1.00  0.00     0.188 C 
BRANCH   2   3
ATOM      3  C   UNL A   1      37.295  30.277  28.267  1.00  0.00     0.188 C 
BRANCH   3   4
ATOM      4  O   UNL A   1      36.911  31.636  28.416  1.00  0.00    -0.376 OA
BRANCH   4   5
ATOM      5  C   UNL A   1      35.673  31.971  29.043  1.00  0.00     0.202 C 
BRANCH   5   6
ATOM      6  C   UNL A   1      34.373  31.950  28.230  1.00  0.00     0.261 C 
BRANCH   6   7
ATOM      7  O   UNL A   1      33.984  30.648  27.752  1.00  0.00    -0.463 OA
BRANCH   7   8
ATOM      8  C   UNL A   1      32.882  30.617  26.973  1.00  0.00     0.309 C 
ATOM      9  O   UNL A   1      32.035  31.507  26.926  1.00  0.00    -0.252 OA
BRANCH   8  10
ATOM     10  C   UNL A   1      32.734  29.377  26.121  1.00  0.00     0.102 C 
ATOM     11  N   UNL A   1      32.356  26.682  25.189  1.00  0.00    -0.198 NA
ATOM     12  C   UNL A   1      33.525  27.476  24.730  1.00  0.00     0.103 C 
ATOM     13  C   UNL A   1      31.223  27.427  25.782  1.00  0.00     0.103 C 
ATOM     14  C   UNL A   1      33.942  28.508  25.785  1.00  0.00     0.032 C 
ATOM     15  C   UNL A   1      31.696  28.470  26.776  1.00  0.00     0.032 C 
BRANCH  11  16
ATOM     16  S   UNL A   1      31.903  25.374  24.197  1.00  0.00     0.244 S 
ATOM     17  O   UNL A   1      32.600  25.495  22.934  1.00  0.00    -0.207 OA
ATOM     18  O   UNL A   1      30.466  25.209  24.262  1.00  0.00    -0.207 OA
BRANCH  16  19
ATOM     19  C   UNL A   1      32.500  23.864  24.818  1.00  0.00     0.101 A 
ATOM     20  C   UNL A   1      33.580  21.851  27.603  1.00  0.00     0.150 C 
ATOM     21  N   UNL A   1      33.177  22.338  26.301  1.00  0.00    -0.345 N 
ATOM     22  C   UNL A   1      32.512  23.531  26.156  1.00  0.00     0.107 A 
ATOM     23  C   UNL A   1      33.519  21.828  25.060  1.00  0.00     0.108 A 
ATOM     24  C   UNL A   1      33.103  22.786  24.131  1.00  0.00     0.055 A 
BRANCH  23  25
ATOM     25  C   UNL A   1      34.349  20.669  24.750  1.00  0.00     0.270 C 
ATOM     26  O   UNL A   1      35.576  20.763  24.766  1.00  0.00    -0.267 OA
ATOM     27  N   UNL A   1      33.748  19.434  24.507  1.00  0.00    -0.337 N 
ATOM     28  C   UNL A   1      34.448  18.231  24.946  1.00  0.00     0.120 C 
ATOM     29  C   UNL A   1      32.483  19.240  23.801  1.00  0.00     0.120 C 
ATOM     30  C   UNL A   1      34.597  17.202  23.834  1.00  0.00     0.022 C 
ATOM     31  C   UNL A   1      32.621  18.212  22.675  1.00  0.00     0.022 C 
ATOM     32  C   UNL A   1      33.250  16.915  23.180  1.00  0.00     0.004 C 
ENDBRANCH  23  25
ENDBRANCH  16  19
ENDBRANCH  11  16
ENDBRANCH   8  10
ENDBRANCH   7   8
ENDBRANCH   6   7
ENDBRANCH   5   6
ENDBRANCH   4   5
ENDBRANCH   3   4
ENDBRANCH   2   3
ENDBRANCH   1   2
BRANCH   1  33
ATOM     33  C   UNL A   1      37.605  28.928  31.738  1.00  0.00     0.188 C 
BRANCH  33  34
ATOM     34  C   UNL A   1      37.865  30.225  32.526  1.00  0.00     0.188 C 
BRANCH  34  35
ATOM     35  O   UNL A   1      37.428  31.394  31.832  1.00  0.00    -0.376 OA
BRANCH  35  36
ATOM     36  C   UNL A   1      37.019  32.499  32.636  1.00  0.00     0.202 C 
BRANCH  36  37
ATOM     37  C   UNL A   1      37.629  33.857  32.252  1.00  0.00     0.261 C 
BRANCH  37  38
ATOM     38  O   UNL A   1      37.863  34.769  33.343  1.00  0.00    -0.460 OA
BRANCH  38  39
ATOM     39  C   UNL A   1      38.515  34.301  34.428  1.00  0.00     0.338 C 
ATOM     40  O   UNL A   1      38.073  34.199  35.559  1.00  0.00    -0.246 OA
BRANCH  39  41
ATOM     41  C   UNL A   1      39.804  33.739  33.980  1.00  0.00     0.060 A 
ATOM     42  C   UNL A   1      40.499  34.392  32.955  1.00  0.00     0.016 A 
ATOM     43  C   UNL A   1      40.307  32.561  34.540  1.00  0.00     0.016 A 
ATOM     44  C   UNL A   1      41.675  33.838  32.449  1.00  0.00     0.010 A 
ATOM     45  C   UNL A   1      41.476  31.998  34.019  1.00  0.00     0.010 A 
ATOM     46  C   UNL A   1      42.141  32.612  32.944  1.00  0.00    -0.014 A 
BRANCH  46  47
ATOM     47  C   UNL A   1      43.182  31.867  32.193  1.00  0.00     0.031 A 
ATOM     48  C   UNL A   1      44.623  32.229  32.434  1.00  0.00     0.074 A 
ATOM     49  C   UNL A   1      42.862  30.882  31.334  1.00  0.00     0.049 A 
ATOM     50  N   UNL A   1      45.706  31.757  31.875  1.00  0.00    -0.248 NA
ATOM     51  C   UNL A   1      44.871  33.269  33.446  1.00  0.00     0.031 C 
ATOM     52  C   UNL A   1      41.508  30.412  31.052  1.00  0.00     0.029 A 
ATOM     53  N   UNL A   1      43.661  30.104  30.535  1.00  0.00    -0.354 N 
ATOM     54  C   UNL A   1      46.765  32.439  32.467  1.00  0.00     0.074 A 
ATOM     55  C   UNL A   1      46.189  33.383  33.401  1.00  0.00     0.031 C 
ATOM     56  C   UNL A   1      41.569  29.434  30.131  1.00  0.00     0.029 A 
ATOM     57  C   UNL A   1      42.962  29.232  29.733  1.00  0.00     0.049 A 
ATOM     58  H   UNL A   1      44.645  30.163  30.534  1.00  0.00     0.167 HD
ATOM     59  C   UNL A   1      48.095  32.289  32.255  1.00  0.00     0.034 A 
ATOM     60  C   UNL A   1      43.398  28.390  28.772  1.00  0.00     0.034 A 
ATOM     61  C   UNL A   1      48.655  31.361  31.304  1.00  0.00     0.049 A 
ATOM     62  C   UNL A   1      44.880  28.308  28.486  1.00  0.00     0.074 A 
ATOM     63  C   UNL A   1      49.986  31.126  31.011  1.00  0.00     0.029 A 
ATOM     64  N   UNL A   1      47.913  30.526  30.480  1.00  0.00    -0.354 N 
ATOM     65  N   UNL A   1      45.872  28.950  29.060  1.00  0.00    -0.248 NA
ATOM     66  C   UNL A   1      45.302  27.380  27.427  1.00  0.00     0.031 C 
ATOM     67  C   UNL A   1      50.047  30.199  29.965  1.00  0.00     0.029 A 
ATOM     68  C   UNL A   1      48.757  29.798  29.656  1.00  0.00     0.049 A 
ATOM     69  H   UNL A   1      46.931  30.460  30.481  1.00  0.00     0.167 HD
ATOM     70  C   UNL A   1      47.034  28.475  28.455  1.00  0.00     0.074 A 
ATOM     71  C   UNL A   1      46.621  27.488  27.480  1.00  0.00     0.031 C 
ATOM     72  C   UNL A   1      48.327  28.818  28.687  1.00  0.00     0.034 A 
BRANCH  59  73
ATOM     73  C   UNL A   1      49.022  33.191  33.029  1.00  0.00     0.023 A 
ATOM     74  C   UNL A   1      49.439  34.435  32.522  1.00  0.00     0.031 A 
ATOM     75  C   UNL A   1      49.524  32.788  34.278  1.00  0.00     0.131 A 
ATOM     76  C   UNL A   1      50.377  35.201  33.231  1.00  0.00     0.055 A 
ATOM     77  C   UNL A   1      50.400  33.588  35.013  1.00  0.00     0.041 A 
ATOM     78  F   UNL A   1      49.181  31.599  34.800  1.00  0.00    -0.206 F 
ATOM     79  C   UNL A   1      50.842  34.797  34.484  1.00  0.00     0.022 A 
BRANCH  76  80
ATOM     80  S   UNL A   1      51.081  36.669  32.432  1.00  0.00     0.124 S 
ATOM     81  O   UNL A   1      49.982  37.625  32.551  1.00  0.00    -0.237 OA
ATOM     82  O   UNL A   1      52.257  36.942  33.250  1.00  0.00    -0.237 OA
ATOM     83  O   UNL A   1      51.361  36.218  31.070  1.00  0.00    -0.744 OA
ENDBRANCH  76  80
ENDBRANCH  59  73
BRANCH  60  84
ATOM     84  C   UNL A   1      42.431  27.587  27.967  1.00  0.00     0.023 A 
ATOM     85  C   UNL A   1      42.255  26.214  28.197  1.00  0.00     0.031 A 
ATOM     86  C   UNL A   1      41.724  28.172  26.900  1.00  0.00     0.131 A 
ATOM     87  C   UNL A   1      41.437  25.459  27.340  1.00  0.00     0.055 A 
ATOM     88  C   UNL A   1      40.869  27.428  26.084  1.00  0.00     0.041 A 
ATOM     89  F   UNL A   1      41.858  29.481  26.632  1.00  0.00    -0.206 F 
ATOM     90  C   UNL A   1      40.735  26.059  26.293  1.00  0.00     0.022 A 
BRANCH  87  91
ATOM     91  S   UNL A   1      41.383  23.658  27.553  1.00  0.00     0.124 S 
ATOM     92  O   UNL A   1      39.958  23.425  27.758  1.00  0.00    -0.237 OA
ATOM     93  O   UNL A   1      41.936  23.187  26.287  1.00  0.00    -0.237 OA
ATOM     94  O   UNL A   1      42.228  23.428  28.723  1.00  0.00    -0.744 OA
ENDBRANCH  87  91
ENDBRANCH  60  84
BRANCH  72  95
ATOM     95  C   UNL A   1      49.389  28.077  27.910  1.00  0.00     0.023 A 
ATOM     96  C   UNL A   1      49.843  28.524  26.657  1.00  0.00     0.031 A 
ATOM     97  C   UNL A   1      49.953  26.901  28.438  1.00  0.00     0.131 A 
ATOM     98  C   UNL A   1      50.794  27.772  25.950  1.00  0.00     0.055 A 
ATOM     99  C   UNL A   1      50.942  26.189  27.756  1.00  0.00     0.041 A 
ATOM    100  F   UNL A   1      49.558  26.429  29.631  1.00  0.00    -0.206 F 
ATOM    101  C   UNL A   1      51.358  26.618  26.499  1.00  0.00     0.022 A 
BRANCH  98 102
ATOM    102  S   UNL A   1      51.228  28.278  24.263  1.00  0.00     0.124 S 
ATOM    103  O   UNL A   1      51.664  29.657  24.461  1.00  0.00    -0.237 OA
ATOM    104  O   UNL A   1      52.275  27.323  23.911  1.00  0.00    -0.237 OA
ATOM    105  O   UNL A   1      49.977  28.124  23.524  1.00  0.00    -0.744 OA
ENDBRANCH  98 102
ENDBRANCH  72  95
ENDBRANCH  46  47
ENDBRANCH  39  41
ENDBRANCH  38  39
ENDBRANCH  37  38
ENDBRANCH  36  37
ENDBRANCH  35  36
ENDBRANCH  34  35
ENDBRANCH  33  34
ENDBRANCH   1  33
TORSDOF 26
ENDMDL
