MODEL 1
REMARK VINA RESULT:      -9.4      0.000      0.000
REMARK SMILES CNc1nccc(-c2cc(C(=O)OCCOCCOCCOCCOC(=O)c3ccc(-c4c5nc(c(-c6cc(S(=O)(=O)[O-])ccc6F)c6ccc([nH]6)c(-c6cc(S(=O)(=O)[O-])ccc6F)c6nc(c(-c7cc(S(=O)(=O)[O-])ccc7F)c7ccc4[nH]7)C=C6)C=C5)cc3)ccn2)n1
REMARK SMILES IDX 20 1 19 2 18 3 17 4 16 5 15 6 14 7 13 8 11 9 12 10 10 11
REMARK SMILES IDX 8 12 9 13 93 14 92 15 91 16 7 17 3 18 4 19 94 20 5 21 6 22
REMARK SMILES IDX 2 23 1 24 21 26 22 27 23 28 24 29 25 30 26 31 27 32 28 33
REMARK SMILES IDX 29 34 90 35 30 36 89 37 31 38 32 39 33 40 83 41 34 42 88 43
REMARK SMILES IDX 82 44 84 45 35 46 87 47 81 48 80 49 36 51 68 52 48 53 67 54
REMARK SMILES IDX 49 55 52 56 66 57 85 58 50 59 51 60 65 62 86 63 53 64 37 65
REMARK SMILES IDX 38 66 46 67 39 68 45 69 47 70 44 71 40 72 41 73 42 74 43 75
REMARK SMILES IDX 69 76 70 77 78 78 71 79 77 80 79 81 76 82 72 83 73 84 74 85
REMARK SMILES IDX 75 86 54 87 55 88 63 89 56 90 62 91 64 92 61 93 57 94 58 95
REMARK SMILES IDX 59 96 60 97
REMARK H PARENT 2 25 84 50 52 61
REMARK Flexibility Score: inf
ROOT
ATOM      1  C   UNL A   1      43.588  19.037  25.133  1.00  0.00     0.188 C 
ENDROOT
BRANCH   1   2
ATOM      2  O   UNL A   1      42.779  18.794  26.283  1.00  0.00    -0.377 OA
BRANCH   2   3
ATOM      3  C   UNL A   1      42.402  19.908  27.073  1.00  0.00     0.188 C 
BRANCH   3   4
ATOM      4  C   UNL A   1      41.009  20.460  26.718  1.00  0.00     0.188 C 
BRANCH   4   5
ATOM      5  O   UNL A   1      40.826  21.845  26.934  1.00  0.00    -0.376 OA
BRANCH   5   6
ATOM      6  C   UNL A   1      39.680  22.549  26.484  1.00  0.00     0.202 C 
BRANCH   6   7
ATOM      7  C   UNL A   1      38.326  21.946  26.055  1.00  0.00     0.261 C 
BRANCH   7   8
ATOM      8  O   UNL A   1      37.153  22.744  26.183  1.00  0.00    -0.460 OA
BRANCH   8   9
ATOM      9  C   UNL A   1      36.530  23.133  25.052  1.00  0.00     0.338 C 
ATOM     10  O   UNL A   1      37.013  23.702  24.099  1.00  0.00    -0.246 OA
BRANCH   9  11
ATOM     11  C   UNL A   1      35.174  22.534  25.085  1.00  0.00     0.063 A 
ATOM     12  C   UNL A   1      33.608  20.805  24.524  1.00  0.00     0.090 A 
ATOM     13  C   UNL A   1      34.908  21.307  24.477  1.00  0.00     0.046 A 
ATOM     14  N   UNL A   1      32.592  21.526  25.071  1.00  0.00    -0.255 NA
ATOM     15  C   UNL A   1      32.876  22.731  25.612  1.00  0.00     0.112 A 
ATOM     16  C   UNL A   1      34.146  23.263  25.675  1.00  0.00     0.036 A 
BRANCH  12  17
ATOM     17  C   UNL A   1      33.308  19.405  24.149  1.00  0.00     0.094 A 
ATOM     18  C   UNL A   1      33.726  17.154  24.393  1.00  0.00     0.222 A 
ATOM     19  N   UNL A   1      32.964  16.834  23.338  1.00  0.00    -0.222 NA
ATOM     20  N   UNL A   1      33.929  18.407  24.824  1.00  0.00    -0.211 NA
ATOM     21  C   UNL A   1      32.331  17.836  22.715  1.00  0.00     0.117 A 
ATOM     22  C   UNL A   1      32.464  19.147  23.082  1.00  0.00     0.051 A 
BRANCH  18  23
ATOM     23  N   UNL A   1      34.270  16.070  25.032  1.00  0.00    -0.357 N 
ATOM     24  C   UNL A   1      35.646  16.065  25.436  1.00  0.00     0.143 C 
ATOM     25  H   UNL A   1      33.707  15.284  25.215  1.00  0.00     0.163 HD
ENDBRANCH  18  23
ENDBRANCH  12  17
ENDBRANCH   9  11
ENDBRANCH   8   9
ENDBRANCH   7   8
ENDBRANCH   6   7
ENDBRANCH   5   6
ENDBRANCH   4   5
ENDBRANCH   3   4
ENDBRANCH   2   3
ENDBRANCH   1   2
BRANCH   1  26
ATOM     26  C   UNL A   1      45.069  19.468  25.260  1.00  0.00     0.188 C 
BRANCH  26  27
ATOM     27  O   UNL A   1      45.269  20.871  25.390  1.00  0.00    -0.376 OA
BRANCH  27  28
ATOM     28  C   UNL A   1      45.066  21.689  24.251  1.00  0.00     0.202 C 
BRANCH  28  29
ATOM     29  C   UNL A   1      43.815  22.578  24.265  1.00  0.00     0.261 C 
BRANCH  29  30
ATOM     30  O   UNL A   1      43.689  23.461  25.387  1.00  0.00    -0.460 OA
BRANCH  30  31
ATOM     31  C   UNL A   1      44.477  24.563  25.392  1.00  0.00     0.338 C 
ATOM     32  O   UNL A   1      45.234  24.919  24.514  1.00  0.00    -0.246 OA
BRANCH  31  33
ATOM     33  C   UNL A   1      44.109  25.368  26.577  1.00  0.00     0.060 A 
ATOM     34  C   UNL A   1      43.392  24.759  27.615  1.00  0.00     0.016 A 
ATOM     35  C   UNL A   1      44.479  26.712  26.665  1.00  0.00     0.016 A 
ATOM     36  C   UNL A   1      43.011  25.507  28.730  1.00  0.00     0.010 A 
ATOM     37  C   UNL A   1      44.079  27.463  27.773  1.00  0.00     0.010 A 
ATOM     38  C   UNL A   1      43.313  26.874  28.795  1.00  0.00    -0.014 A 
BRANCH  38  39
ATOM     39  C   UNL A   1      42.667  27.726  29.825  1.00  0.00     0.031 A 
ATOM     40  C   UNL A   1      43.337  27.845  31.169  1.00  0.00     0.074 A 
ATOM     41  C   UNL A   1      41.522  28.388  29.575  1.00  0.00     0.049 A 
ATOM     42  N   UNL A   1      42.938  28.470  32.245  1.00  0.00    -0.248 NA
ATOM     43  C   UNL A   1      44.631  27.159  31.315  1.00  0.00     0.031 C 
ATOM     44  C   UNL A   1      40.806  28.385  28.300  1.00  0.00     0.029 A 
ATOM     45  N   UNL A   1      40.753  29.183  30.389  1.00  0.00    -0.354 N 
ATOM     46  C   UNL A   1      43.921  28.239  33.203  1.00  0.00     0.074 A 
ATOM     47  C   UNL A   1      44.921  27.396  32.586  1.00  0.00     0.031 C 
ATOM     48  C   UNL A   1      39.692  29.127  28.425  1.00  0.00     0.029 A 
ATOM     49  C   UNL A   1      39.590  29.622  29.797  1.00  0.00     0.049 A 
ATOM     50  H   UNL A   1      41.010  29.418  31.311  1.00  0.00     0.167 HD
ATOM     51  C   UNL A   1      43.979  28.689  34.480  1.00  0.00     0.034 A 
ATOM     52  C   UNL A   1      38.550  30.308  30.314  1.00  0.00     0.034 A 
ATOM     53  C   UNL A   1      42.971  29.528  35.078  1.00  0.00     0.049 A 
ATOM     54  C   UNL A   1      38.606  30.737  31.766  1.00  0.00     0.074 A 
ATOM     55  C   UNL A   1      42.953  30.073  36.349  1.00  0.00     0.029 A 
ATOM     56  N   UNL A   1      41.794  29.926  34.459  1.00  0.00    -0.354 N 
ATOM     57  N   UNL A   1      39.556  30.539  32.652  1.00  0.00    -0.248 NA
ATOM     58  C   UNL A   1      37.454  31.490  32.283  1.00  0.00     0.031 C 
ATOM     59  C   UNL A   1      41.727  30.720  36.531  1.00  0.00     0.029 A 
ATOM     60  C   UNL A   1      41.022  30.669  35.339  1.00  0.00     0.049 A 
ATOM     61  H   UNL A   1      41.543  29.711  33.531  1.00  0.00     0.167 HD
ATOM     62  C   UNL A   1      39.129  31.175  33.817  1.00  0.00     0.074 A 
ATOM     63  C   UNL A   1      37.847  31.776  33.515  1.00  0.00     0.031 C 
ATOM     64  C   UNL A   1      39.742  31.260  35.026  1.00  0.00     0.034 A 
BRANCH  51  65
ATOM     65  C   UNL A   1      45.135  28.231  35.334  1.00  0.00     0.023 A 
ATOM     66  C   UNL A   1      45.039  27.126  36.197  1.00  0.00     0.031 A 
ATOM     67  C   UNL A   1      46.360  28.920  35.279  1.00  0.00     0.131 A 
ATOM     68  C   UNL A   1      46.132  26.775  37.007  1.00  0.00     0.055 A 
ATOM     69  C   UNL A   1      47.467  28.518  36.028  1.00  0.00     0.041 A 
ATOM     70  F   UNL A   1      46.502  30.000  34.495  1.00  0.00    -0.206 F 
ATOM     71  C   UNL A   1      47.354  27.446  36.907  1.00  0.00     0.022 A 
BRANCH  68  72
ATOM     72  S   UNL A   1      45.897  25.508  38.283  1.00  0.00     0.124 S 
ATOM     73  O   UNL A   1      46.370  24.307  37.598  1.00  0.00    -0.237 OA
ATOM     74  O   UNL A   1      46.736  25.996  39.371  1.00  0.00    -0.237 OA
ATOM     75  O   UNL A   1      44.458  25.544  38.540  1.00  0.00    -0.744 OA
ENDBRANCH  68  72
ENDBRANCH  51  65
BRANCH  52  76
ATOM     76  C   UNL A   1      37.333  30.587  29.493  1.00  0.00     0.023 A 
ATOM     77  C   UNL A   1      36.782  31.876  29.413  1.00  0.00     0.031 A 
ATOM     78  C   UNL A   1      36.649  29.542  28.845  1.00  0.00     0.131 A 
ATOM     79  C   UNL A   1      35.555  32.076  28.758  1.00  0.00     0.055 A 
ATOM     80  C   UNL A   1      35.465  29.758  28.138  1.00  0.00     0.041 A 
ATOM     81  F   UNL A   1      37.122  28.287  28.893  1.00  0.00    -0.206 F 
ATOM     82  C   UNL A   1      34.902  31.028  28.106  1.00  0.00     0.022 A 
BRANCH  79  83
ATOM     83  S   UNL A   1      34.760  33.703  28.877  1.00  0.00     0.124 S 
ATOM     84  O   UNL A   1      35.906  34.599  28.774  1.00  0.00    -0.237 OA
ATOM     85  O   UNL A   1      33.856  33.681  27.732  1.00  0.00    -0.237 OA
ATOM     86  O   UNL A   1      34.108  33.668  30.185  1.00  0.00    -0.744 OA
ENDBRANCH  79  83
ENDBRANCH  52  76
BRANCH  64  87
ATOM     87  C   UNL A   1      39.060  32.083  36.096  1.00  0.00     0.023 A 
ATOM     88  C   UNL A   1      38.333  31.491  37.143  1.00  0.00     0.031 A 
ATOM     89  C   UNL A   1      39.142  33.488  36.063  1.00  0.00     0.131 A 
ATOM     90  C   UNL A   1      37.666  32.299  38.076  1.00  0.00     0.055 A 
ATOM     91  C   UNL A   1      38.538  34.284  37.036  1.00  0.00     0.041 A 
ATOM     92  F   UNL A   1      39.819  34.110  35.086  1.00  0.00    -0.206 F 
ATOM     93  C   UNL A   1      37.781  33.691  38.042  1.00  0.00     0.022 A 
BRANCH  90  94
ATOM     94  S   UNL A   1      36.555  31.513  39.277  1.00  0.00     0.124 S 
ATOM     95  O   UNL A   1      37.308  31.651  40.519  1.00  0.00    -0.237 OA
ATOM     96  O   UNL A   1      35.350  32.329  39.168  1.00  0.00    -0.237 OA
ATOM     97  O   UNL A   1      36.425  30.145  38.779  1.00  0.00    -0.744 OA
ENDBRANCH  90  94
ENDBRANCH  64  87
ENDBRANCH  38  39
ENDBRANCH  31  33
ENDBRANCH  30  31
ENDBRANCH  29  30
ENDBRANCH  28  29
ENDBRANCH  27  28
ENDBRANCH  26  27
ENDBRANCH   1  26
TORSDOF 25
ENDMDL
MODEL 2
REMARK VINA RESULT:      -9.1      6.681     12.590
REMARK SMILES CNc1nccc(-c2cc(C(=O)OCCOCCOCCOCCOC(=O)c3ccc(-c4c5nc(c(-c6cc(S(=O)(=O)[O-])ccc6F)c6ccc([nH]6)c(-c6cc(S(=O)(=O)[O-])ccc6F)c6nc(c(-c7cc(S(=O)(=O)[O-])ccc7F)c7ccc4[nH]7)C=C6)C=C5)cc3)ccn2)n1
REMARK SMILES IDX 20 1 19 2 18 3 17 4 16 5 15 6 14 7 13 8 11 9 12 10 10 11
REMARK SMILES IDX 8 12 9 13 93 14 92 15 91 16 7 17 3 18 4 19 94 20 5 21 6 22
REMARK SMILES IDX 2 23 1 24 21 26 22 27 23 28 24 29 25 30 26 31 27 32 28 33
REMARK SMILES IDX 29 34 90 35 30 36 89 37 31 38 32 39 33 40 83 41 34 42 88 43
REMARK SMILES IDX 82 44 84 45 35 46 87 47 81 48 80 49 36 51 68 52 48 53 67 54
REMARK SMILES IDX 49 55 52 56 66 57 85 58 50 59 51 60 65 62 86 63 53 64 37 65
REMARK SMILES IDX 38 66 46 67 39 68 45 69 47 70 44 71 40 72 41 73 42 74 43 75
REMARK SMILES IDX 69 76 70 77 78 78 71 79 77 80 79 81 76 82 72 83 73 84 74 85
REMARK SMILES IDX 75 86 54 87 55 88 63 89 56 90 62 91 64 92 61 93 57 94 58 95
REMARK SMILES IDX 59 96 60 97
REMARK H PARENT 2 25 84 50 52 61
REMARK Flexibility Score: inf
ROOT
ATOM      1  C   UNL A   1      32.642  35.578  32.789  1.00  0.00     0.188 C 
ENDROOT
BRANCH   1   2
ATOM      2  O   UNL A   1      32.377  35.174  31.446  1.00  0.00    -0.377 OA
BRANCH   2   3
ATOM      3  C   UNL A   1      32.978  35.918  30.401  1.00  0.00     0.188 C 
BRANCH   3   4
ATOM      4  C   UNL A   1      33.903  35.072  29.508  1.00  0.00     0.188 C 
BRANCH   4   5
ATOM      5  O   UNL A   1      33.828  33.674  29.702  1.00  0.00    -0.376 OA
BRANCH   5   6
ATOM      6  C   UNL A   1      34.388  32.740  28.793  1.00  0.00     0.202 C 
BRANCH   6   7
ATOM      7  C   UNL A   1      33.807  32.301  27.433  1.00  0.00     0.261 C 
BRANCH   7   8
ATOM      8  O   UNL A   1      33.327  30.967  27.294  1.00  0.00    -0.460 OA
BRANCH   8   9
ATOM      9  C   UNL A   1      32.079  30.794  26.814  1.00  0.00     0.338 C 
ATOM     10  O   UNL A   1      31.290  31.648  26.476  1.00  0.00    -0.246 OA
BRANCH   9  11
ATOM     11  C   UNL A   1      31.919  29.342  26.559  1.00  0.00     0.063 A 
ATOM     12  C   UNL A   1      31.916  27.435  25.103  1.00  0.00     0.090 A 
ATOM     13  C   UNL A   1      32.101  28.804  25.284  1.00  0.00     0.046 A 
ATOM     14  N   UNL A   1      31.481  26.640  26.118  1.00  0.00    -0.255 NA
ATOM     15  C   UNL A   1      31.272  27.200  27.329  1.00  0.00     0.112 A 
ATOM     16  C   UNL A   1      31.505  28.529  27.610  1.00  0.00     0.036 A 
BRANCH  12  17
ATOM     17  C   UNL A   1      32.351  26.755  23.862  1.00  0.00     0.094 A 
ATOM     18  C   UNL A   1      32.417  24.858  22.559  1.00  0.00     0.222 A 
ATOM     19  N   UNL A   1      33.312  25.391  21.717  1.00  0.00    -0.222 NA
ATOM     20  N   UNL A   1      31.920  25.491  23.632  1.00  0.00    -0.211 NA
ATOM     21  C   UNL A   1      33.690  26.655  21.946  1.00  0.00     0.117 A 
ATOM     22  C   UNL A   1      33.236  27.390  23.006  1.00  0.00     0.051 A 
BRANCH  18  23
ATOM     23  N   UNL A   1      32.013  23.596  22.211  1.00  0.00    -0.357 N 
ATOM     24  C   UNL A   1      32.236  22.480  23.086  1.00  0.00     0.143 C 
ATOM     25  H   UNL A   1      31.563  23.451  21.347  1.00  0.00     0.163 HD
ENDBRANCH  18  23
ENDBRANCH  12  17
ENDBRANCH   9  11
ENDBRANCH   8   9
ENDBRANCH   7   8
ENDBRANCH   6   7
ENDBRANCH   5   6
ENDBRANCH   4   5
ENDBRANCH   3   4
ENDBRANCH   2   3
ENDBRANCH   1   2
BRANCH   1  26
ATOM     26  C   UNL A   1      34.018  36.150  33.207  1.00  0.00     0.188 C 
BRANCH  26  27
ATOM     27  O   UNL A   1      34.924  35.188  33.737  1.00  0.00    -0.376 OA
BRANCH  27  28
ATOM     28  C   UNL A   1      35.780  34.503  32.839  1.00  0.00     0.202 C 
BRANCH  28  29
ATOM     29  C   UNL A   1      35.699  32.971  32.858  1.00  0.00     0.261 C 
BRANCH  29  30
ATOM     30  O   UNL A   1      36.207  32.304  31.695  1.00  0.00    -0.460 OA
BRANCH  30  31
ATOM     31  C   UNL A   1      36.749  31.077  31.880  1.00  0.00     0.338 C 
ATOM     32  O   UNL A   1      36.167  30.068  32.218  1.00  0.00    -0.246 OA
BRANCH  31  33
ATOM     33  C   UNL A   1      38.150  31.135  31.409  1.00  0.00     0.060 A 
ATOM     34  C   UNL A   1      39.172  31.351  32.342  1.00  0.00     0.016 A 
ATOM     35  C   UNL A   1      38.451  30.966  30.055  1.00  0.00     0.016 A 
ATOM     36  C   UNL A   1      40.498  31.437  31.916  1.00  0.00     0.010 A 
ATOM     37  C   UNL A   1      39.777  31.073  29.628  1.00  0.00     0.010 A 
ATOM     38  C   UNL A   1      40.804  31.342  30.551  1.00  0.00    -0.014 A 
BRANCH  38  39
ATOM     39  C   UNL A   1      42.157  31.719  30.069  1.00  0.00     0.031 A 
ATOM     40  C   UNL A   1      42.456  33.181  29.865  1.00  0.00     0.074 A 
ATOM     41  C   UNL A   1      43.102  30.791  29.829  1.00  0.00     0.049 A 
ATOM     42  N   UNL A   1      43.531  33.752  29.391  1.00  0.00    -0.248 NA
ATOM     43  C   UNL A   1      41.389  34.123  30.242  1.00  0.00     0.031 C 
ATOM     44  C   UNL A   1      42.944  29.352  30.032  1.00  0.00     0.029 A 
ATOM     45  N   UNL A   1      44.382  30.923  29.348  1.00  0.00    -0.354 N 
ATOM     46  C   UNL A   1      43.268  35.118  29.396  1.00  0.00     0.074 A 
ATOM     47  C   UNL A   1      41.921  35.287  29.896  1.00  0.00     0.031 C 
ATOM     48  C   UNL A   1      44.079  28.733  29.660  1.00  0.00     0.029 A 
ATOM     49  C   UNL A   1      45.027  29.723  29.152  1.00  0.00     0.049 A 
ATOM     50  H   UNL A   1      44.800  31.796  29.162  1.00  0.00     0.167 HD
ATOM     51  C   UNL A   1      44.076  36.137  29.016  1.00  0.00     0.034 A 
ATOM     52  C   UNL A   1      46.225  29.455  28.591  1.00  0.00     0.034 A 
ATOM     53  C   UNL A   1      45.417  35.950  28.519  1.00  0.00     0.049 A 
ATOM     54  C   UNL A   1      47.080  30.607  28.106  1.00  0.00     0.074 A 
ATOM     55  C   UNL A   1      46.335  36.915  28.145  1.00  0.00     0.029 A 
ATOM     56  N   UNL A   1      46.023  34.719  28.304  1.00  0.00    -0.354 N 
ATOM     57  N   UNL A   1      46.831  31.896  28.146  1.00  0.00    -0.248 NA
ATOM     58  C   UNL A   1      48.380  30.267  27.511  1.00  0.00     0.031 C 
ATOM     59  C   UNL A   1      47.458  36.269  27.618  1.00  0.00     0.029 A 
ATOM     60  C   UNL A   1      47.285  34.902  27.758  1.00  0.00     0.049 A 
ATOM     61  H   UNL A   1      45.618  33.846  28.508  1.00  0.00     0.167 HD
ATOM     62  C   UNL A   1      47.960  32.518  27.614  1.00  0.00     0.074 A 
ATOM     63  C   UNL A   1      48.895  31.465  27.278  1.00  0.00     0.031 C 
ATOM     64  C   UNL A   1      48.206  33.841  27.424  1.00  0.00     0.034 A 
BRANCH  51  65
ATOM     65  C   UNL A   1      43.513  37.536  29.060  1.00  0.00     0.023 A 
ATOM     66  C   UNL A   1      43.694  38.383  30.166  1.00  0.00     0.031 A 
ATOM     67  C   UNL A   1      42.780  38.028  27.965  1.00  0.00     0.131 A 
ATOM     68  C   UNL A   1      43.105  39.658  30.173  1.00  0.00     0.055 A 
ATOM     69  C   UNL A   1      42.264  39.325  27.946  1.00  0.00     0.041 A 
ATOM     70  F   UNL A   1      42.550  37.254  26.892  1.00  0.00    -0.206 F 
ATOM     71  C   UNL A   1      42.415  40.145  29.059  1.00  0.00     0.022 A 
BRANCH  68  72
ATOM     72  S   UNL A   1      43.145  40.626  31.706  1.00  0.00     0.124 S 
ATOM     73  O   UNL A   1      41.759  41.077  31.808  1.00  0.00    -0.237 OA
ATOM     74  O   UNL A   1      43.570  39.639  32.692  1.00  0.00    -0.237 OA
ATOM     75  O   UNL A   1      44.117  41.680  31.420  1.00  0.00    -0.744 OA
ENDBRANCH  68  72
ENDBRANCH  51  65
BRANCH  52  76
ATOM     76  C   UNL A   1      46.677  28.044  28.390  1.00  0.00     0.023 A 
ATOM     77  C   UNL A   1      46.454  27.368  27.180  1.00  0.00     0.031 A 
ATOM     78  C   UNL A   1      47.263  27.321  29.446  1.00  0.00     0.131 A 
ATOM     79  C   UNL A   1      46.754  25.999  27.075  1.00  0.00     0.055 A 
ATOM     80  C   UNL A   1      47.622  25.978  29.314  1.00  0.00     0.041 A 
ATOM     81  F   UNL A   1      47.492  27.911  30.629  1.00  0.00    -0.206 F 
ATOM     82  C   UNL A   1      47.351  25.305  28.128  1.00  0.00     0.022 A 
BRANCH  79  83
ATOM     83  S   UNL A   1      46.236  25.107  25.581  1.00  0.00     0.124 S 
ATOM     84  O   UNL A   1      44.786  25.090  25.736  1.00  0.00    -0.237 OA
ATOM     85  O   UNL A   1      46.759  25.964  24.523  1.00  0.00    -0.237 OA
ATOM     86  O   UNL A   1      46.897  23.810  25.715  1.00  0.00    -0.744 OA
ENDBRANCH  79  83
ENDBRANCH  52  76
BRANCH  64  87
ATOM     87  C   UNL A   1      49.565  34.225  26.882  1.00  0.00     0.023 A 
ATOM     88  C   UNL A   1      50.715  34.234  27.690  1.00  0.00     0.031 A 
ATOM     89  C   UNL A   1      49.707  34.590  25.531  1.00  0.00     0.131 A 
ATOM     90  C   UNL A   1      51.942  34.659  27.156  1.00  0.00     0.055 A 
ATOM     91  C   UNL A   1      50.943  34.941  24.987  1.00  0.00     0.041 A 
ATOM     92  F   UNL A   1      48.643  34.604  24.711  1.00  0.00    -0.206 F 
ATOM     93  C   UNL A   1      52.067  34.992  25.805  1.00  0.00     0.022 A 
BRANCH  90  94
ATOM     94  S   UNL A   1      53.353  34.875  28.276  1.00  0.00     0.124 S 
ATOM     95  O   UNL A   1      54.469  34.438  27.442  1.00  0.00    -0.237 OA
ATOM     96  O   UNL A   1      53.301  36.302  28.573  1.00  0.00    -0.237 OA
ATOM     97  O   UNL A   1      53.038  33.995  29.399  1.00  0.00    -0.744 OA
ENDBRANCH  90  94
ENDBRANCH  64  87
ENDBRANCH  38  39
ENDBRANCH  31  33
ENDBRANCH  30  31
ENDBRANCH  29  30
ENDBRANCH  28  29
ENDBRANCH  27  28
ENDBRANCH  26  27
ENDBRANCH   1  26
TORSDOF 25
ENDMDL
MODEL 3
REMARK VINA RESULT:      -9.0      2.814      3.380
REMARK SMILES CNc1nccc(-c2cc(C(=O)OCCOCCOCCOCCOC(=O)c3ccc(-c4c5nc(c(-c6cc(S(=O)(=O)[O-])ccc6F)c6ccc([nH]6)c(-c6cc(S(=O)(=O)[O-])ccc6F)c6nc(c(-c7cc(S(=O)(=O)[O-])ccc7F)c7ccc4[nH]7)C=C6)C=C5)cc3)ccn2)n1
REMARK SMILES IDX 20 1 19 2 18 3 17 4 16 5 15 6 14 7 13 8 11 9 12 10 10 11
REMARK SMILES IDX 8 12 9 13 93 14 92 15 91 16 7 17 3 18 4 19 94 20 5 21 6 22
REMARK SMILES IDX 2 23 1 24 21 26 22 27 23 28 24 29 25 30 26 31 27 32 28 33
REMARK SMILES IDX 29 34 90 35 30 36 89 37 31 38 32 39 33 40 83 41 34 42 88 43
REMARK SMILES IDX 82 44 84 45 35 46 87 47 81 48 80 49 36 51 68 52 48 53 67 54
REMARK SMILES IDX 49 55 52 56 66 57 85 58 50 59 51 60 65 62 86 63 53 64 37 65
REMARK SMILES IDX 38 66 46 67 39 68 45 69 47 70 44 71 40 72 41 73 42 74 43 75
REMARK SMILES IDX 69 76 70 77 78 78 71 79 77 80 79 81 76 82 72 83 73 84 74 85
REMARK SMILES IDX 75 86 54 87 55 88 63 89 56 90 62 91 64 92 61 93 57 94 58 95
REMARK SMILES IDX 59 96 60 97
REMARK H PARENT 2 25 84 50 52 61
REMARK Flexibility Score: inf
ROOT
ATOM      1  C   UNL A   1      44.129  18.533  25.264  1.00  0.00     0.188 C 
ENDROOT
BRANCH   1   2
ATOM      2  O   UNL A   1      43.225  17.981  26.220  1.00  0.00    -0.377 OA
BRANCH   2   3
ATOM      3  C   UNL A   1      42.433  18.879  26.977  1.00  0.00     0.188 C 
BRANCH   3   4
ATOM      4  C   UNL A   1      41.348  19.583  26.141  1.00  0.00     0.188 C 
BRANCH   4   5
ATOM      5  O   UNL A   1      40.518  20.482  26.849  1.00  0.00    -0.376 OA
BRANCH   5   6
ATOM      6  C   UNL A   1      40.075  21.714  26.302  1.00  0.00     0.202 C 
BRANCH   6   7
ATOM      7  C   UNL A   1      38.789  21.962  25.488  1.00  0.00     0.261 C 
BRANCH   7   8
ATOM      8  O   UNL A   1      37.574  22.208  26.189  1.00  0.00    -0.460 OA
BRANCH   8   9
ATOM      9  C   UNL A   1      37.054  23.452  26.130  1.00  0.00     0.338 C 
ATOM     10  O   UNL A   1      37.632  24.504  26.282  1.00  0.00    -0.246 OA
BRANCH   9  11
ATOM     11  C   UNL A   1      35.670  23.310  25.616  1.00  0.00     0.063 A 
ATOM     12  C   UNL A   1      33.868  22.005  24.719  1.00  0.00     0.090 A 
ATOM     13  C   UNL A   1      35.169  22.072  25.212  1.00  0.00     0.046 A 
ATOM     14  N   UNL A   1      33.119  23.129  24.546  1.00  0.00    -0.255 NA
ATOM     15  C   UNL A   1      33.650  24.317  24.907  1.00  0.00     0.112 A 
ATOM     16  C   UNL A   1      34.899  24.459  25.473  1.00  0.00     0.036 A 
BRANCH  12  17
ATOM     17  C   UNL A   1      33.179  20.708  24.530  1.00  0.00     0.094 A 
ATOM     18  C   UNL A   1      32.773  18.557  25.244  1.00  0.00     0.222 A 
ATOM     19  N   UNL A   1      32.128  18.237  24.114  1.00  0.00    -0.222 NA
ATOM     20  N   UNL A   1      33.313  19.760  25.490  1.00  0.00    -0.211 NA
ATOM     21  C   UNL A   1      31.977  19.205  23.201  1.00  0.00     0.117 A 
ATOM     22  C   UNL A   1      32.480  20.466  23.359  1.00  0.00     0.051 A 
BRANCH  18  23
ATOM     23  N   UNL A   1      32.811  17.544  26.166  1.00  0.00    -0.357 N 
ATOM     24  C   UNL A   1      33.350  16.258  25.829  1.00  0.00     0.143 C 
ATOM     25  H   UNL A   1      32.464  17.701  27.073  1.00  0.00     0.163 HD
ENDBRANCH  18  23
ENDBRANCH  12  17
ENDBRANCH   9  11
ENDBRANCH   8   9
ENDBRANCH   7   8
ENDBRANCH   6   7
ENDBRANCH   5   6
ENDBRANCH   4   5
ENDBRANCH   3   4
ENDBRANCH   2   3
ENDBRANCH   1   2
BRANCH   1  26
ATOM     26  C   UNL A   1      45.663  18.431  25.446  1.00  0.00     0.188 C 
BRANCH  26  27
ATOM     27  O   UNL A   1      46.294  19.642  25.847  1.00  0.00    -0.376 OA
BRANCH  27  28
ATOM     28  C   UNL A   1      46.580  20.614  24.856  1.00  0.00     0.202 C 
BRANCH  28  29
ATOM     29  C   UNL A   1      45.408  21.501  24.416  1.00  0.00     0.261 C 
BRANCH  29  30
ATOM     30  O   UNL A   1      44.454  21.827  25.436  1.00  0.00    -0.460 OA
BRANCH  30  31
ATOM     31  C   UNL A   1      43.591  22.835  25.168  1.00  0.00     0.338 C 
ATOM     32  O   UNL A   1      42.747  22.859  24.297  1.00  0.00    -0.246 OA
BRANCH  31  33
ATOM     33  C   UNL A   1      43.725  23.835  26.250  1.00  0.00     0.060 A 
ATOM     34  C   UNL A   1      43.271  23.509  27.535  1.00  0.00     0.016 A 
ATOM     35  C   UNL A   1      44.304  25.081  25.998  1.00  0.00     0.016 A 
ATOM     36  C   UNL A   1      43.362  24.448  28.564  1.00  0.00     0.010 A 
ATOM     37  C   UNL A   1      44.376  26.025  27.025  1.00  0.00     0.010 A 
ATOM     38  C   UNL A   1      43.874  25.726  28.305  1.00  0.00    -0.014 A 
BRANCH  38  39
ATOM     39  C   UNL A   1      43.706  26.808  29.309  1.00  0.00     0.031 A 
ATOM     40  C   UNL A   1      44.835  27.061  30.273  1.00  0.00     0.074 A 
ATOM     41  C   UNL A   1      42.588  27.554  29.359  1.00  0.00     0.049 A 
ATOM     42  N   UNL A   1      44.901  27.897  31.275  1.00  0.00    -0.248 NA
ATOM     43  C   UNL A   1      46.052  26.255  30.079  1.00  0.00     0.031 C 
ATOM     44  C   UNL A   1      41.448  27.430  28.452  1.00  0.00     0.029 A 
ATOM     45  N   UNL A   1      42.222  28.559  30.222  1.00  0.00    -0.354 N 
ATOM     46  C   UNL A   1      46.157  27.707  31.845  1.00  0.00     0.074 A 
ATOM     47  C   UNL A   1      46.808  26.659  31.089  1.00  0.00     0.031 C 
ATOM     48  C   UNL A   1      40.503  28.314  28.818  1.00  0.00     0.029 A 
ATOM     49  C   UNL A   1      40.947  29.034  30.010  1.00  0.00     0.049 A 
ATOM     50  H   UNL A   1      42.817  28.908  30.925  1.00  0.00     0.167 HD
ATOM     51  C   UNL A   1      46.712  28.348  32.901  1.00  0.00     0.034 A 
ATOM     52  C   UNL A   1      40.214  29.918  30.719  1.00  0.00     0.034 A 
ATOM     53  C   UNL A   1      46.047  29.391  33.642  1.00  0.00     0.049 A 
ATOM     54  C   UNL A   1      40.831  30.567  31.940  1.00  0.00     0.074 A 
ATOM     55  C   UNL A   1      46.535  30.134  34.703  1.00  0.00     0.029 A 
ATOM     56  N   UNL A   1      44.746  29.823  33.419  1.00  0.00    -0.354 N 
ATOM     57  N   UNL A   1      42.031  30.402  32.449  1.00  0.00    -0.248 NA
ATOM     58  C   UNL A   1      39.998  31.529  32.676  1.00  0.00     0.031 C 
ATOM     59  C   UNL A   1      45.502  30.946  35.179  1.00  0.00     0.029 A 
ATOM     60  C   UNL A   1      44.401  30.788  34.353  1.00  0.00     0.049 A 
ATOM     61  H   UNL A   1      44.156  29.492  32.704  1.00  0.00     0.167 HD
ATOM     62  C   UNL A   1      42.106  31.266  33.540  1.00  0.00     0.074 A 
ATOM     63  C   UNL A   1      40.838  31.962  33.605  1.00  0.00     0.031 C 
ATOM     64  C   UNL A   1      43.129  31.472  34.408  1.00  0.00     0.034 A 
BRANCH  51  65
ATOM     65  C   UNL A   1      48.077  27.898  33.358  1.00  0.00     0.023 A 
ATOM     66  C   UNL A   1      49.262  28.445  32.836  1.00  0.00     0.031 A 
ATOM     67  C   UNL A   1      48.190  26.899  34.342  1.00  0.00     0.131 A 
ATOM     68  C   UNL A   1      50.506  27.952  33.263  1.00  0.00     0.055 A 
ATOM     69  C   UNL A   1      49.429  26.469  34.819  1.00  0.00     0.041 A 
ATOM     70  F   UNL A   1      47.093  26.320  34.856  1.00  0.00    -0.206 F 
ATOM     71  C   UNL A   1      50.598  26.988  34.271  1.00  0.00     0.022 A 
BRANCH  68  72
ATOM     72  S   UNL A   1      52.002  28.498  32.395  1.00  0.00     0.124 S 
ATOM     73  O   UNL A   1      52.729  29.183  33.460  1.00  0.00    -0.237 OA
ATOM     74  O   UNL A   1      52.577  27.240  31.935  1.00  0.00    -0.237 OA
ATOM     75  O   UNL A   1      51.486  29.370  31.341  1.00  0.00    -0.744 OA
ENDBRANCH  68  72
ENDBRANCH  51  65
BRANCH  52  76
ATOM     76  C   UNL A   1      38.795  30.205  30.349  1.00  0.00     0.023 A 
ATOM     77  C   UNL A   1      38.427  31.415  29.738  1.00  0.00     0.031 A 
ATOM     78  C   UNL A   1      37.768  29.304  30.687  1.00  0.00     0.131 A 
ATOM     79  C   UNL A   1      37.069  31.718  29.542  1.00  0.00     0.055 A 
ATOM     80  C   UNL A   1      36.425  29.581  30.428  1.00  0.00     0.041 A 
ATOM     81  F   UNL A   1      38.057  28.136  31.281  1.00  0.00    -0.206 F 
ATOM     82  C   UNL A   1      36.067  30.802  29.867  1.00  0.00     0.022 A 
BRANCH  79  83
ATOM     83  S   UNL A   1      36.623  33.381  28.967  1.00  0.00     0.124 S 
ATOM     84  O   UNL A   1      36.034  33.095  27.665  1.00  0.00    -0.237 OA
ATOM     85  O   UNL A   1      35.700  33.821  30.007  1.00  0.00    -0.237 OA
ATOM     86  O   UNL A   1      37.905  34.084  28.935  1.00  0.00    -0.744 OA
ENDBRANCH  79  83
ENDBRANCH  52  76
BRANCH  64  87
ATOM     87  C   UNL A   1      42.942  32.535  35.467  1.00  0.00     0.023 A 
ATOM     88  C   UNL A   1      42.522  32.223  36.772  1.00  0.00     0.031 A 
ATOM     89  C   UNL A   1      43.188  33.886  35.160  1.00  0.00     0.131 A 
ATOM     90  C   UNL A   1      42.302  33.252  37.701  1.00  0.00     0.055 A 
ATOM     91  C   UNL A   1      43.039  34.897  36.110  1.00  0.00     0.041 A 
ATOM     92  F   UNL A   1      43.587  34.246  33.929  1.00  0.00    -0.206 F 
ATOM     93  C   UNL A   1      42.579  34.585  37.384  1.00  0.00     0.022 A 
BRANCH  90  94
ATOM     94  S   UNL A   1      41.548  32.840  39.299  1.00  0.00     0.124 S 
ATOM     95  O   UNL A   1      42.276  31.631  39.672  1.00  0.00    -0.237 OA
ATOM     96  O   UNL A   1      41.835  34.028  40.095  1.00  0.00    -0.237 OA
ATOM     97  O   UNL A   1      40.138  32.638  38.971  1.00  0.00    -0.744 OA
ENDBRANCH  90  94
ENDBRANCH  64  87
ENDBRANCH  38  39
ENDBRANCH  31  33
ENDBRANCH  30  31
ENDBRANCH  29  30
ENDBRANCH  28  29
ENDBRANCH  27  28
ENDBRANCH  26  27
ENDBRANCH   1  26
TORSDOF 25
ENDMDL
