MODEL 1
REMARK VINA RESULT:     -10.6      0.000      0.000
REMARK SMILES C[C@H]1CCc2sc3ncn4nc(/C=C\C(=O)OCCOCCOCCOCCOC(=O)c5ccc(-c6c7nc(c(-c8cc(S(=O)(=O)[O-])ccc8F)c8ccc([nH]8)c(-c8cc(S(=O)(=O)[O-])ccc8F)c8nc(c(-c9cc(S(=O)(=O)[O-])ccc9F)c9ccc6[nH]9)C=C8)C=C7)cc5)nc4c3c2C1
REMARK SMILES IDX 24 1 23 2 22 3 21 4 20 5 19 6 18 7 17 8 15 9 16 10 14 11
REMARK SMILES IDX 13 12 12 13 1 14 2 15 3 16 99 17 4 18 98 19 5 20 97 21 6 22
REMARK SMILES IDX 7 23 96 24 8 25 10 26 95 27 9 28 11 29 25 30 26 31 27 32
REMARK SMILES IDX 28 33 29 34 30 35 31 36 32 37 33 38 94 39 34 40 93 41 35 42
REMARK SMILES IDX 36 43 37 44 87 45 38 46 92 47 86 48 88 49 39 50 91 51 85 52
REMARK SMILES IDX 84 53 40 55 72 56 52 57 71 58 53 59 56 60 70 61 89 62 54 63
REMARK SMILES IDX 55 64 69 66 90 67 57 68 41 69 42 70 50 71 43 72 49 73 51 74
REMARK SMILES IDX 48 75 44 76 45 77 46 78 47 79 73 80 74 81 82 82 75 83 81 84
REMARK SMILES IDX 83 85 80 86 76 87 77 88 78 89 79 90 58 91 59 92 67 93 60 94
REMARK SMILES IDX 66 95 68 96 65 97 61 98 62 99 63 100 64 101
REMARK H PARENT 88 54 56 65
REMARK Flexibility Score: inf
ROOT
ATOM      1  C   UNL A   1      33.680  23.096  26.902  1.00  0.00     0.188 C 
ENDROOT
BRANCH   1   2
ATOM      2  O   UNL A   1      32.462  23.347  26.237  1.00  0.00    -0.377 OA
BRANCH   2   3
ATOM      3  C   UNL A   1      32.023  24.692  26.109  1.00  0.00     0.188 C 
BRANCH   3   4
ATOM      4  C   UNL A   1      32.299  25.537  24.839  1.00  0.00     0.188 C 
BRANCH   4   5
ATOM      5  O   UNL A   1      32.678  26.877  25.089  1.00  0.00    -0.376 OA
BRANCH   5   6
ATOM      6  C   UNL A   1      32.867  27.725  23.971  1.00  0.00     0.202 C 
BRANCH   6   7
ATOM      7  C   UNL A   1      32.809  29.203  24.318  1.00  0.00     0.261 C 
BRANCH   7   8
ATOM      8  O   UNL A   1      31.766  29.570  25.215  1.00  0.00    -0.460 OA
BRANCH   8   9
ATOM      9  C   UNL A   1      32.031  30.333  26.277  1.00  0.00     0.330 C 
ATOM     10  O   UNL A   1      31.212  30.858  27.014  1.00  0.00    -0.247 OA
BRANCH   9  11
ATOM     11  C   UNL A   1      33.479  30.282  26.577  1.00  0.00     0.097 C 
ATOM     12  C   UNL A   1      34.259  31.118  27.285  1.00  0.00     0.058 C 
BRANCH  12  13
ATOM     13  C   UNL A   1      33.983  32.305  28.042  1.00  0.00     0.175 A 
ATOM     14  C   UNL A   1      37.573  33.642  33.624  1.00  0.00     0.008 C 
ATOM     15  C   UNL A   1      36.150  33.124  33.849  1.00  0.00    -0.009 C 
ATOM     16  C   UNL A   1      35.367  33.953  34.887  1.00  0.00     0.009 C 
ATOM     17  C   UNL A   1      35.375  33.019  32.528  1.00  0.00     0.041 C 
ATOM     18  C   UNL A   1      34.966  35.362  34.392  1.00  0.00     0.047 C 
ATOM     19  C   UNL A   1      34.669  34.253  32.117  1.00  0.00    -0.020 A 
ATOM     20  C   UNL A   1      34.474  35.314  32.975  1.00  0.00     0.011 A 
ATOM     21  C   UNL A   1      34.067  34.498  30.864  1.00  0.00     0.060 A 
ATOM     22  S   UNL A   1      33.633  36.603  32.228  1.00  0.00    -0.120 S 
ATOM     23  C   UNL A   1      33.468  35.742  30.752  1.00  0.00     0.129 A 
ATOM     24  C   UNL A   1      33.966  33.667  29.649  1.00  0.00     0.168 A 
ATOM     25  N   UNL A   1      32.828  36.264  29.651  1.00  0.00    -0.225 NA
ATOM     26  N   UNL A   1      33.296  34.195  28.593  1.00  0.00    -0.201 N 
ATOM     27  N   UNL A   1      34.429  32.485  29.333  1.00  0.00    -0.207 NA
ATOM     28  C   UNL A   1      32.749  35.479  28.602  1.00  0.00     0.227 A 
ATOM     29  N   UNL A   1      33.286  33.346  27.545  1.00  0.00    -0.145 NA
ENDBRANCH  12  13
ENDBRANCH   9  11
ENDBRANCH   8   9
ENDBRANCH   7   8
ENDBRANCH   6   7
ENDBRANCH   5   6
ENDBRANCH   4   5
ENDBRANCH   3   4
ENDBRANCH   2   3
ENDBRANCH   1   2
BRANCH   1  30
ATOM     30  C   UNL A   1      34.429  21.829  26.434  1.00  0.00     0.188 C 
BRANCH  30  31
ATOM     31  O   UNL A   1      35.163  21.735  25.218  1.00  0.00    -0.376 OA
BRANCH  31  32
ATOM     32  C   UNL A   1      36.542  22.030  25.062  1.00  0.00     0.202 C 
BRANCH  32  33
ATOM     33  C   UNL A   1      37.665  20.998  25.024  1.00  0.00     0.261 C 
BRANCH  33  34
ATOM     34  O   UNL A   1      38.834  21.389  25.697  1.00  0.00    -0.460 OA
BRANCH  34  35
ATOM     35  C   UNL A   1      39.752  20.414  25.751  1.00  0.00     0.338 C 
ATOM     36  O   UNL A   1      39.595  19.233  25.448  1.00  0.00    -0.246 OA
BRANCH  35  37
ATOM     37  C   UNL A   1      40.982  20.969  26.309  1.00  0.00     0.060 A 
ATOM     38  C   UNL A   1      41.167  20.719  27.666  1.00  0.00     0.016 A 
ATOM     39  C   UNL A   1      41.635  22.014  25.633  1.00  0.00     0.016 A 
ATOM     40  C   UNL A   1      41.682  21.740  28.415  1.00  0.00     0.010 A 
ATOM     41  C   UNL A   1      42.164  23.029  26.386  1.00  0.00     0.010 A 
ATOM     42  C   UNL A   1      42.037  22.929  27.764  1.00  0.00    -0.014 A 
BRANCH  42  43
ATOM     43  C   UNL A   1      42.261  24.089  28.588  1.00  0.00     0.031 A 
ATOM     44  C   UNL A   1      41.291  25.159  28.314  1.00  0.00     0.074 A 
ATOM     45  C   UNL A   1      43.256  24.172  29.489  1.00  0.00     0.049 A 
ATOM     46  N   UNL A   1      41.509  26.238  27.644  1.00  0.00    -0.248 NA
ATOM     47  C   UNL A   1      39.880  24.900  28.620  1.00  0.00     0.031 C 
ATOM     48  C   UNL A   1      44.178  23.145  29.976  1.00  0.00     0.029 A 
ATOM     49  N   UNL A   1      43.610  25.262  30.216  1.00  0.00    -0.354 N 
ATOM     50  C   UNL A   1      40.300  26.911  27.629  1.00  0.00     0.074 A 
ATOM     51  C   UNL A   1      39.304  25.967  28.066  1.00  0.00     0.031 C 
ATOM     52  C   UNL A   1      44.828  23.610  31.072  1.00  0.00     0.029 A 
ATOM     53  C   UNL A   1      44.478  25.009  31.269  1.00  0.00     0.049 A 
ATOM     54  H   UNL A   1      43.275  26.164  30.012  1.00  0.00     0.167 HD
ATOM     55  C   UNL A   1      40.257  28.260  27.485  1.00  0.00     0.034 A 
ATOM     56  C   UNL A   1      44.837  25.896  32.237  1.00  0.00     0.034 A 
ATOM     57  C   UNL A   1      41.490  28.777  26.937  1.00  0.00     0.049 A 
ATOM     58  C   UNL A   1      44.657  27.247  31.637  1.00  0.00     0.074 A 
ATOM     59  C   UNL A   1      42.166  28.590  25.746  1.00  0.00     0.029 A 
ATOM     60  N   UNL A   1      42.425  29.287  27.811  1.00  0.00    -0.354 N 
ATOM     61  N   UNL A   1      45.372  27.674  30.630  1.00  0.00    -0.248 NA
ATOM     62  C   UNL A   1      43.368  27.904  31.804  1.00  0.00     0.031 C 
ATOM     63  C   UNL A   1      43.544  28.514  26.110  1.00  0.00     0.029 A 
ATOM     64  C   UNL A   1      43.639  28.726  27.486  1.00  0.00     0.049 A 
ATOM     65  H   UNL A   1      42.255  29.933  28.534  1.00  0.00     0.167 HD
ATOM     66  C   UNL A   1      44.472  28.323  29.799  1.00  0.00     0.074 A 
ATOM     67  C   UNL A   1      43.267  28.499  30.610  1.00  0.00     0.031 C 
ATOM     68  C   UNL A   1      44.677  28.407  28.450  1.00  0.00     0.034 A 
BRANCH  55  69
ATOM     69  C   UNL A   1      39.229  29.120  28.160  1.00  0.00     0.023 A 
ATOM     70  C   UNL A   1      39.164  29.097  29.561  1.00  0.00     0.031 A 
ATOM     71  C   UNL A   1      38.149  29.748  27.493  1.00  0.00     0.131 A 
ATOM     72  C   UNL A   1      38.049  29.628  30.231  1.00  0.00     0.055 A 
ATOM     73  C   UNL A   1      37.076  30.331  28.166  1.00  0.00     0.041 A 
ATOM     74  F   UNL A   1      38.022  29.741  26.159  1.00  0.00    -0.206 F 
ATOM     75  C   UNL A   1      37.008  30.251  29.544  1.00  0.00     0.022 A 
BRANCH  72  76
ATOM     76  S   UNL A   1      37.911  29.368  32.016  1.00  0.00     0.124 S 
ATOM     77  O   UNL A   1      38.950  30.253  32.531  1.00  0.00    -0.237 OA
ATOM     78  O   UNL A   1      36.533  29.773  32.274  1.00  0.00    -0.237 OA
ATOM     79  O   UNL A   1      38.179  27.939  32.172  1.00  0.00    -0.744 OA
ENDBRANCH  72  76
ENDBRANCH  55  69
BRANCH  56  80
ATOM     80  C   UNL A   1      44.849  25.660  33.711  1.00  0.00     0.023 A 
ATOM     81  C   UNL A   1      43.777  26.056  34.544  1.00  0.00     0.031 A 
ATOM     82  C   UNL A   1      45.802  24.789  34.286  1.00  0.00     0.131 A 
ATOM     83  C   UNL A   1      43.684  25.576  35.872  1.00  0.00     0.055 A 
ATOM     84  C   UNL A   1      45.702  24.315  35.597  1.00  0.00     0.041 A 
ATOM     85  F   UNL A   1      46.817  24.292  33.563  1.00  0.00    -0.206 F 
ATOM     86  C   UNL A   1      44.636  24.697  36.393  1.00  0.00     0.022 A 
BRANCH  83  87
ATOM     87  S   UNL A   1      42.251  26.000  36.918  1.00  0.00     0.124 S 
ATOM     88  O   UNL A   1      41.527  24.736  36.973  1.00  0.00    -0.237 OA
ATOM     89  O   UNL A   1      42.880  26.442  38.158  1.00  0.00    -0.237 OA
ATOM     90  O   UNL A   1      41.582  27.061  36.164  1.00  0.00    -0.744 OA
ENDBRANCH  83  87
ENDBRANCH  56  80
BRANCH  68  91
ATOM     91  C   UNL A   1      46.021  27.962  27.902  1.00  0.00     0.023 A 
ATOM     92  C   UNL A   1      47.181  28.772  27.837  1.00  0.00     0.031 A 
ATOM     93  C   UNL A   1      46.154  26.609  27.547  1.00  0.00     0.131 A 
ATOM     94  C   UNL A   1      48.409  28.218  27.417  1.00  0.00     0.055 A 
ATOM     95  C   UNL A   1      47.373  26.060  27.152  1.00  0.00     0.041 A 
ATOM     96  F   UNL A   1      45.096  25.783  27.615  1.00  0.00    -0.206 F 
ATOM     97  C   UNL A   1      48.506  26.863  27.082  1.00  0.00     0.022 A 
BRANCH  94  98
ATOM     98  S   UNL A   1      49.913  29.246  27.312  1.00  0.00     0.124 S 
ATOM     99  O   UNL A   1      49.452  30.561  27.739  1.00  0.00    -0.237 OA
ATOM    100  O   UNL A   1      50.832  28.562  28.217  1.00  0.00    -0.237 OA
ATOM    101  O   UNL A   1      50.286  29.164  25.897  1.00  0.00    -0.744 OA
ENDBRANCH  94  98
ENDBRANCH  68  91
ENDBRANCH  42  43
ENDBRANCH  35  37
ENDBRANCH  34  35
ENDBRANCH  33  34
ENDBRANCH  32  33
ENDBRANCH  31  32
ENDBRANCH  30  31
ENDBRANCH   1  30
TORSDOF 24
ENDMDL
MODEL 2
REMARK VINA RESULT:     -10.4      1.426      2.026
REMARK SMILES C[C@H]1CCc2sc3ncn4nc(/C=C\C(=O)OCCOCCOCCOCCOC(=O)c5ccc(-c6c7nc(c(-c8cc(S(=O)(=O)[O-])ccc8F)c8ccc([nH]8)c(-c8cc(S(=O)(=O)[O-])ccc8F)c8nc(c(-c9cc(S(=O)(=O)[O-])ccc9F)c9ccc6[nH]9)C=C8)C=C7)cc5)nc4c3c2C1
REMARK SMILES IDX 24 1 23 2 22 3 21 4 20 5 19 6 18 7 17 8 15 9 16 10 14 11
REMARK SMILES IDX 13 12 12 13 1 14 2 15 3 16 99 17 4 18 98 19 5 20 97 21 6 22
REMARK SMILES IDX 7 23 96 24 8 25 10 26 95 27 9 28 11 29 25 30 26 31 27 32
REMARK SMILES IDX 28 33 29 34 30 35 31 36 32 37 33 38 94 39 34 40 93 41 35 42
REMARK SMILES IDX 36 43 37 44 87 45 38 46 92 47 86 48 88 49 39 50 91 51 85 52
REMARK SMILES IDX 84 53 40 55 72 56 52 57 71 58 53 59 56 60 70 61 89 62 54 63
REMARK SMILES IDX 55 64 69 66 90 67 57 68 41 69 42 70 50 71 43 72 49 73 51 74
REMARK SMILES IDX 48 75 44 76 45 77 46 78 47 79 73 80 74 81 82 82 75 83 81 84
REMARK SMILES IDX 83 85 80 86 76 87 77 88 78 89 79 90 58 91 59 92 67 93 60 94
REMARK SMILES IDX 66 95 68 96 65 97 61 98 62 99 63 100 64 101
REMARK H PARENT 88 54 56 65
REMARK Flexibility Score: inf
ROOT
ATOM      1  C   UNL A   1      33.604  23.191  25.823  1.00  0.00     0.188 C 
ENDROOT
BRANCH   1   2
ATOM      2  O   UNL A   1      33.041  24.198  25.012  1.00  0.00    -0.377 OA
BRANCH   2   3
ATOM      3  C   UNL A   1      33.022  25.531  25.500  1.00  0.00     0.188 C 
BRANCH   3   4
ATOM      4  C   UNL A   1      31.808  26.473  25.295  1.00  0.00     0.188 C 
BRANCH   4   5
ATOM      5  O   UNL A   1      32.141  27.830  25.070  1.00  0.00    -0.376 OA
BRANCH   5   6
ATOM      6  C   UNL A   1      31.434  28.810  25.808  1.00  0.00     0.202 C 
BRANCH   6   7
ATOM      7  C   UNL A   1      32.096  30.177  25.785  1.00  0.00     0.261 C 
BRANCH   7   8
ATOM      8  O   UNL A   1      31.947  30.938  26.980  1.00  0.00    -0.460 OA
BRANCH   8   9
ATOM      9  C   UNL A   1      32.996  31.568  27.509  1.00  0.00     0.330 C 
ATOM     10  O   UNL A   1      33.994  31.045  27.979  1.00  0.00    -0.247 OA
BRANCH   9  11
ATOM     11  C   UNL A   1      32.886  33.021  27.251  1.00  0.00     0.097 C 
ATOM     12  C   UNL A   1      33.231  34.077  28.010  1.00  0.00     0.058 C 
BRANCH  12  13
ATOM     13  C   UNL A   1      33.867  34.192  29.290  1.00  0.00     0.175 A 
ATOM     14  C   UNL A   1      40.615  34.599  29.661  1.00  0.00     0.008 C 
ATOM     15  C   UNL A   1      40.002  33.251  30.047  1.00  0.00    -0.009 C 
ATOM     16  C   UNL A   1      40.569  32.689  31.366  1.00  0.00     0.009 C 
ATOM     17  C   UNL A   1      38.468  33.323  30.092  1.00  0.00     0.041 C 
ATOM     18  C   UNL A   1      40.110  33.459  32.626  1.00  0.00     0.047 C 
ATOM     19  C   UNL A   1      37.901  33.750  31.390  1.00  0.00    -0.020 A 
ATOM     20  C   UNL A   1      38.651  33.799  32.546  1.00  0.00     0.011 A 
ATOM     21  C   UNL A   1      36.557  34.101  31.643  1.00  0.00     0.060 A 
ATOM     22  S   UNL A   1      37.735  34.331  33.889  1.00  0.00    -0.120 S 
ATOM     23  C   UNL A   1      36.299  34.459  32.956  1.00  0.00     0.129 A 
ATOM     24  C   UNL A   1      35.379  34.161  30.758  1.00  0.00     0.168 A 
ATOM     25  N   UNL A   1      35.097  34.868  33.489  1.00  0.00    -0.225 NA
ATOM     26  N   UNL A   1      34.200  34.530  31.321  1.00  0.00    -0.201 N 
ATOM     27  N   UNL A   1      35.213  33.958  29.476  1.00  0.00    -0.207 NA
ATOM     28  C   UNL A   1      34.076  34.886  32.665  1.00  0.00     0.227 A 
ATOM     29  N   UNL A   1      33.208  34.558  30.408  1.00  0.00    -0.145 NA
ENDBRANCH  12  13
ENDBRANCH   9  11
ENDBRANCH   8   9
ENDBRANCH   7   8
ENDBRANCH   6   7
ENDBRANCH   5   6
ENDBRANCH   4   5
ENDBRANCH   3   4
ENDBRANCH   2   3
ENDBRANCH   1   2
BRANCH   1  30
ATOM     30  C   UNL A   1      34.285  22.038  25.052  1.00  0.00     0.188 C 
BRANCH  30  31
ATOM     31  O   UNL A   1      35.476  22.179  24.286  1.00  0.00    -0.376 OA
BRANCH  31  32
ATOM     32  C   UNL A   1      36.780  22.361  24.814  1.00  0.00     0.202 C 
BRANCH  32  33
ATOM     33  C   UNL A   1      37.830  21.266  24.966  1.00  0.00     0.261 C 
BRANCH  33  34
ATOM     34  O   UNL A   1      38.850  21.564  25.883  1.00  0.00    -0.460 OA
BRANCH  34  35
ATOM     35  C   UNL A   1      39.830  20.649  25.886  1.00  0.00     0.338 C 
ATOM     36  O   UNL A   1      39.731  19.460  25.591  1.00  0.00    -0.246 OA
BRANCH  35  37
ATOM     37  C   UNL A   1      41.051  21.281  26.380  1.00  0.00     0.060 A 
ATOM     38  C   UNL A   1      41.351  21.001  27.710  1.00  0.00     0.016 A 
ATOM     39  C   UNL A   1      41.571  22.397  25.702  1.00  0.00     0.016 A 
ATOM     40  C   UNL A   1      41.839  22.034  28.461  1.00  0.00     0.010 A 
ATOM     41  C   UNL A   1      42.073  23.425  26.455  1.00  0.00     0.010 A 
ATOM     42  C   UNL A   1      42.053  23.269  27.834  1.00  0.00    -0.014 A 
BRANCH  42  43
ATOM     43  C   UNL A   1      42.246  24.414  28.686  1.00  0.00     0.031 A 
ATOM     44  C   UNL A   1      41.217  25.442  28.473  1.00  0.00     0.074 A 
ATOM     45  C   UNL A   1      43.263  24.521  29.559  1.00  0.00     0.049 A 
ATOM     46  N   UNL A   1      41.360  26.550  27.830  1.00  0.00    -0.248 NA
ATOM     47  C   UNL A   1      39.830  25.105  28.814  1.00  0.00     0.031 C 
ATOM     48  C   UNL A   1      44.249  23.527  29.987  1.00  0.00     0.029 A 
ATOM     49  N   UNL A   1      43.586  25.606  30.308  1.00  0.00    -0.354 N 
ATOM     50  C   UNL A   1      40.120  27.161  27.872  1.00  0.00     0.074 A 
ATOM     51  C   UNL A   1      39.185  26.156  28.309  1.00  0.00     0.031 C 
ATOM     52  C   UNL A   1      44.910  23.993  31.077  1.00  0.00     0.029 A 
ATOM     53  C   UNL A   1      44.498  25.366  31.326  1.00  0.00     0.049 A 
ATOM     54  H   UNL A   1      43.201  26.496  30.141  1.00  0.00     0.167 HD
ATOM     55  C   UNL A   1      40.007  28.510  27.770  1.00  0.00     0.034 A 
ATOM     56  C   UNL A   1      44.843  26.242  32.309  1.00  0.00     0.034 A 
ATOM     57  C   UNL A   1      41.195  29.103  27.201  1.00  0.00     0.049 A 
ATOM     58  C   UNL A   1      44.579  27.599  31.755  1.00  0.00     0.074 A 
ATOM     59  C   UNL A   1      41.842  28.985  25.985  1.00  0.00     0.029 A 
ATOM     60  N   UNL A   1      42.131  29.634  28.061  1.00  0.00    -0.354 N 
ATOM     61  N   UNL A   1      45.240  28.090  30.741  1.00  0.00    -0.248 NA
ATOM     62  C   UNL A   1      43.265  28.186  31.981  1.00  0.00     0.031 C 
ATOM     63  C   UNL A   1      43.233  28.967  26.305  1.00  0.00     0.029 A 
ATOM     64  C   UNL A   1      43.360  29.144  27.684  1.00  0.00     0.049 A 
ATOM     65  H   UNL A   1      41.952  30.250  28.808  1.00  0.00     0.167 HD
ATOM     66  C   UNL A   1      44.284  28.717  29.957  1.00  0.00     0.074 A 
ATOM     67  C   UNL A   1      43.097  28.809  30.809  1.00  0.00     0.031 C 
ATOM     68  C   UNL A   1      44.442  28.850  28.607  1.00  0.00     0.034 A 
BRANCH  55  69
ATOM     69  C   UNL A   1      38.959  29.299  28.501  1.00  0.00     0.023 A 
ATOM     70  C   UNL A   1      39.017  29.336  29.902  1.00  0.00     0.031 A 
ATOM     71  C   UNL A   1      37.768  29.787  27.910  1.00  0.00     0.131 A 
ATOM     72  C   UNL A   1      37.917  29.788  30.649  1.00  0.00     0.055 A 
ATOM     73  C   UNL A   1      36.704  30.295  28.654  1.00  0.00     0.041 A 
ATOM     74  F   UNL A   1      37.529  29.704  26.595  1.00  0.00    -0.206 F 
ATOM     75  C   UNL A   1      36.763  30.274  30.035  1.00  0.00     0.022 A 
BRANCH  72  76
ATOM     76  S   UNL A   1      37.960  29.601  32.448  1.00  0.00     0.124 S 
ATOM     77  O   UNL A   1      39.393  29.634  32.720  1.00  0.00    -0.237 OA
ATOM     78  O   UNL A   1      37.193  30.761  32.889  1.00  0.00    -0.237 OA
ATOM     79  O   UNL A   1      37.315  28.308  32.669  1.00  0.00    -0.744 OA
ENDBRANCH  72  76
ENDBRANCH  55  69
BRANCH  56  80
ATOM     80  C   UNL A   1      44.913  25.964  33.775  1.00  0.00     0.023 A 
ATOM     81  C   UNL A   1      43.852  26.290  34.652  1.00  0.00     0.031 A 
ATOM     82  C   UNL A   1      45.920  25.119  34.293  1.00  0.00     0.131 A 
ATOM     83  C   UNL A   1      43.823  25.768  35.967  1.00  0.00     0.055 A 
ATOM     84  C   UNL A   1      45.883  24.604  35.592  1.00  0.00     0.041 A 
ATOM     85  F   UNL A   1      46.932  24.687  33.524  1.00  0.00    -0.206 F 
ATOM     86  C   UNL A   1      44.827  24.917  36.432  1.00  0.00     0.022 A 
BRANCH  83  87
ATOM     87  S   UNL A   1      42.409  26.101  37.070  1.00  0.00     0.124 S 
ATOM     88  O   UNL A   1      41.896  27.359  36.540  1.00  0.00    -0.237 OA
ATOM     89  O   UNL A   1      41.568  24.925  36.875  1.00  0.00    -0.237 OA
ATOM     90  O   UNL A   1      43.025  26.197  38.394  1.00  0.00    -0.744 OA
ENDBRANCH  83  87
ENDBRANCH  56  80
BRANCH  68  91
ATOM     91  C   UNL A   1      45.788  28.488  28.006  1.00  0.00     0.023 A 
ATOM     92  C   UNL A   1      46.916  29.344  27.963  1.00  0.00     0.031 A 
ATOM     93  C   UNL A   1      45.963  27.164  27.569  1.00  0.00     0.131 A 
ATOM     94  C   UNL A   1      48.154  28.861  27.486  1.00  0.00     0.055 A 
ATOM     95  C   UNL A   1      47.191  26.684  27.117  1.00  0.00     0.041 A 
ATOM     96  F   UNL A   1      44.937  26.296  27.611  1.00  0.00    -0.206 F 
ATOM     97  C   UNL A   1      48.292  27.532  27.070  1.00  0.00     0.022 A 
BRANCH  94  98
ATOM     98  S   UNL A   1      49.617  29.950  27.410  1.00  0.00     0.124 S 
ATOM     99  O   UNL A   1      49.973  29.936  25.996  1.00  0.00    -0.237 OA
ATOM    100  O   UNL A   1      49.103  31.213  27.932  1.00  0.00    -0.237 OA
ATOM    101  O   UNL A   1      50.586  29.283  28.285  1.00  0.00    -0.744 OA
ENDBRANCH  94  98
ENDBRANCH  68  91
ENDBRANCH  42  43
ENDBRANCH  35  37
ENDBRANCH  34  35
ENDBRANCH  33  34
ENDBRANCH  32  33
ENDBRANCH  31  32
ENDBRANCH  30  31
ENDBRANCH   1  30
TORSDOF 24
ENDMDL
MODEL 3
REMARK VINA RESULT:      -9.9      4.499     10.247
REMARK SMILES C[C@H]1CCc2sc3ncn4nc(/C=C\C(=O)OCCOCCOCCOCCOC(=O)c5ccc(-c6c7nc(c(-c8cc(S(=O)(=O)[O-])ccc8F)c8ccc([nH]8)c(-c8cc(S(=O)(=O)[O-])ccc8F)c8nc(c(-c9cc(S(=O)(=O)[O-])ccc9F)c9ccc6[nH]9)C=C8)C=C7)cc5)nc4c3c2C1
REMARK SMILES IDX 24 1 23 2 22 3 21 4 20 5 19 6 18 7 17 8 15 9 16 10 14 11
REMARK SMILES IDX 13 12 12 13 1 14 2 15 3 16 99 17 4 18 98 19 5 20 97 21 6 22
REMARK SMILES IDX 7 23 96 24 8 25 10 26 95 27 9 28 11 29 25 30 26 31 27 32
REMARK SMILES IDX 28 33 29 34 30 35 31 36 32 37 33 38 94 39 34 40 93 41 35 42
REMARK SMILES IDX 36 43 37 44 87 45 38 46 92 47 86 48 88 49 39 50 91 51 85 52
REMARK SMILES IDX 84 53 40 55 72 56 52 57 71 58 53 59 56 60 70 61 89 62 54 63
REMARK SMILES IDX 55 64 69 66 90 67 57 68 41 69 42 70 50 71 43 72 49 73 51 74
REMARK SMILES IDX 48 75 44 76 45 77 46 78 47 79 73 80 74 81 82 82 75 83 81 84
REMARK SMILES IDX 83 85 80 86 76 87 77 88 78 89 79 90 58 91 59 92 67 93 60 94
REMARK SMILES IDX 66 95 68 96 65 97 61 98 62 99 63 100 64 101
REMARK H PARENT 88 54 56 65
REMARK Flexibility Score: inf
ROOT
ATOM      1  C   UNL A   1      43.000  27.431  25.014  1.00  0.00     0.188 C 
ENDROOT
BRANCH   1   2
ATOM      2  O   UNL A   1      42.126  26.324  25.009  1.00  0.00    -0.377 OA
BRANCH   2   3
ATOM      3  C   UNL A   1      41.773  25.734  26.253  1.00  0.00     0.188 C 
BRANCH   3   4
ATOM      4  C   UNL A   1      40.349  25.191  26.537  1.00  0.00     0.188 C 
BRANCH   4   5
ATOM      5  O   UNL A   1      40.311  23.985  27.276  1.00  0.00    -0.376 OA
BRANCH   5   6
ATOM      6  C   UNL A   1      39.434  22.967  26.827  1.00  0.00     0.202 C 
BRANCH   6   7
ATOM      7  C   UNL A   1      38.288  23.490  25.979  1.00  0.00     0.261 C 
BRANCH   7   8
ATOM      8  O   UNL A   1      37.079  22.744  26.075  1.00  0.00    -0.460 OA
BRANCH   8   9
ATOM      9  C   UNL A   1      36.752  21.869  25.123  1.00  0.00     0.330 C 
ATOM     10  O   UNL A   1      37.496  21.421  24.264  1.00  0.00    -0.247 OA
BRANCH   9  11
ATOM     11  C   UNL A   1      35.397  21.334  25.382  1.00  0.00     0.097 C 
ATOM     12  C   UNL A   1      34.184  21.842  25.100  1.00  0.00     0.058 C 
BRANCH  12  13
ATOM     13  C   UNL A   1      33.758  23.026  24.411  1.00  0.00     0.175 A 
ATOM     14  C   UNL A   1      34.462  29.072  27.377  1.00  0.00     0.008 C 
ATOM     15  C   UNL A   1      33.043  28.501  27.346  1.00  0.00    -0.009 C 
ATOM     16  C   UNL A   1      31.992  29.528  26.879  1.00  0.00     0.009 C 
ATOM     17  C   UNL A   1      32.971  27.218  26.505  1.00  0.00     0.041 C 
ATOM     18  C   UNL A   1      32.077  29.874  25.375  1.00  0.00     0.047 C 
ATOM     19  C   UNL A   1      32.724  27.429  25.062  1.00  0.00    -0.020 A 
ATOM     20  C   UNL A   1      32.305  28.639  24.552  1.00  0.00     0.011 A 
ATOM     21  C   UNL A   1      32.823  26.457  24.043  1.00  0.00     0.060 A 
ATOM     22  S   UNL A   1      32.106  28.592  22.853  1.00  0.00    -0.120 S 
ATOM     23  C   UNL A   1      32.532  26.930  22.774  1.00  0.00     0.129 A 
ATOM     24  C   UNL A   1      33.185  25.028  24.087  1.00  0.00     0.168 A 
ATOM     25  N   UNL A   1      32.565  26.224  21.592  1.00  0.00    -0.225 NA
ATOM     26  N   UNL A   1      33.172  24.350  22.910  1.00  0.00    -0.201 N 
ATOM     27  N   UNL A   1      33.568  24.232  25.052  1.00  0.00    -0.207 NA
ATOM     28  C   UNL A   1      32.875  24.953  21.687  1.00  0.00     0.227 A 
ATOM     29  N   UNL A   1      33.532  23.062  23.083  1.00  0.00    -0.145 NA
ENDBRANCH  12  13
ENDBRANCH   9  11
ENDBRANCH   8   9
ENDBRANCH   7   8
ENDBRANCH   6   7
ENDBRANCH   5   6
ENDBRANCH   4   5
ENDBRANCH   3   4
ENDBRANCH   2   3
ENDBRANCH   1   2
BRANCH   1  30
ATOM     30  C   UNL A   1      44.487  27.087  25.252  1.00  0.00     0.188 C 
BRANCH  30  31
ATOM     31  O   UNL A   1      45.576  27.885  24.803  1.00  0.00    -0.376 OA
BRANCH  31  32
ATOM     32  C   UNL A   1      46.382  28.716  25.624  1.00  0.00     0.202 C 
BRANCH  32  33
ATOM     33  C   UNL A   1      45.868  29.852  26.502  1.00  0.00     0.261 C 
BRANCH  33  34
ATOM     34  O   UNL A   1      45.893  31.115  25.890  1.00  0.00    -0.460 OA
BRANCH  34  35
ATOM     35  C   UNL A   1      46.747  31.962  26.482  1.00  0.00     0.338 C 
ATOM     36  O   UNL A   1      47.967  31.998  26.342  1.00  0.00    -0.246 OA
BRANCH  35  37
ATOM     37  C   UNL A   1      45.992  32.812  27.400  1.00  0.00     0.060 A 
ATOM     38  C   UNL A   1      46.631  33.066  28.611  1.00  0.00     0.016 A 
ATOM     39  C   UNL A   1      44.604  32.946  27.230  1.00  0.00     0.016 A 
ATOM     40  C   UNL A   1      45.847  33.066  29.731  1.00  0.00     0.010 A 
ATOM     41  C   UNL A   1      43.821  32.961  28.354  1.00  0.00     0.010 A 
ATOM     42  C   UNL A   1      44.468  32.869  29.578  1.00  0.00    -0.014 A 
BRANCH  42  43
ATOM     43  C   UNL A   1      43.714  32.545  30.762  1.00  0.00     0.031 A 
ATOM     44  C   UNL A   1      43.756  31.108  31.070  1.00  0.00     0.074 A 
ATOM     45  C   UNL A   1      43.044  33.461  31.483  1.00  0.00     0.049 A 
ATOM     46  N   UNL A   1      42.814  30.252  30.867  1.00  0.00    -0.248 NA
ATOM     47  C   UNL A   1      45.053  30.521  31.427  1.00  0.00     0.031 C 
ATOM     48  C   UNL A   1      43.047  34.922  31.391  1.00  0.00     0.029 A 
ATOM     49  N   UNL A   1      42.218  33.228  32.534  1.00  0.00    -0.354 N 
ATOM     50  C   UNL A   1      43.328  29.037  31.281  1.00  0.00     0.074 A 
ATOM     51  C   UNL A   1      44.749  29.223  31.427  1.00  0.00     0.031 C 
ATOM     52  C   UNL A   1      42.438  35.440  32.488  1.00  0.00     0.029 A 
ATOM     53  C   UNL A   1      41.877  34.351  33.274  1.00  0.00     0.049 A 
ATOM     54  H   UNL A   1      41.886  32.328  32.754  1.00  0.00     0.167 HD
ATOM     55  C   UNL A   1      42.505  28.040  31.698  1.00  0.00     0.034 A 
ATOM     56  C   UNL A   1      41.211  34.352  34.461  1.00  0.00     0.034 A 
ATOM     57  C   UNL A   1      41.148  28.247  31.249  1.00  0.00     0.049 A 
ATOM     58  C   UNL A   1      40.419  33.092  34.483  1.00  0.00     0.074 A 
ATOM     59  C   UNL A   1      40.548  28.331  30.006  1.00  0.00     0.029 A 
ATOM     60  N   UNL A   1      40.256  28.826  32.124  1.00  0.00    -0.354 N 
ATOM     61  N   UNL A   1      39.441  32.857  33.649  1.00  0.00    -0.248 NA
ATOM     62  C   UNL A   1      41.034  31.907  35.066  1.00  0.00     0.031 C 
ATOM     63  C   UNL A   1      39.593  29.385  30.126  1.00  0.00     0.029 A 
ATOM     64  C   UNL A   1      39.614  29.838  31.447  1.00  0.00     0.049 A 
ATOM     65  H   UNL A   1      40.106  28.564  33.061  1.00  0.00     0.167 HD
ATOM     66  C   UNL A   1      39.597  31.531  33.273  1.00  0.00     0.074 A 
ATOM     67  C   UNL A   1      40.550  30.976  34.236  1.00  0.00     0.031 C 
ATOM     68  C   UNL A   1      39.168  31.077  32.058  1.00  0.00     0.034 A 
BRANCH  55  69
ATOM     69  C   UNL A   1      42.877  27.079  32.790  1.00  0.00     0.023 A 
ATOM     70  C   UNL A   1      42.259  27.227  34.041  1.00  0.00     0.031 A 
ATOM     71  C   UNL A   1      43.989  26.204  32.740  1.00  0.00     0.131 A 
ATOM     72  C   UNL A   1      42.775  26.571  35.171  1.00  0.00     0.055 A 
ATOM     73  C   UNL A   1      44.457  25.505  33.852  1.00  0.00     0.041 A 
ATOM     74  F   UNL A   1      44.743  26.056  31.642  1.00  0.00    -0.206 F 
ATOM     75  C   UNL A   1      43.865  25.707  35.085  1.00  0.00     0.022 A 
BRANCH  72  76
ATOM     76  S   UNL A   1      42.082  26.977  36.793  1.00  0.00     0.124 S 
ATOM     77  O   UNL A   1      41.732  28.383  36.627  1.00  0.00    -0.237 OA
ATOM     78  O   UNL A   1      40.966  26.041  36.885  1.00  0.00    -0.237 OA
ATOM     79  O   UNL A   1      43.190  26.716  37.709  1.00  0.00    -0.744 OA
ENDBRANCH  72  76
ENDBRANCH  55  69
BRANCH  56  80
ATOM     80  C   UNL A   1      41.588  35.094  35.701  1.00  0.00     0.023 A 
ATOM     81  C   UNL A   1      40.630  35.467  36.672  1.00  0.00     0.031 A 
ATOM     82  C   UNL A   1      42.944  35.206  36.080  1.00  0.00     0.131 A 
ATOM     83  C   UNL A   1      41.042  35.911  37.952  1.00  0.00     0.055 A 
ATOM     84  C   UNL A   1      43.344  35.641  37.347  1.00  0.00     0.041 A 
ATOM     85  F   UNL A   1      43.932  34.808  35.263  1.00  0.00    -0.206 F 
ATOM     86  C   UNL A   1      42.394  35.985  38.293  1.00  0.00     0.022 A 
BRANCH  83  87
ATOM     87  S   UNL A   1      39.813  36.297  39.243  1.00  0.00     0.124 S 
ATOM     88  O   UNL A   1      38.909  35.157  39.156  1.00  0.00    -0.237 OA
ATOM     89  O   UNL A   1      40.631  36.386  40.447  1.00  0.00    -0.237 OA
ATOM     90  O   UNL A   1      39.242  37.570  38.799  1.00  0.00    -0.744 OA
ENDBRANCH  83  87
ENDBRANCH  56  80
BRANCH  68  91
ATOM     91  C   UNL A   1      38.319  32.004  31.208  1.00  0.00     0.023 A 
ATOM     92  C   UNL A   1      36.941  32.263  31.415  1.00  0.00     0.031 A 
ATOM     93  C   UNL A   1      38.977  32.753  30.218  1.00  0.00     0.131 A 
ATOM     94  C   UNL A   1      36.279  33.235  30.635  1.00  0.00     0.055 A 
ATOM     95  C   UNL A   1      38.325  33.726  29.463  1.00  0.00     0.041 A 
ATOM     96  F   UNL A   1      40.290  32.573  29.993  1.00  0.00    -0.206 F 
ATOM     97  C   UNL A   1      36.971  33.969  29.665  1.00  0.00     0.022 A 
BRANCH  94  98
ATOM     98  S   UNL A   1      34.502  33.576  30.875  1.00  0.00     0.124 S 
ATOM     99  O   UNL A   1      34.090  32.554  31.831  1.00  0.00    -0.237 OA
ATOM    100  O   UNL A   1      34.503  34.951  31.364  1.00  0.00    -0.237 OA
ATOM    101  O   UNL A   1      33.937  33.412  29.532  1.00  0.00    -0.744 OA
ENDBRANCH  94  98
ENDBRANCH  68  91
ENDBRANCH  42  43
ENDBRANCH  35  37
ENDBRANCH  34  35
ENDBRANCH  33  34
ENDBRANCH  32  33
ENDBRANCH  31  32
ENDBRANCH  30  31
ENDBRANCH   1  30
TORSDOF 24
ENDMDL
