MODEL 1
REMARK VINA RESULT:      -9.5      0.000      0.000
REMARK SMILES C[C@@H]1CCC[C@H]1NC(=O)c1csc(/C=C/C(=O)OCCOCCOCCOCCOC(=O)c2ccc(-c3c4nc(c(-c5cc(S(=O)(=O)[O-])ccc5F)c5ccc([nH]5)c(-c5cc(S(=O)(=O)[O-])ccc5F)c5nc(c(-c6cc(S(=O)(=O)[O-])ccc6F)c6ccc3[nH]6)C=C5)C=C4)cc2)c1
REMARK SMILES IDX 24 1 23 2 22 3 21 4 20 5 19 6 18 7 16 8 17 9 15 10 14 11
REMARK SMILES IDX 13 12 10 13 11 14 96 15 12 16 8 17 7 18 9 20 6 21 1 22 2 23
REMARK SMILES IDX 3 24 4 25 5 26 25 27 26 28 27 29 28 30 29 31 30 32 31 33
REMARK SMILES IDX 32 34 33 35 34 36 95 37 35 38 94 39 36 40 37 41 38 42 88 43
REMARK SMILES IDX 39 44 93 45 87 46 89 47 40 48 92 49 86 50 85 51 41 53 73 54
REMARK SMILES IDX 53 55 72 56 54 57 57 58 71 59 90 60 55 61 56 62 70 64 91 65
REMARK SMILES IDX 58 66 42 67 43 68 51 69 44 70 50 71 52 72 49 73 45 74 46 75
REMARK SMILES IDX 47 76 48 77 74 78 75 79 83 80 76 81 82 82 84 83 81 84 77 85
REMARK SMILES IDX 78 86 79 87 80 88 59 89 60 90 68 91 61 92 67 93 69 94 66 95
REMARK SMILES IDX 62 96 63 97 64 98 65 99
REMARK H PARENT 7 19 89 52 57 63
REMARK Flexibility Score: inf
ROOT
ATOM      1  O   UNL A   1      35.029  17.422  23.482  1.00  0.00    -0.377 OA
ENDROOT
BRANCH   1   2
ATOM      2  C   UNL A   1      34.001  16.456  23.611  1.00  0.00     0.188 C 
BRANCH   2   3
ATOM      3  C   UNL A   1      33.909  15.775  24.988  1.00  0.00     0.188 C 
BRANCH   3   4
ATOM      4  O   UNL A   1      32.817  16.202  25.779  1.00  0.00    -0.376 OA
BRANCH   4   5
ATOM      5  C   UNL A   1      32.136  17.418  25.527  1.00  0.00     0.202 C 
BRANCH   5   6
ATOM      6  C   UNL A   1      32.716  18.823  25.777  1.00  0.00     0.261 C 
BRANCH   6   7
ATOM      7  O   UNL A   1      32.046  19.931  25.179  1.00  0.00    -0.460 OA
BRANCH   7   8
ATOM      8  C   UNL A   1      32.336  20.201  23.894  1.00  0.00     0.330 C 
ATOM      9  O   UNL A   1      32.201  19.447  22.943  1.00  0.00    -0.247 OA
BRANCH   8  10
ATOM     10  C   UNL A   1      32.709  21.623  23.731  1.00  0.00     0.095 C 
ATOM     11  C   UNL A   1      31.897  22.568  23.228  1.00  0.00     0.026 C 
BRANCH  11  12
ATOM     12  C   UNL A   1      32.295  23.934  23.106  1.00  0.00     0.028 A 
ATOM     13  C   UNL A   1      32.190  26.306  23.116  1.00  0.00     0.051 A 
ATOM     14  C   UNL A   1      33.547  26.071  23.026  1.00  0.00     0.079 A 
ATOM     15  C   UNL A   1      31.478  25.054  23.148  1.00  0.00     0.033 A 
ATOM     16  S   UNL A   1      33.928  24.419  22.856  1.00  0.00    -0.144 S 
BRANCH  13  17
ATOM     17  C   UNL A   1      31.552  27.606  23.295  1.00  0.00     0.252 C 
ATOM     18  N   UNL A   1      31.791  28.370  24.408  1.00  0.00    -0.349 N 
ATOM     19  H   UNL A   1      31.191  29.144  24.507  1.00  0.00     0.164 HD
ATOM     20  O   UNL A   1      30.780  28.058  22.449  1.00  0.00    -0.269 OA
BRANCH  18  21
ATOM     21  C   UNL A   1      32.779  28.234  25.473  1.00  0.00     0.085 C 
ATOM     22  C   UNL A   1      34.360  29.619  26.885  1.00  0.00     0.010 C 
ATOM     23  C   UNL A   1      32.995  29.571  26.196  1.00  0.00     0.008 C 
ATOM     24  C   UNL A   1      31.848  29.614  27.205  1.00  0.00     0.005 C 
ATOM     25  C   UNL A   1      31.646  28.168  27.649  1.00  0.00     0.002 C 
ATOM     26  C   UNL A   1      32.257  27.286  26.557  1.00  0.00     0.025 C 
ENDBRANCH  18  21
ENDBRANCH  13  17
ENDBRANCH  11  12
ENDBRANCH   8  10
ENDBRANCH   7   8
ENDBRANCH   6   7
ENDBRANCH   5   6
ENDBRANCH   4   5
ENDBRANCH   3   4
ENDBRANCH   2   3
ENDBRANCH   1   2
BRANCH   1  27
ATOM     27  C   UNL A   1      35.628  17.971  24.658  1.00  0.00     0.188 C 
BRANCH  27  28
ATOM     28  C   UNL A   1      36.579  19.193  24.632  1.00  0.00     0.188 C 
BRANCH  28  29
ATOM     29  O   UNL A   1      35.966  20.434  24.951  1.00  0.00    -0.376 OA
BRANCH  29  30
ATOM     30  C   UNL A   1      36.797  21.491  25.394  1.00  0.00     0.202 C 
BRANCH  30  31
ATOM     31  C   UNL A   1      38.249  21.114  25.721  1.00  0.00     0.261 C 
BRANCH  31  32
ATOM     32  O   UNL A   1      39.216  22.164  25.574  1.00  0.00    -0.460 OA
BRANCH  32  33
ATOM     33  C   UNL A   1      40.252  22.163  26.441  1.00  0.00     0.338 C 
ATOM     34  O   UNL A   1      41.072  21.271  26.594  1.00  0.00    -0.246 OA
BRANCH  33  35
ATOM     35  C   UNL A   1      40.345  23.509  27.042  1.00  0.00     0.060 A 
ATOM     36  C   UNL A   1      39.654  24.570  26.444  1.00  0.00     0.016 A 
ATOM     37  C   UNL A   1      41.110  23.720  28.192  1.00  0.00     0.016 A 
ATOM     38  C   UNL A   1      39.762  25.857  26.970  1.00  0.00     0.010 A 
ATOM     39  C   UNL A   1      41.230  25.014  28.710  1.00  0.00     0.010 A 
ATOM     40  C   UNL A   1      40.587  26.095  28.079  1.00  0.00    -0.014 A 
BRANCH  40  41
ATOM     41  C   UNL A   1      40.934  27.491  28.449  1.00  0.00     0.031 A 
ATOM     42  C   UNL A   1      42.384  27.900  28.411  1.00  0.00     0.074 A 
ATOM     43  C   UNL A   1      39.986  28.391  28.771  1.00  0.00     0.049 A 
ATOM     44  N   UNL A   1      42.936  29.044  28.717  1.00  0.00    -0.248 NA
ATOM     45  C   UNL A   1      43.337  26.870  27.969  1.00  0.00     0.031 C 
ATOM     46  C   UNL A   1      38.548  28.129  28.793  1.00  0.00     0.029 A 
ATOM     47  N   UNL A   1      40.095  29.708  29.143  1.00  0.00    -0.354 N 
ATOM     48  C   UNL A   1      44.300  28.874  28.508  1.00  0.00     0.074 A 
ATOM     49  C   UNL A   1      44.494  27.501  28.093  1.00  0.00     0.031 C 
ATOM     50  C   UNL A   1      37.907  29.253  29.161  1.00  0.00     0.029 A 
ATOM     51  C   UNL A   1      38.890  30.300  29.442  1.00  0.00     0.049 A 
ATOM     52  H   UNL A   1      40.956  30.184  29.190  1.00  0.00     0.167 HD
ATOM     53  C   UNL A   1      45.299  29.782  28.635  1.00  0.00     0.034 A 
ATOM     54  C   UNL A   1      38.616  31.535  29.912  1.00  0.00     0.034 A 
ATOM     55  C   UNL A   1      45.093  31.144  29.064  1.00  0.00     0.049 A 
ATOM     56  C   UNL A   1      39.758  32.500  30.148  1.00  0.00     0.074 A 
ATOM     57  C   UNL A   1      46.032  32.148  29.224  1.00  0.00     0.029 A 
ATOM     58  N   UNL A   1      43.865  31.690  29.417  1.00  0.00    -0.354 N 
ATOM     59  N   UNL A   1      41.043  32.329  29.941  1.00  0.00    -0.248 NA
ATOM     60  C   UNL A   1      39.407  33.826  30.673  1.00  0.00     0.031 C 
ATOM     61  C   UNL A   1      45.387  33.271  29.752  1.00  0.00     0.029 A 
ATOM     62  C   UNL A   1      44.029  33.004  29.829  1.00  0.00     0.049 A 
ATOM     63  H   UNL A   1      43.004  31.214  29.379  1.00  0.00     0.167 HD
ATOM     64  C   UNL A   1      41.648  33.540  30.273  1.00  0.00     0.074 A 
ATOM     65  C   UNL A   1      40.584  34.435  30.679  1.00  0.00     0.031 C 
ATOM     66  C   UNL A   1      42.961  33.887  30.239  1.00  0.00     0.034 A 
BRANCH  53  67
ATOM     67  C   UNL A   1      46.707  29.309  28.360  1.00  0.00     0.023 A 
ATOM     68  C   UNL A   1      47.516  28.754  29.368  1.00  0.00     0.031 A 
ATOM     69  C   UNL A   1      47.259  29.440  27.073  1.00  0.00     0.131 A 
ATOM     70  C   UNL A   1      48.851  28.421  29.091  1.00  0.00     0.055 A 
ATOM     71  C   UNL A   1      48.560  29.024  26.783  1.00  0.00     0.041 A 
ATOM     72  F   UNL A   1      46.547  29.986  26.075  1.00  0.00    -0.206 F 
ATOM     73  C   UNL A   1      49.370  28.525  27.799  1.00  0.00     0.022 A 
BRANCH  70  74
ATOM     74  S   UNL A   1      49.942  27.994  30.476  1.00  0.00     0.124 S 
ATOM     75  O   UNL A   1      49.597  26.592  30.703  1.00  0.00    -0.237 OA
ATOM     76  O   UNL A   1      51.267  28.245  29.923  1.00  0.00    -0.237 OA
ATOM     77  O   UNL A   1      49.523  28.910  31.536  1.00  0.00    -0.744 OA
ENDBRANCH  70  74
ENDBRANCH  53  67
BRANCH  54  78
ATOM     78  C   UNL A   1      37.213  31.935  30.234  1.00  0.00     0.023 A 
ATOM     79  C   UNL A   1      36.381  32.518  29.265  1.00  0.00     0.031 A 
ATOM     80  C   UNL A   1      36.708  31.805  31.541  1.00  0.00     0.131 A 
ATOM     81  C   UNL A   1      35.112  32.999  29.629  1.00  0.00     0.055 A 
ATOM     82  C   UNL A   1      35.421  32.227  31.882  1.00  0.00     0.041 A 
ATOM     83  F   UNL A   1      37.462  31.263  32.511  1.00  0.00    -0.206 F 
ATOM     84  C   UNL A   1      34.621  32.843  30.926  1.00  0.00     0.022 A 
BRANCH  81  85
ATOM     85  S   UNL A   1      34.154  33.933  28.403  1.00  0.00     0.124 S 
ATOM     86  O   UNL A   1      33.697  35.073  29.190  1.00  0.00    -0.237 OA
ATOM     87  O   UNL A   1      35.161  34.217  27.385  1.00  0.00    -0.237 OA
ATOM     88  O   UNL A   1      33.111  32.993  27.998  1.00  0.00    -0.744 OA
ENDBRANCH  81  85
ENDBRANCH  54  78
BRANCH  66  89
ATOM     89  C   UNL A   1      43.312  35.313  30.599  1.00  0.00     0.023 A 
ATOM     90  C   UNL A   1      43.404  35.746  31.933  1.00  0.00     0.031 A 
ATOM     91  C   UNL A   1      43.549  36.258  29.583  1.00  0.00     0.131 A 
ATOM     92  C   UNL A   1      43.656  37.097  32.215  1.00  0.00     0.055 A 
ATOM     93  C   UNL A   1      43.873  37.584  29.870  1.00  0.00     0.041 A 
ATOM     94  F   UNL A   1      43.472  35.906  28.290  1.00  0.00    -0.206 F 
ATOM     95  C   UNL A   1      43.912  38.015  31.193  1.00  0.00     0.022 A 
BRANCH  92  96
ATOM     96  S   UNL A   1      43.532  37.667  33.933  1.00  0.00     0.124 S 
ATOM     97  O   UNL A   1      42.627  36.681  34.514  1.00  0.00    -0.237 OA
ATOM     98  O   UNL A   1      44.919  37.604  34.384  1.00  0.00    -0.237 OA
ATOM     99  O   UNL A   1      42.982  39.016  33.809  1.00  0.00    -0.744 OA
ENDBRANCH  92  96
ENDBRANCH  66  89
ENDBRANCH  40  41
ENDBRANCH  33  35
ENDBRANCH  32  33
ENDBRANCH  31  32
ENDBRANCH  30  31
ENDBRANCH  29  30
ENDBRANCH  28  29
ENDBRANCH  27  28
ENDBRANCH   1  27
TORSDOF 26
ENDMDL
MODEL 2
REMARK VINA RESULT:      -8.9      1.980      2.629
REMARK SMILES C[C@@H]1CCC[C@H]1NC(=O)c1csc(/C=C/C(=O)OCCOCCOCCOCCOC(=O)c2ccc(-c3c4nc(c(-c5cc(S(=O)(=O)[O-])ccc5F)c5ccc([nH]5)c(-c5cc(S(=O)(=O)[O-])ccc5F)c5nc(c(-c6cc(S(=O)(=O)[O-])ccc6F)c6ccc3[nH]6)C=C5)C=C4)cc2)c1
REMARK SMILES IDX 24 1 23 2 22 3 21 4 20 5 19 6 18 7 16 8 17 9 15 10 14 11
REMARK SMILES IDX 13 12 10 13 11 14 96 15 12 16 8 17 7 18 9 20 6 21 1 22 2 23
REMARK SMILES IDX 3 24 4 25 5 26 25 27 26 28 27 29 28 30 29 31 30 32 31 33
REMARK SMILES IDX 32 34 33 35 34 36 95 37 35 38 94 39 36 40 37 41 38 42 88 43
REMARK SMILES IDX 39 44 93 45 87 46 89 47 40 48 92 49 86 50 85 51 41 53 73 54
REMARK SMILES IDX 53 55 72 56 54 57 57 58 71 59 90 60 55 61 56 62 70 64 91 65
REMARK SMILES IDX 58 66 42 67 43 68 51 69 44 70 50 71 52 72 49 73 45 74 46 75
REMARK SMILES IDX 47 76 48 77 74 78 75 79 83 80 76 81 82 82 84 83 81 84 77 85
REMARK SMILES IDX 78 86 79 87 80 88 59 89 60 90 68 91 61 92 67 93 69 94 66 95
REMARK SMILES IDX 62 96 63 97 64 98 65 99
REMARK H PARENT 7 19 89 52 57 63
REMARK Flexibility Score: inf
ROOT
ATOM      1  O   UNL A   1      34.728  17.518  23.581  1.00  0.00    -0.377 OA
ENDROOT
BRANCH   1   2
ATOM      2  C   UNL A   1      33.744  16.500  23.638  1.00  0.00     0.188 C 
BRANCH   2   3
ATOM      3  C   UNL A   1      33.517  15.885  25.031  1.00  0.00     0.188 C 
BRANCH   3   4
ATOM      4  O   UNL A   1      32.725  16.675  25.896  1.00  0.00    -0.376 OA
BRANCH   4   5
ATOM      5  C   UNL A   1      32.132  17.889  25.473  1.00  0.00     0.202 C 
BRANCH   5   6
ATOM      6  C   UNL A   1      32.690  19.295  25.764  1.00  0.00     0.261 C 
BRANCH   6   7
ATOM      7  O   UNL A   1      31.992  20.411  25.216  1.00  0.00    -0.460 OA
BRANCH   7   8
ATOM      8  C   UNL A   1      32.253  20.727  23.935  1.00  0.00     0.330 C 
ATOM      9  O   UNL A   1      32.197  19.977  22.973  1.00  0.00    -0.247 OA
BRANCH   8  10
ATOM     10  C   UNL A   1      32.478  22.182  23.793  1.00  0.00     0.095 C 
ATOM     11  C   UNL A   1      31.983  22.934  22.796  1.00  0.00     0.026 C 
BRANCH  11  12
ATOM     12  C   UNL A   1      32.212  24.341  22.710  1.00  0.00     0.028 A 
ATOM     13  C   UNL A   1      31.862  26.682  22.893  1.00  0.00     0.051 A 
ATOM     14  C   UNL A   1      33.206  26.608  22.593  1.00  0.00     0.079 A 
ATOM     15  C   UNL A   1      31.299  25.358  22.944  1.00  0.00     0.033 A 
ATOM     16  S   UNL A   1      33.729  25.021  22.260  1.00  0.00    -0.144 S 
BRANCH  13  17
ATOM     17  C   UNL A   1      31.124  27.890  23.249  1.00  0.00     0.252 C 
ATOM     18  N   UNL A   1      31.430  28.604  24.379  1.00  0.00    -0.349 N 
ATOM     19  H   UNL A   1      30.774  29.300  24.610  1.00  0.00     0.164 HD
ATOM     20  O   UNL A   1      30.206  28.306  22.543  1.00  0.00    -0.269 OA
BRANCH  18  21
ATOM     21  C   UNL A   1      32.559  28.512  25.299  1.00  0.00     0.085 C 
ATOM     22  C   UNL A   1      34.070  29.965  26.718  1.00  0.00     0.010 C 
ATOM     23  C   UNL A   1      32.652  29.764  26.182  1.00  0.00     0.008 C 
ATOM     24  C   UNL A   1      31.656  29.476  27.305  1.00  0.00     0.005 C 
ATOM     25  C   UNL A   1      31.749  27.973  27.552  1.00  0.00     0.002 C 
ATOM     26  C   UNL A   1      32.343  27.358  26.283  1.00  0.00     0.025 C 
ENDBRANCH  18  21
ENDBRANCH  13  17
ENDBRANCH  11  12
ENDBRANCH   8  10
ENDBRANCH   7   8
ENDBRANCH   6   7
ENDBRANCH   5   6
ENDBRANCH   4   5
ENDBRANCH   3   4
ENDBRANCH   2   3
ENDBRANCH   1   2
BRANCH   1  27
ATOM     27  C   UNL A   1      35.506  17.809  24.743  1.00  0.00     0.188 C 
BRANCH  27  28
ATOM     28  C   UNL A   1      36.851  18.575  24.692  1.00  0.00     0.188 C 
BRANCH  28  29
ATOM     29  O   UNL A   1      36.756  19.967  24.955  1.00  0.00    -0.376 OA
BRANCH  29  30
ATOM     30  C   UNL A   1      37.924  20.642  25.388  1.00  0.00     0.202 C 
BRANCH  30  31
ATOM     31  C   UNL A   1      39.101  19.751  25.807  1.00  0.00     0.261 C 
BRANCH  31  32
ATOM     32  O   UNL A   1      40.389  20.384  25.827  1.00  0.00    -0.460 OA
BRANCH  32  33
ATOM     33  C   UNL A   1      41.019  20.444  27.020  1.00  0.00     0.338 C 
ATOM     34  O   UNL A   1      41.498  19.506  27.639  1.00  0.00    -0.246 OA
BRANCH  33  35
ATOM     35  C   UNL A   1      41.205  21.867  27.366  1.00  0.00     0.060 A 
ATOM     36  C   UNL A   1      40.699  22.848  26.503  1.00  0.00     0.016 A 
ATOM     37  C   UNL A   1      41.875  22.232  28.536  1.00  0.00     0.016 A 
ATOM     38  C   UNL A   1      40.901  24.199  26.788  1.00  0.00     0.010 A 
ATOM     39  C   UNL A   1      42.090  23.585  28.813  1.00  0.00     0.010 A 
ATOM     40  C   UNL A   1      41.638  24.575  27.921  1.00  0.00    -0.014 A 
BRANCH  40  41
ATOM     41  C   UNL A   1      42.103  25.978  28.060  1.00  0.00     0.031 A 
ATOM     42  C   UNL A   1      43.441  26.348  27.473  1.00  0.00     0.074 A 
ATOM     43  C   UNL A   1      41.344  26.917  28.655  1.00  0.00     0.049 A 
ATOM     44  N   UNL A   1      44.073  27.491  27.494  1.00  0.00    -0.248 NA
ATOM     45  C   UNL A   1      44.161  25.273  26.773  1.00  0.00     0.031 C 
ATOM     46  C   UNL A   1      40.011  26.693  29.215  1.00  0.00     0.029 A 
ATOM     47  N   UNL A   1      41.587  28.247  28.887  1.00  0.00    -0.354 N 
ATOM     48  C   UNL A   1      45.265  27.277  26.811  1.00  0.00     0.074 A 
ATOM     49  C   UNL A   1      45.287  25.880  26.431  1.00  0.00     0.031 C 
ATOM     50  C   UNL A   1      39.555  27.849  29.728  1.00  0.00     0.029 A 
ATOM     51  C   UNL A   1      40.578  28.884  29.572  1.00  0.00     0.049 A 
ATOM     52  H   UNL A   1      42.408  28.704  28.591  1.00  0.00     0.167 HD
ATOM     53  C   UNL A   1      46.247  28.164  26.515  1.00  0.00     0.034 A 
ATOM     54  C   UNL A   1      40.501  30.147  30.040  1.00  0.00     0.034 A 
ATOM     55  C   UNL A   1      46.218  29.551  26.913  1.00  0.00     0.049 A 
ATOM     56  C   UNL A   1      41.655  31.093  29.790  1.00  0.00     0.074 A 
ATOM     57  C   UNL A   1      47.156  30.537  26.663  1.00  0.00     0.029 A 
ATOM     58  N   UNL A   1      45.207  30.144  27.658  1.00  0.00    -0.354 N 
ATOM     59  N   UNL A   1      42.775  30.880  29.138  1.00  0.00    -0.248 NA
ATOM     60  C   UNL A   1      41.528  32.453  30.331  1.00  0.00     0.031 C 
ATOM     61  C   UNL A   1      46.755  31.701  27.327  1.00  0.00     0.029 A 
ATOM     62  C   UNL A   1      45.518  31.473  27.908  1.00  0.00     0.049 A 
ATOM     63  H   UNL A   1      44.389  29.689  27.963  1.00  0.00     0.167 HD
ATOM     64  C   UNL A   1      43.466  32.091  29.159  1.00  0.00     0.074 A 
ATOM     65  C   UNL A   1      42.628  33.031  29.874  1.00  0.00     0.031 C 
ATOM     66  C   UNL A   1      44.678  32.402  28.629  1.00  0.00     0.034 A 
BRANCH  53  67
ATOM     67  C   UNL A   1      47.454  27.643  25.772  1.00  0.00     0.023 A 
ATOM     68  C   UNL A   1      48.551  27.074  26.443  1.00  0.00     0.031 A 
ATOM     69  C   UNL A   1      47.520  27.741  24.370  1.00  0.00     0.131 A 
ATOM     70  C   UNL A   1      49.694  26.694  25.721  1.00  0.00     0.055 A 
ATOM     71  C   UNL A   1      48.624  27.280  23.651  1.00  0.00     0.041 A 
ATOM     72  F   UNL A   1      46.517  28.299  23.675  1.00  0.00    -0.206 F 
ATOM     73  C   UNL A   1      49.726  26.767  24.327  1.00  0.00     0.022 A 
BRANCH  70  74
ATOM     74  S   UNL A   1      51.192  26.249  26.643  1.00  0.00     0.124 S 
ATOM     75  O   UNL A   1      51.203  27.262  27.695  1.00  0.00    -0.237 OA
ATOM     76  O   UNL A   1      50.904  24.885  27.071  1.00  0.00    -0.237 OA
ATOM     77  O   UNL A   1      52.256  26.381  25.649  1.00  0.00    -0.744 OA
ENDBRANCH  70  74
ENDBRANCH  53  67
BRANCH  54  78
ATOM     78  C   UNL A   1      39.315  30.598  30.829  1.00  0.00     0.023 A 
ATOM     79  C   UNL A   1      38.314  31.394  30.249  1.00  0.00     0.031 A 
ATOM     80  C   UNL A   1      39.203  30.297  32.199  1.00  0.00     0.131 A 
ATOM     81  C   UNL A   1      37.277  31.907  31.045  1.00  0.00     0.055 A 
ATOM     82  C   UNL A   1      38.136  30.758  32.972  1.00  0.00     0.041 A 
ATOM     83  F   UNL A   1      40.135  29.548  32.809  1.00  0.00    -0.206 F 
ATOM     84  C   UNL A   1      37.173  31.582  32.399  1.00  0.00     0.022 A 
BRANCH  81  85
ATOM     85  S   UNL A   1      36.125  33.099  30.308  1.00  0.00     0.124 S 
ATOM     86  O   UNL A   1      34.903  32.309  30.210  1.00  0.00    -0.237 OA
ATOM     87  O   UNL A   1      36.122  34.169  31.299  1.00  0.00    -0.237 OA
ATOM     88  O   UNL A   1      36.756  33.437  29.033  1.00  0.00    -0.744 OA
ENDBRANCH  81  85
ENDBRANCH  54  78
BRANCH  66  89
ATOM     89  C   UNL A   1      45.144  33.835  28.756  1.00  0.00     0.023 A 
ATOM     90  C   UNL A   1      45.895  34.281  29.857  1.00  0.00     0.031 A 
ATOM     91  C   UNL A   1      44.817  34.773  27.759  1.00  0.00     0.131 A 
ATOM     92  C   UNL A   1      46.237  35.638  29.967  1.00  0.00     0.055 A 
ATOM     93  C   UNL A   1      45.224  36.105  27.837  1.00  0.00     0.041 A 
ATOM     94  F   UNL A   1      44.098  34.408  26.685  1.00  0.00    -0.206 F 
ATOM     95  C   UNL A   1      45.925  36.549  28.955  1.00  0.00     0.022 A 
BRANCH  92  96
ATOM     96  S   UNL A   1      46.997  36.222  31.508  1.00  0.00     0.124 S 
ATOM     97  O   UNL A   1      48.245  36.805  31.027  1.00  0.00    -0.237 OA
ATOM     98  O   UNL A   1      46.003  37.166  32.009  1.00  0.00    -0.237 OA
ATOM     99  O   UNL A   1      47.147  35.003  32.301  1.00  0.00    -0.744 OA
ENDBRANCH  92  96
ENDBRANCH  66  89
ENDBRANCH  40  41
ENDBRANCH  33  35
ENDBRANCH  32  33
ENDBRANCH  31  32
ENDBRANCH  30  31
ENDBRANCH  29  30
ENDBRANCH  28  29
ENDBRANCH  27  28
ENDBRANCH   1  27
TORSDOF 26
ENDMDL
MODEL 3
REMARK VINA RESULT:      -8.3      6.551     13.994
REMARK SMILES C[C@@H]1CCC[C@H]1NC(=O)c1csc(/C=C/C(=O)OCCOCCOCCOCCOC(=O)c2ccc(-c3c4nc(c(-c5cc(S(=O)(=O)[O-])ccc5F)c5ccc([nH]5)c(-c5cc(S(=O)(=O)[O-])ccc5F)c5nc(c(-c6cc(S(=O)(=O)[O-])ccc6F)c6ccc3[nH]6)C=C5)C=C4)cc2)c1
REMARK SMILES IDX 24 1 23 2 22 3 21 4 20 5 19 6 18 7 16 8 17 9 15 10 14 11
REMARK SMILES IDX 13 12 10 13 11 14 96 15 12 16 8 17 7 18 9 20 6 21 1 22 2 23
REMARK SMILES IDX 3 24 4 25 5 26 25 27 26 28 27 29 28 30 29 31 30 32 31 33
REMARK SMILES IDX 32 34 33 35 34 36 95 37 35 38 94 39 36 40 37 41 38 42 88 43
REMARK SMILES IDX 39 44 93 45 87 46 89 47 40 48 92 49 86 50 85 51 41 53 73 54
REMARK SMILES IDX 53 55 72 56 54 57 57 58 71 59 90 60 55 61 56 62 70 64 91 65
REMARK SMILES IDX 58 66 42 67 43 68 51 69 44 70 50 71 52 72 49 73 45 74 46 75
REMARK SMILES IDX 47 76 48 77 74 78 75 79 83 80 76 81 82 82 84 83 81 84 77 85
REMARK SMILES IDX 78 86 79 87 80 88 59 89 60 90 68 91 61 92 67 93 69 94 66 95
REMARK SMILES IDX 62 96 63 97 64 98 65 99
REMARK H PARENT 7 19 89 52 57 63
REMARK Flexibility Score: inf
ROOT
ATOM      1  O   UNL A   1      42.799  31.204  41.283  1.00  0.00    -0.377 OA
ENDROOT
BRANCH   1   2
ATOM      2  C   UNL A   1      43.038  31.963  40.112  1.00  0.00     0.188 C 
BRANCH   2   3
ATOM      3  C   UNL A   1      44.345  31.632  39.370  1.00  0.00     0.188 C 
BRANCH   3   4
ATOM      4  O   UNL A   1      44.231  31.626  37.960  1.00  0.00    -0.376 OA
BRANCH   4   5
ATOM      5  C   UNL A   1      44.616  30.509  37.179  1.00  0.00     0.202 C 
BRANCH   5   6
ATOM      6  C   UNL A   1      43.728  29.285  36.888  1.00  0.00     0.261 C 
BRANCH   6   7
ATOM      7  O   UNL A   1      43.148  29.181  35.589  1.00  0.00    -0.460 OA
BRANCH   7   8
ATOM      8  C   UNL A   1      41.851  28.830  35.524  1.00  0.00     0.330 C 
ATOM      9  O   UNL A   1      41.212  28.239  36.380  1.00  0.00    -0.247 OA
BRANCH   8  10
ATOM     10  C   UNL A   1      41.219  29.399  34.314  1.00  0.00     0.095 C 
ATOM     11  C   UNL A   1      41.246  28.823  33.101  1.00  0.00     0.026 C 
BRANCH  11  12
ATOM     12  C   UNL A   1      40.605  29.401  31.963  1.00  0.00     0.028 A 
ATOM     13  C   UNL A   1      39.561  29.596  29.839  1.00  0.00     0.051 A 
ATOM     14  C   UNL A   1      39.311  30.829  30.406  1.00  0.00     0.079 A 
ATOM     15  C   UNL A   1      40.325  28.785  30.752  1.00  0.00     0.033 A 
ATOM     16  S   UNL A   1      40.076  31.038  31.914  1.00  0.00    -0.144 S 
BRANCH  13  17
ATOM     17  C   UNL A   1      39.028  29.107  28.572  1.00  0.00     0.252 C 
ATOM     18  N   UNL A   1      39.844  28.896  27.490  1.00  0.00    -0.349 N 
ATOM     19  H   UNL A   1      39.366  28.725  26.648  1.00  0.00     0.164 HD
ATOM     20  O   UNL A   1      37.830  28.864  28.437  1.00  0.00    -0.269 OA
BRANCH  18  21
ATOM     21  C   UNL A   1      41.298  28.884  27.371  1.00  0.00     0.085 C 
ATOM     22  C   UNL A   1      43.345  27.729  28.312  1.00  0.00     0.010 C 
ATOM     23  C   UNL A   1      41.882  27.565  27.897  1.00  0.00     0.008 C 
ATOM     24  C   UNL A   1      41.732  26.616  26.708  1.00  0.00     0.005 C 
ATOM     25  C   UNL A   1      41.961  27.478  25.471  1.00  0.00     0.002 C 
ATOM     26  C   UNL A   1      41.705  28.927  25.894  1.00  0.00     0.025 C 
ENDBRANCH  18  21
ENDBRANCH  13  17
ENDBRANCH  11  12
ENDBRANCH   8  10
ENDBRANCH   7   8
ENDBRANCH   6   7
ENDBRANCH   5   6
ENDBRANCH   4   5
ENDBRANCH   3   4
ENDBRANCH   2   3
ENDBRANCH   1   2
BRANCH   1  27
ATOM     27  C   UNL A   1      41.776  31.615  42.191  1.00  0.00     0.188 C 
BRANCH  27  28
ATOM     28  C   UNL A   1      42.034  31.877  43.696  1.00  0.00     0.188 C 
BRANCH  28  29
ATOM     29  O   UNL A   1      41.047  32.668  44.343  1.00  0.00    -0.376 OA
BRANCH  29  30
ATOM     30  C   UNL A   1      39.689  32.423  44.027  1.00  0.00     0.202 C 
BRANCH  30  31
ATOM     31  C   UNL A   1      38.739  33.622  44.158  1.00  0.00     0.261 C 
BRANCH  31  32
ATOM     32  O   UNL A   1      38.755  34.554  43.066  1.00  0.00    -0.460 OA
BRANCH  32  33
ATOM     33  C   UNL A   1      37.904  34.310  42.046  1.00  0.00     0.338 C 
ATOM     34  O   UNL A   1      36.688  34.225  42.116  1.00  0.00    -0.246 OA
BRANCH  33  35
ATOM     35  C   UNL A   1      38.677  34.353  40.788  1.00  0.00     0.060 A 
ATOM     36  C   UNL A   1      39.039  35.597  40.255  1.00  0.00     0.016 A 
ATOM     37  C   UNL A   1      39.042  33.170  40.139  1.00  0.00     0.016 A 
ATOM     38  C   UNL A   1      39.732  35.661  39.046  1.00  0.00     0.010 A 
ATOM     39  C   UNL A   1      39.722  33.238  38.919  1.00  0.00     0.010 A 
ATOM     40  C   UNL A   1      40.037  34.484  38.347  1.00  0.00    -0.014 A 
BRANCH  40  41
ATOM     41  C   UNL A   1      40.499  34.566  36.938  1.00  0.00     0.031 A 
ATOM     42  C   UNL A   1      39.467  34.481  35.843  1.00  0.00     0.074 A 
ATOM     43  C   UNL A   1      41.795  34.753  36.631  1.00  0.00     0.049 A 
ATOM     44  N   UNL A   1      39.624  34.497  34.546  1.00  0.00    -0.248 NA
ATOM     45  C   UNL A   1      38.067  34.358  36.279  1.00  0.00     0.031 C 
ATOM     46  C   UNL A   1      42.879  34.901  37.602  1.00  0.00     0.029 A 
ATOM     47  N   UNL A   1      42.420  34.849  35.412  1.00  0.00    -0.354 N 
ATOM     48  C   UNL A   1      38.346  34.384  34.008  1.00  0.00     0.074 A 
ATOM     49  C   UNL A   1      37.432  34.254  35.122  1.00  0.00     0.031 C 
ATOM     50  C   UNL A   1      44.037  35.069  36.939  1.00  0.00     0.029 A 
ATOM     51  C   UNL A   1      43.785  34.997  35.500  1.00  0.00     0.049 A 
ATOM     52  H   UNL A   1      41.936  34.816  34.556  1.00  0.00     0.167 HD
ATOM     53  C   UNL A   1      37.967  34.402  32.707  1.00  0.00     0.034 A 
ATOM     54  C   UNL A   1      44.723  35.043  34.531  1.00  0.00     0.034 A 
ATOM     55  C   UNL A   1      38.893  34.517  31.606  1.00  0.00     0.049 A 
ATOM     56  C   UNL A   1      44.287  34.955  33.084  1.00  0.00     0.074 A 
ATOM     57  C   UNL A   1      38.618  34.550  30.250  1.00  0.00     0.029 A 
ATOM     58  N   UNL A   1      40.273  34.604  31.732  1.00  0.00    -0.354 N 
ATOM     59  N   UNL A   1      43.075  34.854  32.588  1.00  0.00    -0.248 NA
ATOM     60  C   UNL A   1      45.348  34.996  32.068  1.00  0.00     0.031 C 
ATOM     61  C   UNL A   1      39.832  34.570  29.556  1.00  0.00     0.029 A 
ATOM     62  C   UNL A   1      40.864  34.652  30.477  1.00  0.00     0.049 A 
ATOM     63  H   UNL A   1      40.761  34.630  32.586  1.00  0.00     0.167 HD
ATOM     64  C   UNL A   1      43.228  34.860  31.203  1.00  0.00     0.074 A 
ATOM     65  C   UNL A   1      44.646  34.989  30.945  1.00  0.00     0.031 C 
ATOM     66  C   UNL A   1      42.283  34.774  30.231  1.00  0.00     0.034 A 
BRANCH  53  67
ATOM     67  C   UNL A   1      36.496  34.237  32.409  1.00  0.00     0.023 A 
ATOM     68  C   UNL A   1      35.627  35.339  32.323  1.00  0.00     0.031 A 
ATOM     69  C   UNL A   1      35.948  32.953  32.236  1.00  0.00     0.131 A 
ATOM     70  C   UNL A   1      34.250  35.133  32.144  1.00  0.00     0.055 A 
ATOM     71  C   UNL A   1      34.590  32.761  31.970  1.00  0.00     0.041 A 
ATOM     72  F   UNL A   1      36.720  31.860  32.334  1.00  0.00    -0.206 F 
ATOM     73  C   UNL A   1      33.730  33.854  31.939  1.00  0.00     0.022 A 
BRANCH  70  74
ATOM     74  S   UNL A   1      33.131  36.548  32.337  1.00  0.00     0.124 S 
ATOM     75  O   UNL A   1      33.535  37.399  31.219  1.00  0.00    -0.237 OA
ATOM     76  O   UNL A   1      31.816  35.928  32.226  1.00  0.00    -0.237 OA
ATOM     77  O   UNL A   1      33.466  37.071  33.660  1.00  0.00    -0.744 OA
ENDBRANCH  70  74
ENDBRANCH  53  67
BRANCH  54  78
ATOM     78  C   UNL A   1      46.173  35.138  34.876  1.00  0.00     0.023 A 
ATOM     79  C   UNL A   1      46.792  36.382  35.082  1.00  0.00     0.031 A 
ATOM     80  C   UNL A   1      46.979  33.986  34.933  1.00  0.00     0.131 A 
ATOM     81  C   UNL A   1      48.181  36.448  35.281  1.00  0.00     0.055 A 
ATOM     82  C   UNL A   1      48.349  34.054  35.194  1.00  0.00     0.041 A 
ATOM     83  F   UNL A   1      46.443  32.771  34.735  1.00  0.00    -0.206 F 
ATOM     84  C   UNL A   1      48.961  35.293  35.354  1.00  0.00     0.022 A 
BRANCH  81  85
ATOM     85  S   UNL A   1      48.973  38.081  35.332  1.00  0.00     0.124 S 
ATOM     86  O   UNL A   1      47.817  38.970  35.365  1.00  0.00    -0.237 OA
ATOM     87  O   UNL A   1      49.756  37.998  36.560  1.00  0.00    -0.237 OA
ATOM     88  O   UNL A   1      49.755  38.118  34.098  1.00  0.00    -0.744 OA
ENDBRANCH  81  85
ENDBRANCH  54  78
BRANCH  66  89
ATOM     89  C   UNL A   1      42.751  34.875  28.796  1.00  0.00     0.023 A 
ATOM     90  C   UNL A   1      43.362  33.797  28.133  1.00  0.00     0.031 A 
ATOM     91  C   UNL A   1      42.591  36.079  28.086  1.00  0.00     0.131 A 
ATOM     92  C   UNL A   1      43.850  33.965  26.827  1.00  0.00     0.055 A 
ATOM     93  C   UNL A   1      43.011  36.217  26.763  1.00  0.00     0.041 A 
ATOM     94  F   UNL A   1      42.019  37.146  28.667  1.00  0.00    -0.206 F 
ATOM     95  C   UNL A   1      43.660  35.161  26.130  1.00  0.00     0.022 A 
BRANCH  92  96
ATOM     96  S   UNL A   1      44.839  32.634  26.090  1.00  0.00     0.124 S 
ATOM     97  O   UNL A   1      44.379  31.467  26.834  1.00  0.00    -0.237 OA
ATOM     98  O   UNL A   1      44.445  32.693  24.686  1.00  0.00    -0.237 OA
ATOM     99  O   UNL A   1      46.217  33.040  26.363  1.00  0.00    -0.744 OA
ENDBRANCH  92  96
ENDBRANCH  66  89
ENDBRANCH  40  41
ENDBRANCH  33  35
ENDBRANCH  32  33
ENDBRANCH  31  32
ENDBRANCH  30  31
ENDBRANCH  29  30
ENDBRANCH  28  29
ENDBRANCH  27  28
ENDBRANCH   1  27
TORSDOF 26
ENDMDL
