MODEL 1
REMARK VINA RESULT:     -11.0      0.000      0.000
REMARK SMILES Cc1c(Cl)cccc1NC(=O)NCc1cn([C@@H]2C[NH2+][C@H](C(=O)OCCOCCOCCOCCOC(=O)c3ccc(-c4c5nc(c(-c6cc(S(=O)(=O)[O-])ccc6F)c6ccc([nH]6)c(-c6cc(S(=O)(=O)[O-])ccc6F)c6nc(c(-c7cc(S(=O)(=O)[O-])ccc7F)c7ccc4[nH]7)C=C6)C=C5)cc3)C2)nn1
REMARK SMILES IDX 28 1 27 2 26 3 25 4 24 5 23 6 21 7 22 8 20 9 17 10 18 11
REMARK SMILES IDX 101 12 19 13 16 16 14 17 15 18 103 19 102 20 13 21 12 22
REMARK SMILES IDX 9 23 10 24 11 26 8 28 1 29 2 30 3 31 4 32 5 33 7 34 6 35
REMARK SMILES IDX 29 36 30 37 31 38 32 39 33 40 34 41 35 42 36 43 37 44 38 45
REMARK SMILES IDX 39 46 100 47 40 48 99 49 41 50 42 51 43 52 93 53 44 54 98 55
REMARK SMILES IDX 92 56 94 57 45 58 97 59 91 60 90 61 46 63 78 64 58 65 77 66
REMARK SMILES IDX 59 67 62 68 76 69 95 70 60 71 61 72 75 74 96 75 63 76 47 77
REMARK SMILES IDX 48 78 56 79 49 80 55 81 57 82 54 83 50 84 51 85 52 86 53 87
REMARK SMILES IDX 79 88 80 89 88 90 81 91 87 92 89 93 86 94 82 95 83 96 84 97
REMARK SMILES IDX 85 98 64 99 65 100 73 101 66 102 72 103 74 104 71 105 67 106
REMARK SMILES IDX 68 107 69 108 70 109
REMARK H PARENT 19 14 19 15 9 25 12 27 94 62 62 73
REMARK Flexibility Score: inf
ROOT
ATOM      1  C   UNL A   1      36.818  22.036  24.804  1.00  0.00     0.188 C 
ENDROOT
BRANCH   1   2
ATOM      2  C   UNL A   1      36.266  22.702  23.518  1.00  0.00     0.188 C 
BRANCH   2   3
ATOM      3  O   UNL A   1      35.129  23.565  23.524  1.00  0.00    -0.376 OA
BRANCH   3   4
ATOM      4  C   UNL A   1      34.018  23.300  22.683  1.00  0.00     0.202 C 
BRANCH   4   5
ATOM      5  C   UNL A   1      33.078  22.151  23.074  1.00  0.00     0.261 C 
BRANCH   5   6
ATOM      6  O   UNL A   1      32.333  22.403  24.272  1.00  0.00    -0.459 OA
BRANCH   6   7
ATOM      7  C   UNL A   1      32.322  21.430  25.221  1.00  0.00     0.365 C 
ATOM      8  O   UNL A   1      32.153  20.238  24.996  1.00  0.00    -0.245 OA
BRANCH   7   9
ATOM      9  C   UNL A   1      32.671  22.004  26.613  1.00  0.00     0.295 C 
ATOM     10  C   UNL A   1      32.104  24.338  26.901  1.00  0.00     0.170 C 
ATOM     11  C   UNL A   1      33.496  24.173  26.298  1.00  0.00     0.289 C 
ATOM     12  C   UNL A   1      31.597  22.923  27.173  1.00  0.00     0.110 C 
ATOM     13  N   UNL A   1      33.915  22.807  26.614  1.00  0.00    -0.333 N 
ATOM     14  H   UNL A   1      34.360  22.774  27.532  1.00  0.00     0.347 HD
ATOM     15  H   UNL A   1      34.595  22.453  25.942  1.00  0.00     0.347 HD
BRANCH  10  16
ATOM     16  N   UNL A   1      31.219  25.102  26.053  1.00  0.00    -0.243 N 
ATOM     17  C   UNL A   1      30.273  26.161  24.427  1.00  0.00     0.102 A 
ATOM     18  C   UNL A   1      31.477  25.625  24.823  1.00  0.00     0.137 A 
ATOM     19  N   UNL A   1      29.343  25.941  25.411  1.00  0.00    -0.134 NA
ATOM     20  N   UNL A   1      29.937  25.293  26.406  1.00  0.00    -0.067 NA
BRANCH  17  21
ATOM     21  C   UNL A   1      29.919  26.742  23.117  1.00  0.00     0.178 C 
BRANCH  21  22
ATOM     22  N   UNL A   1      29.202  27.985  23.239  1.00  0.00    -0.332 N 
ATOM     23  N   UNL A   1      30.560  29.884  23.825  1.00  0.00    -0.308 N 
ATOM     24  C   UNL A   1      29.467  29.278  23.352  1.00  0.00     0.319 C 
ATOM     25  H   UNL A   1      30.499  30.857  23.694  1.00  0.00     0.171 HD
ATOM     26  O   UNL A   1      28.530  30.036  23.059  1.00  0.00    -0.248 OA
ATOM     27  H   UNL A   1      28.230  27.828  23.241  1.00  0.00     0.165 HD
BRANCH  23  28
ATOM     28  C   UNL A   1      31.769  29.544  24.455  1.00  0.00     0.047 A 
ATOM     29  C   UNL A   1      31.262  31.280  26.287  1.00  0.00     0.048 C 
ATOM     30  C   UNL A   1      32.116  30.196  25.670  1.00  0.00    -0.009 A 
ATOM     31  C   UNL A   1      33.332  29.849  26.305  1.00  0.00     0.046 A 
ATOM     32  Cl  UNL A   1      33.842  30.595  27.783  1.00  0.00    -0.084 Cl
ATOM     33  C   UNL A   1      34.190  28.901  25.752  1.00  0.00     0.021 A 
ATOM     34  C   UNL A   1      32.694  28.677  23.876  1.00  0.00     0.026 A 
ATOM     35  C   UNL A   1      33.882  28.332  24.525  1.00  0.00     0.004 A 
ENDBRANCH  23  28
ENDBRANCH  21  22
ENDBRANCH  17  21
ENDBRANCH  10  16
ENDBRANCH   7   9
ENDBRANCH   6   7
ENDBRANCH   5   6
ENDBRANCH   4   5
ENDBRANCH   3   4
ENDBRANCH   2   3
ENDBRANCH   1   2
BRANCH   1  36
ATOM     36  O   UNL A   1      37.166  22.938  25.840  1.00  0.00    -0.377 OA
BRANCH  36  37
ATOM     37  C   UNL A   1      38.239  22.504  26.669  1.00  0.00     0.188 C 
BRANCH  37  38
ATOM     38  C   UNL A   1      39.653  22.927  26.224  1.00  0.00     0.188 C 
BRANCH  38  39
ATOM     39  O   UNL A   1      40.702  22.184  26.847  1.00  0.00    -0.376 OA
BRANCH  39  40
ATOM     40  C   UNL A   1      41.688  22.902  27.579  1.00  0.00     0.202 C 
BRANCH  40  41
ATOM     41  C   UNL A   1      42.488  23.871  26.710  1.00  0.00     0.261 C 
BRANCH  41  42
ATOM     42  O   UNL A   1      42.246  25.240  27.005  1.00  0.00    -0.460 OA
BRANCH  42  43
ATOM     43  C   UNL A   1      41.606  25.944  26.048  1.00  0.00     0.338 C 
ATOM     44  O   UNL A   1      41.825  25.931  24.853  1.00  0.00    -0.246 OA
BRANCH  43  45
ATOM     45  C   UNL A   1      40.609  26.809  26.689  1.00  0.00     0.060 A 
ATOM     46  C   UNL A   1      40.743  28.170  26.423  1.00  0.00     0.016 A 
ATOM     47  C   UNL A   1      39.812  26.316  27.736  1.00  0.00     0.016 A 
ATOM     48  C   UNL A   1      40.347  29.046  27.399  1.00  0.00     0.010 A 
ATOM     49  C   UNL A   1      39.417  27.193  28.713  1.00  0.00     0.010 A 
ATOM     50  C   UNL A   1      39.811  28.521  28.578  1.00  0.00    -0.014 A 
BRANCH  50  51
ATOM     51  C   UNL A   1      39.819  29.390  29.729  1.00  0.00     0.031 A 
ATOM     52  C   UNL A   1      38.629  30.231  29.881  1.00  0.00     0.074 A 
ATOM     53  C   UNL A   1      40.851  29.397  30.590  1.00  0.00     0.049 A 
ATOM     54  N   UNL A   1      38.571  31.517  29.825  1.00  0.00    -0.248 NA
ATOM     55  C   UNL A   1      37.329  29.559  29.970  1.00  0.00     0.031 C 
ATOM     56  C   UNL A   1      41.959  28.442  30.672  1.00  0.00     0.029 A 
ATOM     57  N   UNL A   1      41.050  30.208  31.662  1.00  0.00    -0.354 N 
ATOM     58  C   UNL A   1      37.247  31.838  30.073  1.00  0.00     0.074 A 
ATOM     59  C   UNL A   1      36.506  30.606  29.984  1.00  0.00     0.031 C 
ATOM     60  C   UNL A   1      42.570  28.589  31.867  1.00  0.00     0.029 A 
ATOM     61  C   UNL A   1      41.967  29.710  32.571  1.00  0.00     0.049 A 
ATOM     62  H   UNL A   1      40.586  31.069  31.780  1.00  0.00     0.167 HD
ATOM     63  C   UNL A   1      36.897  33.066  30.533  1.00  0.00     0.034 A 
ATOM     64  C   UNL A   1      42.133  30.120  33.852  1.00  0.00     0.034 A 
ATOM     65  C   UNL A   1      37.948  34.033  30.313  1.00  0.00     0.049 A 
ATOM     66  C   UNL A   1      41.607  31.506  33.950  1.00  0.00     0.074 A 
ATOM     67  C   UNL A   1      38.596  34.505  29.186  1.00  0.00     0.029 A 
ATOM     68  N   UNL A   1      38.730  34.413  31.381  1.00  0.00    -0.354 N 
ATOM     69  N   UNL A   1      42.151  32.528  33.346  1.00  0.00    -0.248 NA
ATOM     70  C   UNL A   1      40.218  31.703  34.346  1.00  0.00     0.031 C 
ATOM     71  C   UNL A   1      39.941  34.730  29.592  1.00  0.00     0.029 A 
ATOM     72  C   UNL A   1      40.036  34.423  30.951  1.00  0.00     0.049 A 
ATOM     73  H   UNL A   1      38.413  34.637  32.285  1.00  0.00     0.167 HD
ATOM     74  C   UNL A   1      41.086  33.300  32.906  1.00  0.00     0.074 A 
ATOM     75  C   UNL A   1      39.935  32.814  33.658  1.00  0.00     0.031 C 
ATOM     76  C   UNL A   1      41.178  34.059  31.773  1.00  0.00     0.034 A 
BRANCH  63  77
ATOM     77  C   UNL A   1      35.723  33.324  31.438  1.00  0.00     0.023 A 
ATOM     78  C   UNL A   1      34.846  34.360  31.075  1.00  0.00     0.031 A 
ATOM     79  C   UNL A   1      35.563  32.806  32.744  1.00  0.00     0.131 A 
ATOM     80  C   UNL A   1      33.927  34.880  32.000  1.00  0.00     0.055 A 
ATOM     81  C   UNL A   1      34.591  33.270  33.632  1.00  0.00     0.041 A 
ATOM     82  F   UNL A   1      36.395  31.900  33.272  1.00  0.00    -0.206 F 
ATOM     83  C   UNL A   1      33.784  34.334  33.273  1.00  0.00     0.022 A 
BRANCH  80  84
ATOM     84  S   UNL A   1      33.066  36.414  31.576  1.00  0.00     0.124 S 
ATOM     85  O   UNL A   1      33.884  37.414  32.256  1.00  0.00    -0.237 OA
ATOM     86  O   UNL A   1      33.140  36.404  30.119  1.00  0.00    -0.237 OA
ATOM     87  O   UNL A   1      31.732  36.217  32.137  1.00  0.00    -0.744 OA
ENDBRANCH  80  84
ENDBRANCH  63  77
BRANCH  64  88
ATOM     88  C   UNL A   1      42.463  29.249  35.009  1.00  0.00     0.023 A 
ATOM     89  C   UNL A   1      41.714  28.102  35.324  1.00  0.00     0.031 A 
ATOM     90  C   UNL A   1      43.671  29.434  35.725  1.00  0.00     0.131 A 
ATOM     91  C   UNL A   1      42.164  27.217  36.330  1.00  0.00     0.055 A 
ATOM     92  C   UNL A   1      44.095  28.575  36.740  1.00  0.00     0.041 A 
ATOM     93  F   UNL A   1      44.532  30.414  35.408  1.00  0.00    -0.206 F 
ATOM     94  C   UNL A   1      43.341  27.456  37.045  1.00  0.00     0.022 A 
BRANCH  91  95
ATOM     95  S   UNL A   1      41.275  25.660  36.636  1.00  0.00     0.124 S 
ATOM     96  O   UNL A   1      42.367  24.707  36.795  1.00  0.00    -0.237 OA
ATOM     97  O   UNL A   1      40.504  25.971  37.835  1.00  0.00    -0.237 OA
ATOM     98  O   UNL A   1      40.472  25.485  35.425  1.00  0.00    -0.744 OA
ENDBRANCH  91  95
ENDBRANCH  64  88
BRANCH  76  99
ATOM     99  C   UNL A   1      42.550  34.307  31.178  1.00  0.00     0.023 A 
ATOM    100  C   UNL A   1      43.097  33.557  30.114  1.00  0.00     0.031 A 
ATOM    101  C   UNL A   1      43.265  35.437  31.613  1.00  0.00     0.131 A 
ATOM    102  C   UNL A   1      44.323  33.940  29.537  1.00  0.00     0.055 A 
ATOM    103  C   UNL A   1      44.470  35.825  31.025  1.00  0.00     0.041 A 
ATOM    104  F   UNL A   1      42.780  36.214  32.596  1.00  0.00    -0.206 F 
ATOM    105  C   UNL A   1      45.007  35.072  29.987  1.00  0.00     0.022 A 
BRANCH 102 106
ATOM    106  S   UNL A   1      45.045  32.960  28.182  1.00  0.00     0.124 S 
ATOM    107  O   UNL A   1      46.310  33.631  27.911  1.00  0.00    -0.237 OA
ATOM    108  O   UNL A   1      45.140  31.628  28.775  1.00  0.00    -0.237 OA
ATOM    109  O   UNL A   1      44.052  33.077  27.112  1.00  0.00    -0.744 OA
ENDBRANCH 102 106
ENDBRANCH  76  99
ENDBRANCH  50  51
ENDBRANCH  43  45
ENDBRANCH  42  43
ENDBRANCH  41  42
ENDBRANCH  40  41
ENDBRANCH  39  40
ENDBRANCH  38  39
ENDBRANCH  37  38
ENDBRANCH  36  37
ENDBRANCH   1  36
TORSDOF 27
ENDMDL
MODEL 2
REMARK VINA RESULT:     -10.5      3.846      8.294
REMARK SMILES Cc1c(Cl)cccc1NC(=O)NCc1cn([C@@H]2C[NH2+][C@H](C(=O)OCCOCCOCCOCCOC(=O)c3ccc(-c4c5nc(c(-c6cc(S(=O)(=O)[O-])ccc6F)c6ccc([nH]6)c(-c6cc(S(=O)(=O)[O-])ccc6F)c6nc(c(-c7cc(S(=O)(=O)[O-])ccc7F)c7ccc4[nH]7)C=C6)C=C5)cc3)C2)nn1
REMARK SMILES IDX 28 1 27 2 26 3 25 4 24 5 23 6 21 7 22 8 20 9 17 10 18 11
REMARK SMILES IDX 101 12 19 13 16 16 14 17 15 18 103 19 102 20 13 21 12 22
REMARK SMILES IDX 9 23 10 24 11 26 8 28 1 29 2 30 3 31 4 32 5 33 7 34 6 35
REMARK SMILES IDX 29 36 30 37 31 38 32 39 33 40 34 41 35 42 36 43 37 44 38 45
REMARK SMILES IDX 39 46 100 47 40 48 99 49 41 50 42 51 43 52 93 53 44 54 98 55
REMARK SMILES IDX 92 56 94 57 45 58 97 59 91 60 90 61 46 63 78 64 58 65 77 66
REMARK SMILES IDX 59 67 62 68 76 69 95 70 60 71 61 72 75 74 96 75 63 76 47 77
REMARK SMILES IDX 48 78 56 79 49 80 55 81 57 82 54 83 50 84 51 85 52 86 53 87
REMARK SMILES IDX 79 88 80 89 88 90 81 91 87 92 89 93 86 94 82 95 83 96 84 97
REMARK SMILES IDX 85 98 64 99 65 100 73 101 66 102 72 103 74 104 71 105 67 106
REMARK SMILES IDX 68 107 69 108 70 109
REMARK H PARENT 19 14 19 15 9 25 12 27 94 62 62 73
REMARK Flexibility Score: inf
ROOT
ATOM      1  C   UNL A   1      36.656  22.232  24.627  1.00  0.00     0.188 C 
ENDROOT
BRANCH   1   2
ATOM      2  C   UNL A   1      36.122  22.623  23.225  1.00  0.00     0.188 C 
BRANCH   2   3
ATOM      3  O   UNL A   1      35.407  23.834  22.983  1.00  0.00    -0.376 OA
BRANCH   3   4
ATOM      4  C   UNL A   1      34.002  23.817  22.789  1.00  0.00     0.202 C 
BRANCH   4   5
ATOM      5  C   UNL A   1      33.247  22.520  23.113  1.00  0.00     0.261 C 
BRANCH   5   6
ATOM      6  O   UNL A   1      32.411  22.619  24.273  1.00  0.00    -0.459 OA
BRANCH   6   7
ATOM      7  C   UNL A   1      32.583  21.692  25.252  1.00  0.00     0.365 C 
ATOM      8  O   UNL A   1      32.531  20.480  25.082  1.00  0.00    -0.245 OA
BRANCH   7   9
ATOM      9  C   UNL A   1      32.975  22.358  26.591  1.00  0.00     0.295 C 
ATOM     10  C   UNL A   1      32.209  24.641  26.829  1.00  0.00     0.170 C 
ATOM     11  C   UNL A   1      33.564  24.578  26.130  1.00  0.00     0.289 C 
ATOM     12  C   UNL A   1      31.861  23.199  27.194  1.00  0.00     0.110 C 
ATOM     13  N   UNL A   1      34.133  23.272  26.467  1.00  0.00    -0.333 N 
ATOM     14  H   UNL A   1      34.644  23.322  27.348  1.00  0.00     0.347 HD
ATOM     15  H   UNL A   1      34.795  22.952  25.759  1.00  0.00     0.347 HD
BRANCH  10  16
ATOM     16  N   UNL A   1      31.197  25.279  26.022  1.00  0.00    -0.243 N 
ATOM     17  C   UNL A   1      30.084  26.297  24.477  1.00  0.00     0.102 A 
ATOM     18  C   UNL A   1      31.366  26.017  24.890  1.00  0.00     0.137 A 
ATOM     19  N   UNL A   1      29.199  25.723  25.355  1.00  0.00    -0.134 NA
ATOM     20  N   UNL A   1      29.895  25.104  26.301  1.00  0.00    -0.067 NA
BRANCH  17  21
ATOM     21  C   UNL A   1      29.649  26.953  23.228  1.00  0.00     0.178 C 
BRANCH  21  22
ATOM     22  N   UNL A   1      29.136  28.281  23.451  1.00  0.00    -0.332 N 
ATOM     23  N   UNL A   1      30.813  29.966  23.823  1.00  0.00    -0.308 N 
ATOM     24  C   UNL A   1      29.590  29.522  23.519  1.00  0.00     0.319 C 
ATOM     25  H   UNL A   1      30.869  30.940  23.699  1.00  0.00     0.171 HD
ATOM     26  O   UNL A   1      28.733  30.407  23.365  1.00  0.00    -0.248 OA
ATOM     27  H   UNL A   1      28.162  28.258  23.596  1.00  0.00     0.165 HD
BRANCH  23  28
ATOM     28  C   UNL A   1      32.043  29.452  24.269  1.00  0.00     0.047 A 
ATOM     29  C   UNL A   1      31.694  30.664  26.514  1.00  0.00     0.048 C 
ATOM     30  C   UNL A   1      32.478  29.762  25.588  1.00  0.00    -0.009 A 
ATOM     31  C   UNL A   1      33.714  29.241  26.036  1.00  0.00     0.046 A 
ATOM     32  Cl  UNL A   1      34.328  29.569  27.622  1.00  0.00    -0.084 Cl
ATOM     33  C   UNL A   1      34.509  28.453  25.206  1.00  0.00     0.021 A 
ATOM     34  C   UNL A   1      32.906  28.749  23.431  1.00  0.00     0.026 A 
ATOM     35  C   UNL A   1      34.116  28.227  23.895  1.00  0.00     0.004 A 
ENDBRANCH  23  28
ENDBRANCH  21  22
ENDBRANCH  17  21
ENDBRANCH  10  16
ENDBRANCH   7   9
ENDBRANCH   6   7
ENDBRANCH   5   6
ENDBRANCH   4   5
ENDBRANCH   3   4
ENDBRANCH   2   3
ENDBRANCH   1   2
BRANCH   1  36
ATOM     36  O   UNL A   1      37.312  23.275  25.327  1.00  0.00    -0.377 OA
BRANCH  36  37
ATOM     37  C   UNL A   1      38.415  22.853  26.121  1.00  0.00     0.188 C 
BRANCH  37  38
ATOM     38  C   UNL A   1      38.977  21.452  25.809  1.00  0.00     0.188 C 
BRANCH  38  39
ATOM     39  O   UNL A   1      40.367  21.306  26.111  1.00  0.00    -0.376 OA
BRANCH  39  40
ATOM     40  C   UNL A   1      40.811  20.060  26.635  1.00  0.00     0.202 C 
BRANCH  40  41
ATOM     41  C   UNL A   1      41.971  19.458  25.841  1.00  0.00     0.261 C 
BRANCH  41  42
ATOM     42  O   UNL A   1      43.202  20.144  26.015  1.00  0.00    -0.460 OA
BRANCH  42  43
ATOM     43  C   UNL A   1      43.937  20.328  24.898  1.00  0.00     0.338 C 
ATOM     44  O   UNL A   1      44.160  19.516  24.021  1.00  0.00    -0.246 OA
BRANCH  43  45
ATOM     45  C   UNL A   1      44.502  21.681  24.923  1.00  0.00     0.060 A 
ATOM     46  C   UNL A   1      45.588  21.857  25.778  1.00  0.00     0.016 A 
ATOM     47  C   UNL A   1      43.782  22.759  24.382  1.00  0.00     0.016 A 
ATOM     48  C   UNL A   1      45.750  23.092  26.348  1.00  0.00     0.010 A 
ATOM     49  C   UNL A   1      43.944  23.995  24.954  1.00  0.00     0.010 A 
ATOM     50  C   UNL A   1      44.837  24.096  26.016  1.00  0.00    -0.014 A 
BRANCH  50  51
ATOM     51  C   UNL A   1      44.749  25.210  26.928  1.00  0.00     0.031 A 
ATOM     52  C   UNL A   1      45.906  26.108  26.926  1.00  0.00     0.074 A 
ATOM     53  C   UNL A   1      43.665  25.393  27.702  1.00  0.00     0.049 A 
ATOM     54  N   UNL A   1      46.726  26.325  27.895  1.00  0.00    -0.248 NA
ATOM     55  C   UNL A   1      46.275  26.737  25.654  1.00  0.00     0.031 C 
ATOM     56  C   UNL A   1      42.371  24.711  27.611  1.00  0.00     0.029 A 
ATOM     57  N   UNL A   1      43.464  26.330  28.664  1.00  0.00    -0.354 N 
ATOM     58  C   UNL A   1      47.612  27.280  27.424  1.00  0.00     0.074 A 
ATOM     59  C   UNL A   1      47.395  27.367  26.002  1.00  0.00     0.031 C 
ATOM     60  C   UNL A   1      41.459  25.416  28.314  1.00  0.00     0.029 A 
ATOM     61  C   UNL A   1      42.130  26.521  28.982  1.00  0.00     0.049 A 
ATOM     62  H   UNL A   1      44.197  26.827  29.095  1.00  0.00     0.167 HD
ATOM     63  C   UNL A   1      48.313  28.068  28.277  1.00  0.00     0.034 A 
ATOM     64  C   UNL A   1      41.605  27.578  29.648  1.00  0.00     0.034 A 
ATOM     65  C   UNL A   1      48.339  27.514  29.610  1.00  0.00     0.049 A 
ATOM     66  C   UNL A   1      42.697  28.185  30.453  1.00  0.00     0.074 A 
ATOM     67  C   UNL A   1      48.795  26.321  30.144  1.00  0.00     0.029 A 
ATOM     68  N   UNL A   1      47.524  28.066  30.573  1.00  0.00    -0.354 N 
ATOM     69  N   UNL A   1      43.270  27.583  31.461  1.00  0.00    -0.248 NA
ATOM     70  C   UNL A   1      43.474  29.274  29.874  1.00  0.00     0.031 C 
ATOM     71  C   UNL A   1      47.879  26.001  31.185  1.00  0.00     0.029 A 
ATOM     72  C   UNL A   1      46.937  27.030  31.260  1.00  0.00     0.049 A 
ATOM     73  H   UNL A   1      47.386  29.026  30.738  1.00  0.00     0.167 HD
ATOM     74  C   UNL A   1      44.615  27.910  31.364  1.00  0.00     0.074 A 
ATOM     75  C   UNL A   1      44.659  29.049  30.453  1.00  0.00     0.031 C 
ATOM     76  C   UNL A   1      45.588  27.055  31.798  1.00  0.00     0.034 A 
BRANCH  63  77
ATOM     77  C   UNL A   1      48.729  29.481  27.969  1.00  0.00     0.023 A 
ATOM     78  C   UNL A   1      47.707  30.418  27.742  1.00  0.00     0.031 A 
ATOM     79  C   UNL A   1      50.037  29.897  27.629  1.00  0.00     0.131 A 
ATOM     80  C   UNL A   1      47.987  31.656  27.143  1.00  0.00     0.055 A 
ATOM     81  C   UNL A   1      50.322  31.161  27.112  1.00  0.00     0.041 A 
ATOM     82  F   UNL A   1      51.095  29.078  27.682  1.00  0.00    -0.206 F 
ATOM     83  C   UNL A   1      49.290  32.040  26.837  1.00  0.00     0.022 A 
BRANCH  80  84
ATOM     84  S   UNL A   1      46.595  32.668  26.585  1.00  0.00     0.124 S 
ATOM     85  O   UNL A   1      45.986  33.064  27.852  1.00  0.00    -0.237 OA
ATOM     86  O   UNL A   1      47.273  33.723  25.839  1.00  0.00    -0.237 OA
ATOM     87  O   UNL A   1      45.805  31.739  25.781  1.00  0.00    -0.744 OA
ENDBRANCH  80  84
ENDBRANCH  63  77
BRANCH  64  88
ATOM     88  C   UNL A   1      40.291  28.213  29.377  1.00  0.00     0.023 A 
ATOM     89  C   UNL A   1      39.384  28.534  30.402  1.00  0.00     0.031 A 
ATOM     90  C   UNL A   1      39.982  28.701  28.083  1.00  0.00     0.131 A 
ATOM     91  C   UNL A   1      38.222  29.284  30.112  1.00  0.00     0.055 A 
ATOM     92  C   UNL A   1      38.818  29.413  27.794  1.00  0.00     0.041 A 
ATOM     93  F   UNL A   1      40.845  28.575  27.062  1.00  0.00    -0.206 F 
ATOM     94  C   UNL A   1      37.932  29.712  28.813  1.00  0.00     0.022 A 
BRANCH  91  95
ATOM     95  S   UNL A   1      37.128  29.825  31.460  1.00  0.00     0.124 S 
ATOM     96  O   UNL A   1      35.811  29.455  30.955  1.00  0.00    -0.237 OA
ATOM     97  O   UNL A   1      37.628  29.056  32.595  1.00  0.00    -0.237 OA
ATOM     98  O   UNL A   1      37.377  31.264  31.542  1.00  0.00    -0.744 OA
ENDBRANCH  91  95
ENDBRANCH  64  88
BRANCH  76  99
ATOM     99  C   UNL A   1      45.186  25.889  32.680  1.00  0.00     0.023 A 
ATOM    100  C   UNL A   1      45.096  25.958  34.087  1.00  0.00     0.031 A 
ATOM    101  C   UNL A   1      44.741  24.711  32.056  1.00  0.00     0.131 A 
ATOM    102  C   UNL A   1      44.589  24.867  34.817  1.00  0.00     0.055 A 
ATOM    103  C   UNL A   1      44.220  23.638  32.781  1.00  0.00     0.041 A 
ATOM    104  F   UNL A   1      44.765  24.596  30.717  1.00  0.00    -0.206 F 
ATOM    105  C   UNL A   1      44.148  23.710  34.167  1.00  0.00     0.022 A 
BRANCH 102 106
ATOM    106  S   UNL A   1      44.495  24.941  36.634  1.00  0.00     0.124 S 
ATOM    107  O   UNL A   1      45.280  26.123  36.969  1.00  0.00    -0.237 OA
ATOM    108  O   UNL A   1      43.057  25.038  36.870  1.00  0.00    -0.237 OA
ATOM    109  O   UNL A   1      45.095  23.673  37.057  1.00  0.00    -0.744 OA
ENDBRANCH 102 106
ENDBRANCH  76  99
ENDBRANCH  50  51
ENDBRANCH  43  45
ENDBRANCH  42  43
ENDBRANCH  41  42
ENDBRANCH  40  41
ENDBRANCH  39  40
ENDBRANCH  38  39
ENDBRANCH  37  38
ENDBRANCH  36  37
ENDBRANCH   1  36
TORSDOF 27
ENDMDL
MODEL 3
REMARK VINA RESULT:      -9.5      3.566      6.337
REMARK SMILES Cc1c(Cl)cccc1NC(=O)NCc1cn([C@@H]2C[NH2+][C@H](C(=O)OCCOCCOCCOCCOC(=O)c3ccc(-c4c5nc(c(-c6cc(S(=O)(=O)[O-])ccc6F)c6ccc([nH]6)c(-c6cc(S(=O)(=O)[O-])ccc6F)c6nc(c(-c7cc(S(=O)(=O)[O-])ccc7F)c7ccc4[nH]7)C=C6)C=C5)cc3)C2)nn1
REMARK SMILES IDX 28 1 27 2 26 3 25 4 24 5 23 6 21 7 22 8 20 9 17 10 18 11
REMARK SMILES IDX 101 12 19 13 16 16 14 17 15 18 103 19 102 20 13 21 12 22
REMARK SMILES IDX 9 23 10 24 11 26 8 28 1 29 2 30 3 31 4 32 5 33 7 34 6 35
REMARK SMILES IDX 29 36 30 37 31 38 32 39 33 40 34 41 35 42 36 43 37 44 38 45
REMARK SMILES IDX 39 46 100 47 40 48 99 49 41 50 42 51 43 52 93 53 44 54 98 55
REMARK SMILES IDX 92 56 94 57 45 58 97 59 91 60 90 61 46 63 78 64 58 65 77 66
REMARK SMILES IDX 59 67 62 68 76 69 95 70 60 71 61 72 75 74 96 75 63 76 47 77
REMARK SMILES IDX 48 78 56 79 49 80 55 81 57 82 54 83 50 84 51 85 52 86 53 87
REMARK SMILES IDX 79 88 80 89 88 90 81 91 87 92 89 93 86 94 82 95 83 96 84 97
REMARK SMILES IDX 85 98 64 99 65 100 73 101 66 102 72 103 74 104 71 105 67 106
REMARK SMILES IDX 68 107 69 108 70 109
REMARK H PARENT 19 14 19 15 9 25 12 27 94 62 62 73
REMARK Flexibility Score: inf
ROOT
ATOM      1  C   UNL A   1      37.799  21.925  25.641  1.00  0.00     0.188 C 
ENDROOT
BRANCH   1   2
ATOM      2  C   UNL A   1      36.646  22.950  25.490  1.00  0.00     0.188 C 
BRANCH   2   3
ATOM      3  O   UNL A   1      35.567  23.038  26.420  1.00  0.00    -0.376 OA
BRANCH   3   4
ATOM      4  C   UNL A   1      34.559  24.025  26.265  1.00  0.00     0.202 C 
BRANCH   4   5
ATOM      5  C   UNL A   1      33.129  23.553  25.968  1.00  0.00     0.261 C 
BRANCH   5   6
ATOM      6  O   UNL A   1      32.347  24.515  25.249  1.00  0.00    -0.459 OA
BRANCH   6   7
ATOM      7  C   UNL A   1      31.043  24.212  25.010  1.00  0.00     0.365 C 
ATOM      8  O   UNL A   1      30.323  23.581  25.775  1.00  0.00    -0.245 OA
BRANCH   7   9
ATOM      9  C   UNL A   1      30.547  24.870  23.703  1.00  0.00     0.295 C 
ATOM     10  C   UNL A   1      30.935  27.255  23.577  1.00  0.00     0.170 C 
ATOM     11  C   UNL A   1      29.609  26.941  24.265  1.00  0.00     0.289 C 
ATOM     12  C   UNL A   1      31.510  25.906  23.147  1.00  0.00     0.110 C 
ATOM     13  N   UNL A   1      29.257  25.578  23.864  1.00  0.00    -0.333 N 
ATOM     14  H   UNL A   1      28.743  25.588  22.982  1.00  0.00     0.347 HD
ATOM     15  H   UNL A   1      28.657  25.122  24.552  1.00  0.00     0.347 HD
BRANCH  10  16
ATOM     16  N   UNL A   1      31.832  28.009  24.420  1.00  0.00    -0.243 N 
ATOM     17  C   UNL A   1      33.101  28.732  26.010  1.00  0.00     0.102 A 
ATOM     18  C   UNL A   1      32.126  27.802  25.733  1.00  0.00     0.137 A 
ATOM     19  N   UNL A   1      33.364  29.452  24.872  1.00  0.00    -0.134 NA
ATOM     20  N   UNL A   1      32.577  29.001  23.904  1.00  0.00    -0.067 NA
BRANCH  17  21
ATOM     21  C   UNL A   1      33.895  28.882  27.245  1.00  0.00     0.178 C 
BRANCH  21  22
ATOM     22  N   UNL A   1      33.853  30.224  27.769  1.00  0.00    -0.332 N 
ATOM     23  N   UNL A   1      35.990  31.134  28.399  1.00  0.00    -0.308 N 
ATOM     24  C   UNL A   1      34.695  31.199  28.073  1.00  0.00     0.319 C 
ATOM     25  H   UNL A   1      36.371  32.037  28.480  1.00  0.00     0.171 HD
ATOM     26  O   UNL A   1      34.188  32.328  28.153  1.00  0.00    -0.248 OA
ATOM     27  H   UNL A   1      32.925  30.495  27.957  1.00  0.00     0.165 HD
BRANCH  23  28
ATOM     28  C   UNL A   1      36.966  30.158  28.662  1.00  0.00     0.047 A 
ATOM     29  C   UNL A   1      36.330  30.244  31.155  1.00  0.00     0.048 C 
ATOM     30  C   UNL A   1      37.129  29.694  29.996  1.00  0.00    -0.009 A 
ATOM     31  C   UNL A   1      38.110  28.709  30.258  1.00  0.00     0.046 A 
ATOM     32  Cl  UNL A   1      38.386  28.088  31.852  1.00  0.00    -0.084 Cl
ATOM     33  C   UNL A   1      38.919  28.207  29.240  1.00  0.00     0.021 A 
ATOM     34  C   UNL A   1      37.858  29.713  27.688  1.00  0.00     0.026 A 
ATOM     35  C   UNL A   1      38.809  28.727  27.960  1.00  0.00     0.004 A 
ENDBRANCH  23  28
ENDBRANCH  21  22
ENDBRANCH  17  21
ENDBRANCH  10  16
ENDBRANCH   7   9
ENDBRANCH   6   7
ENDBRANCH   5   6
ENDBRANCH   4   5
ENDBRANCH   3   4
ENDBRANCH   2   3
ENDBRANCH   1   2
BRANCH   1  36
ATOM     36  O   UNL A   1      39.006  22.457  26.157  1.00  0.00    -0.377 OA
BRANCH  36  37
ATOM     37  C   UNL A   1      40.017  21.490  26.416  1.00  0.00     0.188 C 
BRANCH  37  38
ATOM     38  C   UNL A   1      40.971  21.805  27.585  1.00  0.00     0.188 C 
BRANCH  38  39
ATOM     39  O   UNL A   1      41.566  23.103  27.513  1.00  0.00    -0.376 OA
BRANCH  39  40
ATOM     40  C   UNL A   1      42.866  23.213  26.946  1.00  0.00     0.202 C 
BRANCH  40  41
ATOM     41  C   UNL A   1      42.846  23.699  25.497  1.00  0.00     0.261 C 
BRANCH  41  42
ATOM     42  O   UNL A   1      43.159  25.077  25.349  1.00  0.00    -0.460 OA
BRANCH  42  43
ATOM     43  C   UNL A   1      42.117  25.931  25.438  1.00  0.00     0.338 C 
ATOM     44  O   UNL A   1      40.935  25.655  25.405  1.00  0.00    -0.246 OA
BRANCH  43  45
ATOM     45  C   UNL A   1      42.637  27.300  25.523  1.00  0.00     0.060 A 
ATOM     46  C   UNL A   1      43.970  27.407  25.916  1.00  0.00     0.016 A 
ATOM     47  C   UNL A   1      41.755  28.393  25.531  1.00  0.00     0.016 A 
ATOM     48  C   UNL A   1      44.332  28.524  26.621  1.00  0.00     0.010 A 
ATOM     49  C   UNL A   1      42.118  29.510  26.238  1.00  0.00     0.010 A 
ATOM     50  C   UNL A   1      43.355  29.489  26.876  1.00  0.00    -0.014 A 
BRANCH  50  51
ATOM     51  C   UNL A   1      43.622  30.402  27.960  1.00  0.00     0.031 A 
ATOM     52  C   UNL A   1      42.778  30.225  29.144  1.00  0.00     0.074 A 
ATOM     53  C   UNL A   1      44.591  31.329  27.868  1.00  0.00     0.049 A 
ATOM     54  N   UNL A   1      41.922  31.060  29.623  1.00  0.00    -0.248 NA
ATOM     55  C   UNL A   1      42.787  28.911  29.795  1.00  0.00     0.031 C 
ATOM     56  C   UNL A   1      45.639  31.434  26.849  1.00  0.00     0.029 A 
ATOM     57  N   UNL A   1      44.908  32.309  28.753  1.00  0.00    -0.354 N 
ATOM     58  C   UNL A   1      41.418  30.460  30.765  1.00  0.00     0.074 A 
ATOM     59  C   UNL A   1      41.852  29.087  30.726  1.00  0.00     0.031 C 
ATOM     60  C   UNL A   1      46.602  32.265  27.303  1.00  0.00     0.029 A 
ATOM     61  C   UNL A   1      46.182  32.823  28.579  1.00  0.00     0.049 A 
ATOM     62  H   UNL A   1      44.290  32.625  29.453  1.00  0.00     0.167 HD
ATOM     63  C   UNL A   1      40.853  31.197  31.754  1.00  0.00     0.034 A 
ATOM     64  C   UNL A   1      46.882  33.559  29.476  1.00  0.00     0.034 A 
ATOM     65  C   UNL A   1      40.480  32.513  31.287  1.00  0.00     0.049 A 
ATOM     66  C   UNL A   1      45.901  34.190  30.397  1.00  0.00     0.074 A 
ATOM     67  C   UNL A   1      39.636  32.973  30.294  1.00  0.00     0.029 A 
ATOM     68  N   UNL A   1      41.271  33.585  31.632  1.00  0.00    -0.354 N 
ATOM     69  N   UNL A   1      45.044  35.101  30.023  1.00  0.00    -0.248 NA
ATOM     70  C   UNL A   1      45.554  33.500  31.633  1.00  0.00     0.031 C 
ATOM     71  C   UNL A   1      40.265  34.141  29.776  1.00  0.00     0.029 A 
ATOM     72  C   UNL A   1      41.438  34.354  30.505  1.00  0.00     0.049 A 
ATOM     73  H   UNL A   1      41.650  33.768  32.522  1.00  0.00     0.167 HD
ATOM     74  C   UNL A   1      43.874  34.804  30.707  1.00  0.00     0.074 A 
ATOM     75  C   UNL A   1      44.284  33.895  31.772  1.00  0.00     0.031 C 
ATOM     76  C   UNL A   1      42.648  35.088  30.177  1.00  0.00     0.034 A 
BRANCH  63  77
ATOM     77  C   UNL A   1      40.901  30.829  33.212  1.00  0.00     0.023 A 
ATOM     78  C   UNL A   1      39.710  30.955  33.947  1.00  0.00     0.031 A 
ATOM     79  C   UNL A   1      42.077  30.622  33.969  1.00  0.00     0.131 A 
ATOM     80  C   UNL A   1      39.728  30.947  35.351  1.00  0.00     0.055 A 
ATOM     81  C   UNL A   1      42.078  30.531  35.362  1.00  0.00     0.041 A 
ATOM     82  F   UNL A   1      43.298  30.597  33.420  1.00  0.00    -0.206 F 
ATOM     83  C   UNL A   1      40.903  30.723  36.064  1.00  0.00     0.022 A 
BRANCH  80  84
ATOM     84  S   UNL A   1      38.222  31.438  36.226  1.00  0.00     0.124 S 
ATOM     85  O   UNL A   1      37.354  31.839  35.123  1.00  0.00    -0.237 OA
ATOM     86  O   UNL A   1      37.862  30.204  36.914  1.00  0.00    -0.237 OA
ATOM     87  O   UNL A   1      38.675  32.528  37.087  1.00  0.00    -0.744 OA
ENDBRANCH  80  84
ENDBRANCH  63  77
BRANCH  64  88
ATOM     88  C   UNL A   1      48.347  33.487  29.707  1.00  0.00     0.023 A 
ATOM     89  C   UNL A   1      49.030  32.264  29.824  1.00  0.00     0.031 A 
ATOM     90  C   UNL A   1      49.145  34.653  29.623  1.00  0.00     0.131 A 
ATOM     91  C   UNL A   1      50.442  32.244  29.878  1.00  0.00     0.055 A 
ATOM     92  C   UNL A   1      50.537  34.632  29.709  1.00  0.00     0.041 A 
ATOM     93  F   UNL A   1      48.606  35.856  29.368  1.00  0.00    -0.206 F 
ATOM     94  C   UNL A   1      51.194  33.421  29.833  1.00  0.00     0.022 A 
BRANCH  91  95
ATOM     95  S   UNL A   1      51.330  30.656  29.879  1.00  0.00     0.124 S 
ATOM     96  O   UNL A   1      51.549  30.427  31.302  1.00  0.00    -0.237 OA
ATOM     97  O   UNL A   1      50.381  29.767  29.216  1.00  0.00    -0.237 OA
ATOM     98  O   UNL A   1      52.538  30.943  29.106  1.00  0.00    -0.744 OA
ENDBRANCH  91  95
ENDBRANCH  64  88
BRANCH  76  99
ATOM     99  C   UNL A   1      42.574  36.022  28.985  1.00  0.00     0.023 A 
ATOM    100  C   UNL A   1      42.492  37.428  29.087  1.00  0.00     0.031 A 
ATOM    101  C   UNL A   1      42.738  35.472  27.702  1.00  0.00     0.131 A 
ATOM    102  C   UNL A   1      42.560  38.226  27.930  1.00  0.00     0.055 A 
ATOM    103  C   UNL A   1      42.825  36.266  26.558  1.00  0.00     0.041 A 
ATOM    104  F   UNL A   1      42.860  34.143  27.540  1.00  0.00    -0.206 F 
ATOM    105  C   UNL A   1      42.729  37.649  26.667  1.00  0.00     0.022 A 
BRANCH 102 106
ATOM    106  S   UNL A   1      42.428  40.038  28.054  1.00  0.00     0.124 S 
ATOM    107  O   UNL A   1      42.151  40.456  26.685  1.00  0.00    -0.237 OA
ATOM    108  O   UNL A   1      41.337  40.208  29.010  1.00  0.00    -0.237 OA
ATOM    109  O   UNL A   1      43.743  40.440  28.559  1.00  0.00    -0.744 OA
ENDBRANCH 102 106
ENDBRANCH  76  99
ENDBRANCH  50  51
ENDBRANCH  43  45
ENDBRANCH  42  43
ENDBRANCH  41  42
ENDBRANCH  40  41
ENDBRANCH  39  40
ENDBRANCH  38  39
ENDBRANCH  37  38
ENDBRANCH  36  37
ENDBRANCH   1  36
TORSDOF 27
ENDMDL
