MODEL 1
REMARK VINA RESULT:      -9.3      0.000      0.000
REMARK SMILES C[C@@H](NC(=O)c1cc(C(=O)OCCOCCOCCOCCOC(=O)c2ccc(-c3c4nc(c(-c5cc(S(=O)(=O)[O-])ccc5F)c5ccc([nH]5)c(-c5cc(S(=O)(=O)[O-])ccc5F)c5nc(c(-c6cc(S(=O)(=O)[O-])ccc6F)c6ccc3[nH]6)C=C5)C=C4)cc2)n(C)n1)c1ccccc1
REMARK SMILES IDX 17 1 16 2 15 3 14 4 13 5 12 6 11 7 9 8 10 9 8 10 6 11 7 12
REMARK SMILES IDX 91 13 89 14 90 15 4 16 3 17 5 19 2 20 1 21 92 22 93 23 97 24
REMARK SMILES IDX 94 25 96 26 95 27 18 28 19 29 20 30 21 31 22 32 23 33 24 34
REMARK SMILES IDX 25 35 26 36 27 37 88 38 28 39 87 40 29 41 30 42 31 43 81 44
REMARK SMILES IDX 32 45 86 46 80 47 82 48 33 49 85 50 79 51 78 52 34 54 66 55
REMARK SMILES IDX 46 56 65 57 47 58 50 59 64 60 83 61 48 62 49 63 63 65 84 66
REMARK SMILES IDX 51 67 35 68 36 69 44 70 37 71 43 72 45 73 42 74 38 75 39 76
REMARK SMILES IDX 40 77 41 78 67 79 68 80 76 81 69 82 75 83 77 84 74 85 70 86
REMARK SMILES IDX 71 87 72 88 73 89 52 90 53 91 61 92 54 93 60 94 62 95 59 96
REMARK SMILES IDX 55 97 56 98 57 99 58 100
REMARK H PARENT 3 18 82 53 50 64
REMARK Flexibility Score: inf
ROOT
ATOM      1  O   UNL A   1      40.193  22.232  26.868  1.00  0.00    -0.377 OA
ENDROOT
BRANCH   1   2
ATOM      2  C   UNL A   1      38.948  22.844  26.568  1.00  0.00     0.188 C 
BRANCH   2   3
ATOM      3  C   UNL A   1      38.172  22.082  25.483  1.00  0.00     0.188 C 
BRANCH   3   4
ATOM      4  O   UNL A   1      36.900  21.525  25.793  1.00  0.00    -0.376 OA
BRANCH   4   5
ATOM      5  C   UNL A   1      36.170  20.930  24.739  1.00  0.00     0.202 C 
BRANCH   5   6
ATOM      6  C   UNL A   1      34.765  20.389  25.053  1.00  0.00     0.261 C 
BRANCH   6   7
ATOM      7  O   UNL A   1      33.640  21.169  24.603  1.00  0.00    -0.459 OA
BRANCH   7   8
ATOM      8  C   UNL A   1      32.433  20.933  25.180  1.00  0.00     0.356 C 
ATOM      9  O   UNL A   1      31.867  19.843  25.171  1.00  0.00    -0.244 OA
BRANCH   8  10
ATOM     10  C   UNL A   1      31.909  22.123  25.831  1.00  0.00     0.146 A 
ATOM     11  C   UNL A   1      30.841  24.077  26.258  1.00  0.00     0.151 A 
ATOM     12  C   UNL A   1      31.006  23.042  25.300  1.00  0.00     0.071 A 
ATOM     13  N   UNL A   1      31.629  23.832  27.322  1.00  0.00    -0.167 NA
ATOM     14  N   UNL A   1      32.224  22.645  27.065  1.00  0.00    -0.260 N 
ATOM     15  C   UNL A   1      33.198  22.190  28.036  1.00  0.00     0.174 C 
BRANCH  11  16
ATOM     16  C   UNL A   1      30.137  25.370  26.130  1.00  0.00     0.272 C 
ATOM     17  N   UNL A   1      30.709  26.502  25.576  1.00  0.00    -0.344 N 
ATOM     18  H   UNL A   1      30.050  27.145  25.228  1.00  0.00     0.164 HD
ATOM     19  O   UNL A   1      28.953  25.480  26.466  1.00  0.00    -0.267 OA
BRANCH  17  20
ATOM     20  C   UNL A   1      32.094  26.939  25.403  1.00  0.00     0.109 C 
ATOM     21  C   UNL A   1      32.174  28.215  24.554  1.00  0.00     0.036 C 
BRANCH  20  22
ATOM     22  C   UNL A   1      32.980  25.880  24.819  1.00  0.00    -0.026 A 
ATOM     23  C   UNL A   1      32.815  25.524  23.475  1.00  0.00     0.006 A 
ATOM     24  C   UNL A   1      34.045  25.352  25.563  1.00  0.00     0.006 A 
ATOM     25  C   UNL A   1      33.775  24.745  22.854  1.00  0.00     0.000 A 
ATOM     26  C   UNL A   1      35.018  24.594  24.931  1.00  0.00     0.000 A 
ATOM     27  C   UNL A   1      34.888  24.317  23.577  1.00  0.00     0.000 A 
ENDBRANCH  20  22
ENDBRANCH  17  20
ENDBRANCH  11  16
ENDBRANCH   8  10
ENDBRANCH   7   8
ENDBRANCH   6   7
ENDBRANCH   5   6
ENDBRANCH   4   5
ENDBRANCH   3   4
ENDBRANCH   2   3
ENDBRANCH   1   2
BRANCH   1  28
ATOM     28  C   UNL A   1      40.340  20.937  26.302  1.00  0.00     0.188 C 
BRANCH  28  29
ATOM     29  C   UNL A   1      41.712  20.298  26.550  1.00  0.00     0.188 C 
BRANCH  29  30
ATOM     30  O   UNL A   1      42.628  20.608  25.492  1.00  0.00    -0.376 OA
BRANCH  30  31
ATOM     31  C   UNL A   1      43.583  21.624  25.768  1.00  0.00     0.202 C 
BRANCH  31  32
ATOM     32  C   UNL A   1      43.836  22.506  24.540  1.00  0.00     0.261 C 
BRANCH  32  33
ATOM     33  O   UNL A   1      43.745  23.914  24.801  1.00  0.00    -0.460 OA
BRANCH  33  34
ATOM     34  C   UNL A   1      44.919  24.569  24.959  1.00  0.00     0.338 C 
ATOM     35  O   UNL A   1      45.941  24.396  24.322  1.00  0.00    -0.246 OA
BRANCH  34  36
ATOM     36  C   UNL A   1      44.673  25.691  25.889  1.00  0.00     0.060 A 
ATOM     37  C   UNL A   1      45.781  26.351  26.435  1.00  0.00     0.016 A 
ATOM     38  C   UNL A   1      43.375  26.143  26.149  1.00  0.00     0.016 A 
ATOM     39  C   UNL A   1      45.592  27.479  27.232  1.00  0.00     0.010 A 
ATOM     40  C   UNL A   1      43.186  27.246  26.985  1.00  0.00     0.010 A 
ATOM     41  C   UNL A   1      44.294  27.905  27.544  1.00  0.00    -0.014 A 
BRANCH  41  42
ATOM     42  C   UNL A   1      44.105  28.856  28.662  1.00  0.00     0.031 A 
ATOM     43  C   UNL A   1      43.956  28.270  30.039  1.00  0.00     0.074 A 
ATOM     44  C   UNL A   1      44.096  30.187  28.473  1.00  0.00     0.049 A 
ATOM     45  N   UNL A   1      43.791  28.869  31.187  1.00  0.00    -0.248 NA
ATOM     46  C   UNL A   1      44.004  26.800  30.124  1.00  0.00     0.031 C 
ATOM     47  C   UNL A   1      44.277  30.863  27.190  1.00  0.00     0.029 A 
ATOM     48  N   UNL A   1      43.926  31.211  29.371  1.00  0.00    -0.354 N 
ATOM     49  C   UNL A   1      43.737  27.852  32.134  1.00  0.00     0.074 A 
ATOM     50  C   UNL A   1      43.843  26.599  31.421  1.00  0.00     0.031 C 
ATOM     51  C   UNL A   1      44.196  32.192  27.383  1.00  0.00     0.029 A 
ATOM     52  C   UNL A   1      43.928  32.460  28.796  1.00  0.00     0.049 A 
ATOM     53  H   UNL A   1      43.813  31.064  30.338  1.00  0.00     0.167 HD
ATOM     54  C   UNL A   1      43.616  27.955  33.478  1.00  0.00     0.034 A 
ATOM     55  C   UNL A   1      43.718  33.672  29.351  1.00  0.00     0.034 A 
ATOM     56  C   UNL A   1      43.459  29.210  34.167  1.00  0.00     0.049 A 
ATOM     57  C   UNL A   1      43.469  33.756  30.841  1.00  0.00     0.074 A 
ATOM     58  C   UNL A   1      43.307  29.438  35.522  1.00  0.00     0.029 A 
ATOM     59  N   UNL A   1      43.406  30.451  33.545  1.00  0.00    -0.354 N 
ATOM     60  N   UNL A   1      43.438  32.789  31.731  1.00  0.00    -0.248 NA
ATOM     61  C   UNL A   1      43.235  35.093  31.401  1.00  0.00     0.031 C 
ATOM     62  C   UNL A   1      43.089  30.806  35.712  1.00  0.00     0.029 A 
ATOM     63  C   UNL A   1      43.189  31.445  34.484  1.00  0.00     0.049 A 
ATOM     64  H   UNL A   1      43.508  30.603  32.577  1.00  0.00     0.167 HD
ATOM     65  C   UNL A   1      43.217  33.409  32.960  1.00  0.00     0.074 A 
ATOM     66  C   UNL A   1      43.133  34.830  32.696  1.00  0.00     0.031 C 
ATOM     67  C   UNL A   1      43.101  32.858  34.196  1.00  0.00     0.034 A 
BRANCH  54  68
ATOM     68  C   UNL A   1      43.581  26.667  34.262  1.00  0.00     0.023 A 
ATOM     69  C   UNL A   1      44.747  25.914  34.495  1.00  0.00     0.031 A 
ATOM     70  C   UNL A   1      42.359  26.152  34.726  1.00  0.00     0.131 A 
ATOM     71  C   UNL A   1      44.654  24.654  35.107  1.00  0.00     0.055 A 
ATOM     72  C   UNL A   1      42.286  24.937  35.408  1.00  0.00     0.041 A 
ATOM     73  F   UNL A   1      41.211  26.812  34.503  1.00  0.00    -0.206 F 
ATOM     74  C   UNL A   1      43.435  24.173  35.588  1.00  0.00     0.022 A 
BRANCH  71  75
ATOM     75  S   UNL A   1      46.123  23.591  35.127  1.00  0.00     0.124 S 
ATOM     76  O   UNL A   1      46.267  23.315  36.555  1.00  0.00    -0.237 OA
ATOM     77  O   UNL A   1      45.710  22.465  34.297  1.00  0.00    -0.237 OA
ATOM     78  O   UNL A   1      47.168  24.438  34.556  1.00  0.00    -0.744 OA
ENDBRANCH  71  75
ENDBRANCH  54  68
BRANCH  55  79
ATOM     79  C   UNL A   1      43.685  34.904  28.507  1.00  0.00     0.023 A 
ATOM     80  C   UNL A   1      44.866  35.548  28.104  1.00  0.00     0.031 A 
ATOM     81  C   UNL A   1      42.460  35.498  28.151  1.00  0.00     0.131 A 
ATOM     82  C   UNL A   1      44.798  36.771  27.415  1.00  0.00     0.055 A 
ATOM     83  C   UNL A   1      42.398  36.686  27.419  1.00  0.00     0.041 A 
ATOM     84  F   UNL A   1      41.298  34.929  28.513  1.00  0.00    -0.206 F 
ATOM     85  C   UNL A   1      43.572  37.336  27.059  1.00  0.00     0.022 A 
BRANCH  82  86
ATOM     86  S   UNL A   1      46.341  37.662  27.066  1.00  0.00     0.124 S 
ATOM     87  O   UNL A   1      47.151  37.317  28.229  1.00  0.00    -0.237 OA
ATOM     88  O   UNL A   1      46.752  37.069  25.798  1.00  0.00    -0.237 OA
ATOM     89  O   UNL A   1      45.917  39.058  26.991  1.00  0.00    -0.744 OA
ENDBRANCH  82  86
ENDBRANCH  55  79
BRANCH  67  90
ATOM     90  C   UNL A   1      42.921  33.803  35.360  1.00  0.00     0.023 A 
ATOM     91  C   UNL A   1      41.655  34.273  35.748  1.00  0.00     0.031 A 
ATOM     92  C   UNL A   1      44.041  34.234  36.095  1.00  0.00     0.131 A 
ATOM     93  C   UNL A   1      41.543  35.186  36.808  1.00  0.00     0.055 A 
ATOM     94  C   UNL A   1      43.917  35.092  37.188  1.00  0.00     0.041 A 
ATOM     95  F   UNL A   1      45.275  33.817  35.769  1.00  0.00    -0.206 F 
ATOM     96  C   UNL A   1      42.664  35.584  37.542  1.00  0.00     0.022 A 
BRANCH  93  97
ATOM     97  S   UNL A   1      39.922  35.918  37.160  1.00  0.00     0.124 S 
ATOM     98  O   UNL A   1      39.710  36.762  35.988  1.00  0.00    -0.237 OA
ATOM     99  O   UNL A   1      39.064  34.743  37.263  1.00  0.00    -0.237 OA
ATOM    100  O   UNL A   1      40.136  36.641  38.413  1.00  0.00    -0.744 OA
ENDBRANCH  93  97
ENDBRANCH  67  90
ENDBRANCH  41  42
ENDBRANCH  34  36
ENDBRANCH  33  34
ENDBRANCH  32  33
ENDBRANCH  31  32
ENDBRANCH  30  31
ENDBRANCH  29  30
ENDBRANCH  28  29
ENDBRANCH   1  28
TORSDOF 26
ENDMDL
MODEL 2
REMARK VINA RESULT:      -9.1      4.490     10.767
REMARK SMILES C[C@@H](NC(=O)c1cc(C(=O)OCCOCCOCCOCCOC(=O)c2ccc(-c3c4nc(c(-c5cc(S(=O)(=O)[O-])ccc5F)c5ccc([nH]5)c(-c5cc(S(=O)(=O)[O-])ccc5F)c5nc(c(-c6cc(S(=O)(=O)[O-])ccc6F)c6ccc3[nH]6)C=C5)C=C4)cc2)n(C)n1)c1ccccc1
REMARK SMILES IDX 17 1 16 2 15 3 14 4 13 5 12 6 11 7 9 8 10 9 8 10 6 11 7 12
REMARK SMILES IDX 91 13 89 14 90 15 4 16 3 17 5 19 2 20 1 21 92 22 93 23 97 24
REMARK SMILES IDX 94 25 96 26 95 27 18 28 19 29 20 30 21 31 22 32 23 33 24 34
REMARK SMILES IDX 25 35 26 36 27 37 88 38 28 39 87 40 29 41 30 42 31 43 81 44
REMARK SMILES IDX 32 45 86 46 80 47 82 48 33 49 85 50 79 51 78 52 34 54 66 55
REMARK SMILES IDX 46 56 65 57 47 58 50 59 64 60 83 61 48 62 49 63 63 65 84 66
REMARK SMILES IDX 51 67 35 68 36 69 44 70 37 71 43 72 45 73 42 74 38 75 39 76
REMARK SMILES IDX 40 77 41 78 67 79 68 80 76 81 69 82 75 83 77 84 74 85 70 86
REMARK SMILES IDX 71 87 72 88 73 89 52 90 53 91 61 92 54 93 60 94 62 95 59 96
REMARK SMILES IDX 55 97 56 98 57 99 58 100
REMARK H PARENT 3 18 82 53 50 64
REMARK Flexibility Score: inf
ROOT
ATOM      1  O   UNL A   1      34.326  35.176  29.105  1.00  0.00    -0.377 OA
ENDROOT
BRANCH   1   2
ATOM      2  C   UNL A   1      34.568  34.362  27.967  1.00  0.00     0.188 C 
BRANCH   2   3
ATOM      3  C   UNL A   1      33.869  32.998  28.070  1.00  0.00     0.188 C 
BRANCH   3   4
ATOM      4  O   UNL A   1      34.653  31.816  28.192  1.00  0.00    -0.376 OA
BRANCH   4   5
ATOM      5  C   UNL A   1      34.063  30.593  27.804  1.00  0.00     0.202 C 
BRANCH   5   6
ATOM      6  C   UNL A   1      33.214  30.579  26.521  1.00  0.00     0.261 C 
BRANCH   6   7
ATOM      7  O   UNL A   1      33.061  29.316  25.844  1.00  0.00    -0.459 OA
BRANCH   7   8
ATOM      8  C   UNL A   1      31.847  29.028  25.307  1.00  0.00     0.356 C 
ATOM      9  O   UNL A   1      31.055  29.874  24.901  1.00  0.00    -0.244 OA
BRANCH   8  10
ATOM     10  C   UNL A   1      31.615  27.594  25.248  1.00  0.00     0.146 A 
ATOM     11  C   UNL A   1      31.486  25.388  25.759  1.00  0.00     0.151 A 
ATOM     12  C   UNL A   1      31.733  26.681  26.294  1.00  0.00     0.071 A 
ATOM     13  N   UNL A   1      31.257  25.488  24.437  1.00  0.00    -0.167 NA
ATOM     14  N   UNL A   1      31.298  26.811  24.161  1.00  0.00    -0.260 N 
ATOM     15  C   UNL A   1      31.158  27.183  22.768  1.00  0.00     0.174 C 
BRANCH  11  16
ATOM     16  C   UNL A   1      31.653  24.063  26.394  1.00  0.00     0.272 C 
ATOM     17  N   UNL A   1      32.663  23.178  26.062  1.00  0.00    -0.344 N 
ATOM     18  H   UNL A   1      32.872  22.535  26.778  1.00  0.00     0.164 HD
ATOM     19  O   UNL A   1      30.911  23.708  27.315  1.00  0.00    -0.267 OA
BRANCH  17  20
ATOM     20  C   UNL A   1      33.484  23.001  24.865  1.00  0.00     0.109 C 
ATOM     21  C   UNL A   1      32.975  21.835  24.006  1.00  0.00     0.036 C 
BRANCH  20  22
ATOM     22  C   UNL A   1      34.940  22.815  25.168  1.00  0.00    -0.026 A 
ATOM     23  C   UNL A   1      35.569  21.629  24.770  1.00  0.00     0.006 A 
ATOM     24  C   UNL A   1      35.694  23.862  25.718  1.00  0.00     0.006 A 
ATOM     25  C   UNL A   1      36.950  21.543  24.810  1.00  0.00     0.000 A 
ATOM     26  C   UNL A   1      37.077  23.782  25.732  1.00  0.00     0.000 A 
ATOM     27  C   UNL A   1      37.695  22.634  25.256  1.00  0.00     0.000 A 
ENDBRANCH  20  22
ENDBRANCH  17  20
ENDBRANCH  11  16
ENDBRANCH   8  10
ENDBRANCH   7   8
ENDBRANCH   6   7
ENDBRANCH   5   6
ENDBRANCH   4   5
ENDBRANCH   3   4
ENDBRANCH   2   3
ENDBRANCH   1   2
BRANCH   1  28
ATOM     28  C   UNL A   1      33.051  34.963  29.694  1.00  0.00     0.188 C 
BRANCH  28  29
ATOM     29  C   UNL A   1      32.512  36.170  30.472  1.00  0.00     0.188 C 
BRANCH  29  30
ATOM     30  O   UNL A   1      33.579  36.982  30.976  1.00  0.00    -0.376 OA
BRANCH  30  31
ATOM     31  C   UNL A   1      33.537  37.279  32.367  1.00  0.00     0.202 C 
BRANCH  31  32
ATOM     32  C   UNL A   1      33.971  36.075  33.211  1.00  0.00     0.261 C 
BRANCH  32  33
ATOM     33  O   UNL A   1      35.045  35.313  32.639  1.00  0.00    -0.460 OA
BRANCH  33  34
ATOM     34  C   UNL A   1      34.941  33.967  32.738  1.00  0.00     0.338 C 
ATOM     35  O   UNL A   1      33.947  33.334  33.040  1.00  0.00    -0.246 OA
BRANCH  34  36
ATOM     36  C   UNL A   1      36.186  33.390  32.190  1.00  0.00     0.060 A 
ATOM     37  C   UNL A   1      36.871  32.445  32.962  1.00  0.00     0.016 A 
ATOM     38  C   UNL A   1      36.623  33.708  30.900  1.00  0.00     0.016 A 
ATOM     39  C   UNL A   1      37.991  31.801  32.438  1.00  0.00     0.010 A 
ATOM     40  C   UNL A   1      37.771  33.095  30.393  1.00  0.00     0.010 A 
ATOM     41  C   UNL A   1      38.469  32.154  31.168  1.00  0.00    -0.014 A 
BRANCH  41  42
ATOM     42  C   UNL A   1      39.836  31.741  30.782  1.00  0.00     0.031 A 
ATOM     43  C   UNL A   1      40.955  32.688  31.115  1.00  0.00     0.074 A 
ATOM     44  C   UNL A   1      40.084  30.561  30.186  1.00  0.00     0.049 A 
ATOM     45  N   UNL A   1      42.238  32.573  30.902  1.00  0.00    -0.248 NA
ATOM     46  C   UNL A   1      40.564  33.940  31.787  1.00  0.00     0.031 C 
ATOM     47  C   UNL A   1      39.082  29.549  29.859  1.00  0.00     0.029 A 
ATOM     48  N   UNL A   1      41.267  30.017  29.751  1.00  0.00    -0.354 N 
ATOM     49  C   UNL A   1      42.810  33.724  31.431  1.00  0.00     0.074 A 
ATOM     50  C   UNL A   1      41.730  34.543  31.935  1.00  0.00     0.031 C 
ATOM     51  C   UNL A   1      39.693  28.509  29.262  1.00  0.00     0.029 A 
ATOM     52  C   UNL A   1      41.122  28.795  29.137  1.00  0.00     0.049 A 
ATOM     53  H   UNL A   1      42.138  30.461  29.866  1.00  0.00     0.167 HD
ATOM     54  C   UNL A   1      44.118  34.065  31.497  1.00  0.00     0.034 A 
ATOM     55  C   UNL A   1      42.041  28.013  28.532  1.00  0.00     0.034 A 
ATOM     56  C   UNL A   1      45.176  33.261  30.942  1.00  0.00     0.049 A 
ATOM     57  C   UNL A   1      43.484  28.467  28.515  1.00  0.00     0.074 A 
ATOM     58  C   UNL A   1      46.535  33.511  30.929  1.00  0.00     0.029 A 
ATOM     59  N   UNL A   1      44.986  32.056  30.275  1.00  0.00    -0.354 N 
ATOM     60  N   UNL A   1      44.018  29.551  29.034  1.00  0.00    -0.248 NA
ATOM     61  C   UNL A   1      44.448  27.591  27.836  1.00  0.00     0.031 C 
ATOM     62  C   UNL A   1      47.158  32.499  30.192  1.00  0.00     0.029 A 
ATOM     63  C   UNL A   1      46.199  31.570  29.817  1.00  0.00     0.049 A 
ATOM     64  H   UNL A   1      44.116  31.613  30.147  1.00  0.00     0.167 HD
ATOM     65  C   UNL A   1      45.385  29.464  28.775  1.00  0.00     0.074 A 
ATOM     66  C   UNL A   1      45.592  28.221  28.063  1.00  0.00     0.031 C 
ATOM     67  C   UNL A   1      46.381  30.328  29.101  1.00  0.00     0.034 A 
BRANCH  54  68
ATOM     68  C   UNL A   1      44.449  35.393  32.130  1.00  0.00     0.023 A 
ATOM     69  C   UNL A   1      44.410  36.591  31.393  1.00  0.00     0.031 A 
ATOM     70  C   UNL A   1      44.870  35.456  33.469  1.00  0.00     0.131 A 
ATOM     71  C   UNL A   1      44.857  37.786  31.978  1.00  0.00     0.055 A 
ATOM     72  C   UNL A   1      45.234  36.662  34.069  1.00  0.00     0.041 A 
ATOM     73  F   UNL A   1      44.957  34.340  34.210  1.00  0.00    -0.206 F 
ATOM     74  C   UNL A   1      45.244  37.834  33.319  1.00  0.00     0.022 A 
BRANCH  71  75
ATOM     75  S   UNL A   1      45.069  39.243  30.918  1.00  0.00     0.124 S 
ATOM     76  O   UNL A   1      45.682  40.194  31.844  1.00  0.00    -0.237 OA
ATOM     77  O   UNL A   1      45.932  38.739  29.856  1.00  0.00    -0.237 OA
ATOM     78  O   UNL A   1      43.705  39.573  30.511  1.00  0.00    -0.744 OA
ENDBRANCH  71  75
ENDBRANCH  54  68
BRANCH  55  79
ATOM     79  C   UNL A   1      41.637  26.747  27.852  1.00  0.00     0.023 A 
ATOM     80  C   UNL A   1      41.954  25.490  28.394  1.00  0.00     0.031 A 
ATOM     81  C   UNL A   1      40.989  26.777  26.603  1.00  0.00     0.131 A 
ATOM     82  C   UNL A   1      41.667  24.320  27.669  1.00  0.00     0.055 A 
ATOM     83  C   UNL A   1      40.658  25.610  25.911  1.00  0.00     0.041 A 
ATOM     84  F   UNL A   1      40.667  27.950  26.033  1.00  0.00    -0.206 F 
ATOM     85  C   UNL A   1      41.010  24.372  26.438  1.00  0.00     0.022 A 
BRANCH  82  86
ATOM     86  S   UNL A   1      42.248  22.728  28.319  1.00  0.00     0.124 S 
ATOM     87  O   UNL A   1      42.777  23.115  29.622  1.00  0.00    -0.237 OA
ATOM     88  O   UNL A   1      41.019  21.941  28.331  1.00  0.00    -0.237 OA
ATOM     89  O   UNL A   1      43.246  22.306  27.339  1.00  0.00    -0.744 OA
ENDBRANCH  82  86
ENDBRANCH  55  79
BRANCH  67  90
ATOM     90  C   UNL A   1      47.789  29.929  28.732  1.00  0.00     0.023 A 
ATOM     91  C   UNL A   1      48.568  29.099  29.556  1.00  0.00     0.031 A 
ATOM     92  C   UNL A   1      48.357  30.386  27.528  1.00  0.00     0.131 A 
ATOM     93  C   UNL A   1      49.888  28.793  29.193  1.00  0.00     0.055 A 
ATOM     94  C   UNL A   1      49.648  30.026  27.141  1.00  0.00     0.041 A 
ATOM     95  F   UNL A   1      47.660  31.181  26.701  1.00  0.00    -0.206 F 
ATOM     96  C   UNL A   1      50.427  29.236  27.982  1.00  0.00     0.022 A 
BRANCH  93  97
ATOM     97  S   UNL A   1      50.926  27.881  30.367  1.00  0.00     0.124 S 
ATOM     98  O   UNL A   1      50.302  26.562  30.361  1.00  0.00    -0.237 OA
ATOM     99  O   UNL A   1      52.245  27.965  29.750  1.00  0.00    -0.237 OA
ATOM    100  O   UNL A   1      50.776  28.631  31.613  1.00  0.00    -0.744 OA
ENDBRANCH  93  97
ENDBRANCH  67  90
ENDBRANCH  41  42
ENDBRANCH  34  36
ENDBRANCH  33  34
ENDBRANCH  32  33
ENDBRANCH  31  32
ENDBRANCH  30  31
ENDBRANCH  29  30
ENDBRANCH  28  29
ENDBRANCH   1  28
TORSDOF 26
ENDMDL
MODEL 3
REMARK VINA RESULT:      -8.9      4.709      9.061
REMARK SMILES C[C@@H](NC(=O)c1cc(C(=O)OCCOCCOCCOCCOC(=O)c2ccc(-c3c4nc(c(-c5cc(S(=O)(=O)[O-])ccc5F)c5ccc([nH]5)c(-c5cc(S(=O)(=O)[O-])ccc5F)c5nc(c(-c6cc(S(=O)(=O)[O-])ccc6F)c6ccc3[nH]6)C=C5)C=C4)cc2)n(C)n1)c1ccccc1
REMARK SMILES IDX 17 1 16 2 15 3 14 4 13 5 12 6 11 7 9 8 10 9 8 10 6 11 7 12
REMARK SMILES IDX 91 13 89 14 90 15 4 16 3 17 5 19 2 20 1 21 92 22 93 23 97 24
REMARK SMILES IDX 94 25 96 26 95 27 18 28 19 29 20 30 21 31 22 32 23 33 24 34
REMARK SMILES IDX 25 35 26 36 27 37 88 38 28 39 87 40 29 41 30 42 31 43 81 44
REMARK SMILES IDX 32 45 86 46 80 47 82 48 33 49 85 50 79 51 78 52 34 54 66 55
REMARK SMILES IDX 46 56 65 57 47 58 50 59 64 60 83 61 48 62 49 63 63 65 84 66
REMARK SMILES IDX 51 67 35 68 36 69 44 70 37 71 43 72 45 73 42 74 38 75 39 76
REMARK SMILES IDX 40 77 41 78 67 79 68 80 76 81 69 82 75 83 77 84 74 85 70 86
REMARK SMILES IDX 71 87 72 88 73 89 52 90 53 91 61 92 54 93 60 94 62 95 59 96
REMARK SMILES IDX 55 97 56 98 57 99 58 100
REMARK H PARENT 3 18 82 53 50 64
REMARK Flexibility Score: inf
ROOT
ATOM      1  O   UNL A   1      39.093  27.491  29.102  1.00  0.00    -0.377 OA
ENDROOT
BRANCH   1   2
ATOM      2  C   UNL A   1      39.529  26.757  27.969  1.00  0.00     0.188 C 
BRANCH   2   3
ATOM      3  C   UNL A   1      40.097  25.381  28.350  1.00  0.00     0.188 C 
BRANCH   3   4
ATOM      4  O   UNL A   1      39.847  24.262  27.508  1.00  0.00    -0.376 OA
BRANCH   4   5
ATOM      5  C   UNL A   1      38.556  24.139  26.946  1.00  0.00     0.202 C 
BRANCH   5   6
ATOM      6  C   UNL A   1      38.264  22.903  26.079  1.00  0.00     0.261 C 
BRANCH   6   7
ATOM      7  O   UNL A   1      37.246  23.032  25.067  1.00  0.00    -0.459 OA
BRANCH   7   8
ATOM      8  C   UNL A   1      35.979  22.664  25.391  1.00  0.00     0.356 C 
ATOM      9  O   UNL A   1      35.683  22.029  26.399  1.00  0.00    -0.244 OA
BRANCH   8  10
ATOM     10  C   UNL A   1      35.017  23.139  24.410  1.00  0.00     0.146 A 
ATOM     11  C   UNL A   1      33.783  24.448  23.029  1.00  0.00     0.151 A 
ATOM     12  C   UNL A   1      34.909  24.429  23.895  1.00  0.00     0.071 A 
ATOM     13  N   UNL A   1      33.198  23.236  23.029  1.00  0.00    -0.167 NA
ATOM     14  N   UNL A   1      33.970  22.461  23.825  1.00  0.00    -0.260 N 
ATOM     15  C   UNL A   1      33.503  21.110  24.058  1.00  0.00     0.174 C 
BRANCH  11  16
ATOM     16  C   UNL A   1      33.128  25.596  22.368  1.00  0.00     0.272 C 
ATOM     17  N   UNL A   1      32.316  26.500  23.031  1.00  0.00    -0.344 N 
ATOM     18  H   UNL A   1      32.255  27.374  22.582  1.00  0.00     0.164 HD
ATOM     19  O   UNL A   1      33.334  25.838  21.173  1.00  0.00    -0.267 OA
BRANCH  17  20
ATOM     20  C   UNL A   1      31.529  26.421  24.261  1.00  0.00     0.109 C 
ATOM     21  C   UNL A   1      30.097  26.930  24.040  1.00  0.00     0.036 C 
BRANCH  20  22
ATOM     22  C   UNL A   1      32.157  27.146  25.412  1.00  0.00    -0.026 A 
ATOM     23  C   UNL A   1      33.464  27.630  25.277  1.00  0.00     0.006 A 
ATOM     24  C   UNL A   1      31.406  27.456  26.555  1.00  0.00     0.006 A 
ATOM     25  C   UNL A   1      33.965  28.512  26.218  1.00  0.00     0.000 A 
ATOM     26  C   UNL A   1      31.901  28.360  27.481  1.00  0.00     0.000 A 
ATOM     27  C   UNL A   1      33.166  28.899  27.293  1.00  0.00     0.000 A 
ENDBRANCH  20  22
ENDBRANCH  17  20
ENDBRANCH  11  16
ENDBRANCH   8  10
ENDBRANCH   7   8
ENDBRANCH   6   7
ENDBRANCH   5   6
ENDBRANCH   4   5
ENDBRANCH   3   4
ENDBRANCH   2   3
ENDBRANCH   1   2
BRANCH   1  28
ATOM     28  C   UNL A   1      38.499  28.740  28.775  1.00  0.00     0.188 C 
BRANCH  28  29
ATOM     29  C   UNL A   1      37.375  29.166  29.728  1.00  0.00     0.188 C 
BRANCH  29  30
ATOM     30  O   UNL A   1      36.277  29.742  29.011  1.00  0.00    -0.376 OA
BRANCH  30  31
ATOM     31  C   UNL A   1      36.613  30.685  28.001  1.00  0.00     0.202 C 
BRANCH  31  32
ATOM     32  C   UNL A   1      35.575  31.810  27.915  1.00  0.00     0.261 C 
BRANCH  32  33
ATOM     33  O   UNL A   1      34.608  31.799  28.975  1.00  0.00    -0.460 OA
BRANCH  33  34
ATOM     34  C   UNL A   1      34.524  32.927  29.718  1.00  0.00     0.338 C 
ATOM     35  O   UNL A   1      33.683  33.801  29.623  1.00  0.00    -0.246 OA
BRANCH  34  36
ATOM     36  C   UNL A   1      35.499  32.799  30.821  1.00  0.00     0.060 A 
ATOM     37  C   UNL A   1      36.401  33.850  31.029  1.00  0.00     0.016 A 
ATOM     38  C   UNL A   1      35.468  31.704  31.691  1.00  0.00     0.016 A 
ATOM     39  C   UNL A   1      37.267  33.814  32.122  1.00  0.00     0.010 A 
ATOM     40  C   UNL A   1      36.366  31.649  32.758  1.00  0.00     0.010 A 
ATOM     41  C   UNL A   1      37.281  32.695  32.966  1.00  0.00    -0.014 A 
BRANCH  41  42
ATOM     42  C   UNL A   1      38.428  32.508  33.881  1.00  0.00     0.031 A 
ATOM     43  C   UNL A   1      39.690  31.945  33.289  1.00  0.00     0.074 A 
ATOM     44  C   UNL A   1      38.367  32.850  35.180  1.00  0.00     0.049 A 
ATOM     45  N   UNL A   1      40.838  31.692  33.856  1.00  0.00    -0.248 NA
ATOM     46  C   UNL A   1      39.644  31.630  31.850  1.00  0.00     0.031 C 
ATOM     47  C   UNL A   1      37.212  33.445  35.848  1.00  0.00     0.029 A 
ATOM     48  N   UNL A   1      39.311  32.743  36.172  1.00  0.00    -0.354 N 
ATOM     49  C   UNL A   1      41.657  31.208  32.842  1.00  0.00     0.074 A 
ATOM     50  C   UNL A   1      40.861  31.162  31.637  1.00  0.00     0.031 C 
ATOM     51  C   UNL A   1      37.511  33.639  37.146  1.00  0.00     0.029 A 
ATOM     52  C   UNL A   1      38.867  33.156  37.407  1.00  0.00     0.049 A 
ATOM     53  H   UNL A   1      40.220  32.402  36.014  1.00  0.00     0.167 HD
ATOM     54  C   UNL A   1      42.958  30.840  32.910  1.00  0.00     0.034 A 
ATOM     55  C   UNL A   1      39.485  33.126  38.606  1.00  0.00     0.034 A 
ATOM     56  C   UNL A   1      43.720  30.842  34.132  1.00  0.00     0.049 A 
ATOM     57  C   UNL A   1      40.903  32.602  38.681  1.00  0.00     0.074 A 
ATOM     58  C   UNL A   1      45.037  30.472  34.328  1.00  0.00     0.029 A 
ATOM     59  N   UNL A   1      43.220  31.211  35.375  1.00  0.00    -0.354 N 
ATOM     60  N   UNL A   1      41.675  32.162  37.712  1.00  0.00    -0.248 NA
ATOM     61  C   UNL A   1      41.532  32.577  40.007  1.00  0.00     0.031 C 
ATOM     62  C   UNL A   1      45.312  30.545  35.698  1.00  0.00     0.029 A 
ATOM     63  C   UNL A   1      44.192  31.043  36.347  1.00  0.00     0.049 A 
ATOM     64  H   UNL A   1      42.308  31.542  35.540  1.00  0.00     0.167 HD
ATOM     65  C   UNL A   1      42.893  31.844  38.311  1.00  0.00     0.074 A 
ATOM     66  C   UNL A   1      42.754  32.152  39.718  1.00  0.00     0.031 C 
ATOM     67  C   UNL A   1      44.027  31.350  37.749  1.00  0.00     0.034 A 
BRANCH  54  68
ATOM     68  C   UNL A   1      43.595  30.343  31.637  1.00  0.00     0.023 A 
ATOM     69  C   UNL A   1      43.549  28.986  31.270  1.00  0.00     0.031 A 
ATOM     70  C   UNL A   1      44.315  31.224  30.813  1.00  0.00     0.131 A 
ATOM     71  C   UNL A   1      44.270  28.538  30.152  1.00  0.00     0.055 A 
ATOM     72  C   UNL A   1      44.961  30.787  29.657  1.00  0.00     0.041 A 
ATOM     73  F   UNL A   1      44.421  32.524  31.132  1.00  0.00    -0.206 F 
ATOM     74  C   UNL A   1      44.955  29.434  29.328  1.00  0.00     0.022 A 
BRANCH  71  75
ATOM     75  S   UNL A   1      44.426  26.752  29.879  1.00  0.00     0.124 S 
ATOM     76  O   UNL A   1      43.429  26.526  28.834  1.00  0.00    -0.237 OA
ATOM     77  O   UNL A   1      45.820  26.614  29.474  1.00  0.00    -0.237 OA
ATOM     78  O   UNL A   1      44.094  26.176  31.180  1.00  0.00    -0.744 OA
ENDBRANCH  71  75
ENDBRANCH  54  68
BRANCH  55  79
ATOM     79  C   UNL A   1      38.771  33.557  39.844  1.00  0.00     0.023 A 
ATOM     80  C   UNL A   1      37.885  32.698  40.517  1.00  0.00     0.031 A 
ATOM     81  C   UNL A   1      38.910  34.869  40.334  1.00  0.00     0.131 A 
ATOM     82  C   UNL A   1      37.137  33.175  41.607  1.00  0.00     0.055 A 
ATOM     83  C   UNL A   1      38.204  35.322  41.450  1.00  0.00     0.041 A 
ATOM     84  F   UNL A   1      39.738  35.736  39.728  1.00  0.00    -0.206 F 
ATOM     85  C   UNL A   1      37.301  34.476  42.086  1.00  0.00     0.022 A 
BRANCH  82  86
ATOM     86  S   UNL A   1      35.876  32.093  42.338  1.00  0.00     0.124 S 
ATOM     87  O   UNL A   1      35.102  33.038  43.135  1.00  0.00    -0.237 OA
ATOM     88  O   UNL A   1      35.215  31.556  41.154  1.00  0.00    -0.237 OA
ATOM     89  O   UNL A   1      36.661  31.127  43.103  1.00  0.00    -0.744 OA
ENDBRANCH  82  86
ENDBRANCH  55  79
BRANCH  67  90
ATOM     90  C   UNL A   1      45.220  31.160  38.655  1.00  0.00     0.023 A 
ATOM     91  C   UNL A   1      45.455  29.952  39.333  1.00  0.00     0.031 A 
ATOM     92  C   UNL A   1      46.140  32.210  38.835  1.00  0.00     0.131 A 
ATOM     93  C   UNL A   1      46.553  29.839  40.200  1.00  0.00     0.055 A 
ATOM     94  C   UNL A   1      47.265  32.070  39.648  1.00  0.00     0.041 A 
ATOM     95  F   UNL A   1      45.965  33.387  38.213  1.00  0.00    -0.206 F 
ATOM     96  C   UNL A   1      47.470  30.884  40.347  1.00  0.00     0.022 A 
BRANCH  93  97
ATOM     97  S   UNL A   1      46.721  28.338  41.202  1.00  0.00     0.124 S 
ATOM     98  O   UNL A   1      45.475  28.339  41.961  1.00  0.00    -0.237 OA
ATOM     99  O   UNL A   1      46.848  27.296  40.188  1.00  0.00    -0.237 OA
ATOM    100  O   UNL A   1      47.927  28.584  41.991  1.00  0.00    -0.744 OA
ENDBRANCH  93  97
ENDBRANCH  67  90
ENDBRANCH  41  42
ENDBRANCH  34  36
ENDBRANCH  33  34
ENDBRANCH  32  33
ENDBRANCH  31  32
ENDBRANCH  30  31
ENDBRANCH  29  30
ENDBRANCH  28  29
ENDBRANCH   1  28
TORSDOF 26
ENDMDL
