MODEL 1
REMARK VINA RESULT:      -9.9      0.000      0.000
REMARK SMILES CC(C)[C@@H]1C(=O)Nc2ccccc2N1C(=O)N[C@H](Cc1ccccc1)C(=O)OCCOCCOCCOCCOC(=O)c1ccc(-c2c3nc(c(-c4cc(S(=O)(=O)[O-])ccc4F)c4ccc([nH]4)c(-c4cc(S(=O)(=O)[O-])ccc4F)c4nc(c(-c5cc(S(=O)(=O)[O-])ccc5F)c5ccc2[nH]5)C=C4)C=C3)cc1
REMARK SMILES IDX 34 1 33 2 32 3 31 4 30 5 29 6 28 7 26 8 27 9 18 10 17 11
REMARK SMILES IDX 15 12 16 13 14 15 4 16 5 17 6 18 7 19 13 20 8 21 12 23 9 24
REMARK SMILES IDX 11 25 10 26 2 27 1 28 3 29 19 30 20 31 21 32 25 33 22 34
REMARK SMILES IDX 24 35 23 36 35 37 36 38 37 39 38 40 39 41 40 42 41 43 42 44
REMARK SMILES IDX 43 45 44 46 105 47 45 48 104 49 46 50 47 51 48 52 98 53
REMARK SMILES IDX 49 54 103 55 97 56 99 57 50 58 102 59 96 60 95 61 51 63
REMARK SMILES IDX 83 64 63 65 82 66 64 67 67 68 81 69 100 70 65 71 66 72 80 74
REMARK SMILES IDX 101 75 68 76 52 77 53 78 61 79 54 80 60 81 62 82 59 83 55 84
REMARK SMILES IDX 56 85 57 86 58 87 84 88 85 89 93 90 86 91 92 92 94 93 91 94
REMARK SMILES IDX 87 95 88 96 89 97 90 98 69 99 70 100 78 101 71 102 77 103
REMARK SMILES IDX 79 104 76 105 72 106 73 107 74 108 75 109
REMARK H PARENT 17 14 7 22 99 62 67 73
REMARK Flexibility Score: inf
ROOT
ATOM      1  O   UNL A   1      33.788  34.336  28.243  1.00  0.00    -0.377 OA
ENDROOT
BRANCH   1   2
ATOM      2  C   UNL A   1      34.328  33.354  29.117  1.00  0.00     0.188 C 
BRANCH   2   3
ATOM      3  C   UNL A   1      34.629  32.053  28.362  1.00  0.00     0.188 C 
BRANCH   3   4
ATOM      4  O   UNL A   1      33.787  31.843  27.232  1.00  0.00    -0.376 OA
BRANCH   4   5
ATOM      5  C   UNL A   1      33.098  30.589  27.186  1.00  0.00     0.202 C 
BRANCH   5   6
ATOM      6  C   UNL A   1      33.902  29.414  26.588  1.00  0.00     0.261 C 
BRANCH   6   7
ATOM      7  O   UNL A   1      33.173  28.495  25.720  1.00  0.00    -0.462 OA
BRANCH   7   8
ATOM      8  C   UNL A   1      32.914  27.219  26.133  1.00  0.00     0.329 C 
ATOM      9  O   UNL A   1      32.272  26.983  27.158  1.00  0.00    -0.250 OA
BRANCH   8  10
ATOM     10  C   UNL A   1      33.717  26.061  25.386  1.00  0.00     0.198 C 
BRANCH  10  11
ATOM     11  N   UNL A   1      33.511  26.289  23.956  1.00  0.00    -0.324 N 
ATOM     12  C   UNL A   1      32.915  25.492  23.032  1.00  0.00     0.323 C 
ATOM     13  O   UNL A   1      33.431  25.566  21.911  1.00  0.00    -0.248 OA
ATOM     14  H   UNL A   1      33.858  27.144  23.613  1.00  0.00     0.166 HD
BRANCH  12  15
ATOM     15  N   UNL A   1      31.652  24.973  23.264  1.00  0.00    -0.280 N 
ATOM     16  C   UNL A   1      30.382  25.657  23.863  1.00  0.00     0.184 C 
ATOM     17  C   UNL A   1      30.185  25.210  25.344  1.00  0.00     0.247 C 
ATOM     18  O   UNL A   1      29.543  25.814  26.201  1.00  0.00    -0.272 OA
ATOM     19  N   UNL A   1      30.540  23.941  25.666  1.00  0.00    -0.322 N 
ATOM     20  C   UNL A   1      31.746  23.553  23.610  1.00  0.00     0.070 A 
ATOM     21  C   UNL A   1      31.228  23.091  24.820  1.00  0.00     0.065 A 
ATOM     22  H   UNL A   1      30.292  23.604  26.557  1.00  0.00     0.170 HD
ATOM     23  C   UNL A   1      32.529  22.662  22.851  1.00  0.00     0.028 A 
ATOM     24  C   UNL A   1      31.497  21.800  25.279  1.00  0.00     0.028 A 
ATOM     25  C   UNL A   1      32.774  21.355  23.298  1.00  0.00     0.002 A 
ATOM     26  C   UNL A   1      32.262  20.927  24.517  1.00  0.00     0.002 A 
BRANCH  16  27
ATOM     27  C   UNL A   1      30.121  27.218  23.684  1.00  0.00     0.015 C 
ATOM     28  C   UNL A   1      30.870  27.942  22.547  1.00  0.00     0.010 C 
ATOM     29  C   UNL A   1      28.661  27.672  23.474  1.00  0.00     0.010 C 
ENDBRANCH  16  27
ENDBRANCH  12  15
ENDBRANCH  10  11
BRANCH  10  30
ATOM     30  C   UNL A   1      34.026  24.508  25.486  1.00  0.00     0.072 C 
BRANCH  30  31
ATOM     31  C   UNL A   1      35.226  23.653  25.116  1.00  0.00    -0.045 A 
ATOM     32  C   UNL A   1      35.726  22.698  26.037  1.00  0.00     0.004 A 
ATOM     33  C   UNL A   1      35.735  23.618  23.821  1.00  0.00     0.004 A 
ATOM     34  C   UNL A   1      36.750  21.805  25.706  1.00  0.00     0.000 A 
ATOM     35  C   UNL A   1      36.726  22.686  23.471  1.00  0.00     0.000 A 
ATOM     36  C   UNL A   1      37.245  21.795  24.412  1.00  0.00     0.000 A 
ENDBRANCH  30  31
ENDBRANCH  10  30
ENDBRANCH   8  10
ENDBRANCH   7   8
ENDBRANCH   6   7
ENDBRANCH   5   6
ENDBRANCH   4   5
ENDBRANCH   3   4
ENDBRANCH   2   3
ENDBRANCH   1   2
BRANCH   1  37
ATOM     37  C   UNL A   1      32.880  35.297  28.753  1.00  0.00     0.188 C 
BRANCH  37  38
ATOM     38  C   UNL A   1      33.238  35.964  30.080  1.00  0.00     0.188 C 
BRANCH  38  39
ATOM     39  O   UNL A   1      32.470  35.600  31.225  1.00  0.00    -0.376 OA
BRANCH  39  40
ATOM     40  C   UNL A   1      33.029  35.808  32.519  1.00  0.00     0.202 C 
BRANCH  40  41
ATOM     41  C   UNL A   1      34.523  35.522  32.672  1.00  0.00     0.261 C 
BRANCH  41  42
ATOM     42  O   UNL A   1      34.771  34.424  33.559  1.00  0.00    -0.460 OA
BRANCH  42  43
ATOM     43  C   UNL A   1      34.726  33.202  32.995  1.00  0.00     0.338 C 
ATOM     44  O   UNL A   1      33.734  32.615  32.572  1.00  0.00    -0.246 OA
BRANCH  43  45
ATOM     45  C   UNL A   1      36.091  32.700  32.816  1.00  0.00     0.060 A 
ATOM     46  C   UNL A   1      37.093  33.131  33.693  1.00  0.00     0.016 A 
ATOM     47  C   UNL A   1      36.394  31.906  31.709  1.00  0.00     0.016 A 
ATOM     48  C   UNL A   1      38.422  32.824  33.428  1.00  0.00     0.010 A 
ATOM     49  C   UNL A   1      37.727  31.610  31.437  1.00  0.00     0.010 A 
ATOM     50  C   UNL A   1      38.745  32.112  32.267  1.00  0.00    -0.014 A 
BRANCH  50  51
ATOM     51  C   UNL A   1      40.144  32.083  31.791  1.00  0.00     0.031 A 
ATOM     52  C   UNL A   1      41.017  30.942  32.231  1.00  0.00     0.074 A 
ATOM     53  C   UNL A   1      40.618  33.041  30.978  1.00  0.00     0.049 A 
ATOM     54  N   UNL A   1      42.299  30.762  32.057  1.00  0.00    -0.248 NA
ATOM     55  C   UNL A   1      40.348  29.859  32.970  1.00  0.00     0.031 C 
ATOM     56  C   UNL A   1      39.826  34.129  30.408  1.00  0.00     0.029 A 
ATOM     57  N   UNL A   1      41.883  33.253  30.499  1.00  0.00    -0.354 N 
ATOM     58  C   UNL A   1      42.593  29.550  32.672  1.00  0.00     0.074 A 
ATOM     59  C   UNL A   1      41.364  29.062  33.258  1.00  0.00     0.031 C 
ATOM     60  C   UNL A   1      40.637  34.907  29.671  1.00  0.00     0.029 A 
ATOM     61  C   UNL A   1      42.004  34.413  29.775  1.00  0.00     0.049 A 
ATOM     62  H   UNL A   1      42.633  32.635  30.658  1.00  0.00     0.167 HD
ATOM     63  C   UNL A   1      43.784  28.907  32.733  1.00  0.00     0.034 A 
ATOM     64  C   UNL A   1      43.098  35.029  29.287  1.00  0.00     0.034 A 
ATOM     65  C   UNL A   1      44.995  29.432  32.154  1.00  0.00     0.049 A 
ATOM     66  C   UNL A   1      44.438  34.365  29.479  1.00  0.00     0.074 A 
ATOM     67  C   UNL A   1      46.263  28.879  32.154  1.00  0.00     0.029 A 
ATOM     68  N   UNL A   1      45.092  30.644  31.479  1.00  0.00    -0.354 N 
ATOM     69  N   UNL A   1      44.717  33.230  30.079  1.00  0.00    -0.248 NA
ATOM     70  C   UNL A   1      45.605  35.050  28.914  1.00  0.00     0.031 C 
ATOM     71  C   UNL A   1      47.138  29.791  31.555  1.00  0.00     0.029 A 
ATOM     72  C   UNL A   1      46.402  30.871  31.092  1.00  0.00     0.049 A 
ATOM     73  H   UNL A   1      44.338  31.253  31.303  1.00  0.00     0.167 HD
ATOM     74  C   UNL A   1      46.086  33.043  29.919  1.00  0.00     0.074 A 
ATOM     75  C   UNL A   1      46.573  34.181  29.167  1.00  0.00     0.031 C 
ATOM     76  C   UNL A   1      46.867  32.016  30.343  1.00  0.00     0.034 A 
BRANCH  63  77
ATOM     77  C   UNL A   1      43.834  27.609  33.504  1.00  0.00     0.023 A 
ATOM     78  C   UNL A   1      43.852  27.581  34.910  1.00  0.00     0.031 A 
ATOM     79  C   UNL A   1      43.909  26.382  32.822  1.00  0.00     0.131 A 
ATOM     80  C   UNL A   1      44.021  26.362  35.584  1.00  0.00     0.055 A 
ATOM     81  C   UNL A   1      43.988  25.164  33.501  1.00  0.00     0.041 A 
ATOM     82  F   UNL A   1      43.925  26.345  31.480  1.00  0.00    -0.206 F 
ATOM     83  C   UNL A   1      44.061  25.150  34.890  1.00  0.00     0.022 A 
BRANCH  80  84
ATOM     84  S   UNL A   1      44.348  26.396  37.369  1.00  0.00     0.124 S 
ATOM     85  O   UNL A   1      45.499  27.292  37.440  1.00  0.00    -0.237 OA
ATOM     86  O   UNL A   1      43.098  26.918  37.908  1.00  0.00    -0.237 OA
ATOM     87  O   UNL A   1      44.633  25.000  37.691  1.00  0.00    -0.744 OA
ENDBRANCH  80  84
ENDBRANCH  63  77
BRANCH  64  88
ATOM     88  C   UNL A   1      42.982  36.351  28.608  1.00  0.00     0.023 A 
ATOM     89  C   UNL A   1      43.190  37.545  29.314  1.00  0.00     0.031 A 
ATOM     90  C   UNL A   1      42.622  36.443  27.251  1.00  0.00     0.131 A 
ATOM     91  C   UNL A   1      42.983  38.778  28.677  1.00  0.00     0.055 A 
ATOM     92  C   UNL A   1      42.473  37.672  26.606  1.00  0.00     0.041 A 
ATOM     93  F   UNL A   1      42.421  35.331  26.524  1.00  0.00    -0.206 F 
ATOM     94  C   UNL A   1      42.640  38.851  27.326  1.00  0.00     0.022 A 
BRANCH  91  95
ATOM     95  S   UNL A   1      43.084  40.290  29.673  1.00  0.00     0.124 S 
ATOM     96  O   UNL A   1      41.675  40.637  29.825  1.00  0.00    -0.237 OA
ATOM     97  O   UNL A   1      43.762  39.814  30.873  1.00  0.00    -0.237 OA
ATOM     98  O   UNL A   1      43.865  41.197  28.835  1.00  0.00    -0.744 OA
ENDBRANCH  91  95
ENDBRANCH  64  88
BRANCH  76  99
ATOM     99  C   UNL A   1      48.320  32.046  29.936  1.00  0.00     0.023 A 
ATOM    100  C   UNL A   1      48.819  31.258  28.885  1.00  0.00     0.031 A 
ATOM    101  C   UNL A   1      49.219  32.888  30.617  1.00  0.00     0.131 A 
ATOM    102  C   UNL A   1      50.188  31.288  28.582  1.00  0.00     0.055 A 
ATOM    103  C   UNL A   1      50.566  32.966  30.264  1.00  0.00     0.041 A 
ATOM    104  F   UNL A   1      48.799  33.658  31.633  1.00  0.00    -0.206 F 
ATOM    105  C   UNL A   1      51.060  32.152  29.250  1.00  0.00     0.022 A 
BRANCH 102 106
ATOM    106  S   UNL A   1      50.834  30.106  27.368  1.00  0.00     0.124 S 
ATOM    107  O   UNL A   1      52.156  30.655  27.085  1.00  0.00    -0.237 OA
ATOM    108  O   UNL A   1      50.811  28.850  28.111  1.00  0.00    -0.237 OA
ATOM    109  O   UNL A   1      49.878  30.191  26.266  1.00  0.00    -0.744 OA
ENDBRANCH 102 106
ENDBRANCH  76  99
ENDBRANCH  50  51
ENDBRANCH  43  45
ENDBRANCH  42  43
ENDBRANCH  41  42
ENDBRANCH  40  41
ENDBRANCH  39  40
ENDBRANCH  38  39
ENDBRANCH  37  38
ENDBRANCH   1  37
TORSDOF 28
ENDMDL
MODEL 2
REMARK VINA RESULT:      -9.7      4.690      7.089
REMARK SMILES CC(C)[C@@H]1C(=O)Nc2ccccc2N1C(=O)N[C@H](Cc1ccccc1)C(=O)OCCOCCOCCOCCOC(=O)c1ccc(-c2c3nc(c(-c4cc(S(=O)(=O)[O-])ccc4F)c4ccc([nH]4)c(-c4cc(S(=O)(=O)[O-])ccc4F)c4nc(c(-c5cc(S(=O)(=O)[O-])ccc5F)c5ccc2[nH]5)C=C4)C=C3)cc1
REMARK SMILES IDX 34 1 33 2 32 3 31 4 30 5 29 6 28 7 26 8 27 9 18 10 17 11
REMARK SMILES IDX 15 12 16 13 14 15 4 16 5 17 6 18 7 19 13 20 8 21 12 23 9 24
REMARK SMILES IDX 11 25 10 26 2 27 1 28 3 29 19 30 20 31 21 32 25 33 22 34
REMARK SMILES IDX 24 35 23 36 35 37 36 38 37 39 38 40 39 41 40 42 41 43 42 44
REMARK SMILES IDX 43 45 44 46 105 47 45 48 104 49 46 50 47 51 48 52 98 53
REMARK SMILES IDX 49 54 103 55 97 56 99 57 50 58 102 59 96 60 95 61 51 63
REMARK SMILES IDX 83 64 63 65 82 66 64 67 67 68 81 69 100 70 65 71 66 72 80 74
REMARK SMILES IDX 101 75 68 76 52 77 53 78 61 79 54 80 60 81 62 82 59 83 55 84
REMARK SMILES IDX 56 85 57 86 58 87 84 88 85 89 93 90 86 91 92 92 94 93 91 94
REMARK SMILES IDX 87 95 88 96 89 97 90 98 69 99 70 100 78 101 71 102 77 103
REMARK SMILES IDX 79 104 76 105 72 106 73 107 74 108 75 109
REMARK H PARENT 17 14 7 22 99 62 67 73
REMARK Flexibility Score: inf
ROOT
ATOM      1  O   UNL A   1      34.889  33.861  28.387  1.00  0.00    -0.377 OA
ENDROOT
BRANCH   1   2
ATOM      2  C   UNL A   1      35.410  32.553  28.577  1.00  0.00     0.188 C 
BRANCH   2   3
ATOM      3  C   UNL A   1      34.837  31.579  27.539  1.00  0.00     0.188 C 
BRANCH   3   4
ATOM      4  O   UNL A   1      33.450  31.307  27.717  1.00  0.00    -0.376 OA
BRANCH   4   5
ATOM      5  C   UNL A   1      32.830  30.509  26.703  1.00  0.00     0.202 C 
BRANCH   5   6
ATOM      6  C   UNL A   1      32.077  29.261  27.211  1.00  0.00     0.261 C 
BRANCH   6   7
ATOM      7  O   UNL A   1      31.506  28.381  26.197  1.00  0.00    -0.462 OA
BRANCH   7   8
ATOM      8  C   UNL A   1      31.807  27.049  26.194  1.00  0.00     0.329 C 
ATOM      9  O   UNL A   1      31.193  26.240  26.892  1.00  0.00    -0.250 OA
BRANCH   8  10
ATOM     10  C   UNL A   1      33.164  26.636  25.466  1.00  0.00     0.198 C 
BRANCH  10  11
ATOM     11  N   UNL A   1      33.229  27.445  24.249  1.00  0.00    -0.324 N 
ATOM     12  C   UNL A   1      32.971  27.091  22.963  1.00  0.00     0.323 C 
ATOM     13  O   UNL A   1      33.691  27.668  22.140  1.00  0.00    -0.248 OA
ATOM     14  H   UNL A   1      33.499  28.382  24.381  1.00  0.00     0.166 HD
BRANCH  12  15
ATOM     15  N   UNL A   1      31.787  26.454  22.634  1.00  0.00    -0.280 N 
ATOM     16  C   UNL A   1      30.311  26.855  22.953  1.00  0.00     0.184 C 
ATOM     17  C   UNL A   1      29.762  25.980  24.121  1.00  0.00     0.247 C 
ATOM     18  O   UNL A   1      28.818  26.265  24.855  1.00  0.00    -0.272 OA
ATOM     19  N   UNL A   1      30.191  24.695  24.194  1.00  0.00    -0.322 N 
ATOM     20  C   UNL A   1      31.985  25.003  22.606  1.00  0.00     0.070 A 
ATOM     21  C   UNL A   1      31.213  24.174  23.421  1.00  0.00     0.065 A 
ATOM     22  H   UNL A   1      29.749  24.096  24.838  1.00  0.00     0.170 HD
ATOM     23  C   UNL A   1      33.076  24.423  21.931  1.00  0.00     0.028 A 
ATOM     24  C   UNL A   1      31.525  22.823  23.586  1.00  0.00     0.028 A 
ATOM     25  C   UNL A   1      33.372  23.059  22.074  1.00  0.00     0.002 A 
ATOM     26  C   UNL A   1      32.598  22.261  22.908  1.00  0.00     0.002 A 
BRANCH  16  27
ATOM     27  C   UNL A   1      29.886  28.381  23.116  1.00  0.00     0.015 C 
ATOM     28  C   UNL A   1      30.859  29.454  22.589  1.00  0.00     0.010 C 
ATOM     29  C   UNL A   1      28.538  28.811  22.501  1.00  0.00     0.010 C 
ENDBRANCH  16  27
ENDBRANCH  12  15
ENDBRANCH  10  11
BRANCH  10  30
ATOM     30  C   UNL A   1      34.048  25.363  25.126  1.00  0.00     0.072 C 
BRANCH  30  31
ATOM     31  C   UNL A   1      34.248  24.017  25.800  1.00  0.00    -0.045 A 
ATOM     32  C   UNL A   1      33.328  23.571  26.782  1.00  0.00     0.004 A 
ATOM     33  C   UNL A   1      35.189  23.097  25.344  1.00  0.00     0.004 A 
ATOM     34  C   UNL A   1      33.396  22.294  27.346  1.00  0.00     0.000 A 
ATOM     35  C   UNL A   1      35.226  21.796  25.871  1.00  0.00     0.000 A 
ATOM     36  C   UNL A   1      34.346  21.399  26.881  1.00  0.00     0.000 A 
ENDBRANCH  30  31
ENDBRANCH  10  30
ENDBRANCH   8  10
ENDBRANCH   7   8
ENDBRANCH   6   7
ENDBRANCH   5   6
ENDBRANCH   4   5
ENDBRANCH   3   4
ENDBRANCH   2   3
ENDBRANCH   1   2
BRANCH   1  37
ATOM     37  C   UNL A   1      33.981  34.394  29.336  1.00  0.00     0.188 C 
BRANCH  37  38
ATOM     38  C   UNL A   1      34.442  34.451  30.791  1.00  0.00     0.188 C 
BRANCH  38  39
ATOM     39  O   UNL A   1      33.874  33.507  31.697  1.00  0.00    -0.376 OA
BRANCH  39  40
ATOM     40  C   UNL A   1      34.657  33.061  32.801  1.00  0.00     0.202 C 
BRANCH  40  41
ATOM     41  C   UNL A   1      36.012  32.437  32.469  1.00  0.00     0.261 C 
BRANCH  41  42
ATOM     42  O   UNL A   1      37.069  32.998  33.259  1.00  0.00    -0.460 OA
BRANCH  42  43
ATOM     43  C   UNL A   1      37.597  32.176  34.186  1.00  0.00     0.338 C 
ATOM     44  O   UNL A   1      37.167  31.954  35.314  1.00  0.00    -0.246 OA
BRANCH  43  45
ATOM     45  C   UNL A   1      38.722  31.443  33.599  1.00  0.00     0.060 A 
ATOM     46  C   UNL A   1      38.952  30.121  33.998  1.00  0.00     0.016 A 
ATOM     47  C   UNL A   1      39.614  32.107  32.757  1.00  0.00     0.016 A 
ATOM     48  C   UNL A   1      40.118  29.474  33.606  1.00  0.00     0.010 A 
ATOM     49  C   UNL A   1      40.788  31.463  32.375  1.00  0.00     0.010 A 
ATOM     50  C   UNL A   1      41.065  30.165  32.842  1.00  0.00    -0.014 A 
BRANCH  50  51
ATOM     51  C   UNL A   1      42.437  29.632  32.717  1.00  0.00     0.031 A 
ATOM     52  C   UNL A   1      42.783  28.854  31.479  1.00  0.00     0.074 A 
ATOM     53  C   UNL A   1      43.352  29.846  33.676  1.00  0.00     0.049 A 
ATOM     54  N   UNL A   1      43.867  28.182  31.197  1.00  0.00    -0.248 NA
ATOM     55  C   UNL A   1      41.764  28.834  30.418  1.00  0.00     0.031 C 
ATOM     56  C   UNL A   1      43.151  30.675  34.862  1.00  0.00     0.029 A 
ATOM     57  N   UNL A   1      44.632  29.375  33.803  1.00  0.00    -0.354 N 
ATOM     58  C   UNL A   1      43.657  27.650  29.929  1.00  0.00     0.074 A 
ATOM     59  C   UNL A   1      42.327  28.045  29.518  1.00  0.00     0.031 C 
ATOM     60  C   UNL A   1      44.268  30.634  35.608  1.00  0.00     0.029 A 
ATOM     61  C   UNL A   1      45.227  29.727  34.989  1.00  0.00     0.049 A 
ATOM     62  H   UNL A   1      45.082  28.836  33.112  1.00  0.00     0.167 HD
ATOM     63  C   UNL A   1      44.505  26.905  29.180  1.00  0.00     0.034 A 
ATOM     64  C   UNL A   1      46.395  29.332  35.533  1.00  0.00     0.034 A 
ATOM     65  C   UNL A   1      45.818  26.512  29.629  1.00  0.00     0.049 A 
ATOM     66  C   UNL A   1      47.270  28.394  34.742  1.00  0.00     0.074 A 
ATOM     67  C   UNL A   1      46.766  25.755  28.966  1.00  0.00     0.029 A 
ATOM     68  N   UNL A   1      46.364  26.838  30.866  1.00  0.00    -0.354 N 
ATOM     69  N   UNL A   1      47.060  27.876  33.553  1.00  0.00    -0.248 NA
ATOM     70  C   UNL A   1      48.545  28.003  35.354  1.00  0.00     0.031 C 
ATOM     71  C   UNL A   1      47.847  25.554  29.831  1.00  0.00     0.029 A 
ATOM     72  C   UNL A   1      47.619  26.267  30.998  1.00  0.00     0.049 A 
ATOM     73  H   UNL A   1      45.922  27.394  31.548  1.00  0.00     0.167 HD
ATOM     74  C   UNL A   1      48.201  27.137  33.255  1.00  0.00     0.074 A 
ATOM     75  C   UNL A   1      49.093  27.278  34.389  1.00  0.00     0.031 C 
ATOM     76  C   UNL A   1      48.492  26.419  32.139  1.00  0.00     0.034 A 
BRANCH  63  77
ATOM     77  C   UNL A   1      44.006  26.421  27.839  1.00  0.00     0.023 A 
ATOM     78  C   UNL A   1      43.323  25.200  27.697  1.00  0.00     0.031 A 
ATOM     79  C   UNL A   1      44.255  27.171  26.676  1.00  0.00     0.131 A 
ATOM     80  C   UNL A   1      42.983  24.731  26.419  1.00  0.00     0.055 A 
ATOM     81  C   UNL A   1      43.837  26.740  25.416  1.00  0.00     0.041 A 
ATOM     82  F   UNL A   1      44.929  28.331  26.743  1.00  0.00    -0.206 F 
ATOM     83  C   UNL A   1      43.211  25.506  25.280  1.00  0.00     0.022 A 
BRANCH  80  84
ATOM     84  S   UNL A   1      42.385  23.026  26.253  1.00  0.00     0.124 S 
ATOM     85  O   UNL A   1      43.125  22.349  27.314  1.00  0.00    -0.237 OA
ATOM     86  O   UNL A   1      40.951  23.172  26.466  1.00  0.00    -0.237 OA
ATOM     87  O   UNL A   1      42.780  22.657  24.895  1.00  0.00    -0.744 OA
ENDBRANCH  80  84
ENDBRANCH  63  77
BRANCH  64  88
ATOM     88  C   UNL A   1      46.784  29.786  36.899  1.00  0.00     0.023 A 
ATOM     89  C   UNL A   1      46.549  28.980  38.021  1.00  0.00     0.031 A 
ATOM     90  C   UNL A   1      47.362  31.052  37.107  1.00  0.00     0.131 A 
ATOM     91  C   UNL A   1      46.839  29.467  39.305  1.00  0.00     0.055 A 
ATOM     92  C   UNL A   1      47.702  31.510  38.381  1.00  0.00     0.041 A 
ATOM     93  F   UNL A   1      47.620  31.862  36.066  1.00  0.00    -0.206 F 
ATOM     94  C   UNL A   1      47.426  30.720  39.492  1.00  0.00     0.022 A 
BRANCH  91  95
ATOM     95  S   UNL A   1      46.351  28.468  40.737  1.00  0.00     0.124 S 
ATOM     96  O   UNL A   1      47.019  29.169  41.828  1.00  0.00    -0.237 OA
ATOM     97  O   UNL A   1      44.897  28.579  40.698  1.00  0.00    -0.237 OA
ATOM     98  O   UNL A   1      46.883  27.144  40.425  1.00  0.00    -0.744 OA
ENDBRANCH  91  95
ENDBRANCH  64  88
BRANCH  76  99
ATOM     99  C   UNL A   1      49.862  25.791  32.065  1.00  0.00     0.023 A 
ATOM    100  C   UNL A   1      50.105  24.476  32.496  1.00  0.00     0.031 A 
ATOM    101  C   UNL A   1      50.942  26.529  31.546  1.00  0.00     0.131 A 
ATOM    102  C   UNL A   1      51.408  23.959  32.451  1.00  0.00     0.055 A 
ATOM    103  C   UNL A   1      52.221  25.984  31.439  1.00  0.00     0.041 A 
ATOM    104  F   UNL A   1      50.768  27.792  31.126  1.00  0.00    -0.206 F 
ATOM    105  C   UNL A   1      52.462  24.696  31.906  1.00  0.00     0.022 A 
BRANCH 102 106
ATOM    106  S   UNL A   1      51.727  22.342  33.209  1.00  0.00     0.124 S 
ATOM    107  O   UNL A   1      52.865  22.633  34.074  1.00  0.00    -0.237 OA
ATOM    108  O   UNL A   1      50.465  22.061  33.887  1.00  0.00    -0.237 OA
ATOM    109  O   UNL A   1      52.021  21.481  32.066  1.00  0.00    -0.744 OA
ENDBRANCH 102 106
ENDBRANCH  76  99
ENDBRANCH  50  51
ENDBRANCH  43  45
ENDBRANCH  42  43
ENDBRANCH  41  42
ENDBRANCH  40  41
ENDBRANCH  39  40
ENDBRANCH  38  39
ENDBRANCH  37  38
ENDBRANCH   1  37
TORSDOF 28
ENDMDL
MODEL 3
REMARK VINA RESULT:      -8.9      3.549      7.989
REMARK SMILES CC(C)[C@@H]1C(=O)Nc2ccccc2N1C(=O)N[C@H](Cc1ccccc1)C(=O)OCCOCCOCCOCCOC(=O)c1ccc(-c2c3nc(c(-c4cc(S(=O)(=O)[O-])ccc4F)c4ccc([nH]4)c(-c4cc(S(=O)(=O)[O-])ccc4F)c4nc(c(-c5cc(S(=O)(=O)[O-])ccc5F)c5ccc2[nH]5)C=C4)C=C3)cc1
REMARK SMILES IDX 34 1 33 2 32 3 31 4 30 5 29 6 28 7 26 8 27 9 18 10 17 11
REMARK SMILES IDX 15 12 16 13 14 15 4 16 5 17 6 18 7 19 13 20 8 21 12 23 9 24
REMARK SMILES IDX 11 25 10 26 2 27 1 28 3 29 19 30 20 31 21 32 25 33 22 34
REMARK SMILES IDX 24 35 23 36 35 37 36 38 37 39 38 40 39 41 40 42 41 43 42 44
REMARK SMILES IDX 43 45 44 46 105 47 45 48 104 49 46 50 47 51 48 52 98 53
REMARK SMILES IDX 49 54 103 55 97 56 99 57 50 58 102 59 96 60 95 61 51 63
REMARK SMILES IDX 83 64 63 65 82 66 64 67 67 68 81 69 100 70 65 71 66 72 80 74
REMARK SMILES IDX 101 75 68 76 52 77 53 78 61 79 54 80 60 81 62 82 59 83 55 84
REMARK SMILES IDX 56 85 57 86 58 87 84 88 85 89 93 90 86 91 92 92 94 93 91 94
REMARK SMILES IDX 87 95 88 96 89 97 90 98 69 99 70 100 78 101 71 102 77 103
REMARK SMILES IDX 79 104 76 105 72 106 73 107 74 108 75 109
REMARK H PARENT 17 14 7 22 99 62 67 73
REMARK Flexibility Score: inf
ROOT
ATOM      1  O   UNL A   1      34.978  33.203  28.946  1.00  0.00    -0.377 OA
ENDROOT
BRANCH   1   2
ATOM      2  C   UNL A   1      35.359  31.855  28.707  1.00  0.00     0.188 C 
BRANCH   2   3
ATOM      3  C   UNL A   1      34.568  31.261  27.533  1.00  0.00     0.188 C 
BRANCH   3   4
ATOM      4  O   UNL A   1      33.200  31.009  27.839  1.00  0.00    -0.376 OA
BRANCH   4   5
ATOM      5  C   UNL A   1      32.434  30.369  26.812  1.00  0.00     0.202 C 
BRANCH   5   6
ATOM      6  C   UNL A   1      31.785  29.026  27.212  1.00  0.00     0.261 C 
BRANCH   6   7
ATOM      7  O   UNL A   1      31.377  28.145  26.122  1.00  0.00    -0.462 OA
BRANCH   7   8
ATOM      8  C   UNL A   1      31.827  26.856  26.077  1.00  0.00     0.329 C 
ATOM      9  O   UNL A   1      31.309  25.961  26.747  1.00  0.00    -0.250 OA
BRANCH   8  10
ATOM     10  C   UNL A   1      33.220  26.622  25.337  1.00  0.00     0.198 C 
BRANCH  10  11
ATOM     11  N   UNL A   1      33.210  27.508  24.173  1.00  0.00    -0.324 N 
ATOM     12  C   UNL A   1      32.926  27.224  22.875  1.00  0.00     0.323 C 
ATOM     13  O   UNL A   1      33.593  27.882  22.070  1.00  0.00    -0.248 OA
ATOM     14  H   UNL A   1      33.444  28.446  24.356  1.00  0.00     0.166 HD
BRANCH  12  15
ATOM     15  N   UNL A   1      31.759  26.556  22.542  1.00  0.00    -0.280 N 
ATOM     16  C   UNL A   1      30.274  26.903  22.882  1.00  0.00     0.184 C 
ATOM     17  C   UNL A   1      29.763  25.986  24.035  1.00  0.00     0.247 C 
ATOM     18  O   UNL A   1      28.817  26.226  24.782  1.00  0.00    -0.272 OA
ATOM     19  N   UNL A   1      30.234  24.715  24.077  1.00  0.00    -0.322 N 
ATOM     20  C   UNL A   1      32.003  25.113  22.482  1.00  0.00     0.070 A 
ATOM     21  C   UNL A   1      31.265  24.243  23.285  1.00  0.00     0.065 A 
ATOM     22  H   UNL A   1      29.816  24.088  24.711  1.00  0.00     0.170 HD
ATOM     23  C   UNL A   1      33.106  24.583  21.786  1.00  0.00     0.028 A 
ATOM     24  C   UNL A   1      31.621  22.900  23.418  1.00  0.00     0.028 A 
ATOM     25  C   UNL A   1      33.446  23.227  21.897  1.00  0.00     0.002 A 
ATOM     26  C   UNL A   1      32.705  22.386  22.720  1.00  0.00     0.002 A 
BRANCH  16  27
ATOM     27  C   UNL A   1      29.802  28.411  23.081  1.00  0.00     0.015 C 
ATOM     28  C   UNL A   1      30.425  29.482  22.163  1.00  0.00     0.010 C 
ATOM     29  C   UNL A   1      28.291  28.701  22.967  1.00  0.00     0.010 C 
ENDBRANCH  16  27
ENDBRANCH  12  15
ENDBRANCH  10  11
BRANCH  10  30
ATOM     30  C   UNL A   1      34.225  25.465  24.929  1.00  0.00     0.072 C 
BRANCH  30  31
ATOM     31  C   UNL A   1      34.420  24.033  25.397  1.00  0.00    -0.045 A 
ATOM     32  C   UNL A   1      35.458  23.241  24.843  1.00  0.00     0.004 A 
ATOM     33  C   UNL A   1      33.752  23.523  26.506  1.00  0.00     0.004 A 
ATOM     34  C   UNL A   1      35.757  21.962  25.319  1.00  0.00     0.000 A 
ATOM     35  C   UNL A   1      34.087  22.260  27.020  1.00  0.00     0.000 A 
ATOM     36  C   UNL A   1      35.073  21.473  26.420  1.00  0.00     0.000 A 
ENDBRANCH  30  31
ENDBRANCH  10  30
ENDBRANCH   8  10
ENDBRANCH   7   8
ENDBRANCH   6   7
ENDBRANCH   5   6
ENDBRANCH   4   5
ENDBRANCH   3   4
ENDBRANCH   2   3
ENDBRANCH   1   2
BRANCH   1  37
ATOM     37  C   UNL A   1      34.288  33.529  30.140  1.00  0.00     0.188 C 
BRANCH  37  38
ATOM     38  C   UNL A   1      35.082  33.483  31.443  1.00  0.00     0.188 C 
BRANCH  38  39
ATOM     39  O   UNL A   1      35.158  32.231  32.122  1.00  0.00    -0.376 OA
BRANCH  39  40
ATOM     40  C   UNL A   1      36.315  31.943  32.903  1.00  0.00     0.202 C 
BRANCH  40  41
ATOM     41  C   UNL A   1      37.617  32.614  32.466  1.00  0.00     0.261 C 
BRANCH  41  42
ATOM     42  O   UNL A   1      38.748  32.114  33.193  1.00  0.00    -0.460 OA
BRANCH  42  43
ATOM     43  C   UNL A   1      39.620  31.383  32.473  1.00  0.00     0.338 C 
ATOM     44  O   UNL A   1      39.514  30.201  32.156  1.00  0.00    -0.246 OA
BRANCH  43  45
ATOM     45  C   UNL A   1      40.690  32.252  31.978  1.00  0.00     0.060 A 
ATOM     46  C   UNL A   1      40.660  32.673  30.643  1.00  0.00     0.016 A 
ATOM     47  C   UNL A   1      41.779  32.542  32.801  1.00  0.00     0.016 A 
ATOM     48  C   UNL A   1      41.757  33.332  30.102  1.00  0.00     0.010 A 
ATOM     49  C   UNL A   1      42.884  33.191  32.253  1.00  0.00     0.010 A 
ATOM     50  C   UNL A   1      42.894  33.540  30.891  1.00  0.00    -0.014 A 
BRANCH  50  51
ATOM     51  C   UNL A   1      44.173  33.909  30.251  1.00  0.00     0.031 A 
ATOM     52  C   UNL A   1      44.502  35.370  30.122  1.00  0.00     0.074 A 
ATOM     53  C   UNL A   1      45.023  32.969  29.809  1.00  0.00     0.049 A 
ATOM     54  N   UNL A   1      45.490  35.946  29.490  1.00  0.00    -0.248 NA
ATOM     55  C   UNL A   1      43.589  36.305  30.798  1.00  0.00     0.031 C 
ATOM     56  C   UNL A   1      44.849  31.529  29.983  1.00  0.00     0.029 A 
ATOM     57  N   UNL A   1      46.199  33.089  29.118  1.00  0.00    -0.354 N 
ATOM     58  C   UNL A   1      45.313  37.311  29.684  1.00  0.00     0.074 A 
ATOM     59  C   UNL A   1      44.101  37.476  30.457  1.00  0.00     0.031 C 
ATOM     60  C   UNL A   1      45.877  30.899  29.389  1.00  0.00     0.029 A 
ATOM     61  C   UNL A   1      46.735  31.882  28.741  1.00  0.00     0.049 A 
ATOM     62  H   UNL A   1      46.620  33.955  28.911  1.00  0.00     0.167 HD
ATOM     63  C   UNL A   1      46.098  38.329  29.258  1.00  0.00     0.034 A 
ATOM     64  C   UNL A   1      47.776  31.602  27.934  1.00  0.00     0.034 A 
ATOM     65  C   UNL A   1      47.291  38.130  28.472  1.00  0.00     0.049 A 
ATOM     66  C   UNL A   1      48.563  32.751  27.356  1.00  0.00     0.074 A 
ATOM     67  C   UNL A   1      48.166  39.079  27.975  1.00  0.00     0.029 A 
ATOM     68  N   UNL A   1      47.770  36.893  28.056  1.00  0.00    -0.354 N 
ATOM     69  N   UNL A   1      48.380  34.041  27.524  1.00  0.00    -0.248 NA
ATOM     70  C   UNL A   1      49.704  32.410  26.500  1.00  0.00     0.031 C 
ATOM     71  C   UNL A   1      49.123  38.424  27.193  1.00  0.00     0.029 A 
ATOM     72  C   UNL A   1      48.906  37.057  27.281  1.00  0.00     0.049 A 
ATOM     73  H   UNL A   1      47.361  36.025  28.281  1.00  0.00     0.167 HD
ATOM     74  C   UNL A   1      49.416  34.664  26.833  1.00  0.00     0.074 A 
ATOM     75  C   UNL A   1      50.215  33.606  26.248  1.00  0.00     0.031 C 
ATOM     76  C   UNL A   1      49.689  35.988  26.706  1.00  0.00     0.034 A 
BRANCH  63  77
ATOM     77  C   UNL A   1      45.649  39.735  29.579  1.00  0.00     0.023 A 
ATOM     78  C   UNL A   1      46.011  40.375  30.778  1.00  0.00     0.031 A 
ATOM     79  C   UNL A   1      44.810  40.431  28.692  1.00  0.00     0.131 A 
ATOM     80  C   UNL A   1      45.473  41.632  31.091  1.00  0.00     0.055 A 
ATOM     81  C   UNL A   1      44.349  41.720  28.970  1.00  0.00     0.041 A 
ATOM     82  F   UNL A   1      44.406  39.862  27.545  1.00  0.00    -0.206 F 
ATOM     83  C   UNL A   1      44.667  42.322  30.182  1.00  0.00     0.022 A 
BRANCH  80  84
ATOM     84  S   UNL A   1      45.714  42.285  32.768  1.00  0.00     0.124 S 
ATOM     85  O   UNL A   1      47.108  41.935  33.023  1.00  0.00    -0.237 OA
ATOM     86  O   UNL A   1      45.432  43.705  32.596  1.00  0.00    -0.237 OA
ATOM     87  O   UNL A   1      44.737  41.547  33.565  1.00  0.00    -0.744 OA
ENDBRANCH  80  84
ENDBRANCH  63  77
BRANCH  64  88
ATOM     88  C   UNL A   1      48.109  30.189  27.593  1.00  0.00     0.023 A 
ATOM     89  C   UNL A   1      47.537  29.561  26.479  1.00  0.00     0.031 A 
ATOM     90  C   UNL A   1      48.978  29.432  28.402  1.00  0.00     0.131 A 
ATOM     91  C   UNL A   1      47.794  28.203  26.233  1.00  0.00     0.055 A 
ATOM     92  C   UNL A   1      49.275  28.098  28.121  1.00  0.00     0.041 A 
ATOM     93  F   UNL A   1      49.563  29.987  29.477  1.00  0.00    -0.206 F 
ATOM     94  C   UNL A   1      48.669  27.471  27.037  1.00  0.00     0.022 A 
BRANCH  91  95
ATOM     95  S   UNL A   1      46.891  27.384  24.891  1.00  0.00     0.124 S 
ATOM     96  O   UNL A   1      46.998  28.368  23.819  1.00  0.00    -0.237 OA
ATOM     97  O   UNL A   1      47.662  26.158  24.716  1.00  0.00    -0.237 OA
ATOM     98  O   UNL A   1      45.552  27.203  25.444  1.00  0.00    -0.744 OA
ENDBRANCH  91  95
ENDBRANCH  64  88
BRANCH  76  99
ATOM     99  C   UNL A   1      50.947  36.360  25.961  1.00  0.00     0.023 A 
ATOM    100  C   UNL A   1      52.192  36.467  26.604  1.00  0.00     0.031 A 
ATOM    101  C   UNL A   1      50.893  36.608  24.577  1.00  0.00     0.131 A 
ATOM    102  C   UNL A   1      53.321  36.866  25.873  1.00  0.00     0.055 A 
ATOM    103  C   UNL A   1      52.033  36.935  23.843  1.00  0.00     0.041 A 
ATOM    104  F   UNL A   1      49.729  36.526  23.913  1.00  0.00    -0.206 F 
ATOM    105  C   UNL A   1      53.254  37.079  24.494  1.00  0.00     0.022 A 
BRANCH 102 106
ATOM    106  S   UNL A   1      54.862  37.200  26.770  1.00  0.00     0.124 S 
ATOM    107  O   UNL A   1      54.833  38.654  26.889  1.00  0.00    -0.237 OA
ATOM    108  O   UNL A   1      54.669  36.455  28.010  1.00  0.00    -0.237 OA
ATOM    109  O   UNL A   1      55.895  36.670  25.882  1.00  0.00    -0.744 OA
ENDBRANCH 102 106
ENDBRANCH  76  99
ENDBRANCH  50  51
ENDBRANCH  43  45
ENDBRANCH  42  43
ENDBRANCH  41  42
ENDBRANCH  40  41
ENDBRANCH  39  40
ENDBRANCH  38  39
ENDBRANCH  37  38
ENDBRANCH   1  37
TORSDOF 28
ENDMDL
