MODEL 1
REMARK VINA RESULT:     -10.4      0.000      0.000
REMARK SMILES NC(=O)C1CC[NH+](Cc2ccc(C(=O)NCCCCCCNC(=O)c3ccc(-c4c5nc(c(-c6cccc(S(=O)(=O)[O-])c6F)c6ccc([nH]6)c(-c6cccc(S(=O)(=O)[O-])c6F)c6nc(c(-c7cccc(S(=O)(=O)[O-])c7F)c7ccc4[nH]7)C=C6)C=C5)cc3)cc2)CC1
REMARK SMILES IDX 18 1 17 2 16 3 15 4 13 5 14 6 12 8 9 9 10 10 89 11 11 12
REMARK SMILES IDX 88 13 8 14 7 15 4 16 5 17 91 18 6 19 90 20 2 22 1 23 3 26
REMARK SMILES IDX 19 27 20 28 21 29 22 30 23 31 24 33 25 34 26 35 87 36 27 37
REMARK SMILES IDX 86 38 28 39 29 40 30 41 80 42 31 43 85 44 79 45 81 46 32 47
REMARK SMILES IDX 84 48 78 49 77 50 33 52 65 53 45 54 64 55 46 56 49 57 63 58
REMARK SMILES IDX 82 59 47 60 48 61 62 63 83 64 50 65 34 66 35 67 43 68 36 69
REMARK SMILES IDX 38 70 44 71 37 72 39 73 40 74 41 75 42 76 66 77 67 78 75 79
REMARK SMILES IDX 68 80 70 81 76 82 69 83 71 84 72 85 73 86 74 87 51 88 52 89
REMARK SMILES IDX 60 90 53 91 55 92 61 93 54 94 56 95 57 96 58 97 59 98
REMARK H PARENT 15 7 7 21 1 24 1 25 22 32 81 51 49 62
REMARK Flexibility Score: inf
ROOT
ATOM      1  C   UNL A   1      35.290  32.223  28.632  1.00  0.00     0.002 C 
ENDROOT
BRANCH   1   2
ATOM      2  C   UNL A   1      35.767  31.008  27.824  1.00  0.00     0.021 C 
BRANCH   2   3
ATOM      3  C   UNL A   1      34.624  30.133  27.305  1.00  0.00     0.116 C 
BRANCH   3   4
ATOM      4  N   UNL A   1      33.424  30.934  27.130  1.00  0.00    -0.352 N 
ATOM      5  C   UNL A   1      32.177  30.616  26.656  1.00  0.00     0.251 C 
ATOM      6  O   UNL A   1      31.316  31.494  26.630  1.00  0.00    -0.269 OA
ATOM      7  H   UNL A   1      33.524  31.875  27.401  1.00  0.00     0.163 HD
BRANCH   5   8
ATOM      8  C   UNL A   1      31.815  29.233  26.258  1.00  0.00     0.039 A 
ATOM      9  C   UNL A   1      31.378  26.516  25.675  1.00  0.00     0.006 A 
ATOM     10  C   UNL A   1      31.379  26.967  27.003  1.00  0.00     0.010 A 
ATOM     11  C   UNL A   1      31.474  27.462  24.644  1.00  0.00     0.010 A 
ATOM     12  C   UNL A   1      31.603  28.313  27.292  1.00  0.00     0.014 A 
ATOM     13  C   UNL A   1      31.678  28.815  24.933  1.00  0.00     0.014 A 
BRANCH   9  14
ATOM     14  C   UNL A   1      31.361  25.027  25.376  1.00  0.00     0.299 C 
BRANCH  14  15
ATOM     15  N   UNL A   1      32.611  24.472  24.812  1.00  0.00    -0.331 N 
ATOM     16  C   UNL A   1      34.926  22.654  24.701  1.00  0.00     0.089 C 
ATOM     17  C   UNL A   1      35.061  24.123  25.106  1.00  0.00     0.075 C 
ATOM     18  C   UNL A   1      33.747  22.541  23.725  1.00  0.00     0.075 C 
ATOM     19  C   UNL A   1      33.762  24.674  25.696  1.00  0.00     0.263 C 
ATOM     20  C   UNL A   1      32.463  23.079  24.367  1.00  0.00     0.263 C 
ATOM     21  H   UNL A   1      32.808  25.009  23.967  1.00  0.00     0.348 HD
BRANCH  16  22
ATOM     22  C   UNL A   1      34.740  21.645  25.841  1.00  0.00     0.220 C 
ATOM     23  N   UNL A   1      34.649  20.325  25.533  1.00  0.00    -0.369 N 
ATOM     24  H   UNL A   1      34.529  19.661  26.248  1.00  0.00     0.159 HD
ATOM     25  H   UNL A   1      34.702  20.035  24.594  1.00  0.00     0.159 HD
ATOM     26  O   UNL A   1      34.625  21.990  27.017  1.00  0.00    -0.275 OA
ENDBRANCH  16  22
ENDBRANCH  14  15
ENDBRANCH   9  14
ENDBRANCH   5   8
ENDBRANCH   3   4
ENDBRANCH   2   3
ENDBRANCH   1   2
BRANCH   1  27
ATOM     27  C   UNL A   1      35.641  33.585  28.021  1.00  0.00     0.002 C 
BRANCH  27  28
ATOM     28  C   UNL A   1      34.558  34.658  28.163  1.00  0.00     0.021 C 
BRANCH  28  29
ATOM     29  C   UNL A   1      33.289  34.192  28.869  1.00  0.00     0.116 C 
BRANCH  29  30
ATOM     30  N   UNL A   1      32.928  35.072  29.969  1.00  0.00    -0.352 N 
ATOM     31  C   UNL A   1      33.425  35.117  31.246  1.00  0.00     0.251 C 
ATOM     32  H   UNL A   1      32.225  35.732  29.767  1.00  0.00     0.163 HD
ATOM     33  O   UNL A   1      32.850  35.784  32.100  1.00  0.00    -0.269 OA
BRANCH  31  34
ATOM     34  C   UNL A   1      34.648  34.360  31.597  1.00  0.00     0.039 A 
ATOM     35  C   UNL A   1      34.516  33.092  32.169  1.00  0.00     0.014 A 
ATOM     36  C   UNL A   1      35.918  34.914  31.408  1.00  0.00     0.014 A 
ATOM     37  C   UNL A   1      35.657  32.369  32.527  1.00  0.00     0.010 A 
ATOM     38  C   UNL A   1      37.055  34.164  31.700  1.00  0.00     0.010 A 
ATOM     39  C   UNL A   1      36.937  32.895  32.286  1.00  0.00    -0.014 A 
BRANCH  39  40
ATOM     40  C   UNL A   1      38.159  32.147  32.676  1.00  0.00     0.031 A 
ATOM     41  C   UNL A   1      38.886  32.499  33.947  1.00  0.00     0.074 A 
ATOM     42  C   UNL A   1      38.653  31.197  31.857  1.00  0.00     0.049 A 
ATOM     43  N   UNL A   1      39.983  31.983  34.441  1.00  0.00    -0.248 NA
ATOM     44  C   UNL A   1      38.324  33.592  34.758  1.00  0.00     0.031 C 
ATOM     45  C   UNL A   1      38.088  30.821  30.560  1.00  0.00     0.029 A 
ATOM     46  N   UNL A   1      39.756  30.391  31.985  1.00  0.00    -0.354 N 
ATOM     47  C   UNL A   1      40.261  32.711  35.592  1.00  0.00     0.074 A 
ATOM     48  C   UNL A   1      39.240  33.728  35.706  1.00  0.00     0.031 C 
ATOM     49  C   UNL A   1      38.845  29.855  30.015  1.00  0.00     0.029 A 
ATOM     50  C   UNL A   1      39.957  29.556  30.911  1.00  0.00     0.049 A 
ATOM     51  H   UNL A   1      40.348  30.409  32.772  1.00  0.00     0.167 HD
ATOM     52  C   UNL A   1      41.255  32.529  36.493  1.00  0.00     0.034 A 
ATOM     53  C   UNL A   1      40.926  28.648  30.678  1.00  0.00     0.034 A 
ATOM     54  C   UNL A   1      42.236  31.480  36.407  1.00  0.00     0.049 A 
ATOM     55  C   UNL A   1      41.975  28.415  31.731  1.00  0.00     0.074 A 
ATOM     56  C   UNL A   1      43.235  31.159  37.310  1.00  0.00     0.029 A 
ATOM     57  N   UNL A   1      42.338  30.579  35.359  1.00  0.00    -0.354 N 
ATOM     58  N   UNL A   1      42.131  29.011  32.889  1.00  0.00    -0.248 NA
ATOM     59  C   UNL A   1      42.954  27.349  31.470  1.00  0.00     0.031 C 
ATOM     60  C   UNL A   1      43.949  30.069  36.799  1.00  0.00     0.029 A 
ATOM     61  C   UNL A   1      43.379  29.698  35.592  1.00  0.00     0.049 A 
ATOM     62  H   UNL A   1      41.755  30.567  34.566  1.00  0.00     0.167 HD
ATOM     63  C   UNL A   1      43.193  28.366  33.511  1.00  0.00     0.074 A 
ATOM     64  C   UNL A   1      43.632  27.321  32.610  1.00  0.00     0.031 C 
ATOM     65  C   UNL A   1      43.762  28.622  34.715  1.00  0.00     0.034 A 
BRANCH  52  66
ATOM     66  C   UNL A   1      41.297  33.449  37.686  1.00  0.00     0.023 A 
ATOM     67  C   UNL A   1      42.215  34.521  37.705  1.00  0.00     0.012 A 
ATOM     68  C   UNL A   1      40.400  33.292  38.760  1.00  0.00     0.148 A 
ATOM     69  C   UNL A   1      42.264  35.397  38.787  1.00  0.00     0.002 A 
ATOM     70  C   UNL A   1      40.423  34.198  39.815  1.00  0.00     0.091 A 
ATOM     71  F   UNL A   1      39.549  32.257  38.737  1.00  0.00    -0.205 F 
ATOM     72  C   UNL A   1      41.362  35.243  39.836  1.00  0.00     0.022 A 
BRANCH  70  73
ATOM     73  S   UNL A   1      39.251  34.132  41.174  1.00  0.00     0.127 S 
ATOM     74  O   UNL A   1      39.712  32.953  41.905  1.00  0.00    -0.237 OA
ATOM     75  O   UNL A   1      39.495  35.405  41.853  1.00  0.00    -0.237 OA
ATOM     76  O   UNL A   1      37.935  34.014  40.563  1.00  0.00    -0.744 OA
ENDBRANCH  70  73
ENDBRANCH  52  66
BRANCH  53  77
ATOM     77  C   UNL A   1      40.895  27.831  29.434  1.00  0.00     0.023 A 
ATOM     78  C   UNL A   1      39.992  26.753  29.336  1.00  0.00     0.012 A 
ATOM     79  C   UNL A   1      41.730  28.127  28.339  1.00  0.00     0.148 A 
ATOM     80  C   UNL A   1      39.947  25.963  28.187  1.00  0.00     0.002 A 
ATOM     81  C   UNL A   1      41.641  27.371  27.176  1.00  0.00     0.091 A 
ATOM     82  F   UNL A   1      42.590  29.150  28.454  1.00  0.00    -0.205 F 
ATOM     83  C   UNL A   1      40.763  26.278  27.104  1.00  0.00     0.022 A 
BRANCH  81  84
ATOM     84  S   UNL A   1      42.558  27.788  25.689  1.00  0.00     0.127 S 
ATOM     85  O   UNL A   1      41.985  29.083  25.337  1.00  0.00    -0.237 OA
ATOM     86  O   UNL A   1      43.935  27.833  26.183  1.00  0.00    -0.237 OA
ATOM     87  O   UNL A   1      42.296  26.702  24.751  1.00  0.00    -0.744 OA
ENDBRANCH  81  84
ENDBRANCH  53  77
BRANCH  65  88
ATOM     88  C   UNL A   1      44.889  27.728  35.161  1.00  0.00     0.023 A 
ATOM     89  C   UNL A   1      46.225  28.127  34.960  1.00  0.00     0.012 A 
ATOM     90  C   UNL A   1      44.621  26.522  35.838  1.00  0.00     0.148 A 
ATOM     91  C   UNL A   1      47.277  27.321  35.395  1.00  0.00     0.002 A 
ATOM     92  C   UNL A   1      45.673  25.748  36.312  1.00  0.00     0.091 A 
ATOM     93  F   UNL A   1      43.342  26.148  35.999  1.00  0.00    -0.205 F 
ATOM     94  C   UNL A   1      47.002  26.139  36.081  1.00  0.00     0.022 A 
BRANCH  92  95
ATOM     95  S   UNL A   1      45.402  24.266  37.290  1.00  0.00     0.127 S 
ATOM     96  O   UNL A   1      44.636  24.789  38.420  1.00  0.00    -0.237 OA
ATOM     97  O   UNL A   1      44.636  23.421  36.373  1.00  0.00    -0.237 OA
ATOM     98  O   UNL A   1      46.728  23.755  37.610  1.00  0.00    -0.744 OA
ENDBRANCH  92  95
ENDBRANCH  65  88
ENDBRANCH  39  40
ENDBRANCH  31  34
ENDBRANCH  29  30
ENDBRANCH  28  29
ENDBRANCH  27  28
ENDBRANCH   1  27
TORSDOF 19
ENDMDL
MODEL 2
REMARK VINA RESULT:     -10.3      1.590      1.989
REMARK SMILES NC(=O)C1CC[NH+](Cc2ccc(C(=O)NCCCCCCNC(=O)c3ccc(-c4c5nc(c(-c6cccc(S(=O)(=O)[O-])c6F)c6ccc([nH]6)c(-c6cccc(S(=O)(=O)[O-])c6F)c6nc(c(-c7cccc(S(=O)(=O)[O-])c7F)c7ccc4[nH]7)C=C6)C=C5)cc3)cc2)CC1
REMARK SMILES IDX 18 1 17 2 16 3 15 4 13 5 14 6 12 8 9 9 10 10 89 11 11 12
REMARK SMILES IDX 88 13 8 14 7 15 4 16 5 17 91 18 6 19 90 20 2 22 1 23 3 26
REMARK SMILES IDX 19 27 20 28 21 29 22 30 23 31 24 33 25 34 26 35 87 36 27 37
REMARK SMILES IDX 86 38 28 39 29 40 30 41 80 42 31 43 85 44 79 45 81 46 32 47
REMARK SMILES IDX 84 48 78 49 77 50 33 52 65 53 45 54 64 55 46 56 49 57 63 58
REMARK SMILES IDX 82 59 47 60 48 61 62 63 83 64 50 65 34 66 35 67 43 68 36 69
REMARK SMILES IDX 38 70 44 71 37 72 39 73 40 74 41 75 42 76 66 77 67 78 75 79
REMARK SMILES IDX 68 80 70 81 76 82 69 83 71 84 72 85 73 86 74 87 51 88 52 89
REMARK SMILES IDX 60 90 53 91 55 92 61 93 54 94 56 95 57 96 58 97 59 98
REMARK H PARENT 15 7 7 21 1 24 1 25 22 32 81 51 49 62
REMARK Flexibility Score: inf
ROOT
ATOM      1  C   UNL A   1      35.140  32.982  28.952  1.00  0.00     0.002 C 
ENDROOT
BRANCH   1   2
ATOM      2  C   UNL A   1      35.584  31.915  27.942  1.00  0.00     0.021 C 
BRANCH   2   3
ATOM      3  C   UNL A   1      34.496  30.887  27.623  1.00  0.00     0.116 C 
BRANCH   3   4
ATOM      4  N   UNL A   1      33.239  31.561  27.347  1.00  0.00    -0.352 N 
ATOM      5  C   UNL A   1      32.068  31.115  26.792  1.00  0.00     0.251 C 
ATOM      6  O   UNL A   1      31.128  31.902  26.687  1.00  0.00    -0.269 OA
ATOM      7  H   UNL A   1      33.226  32.511  27.606  1.00  0.00     0.163 HD
BRANCH   5   8
ATOM      8  C   UNL A   1      31.874  29.698  26.397  1.00  0.00     0.039 A 
ATOM      9  C   UNL A   1      31.247  27.107  25.496  1.00  0.00     0.006 A 
ATOM     10  C   UNL A   1      31.463  28.146  24.580  1.00  0.00     0.010 A 
ATOM     11  C   UNL A   1      31.469  27.355  26.859  1.00  0.00     0.010 A 
ATOM     12  C   UNL A   1      31.768  29.432  25.027  1.00  0.00     0.014 A 
ATOM     13  C   UNL A   1      31.795  28.640  27.306  1.00  0.00     0.014 A 
BRANCH   9  14
ATOM     14  C   UNL A   1      30.697  25.774  25.020  1.00  0.00     0.299 C 
BRANCH  14  15
ATOM     15  N   UNL A   1      31.645  24.638  25.059  1.00  0.00    -0.331 N 
ATOM     16  C   UNL A   1      33.008  22.247  24.009  1.00  0.00     0.089 C 
ATOM     17  C   UNL A   1      31.938  22.163  25.100  1.00  0.00     0.075 C 
ATOM     18  C   UNL A   1      33.717  23.602  24.148  1.00  0.00     0.075 C 
ATOM     19  C   UNL A   1      30.964  23.340  25.036  1.00  0.00     0.263 C 
ATOM     20  C   UNL A   1      32.707  24.750  24.050  1.00  0.00     0.263 C 
ATOM     21  H   UNL A   1      32.118  24.690  25.961  1.00  0.00     0.348 HD
BRANCH  16  22
ATOM     22  C   UNL A   1      32.525  22.072  22.565  1.00  0.00     0.220 C 
ATOM     23  N   UNL A   1      32.894  22.996  21.639  1.00  0.00    -0.369 N 
ATOM     24  H   UNL A   1      32.596  22.904  20.707  1.00  0.00     0.159 HD
ATOM     25  H   UNL A   1      33.460  23.757  21.903  1.00  0.00     0.159 HD
ATOM     26  O   UNL A   1      31.779  21.155  22.223  1.00  0.00    -0.275 OA
ENDBRANCH  16  22
ENDBRANCH  14  15
ENDBRANCH   9  14
ENDBRANCH   5   8
ENDBRANCH   3   4
ENDBRANCH   2   3
ENDBRANCH   1   2
BRANCH   1  27
ATOM     27  C   UNL A   1      35.330  34.431  28.488  1.00  0.00     0.002 C 
BRANCH  27  28
ATOM     28  C   UNL A   1      34.127  35.349  28.718  1.00  0.00     0.021 C 
BRANCH  28  29
ATOM     29  C   UNL A   1      32.991  34.721  29.520  1.00  0.00     0.116 C 
BRANCH  29  30
ATOM     30  N   UNL A   1      32.631  35.530  30.673  1.00  0.00    -0.352 N 
ATOM     31  C   UNL A   1      33.138  35.503  31.947  1.00  0.00     0.251 C 
ATOM     32  H   UNL A   1      31.921  36.194  30.516  1.00  0.00     0.163 HD
ATOM     33  O   UNL A   1      32.564  36.112  32.844  1.00  0.00    -0.269 OA
BRANCH  31  34
ATOM     34  C   UNL A   1      34.371  34.737  32.243  1.00  0.00     0.039 A 
ATOM     35  C   UNL A   1      34.255  33.424  32.705  1.00  0.00     0.014 A 
ATOM     36  C   UNL A   1      35.633  35.324  32.111  1.00  0.00     0.014 A 
ATOM     37  C   UNL A   1      35.404  32.691  33.011  1.00  0.00     0.010 A 
ATOM     38  C   UNL A   1      36.779  34.570  32.348  1.00  0.00     0.010 A 
ATOM     39  C   UNL A   1      36.677  33.255  32.825  1.00  0.00    -0.014 A 
BRANCH  39  40
ATOM     40  C   UNL A   1      37.908  32.495  33.160  1.00  0.00     0.031 A 
ATOM     41  C   UNL A   1      38.652  32.788  34.437  1.00  0.00     0.074 A 
ATOM     42  C   UNL A   1      38.395  31.589  32.288  1.00  0.00     0.049 A 
ATOM     43  N   UNL A   1      39.758  32.255  34.889  1.00  0.00    -0.248 NA
ATOM     44  C   UNL A   1      38.096  33.837  35.307  1.00  0.00     0.031 C 
ATOM     45  C   UNL A   1      37.813  31.273  30.983  1.00  0.00     0.029 A 
ATOM     46  N   UNL A   1      39.504  30.783  32.361  1.00  0.00    -0.354 N 
ATOM     47  C   UNL A   1      40.049  32.927  36.071  1.00  0.00     0.074 A 
ATOM     48  C   UNL A   1      39.026  33.932  36.248  1.00  0.00     0.031 C 
ATOM     49  C   UNL A   1      38.566  30.339  30.381  1.00  0.00     0.029 A 
ATOM     50  C   UNL A   1      39.693  30.004  31.245  1.00  0.00     0.049 A 
ATOM     51  H   UNL A   1      40.107  30.767  33.140  1.00  0.00     0.167 HD
ATOM     52  C   UNL A   1      41.058  32.706  36.947  1.00  0.00     0.034 A 
ATOM     53  C   UNL A   1      40.662  29.113  30.954  1.00  0.00     0.034 A 
ATOM     54  C   UNL A   1      42.042  31.669  36.796  1.00  0.00     0.049 A 
ATOM     55  C   UNL A   1      41.728  28.834  31.980  1.00  0.00     0.074 A 
ATOM     56  C   UNL A   1      43.055  31.308  37.667  1.00  0.00     0.029 A 
ATOM     57  N   UNL A   1      42.133  30.820  35.704  1.00  0.00    -0.354 N 
ATOM     58  N   UNL A   1      41.898  29.374  33.163  1.00  0.00    -0.248 NA
ATOM     59  C   UNL A   1      42.708  27.788  31.653  1.00  0.00     0.031 C 
ATOM     60  C   UNL A   1      43.767  30.249  37.094  1.00  0.00     0.029 A 
ATOM     61  C   UNL A   1      43.182  29.935  35.878  1.00  0.00     0.049 A 
ATOM     62  H   UNL A   1      41.539  30.844  34.919  1.00  0.00     0.167 HD
ATOM     63  C   UNL A   1      42.972  28.705  33.737  1.00  0.00     0.074 A 
ATOM     64  C   UNL A   1      43.402  27.707  32.780  1.00  0.00     0.031 C 
ATOM     65  C   UNL A   1      43.556  28.904  34.944  1.00  0.00     0.034 A 
BRANCH  52  66
ATOM     66  C   UNL A   1      41.112  33.567  38.183  1.00  0.00     0.023 A 
ATOM     67  C   UNL A   1      40.369  33.193  39.323  1.00  0.00     0.012 A 
ATOM     68  C   UNL A   1      41.934  34.709  38.240  1.00  0.00     0.148 A 
ATOM     69  C   UNL A   1      40.414  33.961  40.485  1.00  0.00     0.002 A 
ATOM     70  C   UNL A   1      42.010  35.444  39.419  1.00  0.00     0.091 A 
ATOM     71  F   UNL A   1      42.617  35.062  37.143  1.00  0.00    -0.205 F 
ATOM     72  C   UNL A   1      41.242  35.079  40.537  1.00  0.00     0.022 A 
BRANCH  70  73
ATOM     73  S   UNL A   1      43.106  36.853  39.612  1.00  0.00     0.127 S 
ATOM     74  O   UNL A   1      42.812  37.272  40.982  1.00  0.00    -0.237 OA
ATOM     75  O   UNL A   1      44.425  36.245  39.429  1.00  0.00    -0.237 OA
ATOM     76  O   UNL A   1      42.728  37.801  38.574  1.00  0.00    -0.744 OA
ENDBRANCH  70  73
ENDBRANCH  52  66
BRANCH  53  77
ATOM     77  C   UNL A   1      40.617  28.357  29.672  1.00  0.00     0.023 A 
ATOM     78  C   UNL A   1      39.581  27.428  29.452  1.00  0.00     0.012 A 
ATOM     79  C   UNL A   1      41.573  28.569  28.660  1.00  0.00     0.148 A 
ATOM     80  C   UNL A   1      39.518  26.698  28.265  1.00  0.00     0.002 A 
ATOM     81  C   UNL A   1      41.473  27.880  27.457  1.00  0.00     0.091 A 
ATOM     82  F   UNL A   1      42.558  29.450  28.891  1.00  0.00    -0.205 F 
ATOM     83  C   UNL A   1      40.457  26.931  27.264  1.00  0.00     0.022 A 
BRANCH  81  84
ATOM     84  S   UNL A   1      42.560  28.215  26.066  1.00  0.00     0.127 S 
ATOM     85  O   UNL A   1      41.916  27.460  24.995  1.00  0.00    -0.237 OA
ATOM     86  O   UNL A   1      42.460  29.669  25.945  1.00  0.00    -0.237 OA
ATOM     87  O   UNL A   1      43.876  27.739  26.476  1.00  0.00    -0.744 OA
ENDBRANCH  81  84
ENDBRANCH  53  77
BRANCH  65  88
ATOM     88  C   UNL A   1      44.694  27.996  35.330  1.00  0.00     0.023 A 
ATOM     89  C   UNL A   1      46.025  28.397  35.099  1.00  0.00     0.012 A 
ATOM     90  C   UNL A   1      44.443  26.772  35.980  1.00  0.00     0.148 A 
ATOM     91  C   UNL A   1      47.087  27.577  35.479  1.00  0.00     0.002 A 
ATOM     92  C   UNL A   1      45.507  25.983  36.400  1.00  0.00     0.091 A 
ATOM     93  F   UNL A   1      43.169  26.396  36.170  1.00  0.00    -0.205 F 
ATOM     94  C   UNL A   1      46.829  26.377  36.139  1.00  0.00     0.022 A 
BRANCH  92  95
ATOM     95  S   UNL A   1      45.262  24.474  37.343  1.00  0.00     0.127 S 
ATOM     96  O   UNL A   1      44.449  23.677  36.426  1.00  0.00    -0.237 OA
ATOM     97  O   UNL A   1      46.632  23.989  37.520  1.00  0.00    -0.237 OA
ATOM     98  O   UNL A   1      44.605  24.880  38.577  1.00  0.00    -0.744 OA
ENDBRANCH  92  95
ENDBRANCH  65  88
ENDBRANCH  39  40
ENDBRANCH  31  34
ENDBRANCH  29  30
ENDBRANCH  28  29
ENDBRANCH  27  28
ENDBRANCH   1  27
TORSDOF 19
ENDMDL
MODEL 3
REMARK VINA RESULT:     -10.3      4.314      7.439
REMARK SMILES NC(=O)C1CC[NH+](Cc2ccc(C(=O)NCCCCCCNC(=O)c3ccc(-c4c5nc(c(-c6cccc(S(=O)(=O)[O-])c6F)c6ccc([nH]6)c(-c6cccc(S(=O)(=O)[O-])c6F)c6nc(c(-c7cccc(S(=O)(=O)[O-])c7F)c7ccc4[nH]7)C=C6)C=C5)cc3)cc2)CC1
REMARK SMILES IDX 18 1 17 2 16 3 15 4 13 5 14 6 12 8 9 9 10 10 89 11 11 12
REMARK SMILES IDX 88 13 8 14 7 15 4 16 5 17 91 18 6 19 90 20 2 22 1 23 3 26
REMARK SMILES IDX 19 27 20 28 21 29 22 30 23 31 24 33 25 34 26 35 87 36 27 37
REMARK SMILES IDX 86 38 28 39 29 40 30 41 80 42 31 43 85 44 79 45 81 46 32 47
REMARK SMILES IDX 84 48 78 49 77 50 33 52 65 53 45 54 64 55 46 56 49 57 63 58
REMARK SMILES IDX 82 59 47 60 48 61 62 63 83 64 50 65 34 66 35 67 43 68 36 69
REMARK SMILES IDX 38 70 44 71 37 72 39 73 40 74 41 75 42 76 66 77 67 78 75 79
REMARK SMILES IDX 68 80 70 81 76 82 69 83 71 84 72 85 73 86 74 87 51 88 52 89
REMARK SMILES IDX 60 90 53 91 55 92 61 93 54 94 56 95 57 96 58 97 59 98
REMARK H PARENT 15 7 7 21 1 24 1 25 22 32 81 51 49 62
REMARK Flexibility Score: inf
ROOT
ATOM      1  C   UNL A   1      36.922  32.832  30.206  1.00  0.00     0.002 C 
ENDROOT
BRANCH   1   2
ATOM      2  C   UNL A   1      37.619  34.200  30.216  1.00  0.00     0.021 C 
BRANCH   2   3
ATOM      3  C   UNL A   1      38.631  34.360  31.353  1.00  0.00     0.116 C 
BRANCH   3   4
ATOM      4  N   UNL A   1      37.937  34.479  32.624  1.00  0.00    -0.352 N 
ATOM      5  C   UNL A   1      37.736  33.581  33.640  1.00  0.00     0.251 C 
ATOM      6  O   UNL A   1      37.118  33.949  34.639  1.00  0.00    -0.269 OA
ATOM      7  H   UNL A   1      37.540  35.365  32.786  1.00  0.00     0.163 HD
BRANCH   5   8
ATOM      8  C   UNL A   1      38.312  32.214  33.608  1.00  0.00     0.039 A 
ATOM      9  C   UNL A   1      39.609  29.733  33.332  1.00  0.00     0.006 A 
ATOM     10  C   UNL A   1      40.324  30.867  33.742  1.00  0.00     0.010 A 
ATOM     11  C   UNL A   1      38.218  29.832  33.184  1.00  0.00     0.010 A 
ATOM     12  C   UNL A   1      39.682  32.098  33.872  1.00  0.00     0.014 A 
ATOM     13  C   UNL A   1      37.571  31.062  33.334  1.00  0.00     0.014 A 
BRANCH   9  14
ATOM     14  C   UNL A   1      40.348  28.455  32.975  1.00  0.00     0.299 C 
BRANCH  14  15
ATOM     15  N   UNL A   1      41.619  28.224  33.696  1.00  0.00    -0.331 N 
ATOM     16  C   UNL A   1      43.893  26.630  34.680  1.00  0.00     0.089 C 
ATOM     17  C   UNL A   1      42.765  27.098  35.602  1.00  0.00     0.075 C 
ATOM     18  C   UNL A   1      44.041  27.664  33.555  1.00  0.00     0.075 C 
ATOM     19  C   UNL A   1      41.459  27.320  34.838  1.00  0.00     0.263 C 
ATOM     20  C   UNL A   1      42.717  27.833  32.801  1.00  0.00     0.263 C 
ATOM     21  H   UNL A   1      41.894  29.125  34.088  1.00  0.00     0.348 HD
BRANCH  16  22
ATOM     22  C   UNL A   1      43.738  25.232  34.068  1.00  0.00     0.220 C 
ATOM     23  N   UNL A   1      43.053  24.290  34.767  1.00  0.00    -0.369 N 
ATOM     24  H   UNL A   1      42.941  23.386  34.394  1.00  0.00     0.159 HD
ATOM     25  H   UNL A   1      42.669  24.511  35.646  1.00  0.00     0.159 HD
ATOM     26  O   UNL A   1      44.249  24.920  32.993  1.00  0.00    -0.275 OA
ENDBRANCH  16  22
ENDBRANCH  14  15
ENDBRANCH   9  14
ENDBRANCH   5   8
ENDBRANCH   3   4
ENDBRANCH   2   3
ENDBRANCH   1   2
BRANCH   1  27
ATOM     27  C   UNL A   1      35.477  32.839  30.719  1.00  0.00     0.002 C 
BRANCH  27  28
ATOM     28  C   UNL A   1      34.419  33.199  29.672  1.00  0.00     0.021 C 
BRANCH  28  29
ATOM     29  C   UNL A   1      34.682  32.632  28.280  1.00  0.00     0.116 C 
BRANCH  29  30
ATOM     30  N   UNL A   1      33.977  31.380  28.065  1.00  0.00    -0.352 N 
ATOM     31  C   UNL A   1      34.479  30.111  27.922  1.00  0.00     0.251 C 
ATOM     32  H   UNL A   1      32.996  31.452  28.013  1.00  0.00     0.163 HD
ATOM     33  O   UNL A   1      33.747  29.206  27.534  1.00  0.00    -0.269 OA
BRANCH  31  34
ATOM     34  C   UNL A   1      35.900  29.834  28.231  1.00  0.00     0.039 A 
ATOM     35  C   UNL A   1      36.238  29.376  29.507  1.00  0.00     0.014 A 
ATOM     36  C   UNL A   1      36.902  30.067  27.284  1.00  0.00     0.014 A 
ATOM     37  C   UNL A   1      37.575  29.128  29.826  1.00  0.00     0.010 A 
ATOM     38  C   UNL A   1      38.226  29.753  27.580  1.00  0.00     0.010 A 
ATOM     39  C   UNL A   1      38.580  29.305  28.860  1.00  0.00    -0.014 A 
BRANCH  39  40
ATOM     40  C   UNL A   1      40.008  29.062  29.188  1.00  0.00     0.031 A 
ATOM     41  C   UNL A   1      40.847  30.167  29.775  1.00  0.00     0.074 A 
ATOM     42  C   UNL A   1      40.569  27.872  28.897  1.00  0.00     0.049 A 
ATOM     43  N   UNL A   1      42.114  30.159  30.099  1.00  0.00    -0.248 NA
ATOM     44  C   UNL A   1      40.181  31.461  30.004  1.00  0.00     0.031 C 
ATOM     45  C   UNL A   1      39.885  26.749  28.253  1.00  0.00     0.029 A 
ATOM     46  N   UNL A   1      41.850  27.416  29.087  1.00  0.00    -0.354 N 
ATOM     47  C   UNL A   1      42.406  31.448  30.530  1.00  0.00     0.074 A 
ATOM     48  C   UNL A   1      41.193  32.224  30.393  1.00  0.00     0.031 C 
ATOM     49  C   UNL A   1      40.752  25.734  28.105  1.00  0.00     0.029 A 
ATOM     50  C   UNL A   1      42.054  26.138  28.625  1.00  0.00     0.049 A 
ATOM     51  H   UNL A   1      42.556  27.955  29.513  1.00  0.00     0.167 HD
ATOM     52  C   UNL A   1      43.567  31.935  31.029  1.00  0.00     0.034 A 
ATOM     53  C   UNL A   1      43.166  25.374  28.626  1.00  0.00     0.034 A 
ATOM     54  C   UNL A   1      44.755  31.147  31.217  1.00  0.00     0.049 A 
ATOM     55  C   UNL A   1      44.422  25.915  29.255  1.00  0.00     0.074 A 
ATOM     56  C   UNL A   1      45.957  31.524  31.789  1.00  0.00     0.029 A 
ATOM     57  N   UNL A   1      44.888  29.819  30.842  1.00  0.00    -0.354 N 
ATOM     58  N   UNL A   1      44.633  27.090  29.799  1.00  0.00    -0.248 NA
ATOM     59  C   UNL A   1      45.579  25.010  29.314  1.00  0.00     0.031 C 
ATOM     60  C   UNL A   1      46.823  30.425  31.747  1.00  0.00     0.029 A 
ATOM     61  C   UNL A   1      46.151  29.359  31.172  1.00  0.00     0.049 A 
ATOM     62  H   UNL A   1      44.188  29.283  30.404  1.00  0.00     0.167 HD
ATOM     63  C   UNL A   1      45.928  27.049  30.304  1.00  0.00     0.074 A 
ATOM     64  C   UNL A   1      46.446  25.727  30.016  1.00  0.00     0.031 C 
ATOM     65  C   UNL A   1      46.628  28.020  30.938  1.00  0.00     0.034 A 
BRANCH  52  66
ATOM     66  C   UNL A   1      43.592  33.379  31.463  1.00  0.00     0.023 A 
ATOM     67  C   UNL A   1      43.950  34.378  30.533  1.00  0.00     0.012 A 
ATOM     68  C   UNL A   1      43.213  33.754  32.766  1.00  0.00     0.148 A 
ATOM     69  C   UNL A   1      43.964  35.721  30.902  1.00  0.00     0.002 A 
ATOM     70  C   UNL A   1      43.185  35.101  33.114  1.00  0.00     0.091 A 
ATOM     71  F   UNL A   1      42.897  32.791  33.643  1.00  0.00    -0.205 F 
ATOM     72  C   UNL A   1      43.572  36.083  32.188  1.00  0.00     0.022 A 
BRANCH  70  73
ATOM     73  S   UNL A   1      42.619  35.675  34.719  1.00  0.00     0.127 S 
ATOM     74  O   UNL A   1      43.603  35.066  35.614  1.00  0.00    -0.237 OA
ATOM     75  O   UNL A   1      42.734  37.127  34.584  1.00  0.00    -0.237 OA
ATOM     76  O   UNL A   1      41.256  35.185  34.862  1.00  0.00    -0.744 OA
ENDBRANCH  70  73
ENDBRANCH  52  66
BRANCH  53  77
ATOM     77  C   UNL A   1      43.114  23.984  28.093  1.00  0.00     0.023 A 
ATOM     78  C   UNL A   1      42.334  23.017  28.758  1.00  0.00     0.012 A 
ATOM     79  C   UNL A   1      43.806  23.620  26.923  1.00  0.00     0.148 A 
ATOM     80  C   UNL A   1      42.274  21.705  28.288  1.00  0.00     0.002 A 
ATOM     81  C   UNL A   1      43.697  22.326  26.427  1.00  0.00     0.091 A 
ATOM     82  F   UNL A   1      44.551  24.552  26.309  1.00  0.00    -0.205 F 
ATOM     83  C   UNL A   1      42.946  21.362  27.118  1.00  0.00     0.022 A 
BRANCH  81  84
ATOM     84  S   UNL A   1      44.421  21.835  24.858  1.00  0.00     0.127 S 
ATOM     85  O   UNL A   1      45.849  21.961  25.134  1.00  0.00    -0.237 OA
ATOM     86  O   UNL A   1      43.937  20.461  24.717  1.00  0.00    -0.237 OA
ATOM     87  O   UNL A   1      43.880  22.763  23.872  1.00  0.00    -0.744 OA
ENDBRANCH  81  84
ENDBRANCH  53  77
BRANCH  65  88
ATOM     88  C   UNL A   1      48.016  27.683  31.417  1.00  0.00     0.023 A 
ATOM     89  C   UNL A   1      49.128  27.944  30.591  1.00  0.00     0.012 A 
ATOM     90  C   UNL A   1      48.221  27.169  32.712  1.00  0.00     0.148 A 
ATOM     91  C   UNL A   1      50.420  27.663  31.036  1.00  0.00     0.002 A 
ATOM     92  C   UNL A   1      49.514  26.938  33.166  1.00  0.00     0.091 A 
ATOM     93  F   UNL A   1      47.148  26.906  33.474  1.00  0.00    -0.205 F 
ATOM     94  C   UNL A   1      50.614  27.172  32.325  1.00  0.00     0.022 A 
BRANCH  92  95
ATOM     95  S   UNL A   1      49.853  26.400  34.847  1.00  0.00     0.127 S 
ATOM     96  O   UNL A   1      51.173  25.789  34.704  1.00  0.00    -0.237 OA
ATOM     97  O   UNL A   1      49.843  27.663  35.587  1.00  0.00    -0.237 OA
ATOM     98  O   UNL A   1      48.771  25.491  35.197  1.00  0.00    -0.744 OA
ENDBRANCH  92  95
ENDBRANCH  65  88
ENDBRANCH  39  40
ENDBRANCH  31  34
ENDBRANCH  29  30
ENDBRANCH  28  29
ENDBRANCH  27  28
ENDBRANCH   1  27
TORSDOF 19
ENDMDL
