MODEL 1
REMARK VINA RESULT:      -9.7      0.000      0.000
REMARK SMILES CC(C)(C)C(=O)NCc1ccc(C(=O)NCCCCCCNC(=O)c2ccc(-c3c4nc(c(-c5cccc(S(=O)(=O)[O-])c5F)c5ccc([nH]5)c(-c5cccc(S(=O)(=O)[O-])c5F)c5nc(c(-c6cccc(S(=O)(=O)[O-])c6F)c6ccc3[nH]6)C=C5)C=C4)cc2)o1
REMARK SMILES IDX 18 1 17 2 16 3 15 4 13 5 14 6 12 8 9 9 10 10 88 11 11 12
REMARK SMILES IDX 8 13 7 14 5 15 6 16 2 18 1 19 3 20 4 21 19 22 20 23 21 24
REMARK SMILES IDX 22 25 23 26 24 28 25 29 26 30 87 31 27 32 86 33 28 34 29 35
REMARK SMILES IDX 30 36 80 37 31 38 85 39 79 40 81 41 32 42 84 43 78 44 77 45
REMARK SMILES IDX 33 47 65 48 45 49 64 50 46 51 49 52 63 53 82 54 47 55 48 56
REMARK SMILES IDX 62 58 83 59 50 60 34 61 35 62 43 63 36 64 38 65 44 66 37 67
REMARK SMILES IDX 39 68 40 69 41 70 42 71 66 72 67 73 75 74 68 75 70 76 76 77
REMARK SMILES IDX 69 78 71 79 72 80 73 81 74 82 51 83 52 84 60 85 53 86 55 87
REMARK SMILES IDX 61 88 54 89 56 90 57 91 58 92 59 93
REMARK H PARENT 15 7 7 17 22 27 81 46 49 57
REMARK Flexibility Score: inf
ROOT
ATOM      1  C   UNL A   1      37.952  22.767  26.123  1.00  0.00     0.002 C 
ENDROOT
BRANCH   1   2
ATOM      2  C   UNL A   1      37.346  22.349  24.776  1.00  0.00     0.021 C 
BRANCH   2   3
ATOM      3  C   UNL A   1      36.433  21.126  24.877  1.00  0.00     0.116 C 
BRANCH   3   4
ATOM      4  N   UNL A   1      35.571  21.225  26.035  1.00  0.00    -0.349 N 
ATOM      5  C   UNL A   1      34.210  21.371  26.152  1.00  0.00     0.286 C 
ATOM      6  O   UNL A   1      33.780  21.387  27.309  1.00  0.00    -0.266 OA
ATOM      7  H   UNL A   1      36.047  21.178  26.895  1.00  0.00     0.163 HD
BRANCH   5   8
ATOM      8  C   UNL A   1      33.342  21.483  24.991  1.00  0.00     0.191 A 
ATOM      9  C   UNL A   1      31.986  22.653  23.680  1.00  0.00     0.124 A 
ATOM     10  C   UNL A   1      32.039  21.389  23.143  1.00  0.00     0.048 A 
ATOM     11  O   UNL A   1      32.763  22.716  24.793  1.00  0.00    -0.454 OA
ATOM     12  C   UNL A   1      32.938  20.654  23.956  1.00  0.00     0.056 A 
BRANCH   9  13
ATOM     13  C   UNL A   1      31.334  23.915  23.261  1.00  0.00     0.191 C 
BRANCH  13  14
ATOM     14  N   UNL A   1      32.140  24.576  22.259  1.00  0.00    -0.348 N 
ATOM     15  C   UNL A   1      32.897  25.701  22.299  1.00  0.00     0.225 C 
ATOM     16  O   UNL A   1      33.556  25.948  21.283  1.00  0.00    -0.275 OA
ATOM     17  H   UNL A   1      32.139  24.125  21.384  1.00  0.00     0.163 HD
BRANCH  15  18
ATOM     18  C   UNL A   1      32.947  26.636  23.528  1.00  0.00     0.041 C 
ATOM     19  C   UNL A   1      33.710  27.923  23.129  1.00  0.00     0.021 C 
ATOM     20  C   UNL A   1      33.723  26.012  24.696  1.00  0.00     0.021 C 
ATOM     21  C   UNL A   1      31.531  27.065  23.939  1.00  0.00     0.021 C 
ENDBRANCH  15  18
ENDBRANCH  13  14
ENDBRANCH   9  13
ENDBRANCH   5   8
ENDBRANCH   3   4
ENDBRANCH   2   3
ENDBRANCH   1   2
BRANCH   1  22
ATOM     22  C   UNL A   1      39.366  22.232  26.392  1.00  0.00     0.002 C 
BRANCH  22  23
ATOM     23  C   UNL A   1      39.677  20.869  25.769  1.00  0.00     0.021 C 
BRANCH  23  24
ATOM     24  C   UNL A   1      40.463  19.924  26.674  1.00  0.00     0.116 C 
BRANCH  24  25
ATOM     25  N   UNL A   1      41.722  19.521  26.067  1.00  0.00    -0.352 N 
ATOM     26  C   UNL A   1      42.803  20.291  25.716  1.00  0.00     0.251 C 
ATOM     27  H   UNL A   1      41.812  18.559  25.880  1.00  0.00     0.163 HD
ATOM     28  O   UNL A   1      43.687  19.818  25.006  1.00  0.00    -0.269 OA
BRANCH  26  29
ATOM     29  C   UNL A   1      42.899  21.689  26.185  1.00  0.00     0.039 A 
ATOM     30  C   UNL A   1      43.011  21.939  27.556  1.00  0.00     0.014 A 
ATOM     31  C   UNL A   1      42.857  22.752  25.278  1.00  0.00     0.014 A 
ATOM     32  C   UNL A   1      43.131  23.254  28.012  1.00  0.00     0.010 A 
ATOM     33  C   UNL A   1      43.045  24.056  25.729  1.00  0.00     0.010 A 
ATOM     34  C   UNL A   1      43.176  24.322  27.100  1.00  0.00    -0.014 A 
BRANCH  34  35
ATOM     35  C   UNL A   1      43.375  25.718  27.562  1.00  0.00     0.031 A 
ATOM     36  C   UNL A   1      44.756  26.312  27.621  1.00  0.00     0.074 A 
ATOM     37  C   UNL A   1      42.318  26.424  28.013  1.00  0.00     0.049 A 
ATOM     38  N   UNL A   1      45.127  27.495  28.037  1.00  0.00    -0.248 NA
ATOM     39  C   UNL A   1      45.870  25.456  27.181  1.00  0.00     0.031 C 
ATOM     40  C   UNL A   1      40.943  25.928  28.087  1.00  0.00     0.029 A 
ATOM     41  N   UNL A   1      42.240  27.696  28.520  1.00  0.00    -0.354 N 
ATOM     42  C   UNL A   1      46.513  27.514  27.944  1.00  0.00     0.074 A 
ATOM     43  C   UNL A   1      46.921  26.213  27.462  1.00  0.00     0.031 C 
ATOM     44  C   UNL A   1      40.158  26.885  28.607  1.00  0.00     0.029 A 
ATOM     45  C   UNL A   1      40.976  28.051  28.926  1.00  0.00     0.049 A 
ATOM     46  H   UNL A   1      43.018  28.298  28.586  1.00  0.00     0.167 HD
ATOM     47  C   UNL A   1      47.368  28.532  28.207  1.00  0.00     0.034 A 
ATOM     48  C   UNL A   1      40.525  29.186  29.495  1.00  0.00     0.034 A 
ATOM     49  C   UNL A   1      46.954  29.839  28.641  1.00  0.00     0.049 A 
ATOM     50  C   UNL A   1      41.486  30.319  29.728  1.00  0.00     0.074 A 
ATOM     51  C   UNL A   1      47.731  30.967  28.839  1.00  0.00     0.029 A 
ATOM     52  N   UNL A   1      45.651  30.193  28.954  1.00  0.00    -0.354 N 
ATOM     53  N   UNL A   1      42.770  30.376  29.472  1.00  0.00    -0.248 NA
ATOM     54  C   UNL A   1      40.930  31.557  30.292  1.00  0.00     0.031 C 
ATOM     55  C   UNL A   1      46.901  31.997  29.292  1.00  0.00     0.029 A 
ATOM     56  C   UNL A   1      45.602  31.517  29.354  1.00  0.00     0.049 A 
ATOM     57  H   UNL A   1      44.874  29.591  28.900  1.00  0.00     0.167 HD
ATOM     58  C   UNL A   1      43.170  31.664  29.812  1.00  0.00     0.074 A 
ATOM     59  C   UNL A   1      41.986  32.361  30.271  1.00  0.00     0.031 C 
ATOM     60  C   UNL A   1      44.408  32.215  29.762  1.00  0.00     0.034 A 
BRANCH  47  61
ATOM     61  C   UNL A   1      48.838  28.289  27.975  1.00  0.00     0.023 A 
ATOM     62  C   UNL A   1      49.667  27.958  29.067  1.00  0.00     0.012 A 
ATOM     63  C   UNL A   1      49.387  28.333  26.679  1.00  0.00     0.148 A 
ATOM     64  C   UNL A   1      51.026  27.711  28.878  1.00  0.00     0.002 A 
ATOM     65  C   UNL A   1      50.734  28.042  26.493  1.00  0.00     0.091 A 
ATOM     66  F   UNL A   1      48.589  28.671  25.656  1.00  0.00    -0.205 F 
ATOM     67  C   UNL A   1      51.556  27.742  27.592  1.00  0.00     0.022 A 
BRANCH  65  68
ATOM     68  S   UNL A   1      51.495  27.981  24.867  1.00  0.00     0.127 S 
ATOM     69  O   UNL A   1      52.875  27.631  25.200  1.00  0.00    -0.237 OA
ATOM     70  O   UNL A   1      50.738  26.915  24.210  1.00  0.00    -0.237 OA
ATOM     71  O   UNL A   1      51.306  29.303  24.287  1.00  0.00    -0.744 OA
ENDBRANCH  65  68
ENDBRANCH  47  61
BRANCH  48  72
ATOM     72  C   UNL A   1      39.076  29.328  29.815  1.00  0.00     0.023 A 
ATOM     73  C   UNL A   1      38.616  28.984  31.100  1.00  0.00     0.012 A 
ATOM     74  C   UNL A   1      38.164  29.842  28.872  1.00  0.00     0.148 A 
ATOM     75  C   UNL A   1      37.268  29.122  31.433  1.00  0.00     0.002 A 
ATOM     76  C   UNL A   1      36.835  30.030  29.228  1.00  0.00     0.091 A 
ATOM     77  F   UNL A   1      38.621  30.153  27.651  1.00  0.00    -0.205 F 
ATOM     78  C   UNL A   1      36.380  29.655  30.503  1.00  0.00     0.022 A 
BRANCH  76  79
ATOM     79  S   UNL A   1      35.652  30.835  28.141  1.00  0.00     0.127 S 
ATOM     80  O   UNL A   1      35.410  29.798  27.142  1.00  0.00    -0.237 OA
ATOM     81  O   UNL A   1      34.533  31.091  29.048  1.00  0.00    -0.237 OA
ATOM     82  O   UNL A   1      36.318  32.037  27.659  1.00  0.00    -0.744 OA
ENDBRANCH  76  79
ENDBRANCH  48  72
BRANCH  60  83
ATOM     83  C   UNL A   1      44.551  33.651  30.189  1.00  0.00     0.023 A 
ATOM     84  C   UNL A   1      44.441  34.680  29.233  1.00  0.00     0.012 A 
ATOM     85  C   UNL A   1      44.719  33.985  31.547  1.00  0.00     0.148 A 
ATOM     86  C   UNL A   1      44.528  36.017  29.617  1.00  0.00     0.002 A 
ATOM     87  C   UNL A   1      44.756  35.321  31.929  1.00  0.00     0.091 A 
ATOM     88  F   UNL A   1      44.841  32.992  32.441  1.00  0.00    -0.205 F 
ATOM     89  C   UNL A   1      44.672  36.337  30.965  1.00  0.00     0.022 A 
BRANCH  87  90
ATOM     90  S   UNL A   1      44.844  35.827  33.651  1.00  0.00     0.127 S 
ATOM     91  O   UNL A   1      43.659  35.181  34.212  1.00  0.00    -0.237 OA
ATOM     92  O   UNL A   1      46.116  35.247  34.081  1.00  0.00    -0.237 OA
ATOM     93  O   UNL A   1      44.818  37.284  33.641  1.00  0.00    -0.744 OA
ENDBRANCH  87  90
ENDBRANCH  60  83
ENDBRANCH  34  35
ENDBRANCH  26  29
ENDBRANCH  24  25
ENDBRANCH  23  24
ENDBRANCH  22  23
ENDBRANCH   1  22
TORSDOF 19
ENDMDL
MODEL 2
REMARK VINA RESULT:      -9.7      5.048     11.365
REMARK SMILES CC(C)(C)C(=O)NCc1ccc(C(=O)NCCCCCCNC(=O)c2ccc(-c3c4nc(c(-c5cccc(S(=O)(=O)[O-])c5F)c5ccc([nH]5)c(-c5cccc(S(=O)(=O)[O-])c5F)c5nc(c(-c6cccc(S(=O)(=O)[O-])c6F)c6ccc3[nH]6)C=C5)C=C4)cc2)o1
REMARK SMILES IDX 18 1 17 2 16 3 15 4 13 5 14 6 12 8 9 9 10 10 88 11 11 12
REMARK SMILES IDX 8 13 7 14 5 15 6 16 2 18 1 19 3 20 4 21 19 22 20 23 21 24
REMARK SMILES IDX 22 25 23 26 24 28 25 29 26 30 87 31 27 32 86 33 28 34 29 35
REMARK SMILES IDX 30 36 80 37 31 38 85 39 79 40 81 41 32 42 84 43 78 44 77 45
REMARK SMILES IDX 33 47 65 48 45 49 64 50 46 51 49 52 63 53 82 54 47 55 48 56
REMARK SMILES IDX 62 58 83 59 50 60 34 61 35 62 43 63 36 64 38 65 44 66 37 67
REMARK SMILES IDX 39 68 40 69 41 70 42 71 66 72 67 73 75 74 68 75 70 76 76 77
REMARK SMILES IDX 69 78 71 79 72 80 73 81 74 82 51 83 52 84 60 85 53 86 55 87
REMARK SMILES IDX 61 88 54 89 56 90 57 91 58 92 59 93
REMARK H PARENT 15 7 7 17 22 27 81 46 49 57
REMARK Flexibility Score: inf
ROOT
ATOM      1  C   UNL A   1      33.300  36.019  29.017  1.00  0.00     0.002 C 
ENDROOT
BRANCH   1   2
ATOM      2  C   UNL A   1      32.792  36.214  30.452  1.00  0.00     0.021 C 
BRANCH   2   3
ATOM      3  C   UNL A   1      33.831  35.858  31.516  1.00  0.00     0.116 C 
BRANCH   3   4
ATOM      4  N   UNL A   1      33.690  34.477  31.926  1.00  0.00    -0.349 N 
ATOM      5  C   UNL A   1      34.623  33.506  32.201  1.00  0.00     0.286 C 
ATOM      6  O   UNL A   1      34.160  32.421  32.565  1.00  0.00    -0.266 OA
ATOM      7  H   UNL A   1      32.757  34.181  32.027  1.00  0.00     0.163 HD
BRANCH   5   8
ATOM      8  C   UNL A   1      36.051  33.749  32.083  1.00  0.00     0.191 A 
ATOM      9  C   UNL A   1      38.087  33.858  32.959  1.00  0.00     0.124 A 
ATOM     10  C   UNL A   1      38.224  34.196  31.634  1.00  0.00     0.048 A 
ATOM     11  O   UNL A   1      36.783  33.592  33.237  1.00  0.00    -0.454 OA
ATOM     12  C   UNL A   1      36.930  34.086  31.065  1.00  0.00     0.056 A 
BRANCH   9  13
ATOM     13  C   UNL A   1      39.047  33.668  34.070  1.00  0.00     0.191 C 
BRANCH  13  14
ATOM     14  N   UNL A   1      39.303  34.933  34.722  1.00  0.00    -0.348 N 
ATOM     15  C   UNL A   1      39.366  35.284  36.031  1.00  0.00     0.225 C 
ATOM     16  O   UNL A   1      39.711  36.448  36.264  1.00  0.00    -0.275 OA
ATOM     17  H   UNL A   1      39.461  35.678  34.099  1.00  0.00     0.163 HD
BRANCH  15  18
ATOM     18  C   UNL A   1      39.029  34.308  37.180  1.00  0.00     0.041 C 
ATOM     19  C   UNL A   1      37.599  33.761  36.950  1.00  0.00     0.021 C 
ATOM     20  C   UNL A   1      39.015  35.009  38.546  1.00  0.00     0.021 C 
ATOM     21  C   UNL A   1      39.978  33.101  37.161  1.00  0.00     0.021 C 
ENDBRANCH  15  18
ENDBRANCH  13  14
ENDBRANCH   9  13
ENDBRANCH   5   8
ENDBRANCH   3   4
ENDBRANCH   2   3
ENDBRANCH   1   2
BRANCH   1  22
ATOM     22  C   UNL A   1      33.098  34.609  28.443  1.00  0.00     0.002 C 
BRANCH  22  23
ATOM     23  C   UNL A   1      34.384  33.854  28.098  1.00  0.00     0.021 C 
BRANCH  23  24
ATOM     24  C   UNL A   1      34.594  32.567  28.891  1.00  0.00     0.116 C 
BRANCH  24  25
ATOM     25  N   UNL A   1      33.988  31.423  28.226  1.00  0.00    -0.352 N 
ATOM     26  C   UNL A   1      34.572  30.260  27.792  1.00  0.00     0.251 C 
ATOM     27  H   UNL A   1      33.019  31.493  28.064  1.00  0.00     0.163 HD
ATOM     28  O   UNL A   1      33.953  29.503  27.048  1.00  0.00    -0.269 OA
BRANCH  26  29
ATOM     29  C   UNL A   1      35.949  29.922  28.212  1.00  0.00     0.039 A 
ATOM     30  C   UNL A   1      36.158  29.393  29.488  1.00  0.00     0.014 A 
ATOM     31  C   UNL A   1      37.033  30.147  27.358  1.00  0.00     0.014 A 
ATOM     32  C   UNL A   1      37.450  29.043  29.889  1.00  0.00     0.010 A 
ATOM     33  C   UNL A   1      38.309  29.735  27.733  1.00  0.00     0.010 A 
ATOM     34  C   UNL A   1      38.532  29.186  29.005  1.00  0.00    -0.014 A 
BRANCH  34  35
ATOM     35  C   UNL A   1      39.900  28.753  29.388  1.00  0.00     0.031 A 
ATOM     36  C   UNL A   1      40.691  29.533  30.402  1.00  0.00     0.074 A 
ATOM     37  C   UNL A   1      40.463  27.705  28.754  1.00  0.00     0.049 A 
ATOM     38  N   UNL A   1      41.911  29.332  30.826  1.00  0.00    -0.248 NA
ATOM     39  C   UNL A   1      40.036  30.709  30.998  1.00  0.00     0.031 C 
ATOM     40  C   UNL A   1      39.830  26.922  27.691  1.00  0.00     0.029 A 
ATOM     41  N   UNL A   1      41.705  27.137  28.891  1.00  0.00    -0.354 N 
ATOM     42  C   UNL A   1      42.184  30.370  31.708  1.00  0.00     0.074 A 
ATOM     43  C   UNL A   1      41.013  31.220  31.734  1.00  0.00     0.031 C 
ATOM     44  C   UNL A   1      40.686  25.975  27.274  1.00  0.00     0.029 A 
ATOM     45  C   UNL A   1      41.934  26.099  28.020  1.00  0.00     0.049 A 
ATOM     46  H   UNL A   1      42.368  27.445  29.551  1.00  0.00     0.167 HD
ATOM     47  C   UNL A   1      43.296  30.583  32.452  1.00  0.00     0.034 A 
ATOM     48  C   UNL A   1      43.029  25.334  27.838  1.00  0.00     0.034 A 
ATOM     49  C   UNL A   1      44.439  29.711  32.457  1.00  0.00     0.049 A 
ATOM     50  C   UNL A   1      44.231  25.558  28.713  1.00  0.00     0.074 A 
ATOM     51  C   UNL A   1      45.574  29.783  33.248  1.00  0.00     0.029 A 
ATOM     52  N   UNL A   1      44.600  28.612  31.628  1.00  0.00    -0.354 N 
ATOM     53  N   UNL A   1      44.405  26.442  29.664  1.00  0.00    -0.248 NA
ATOM     54  C   UNL A   1      45.374  24.655  28.517  1.00  0.00     0.031 C 
ATOM     55  C   UNL A   1      46.430  28.739  32.881  1.00  0.00     0.029 A 
ATOM     56  C   UNL A   1      45.818  28.003  31.879  1.00  0.00     0.049 A 
ATOM     57  H   UNL A   1      43.945  28.308  30.959  1.00  0.00     0.167 HD
ATOM     58  C   UNL A   1      45.660  26.183  30.203  1.00  0.00     0.074 A 
ATOM     59  C   UNL A   1      46.193  25.043  29.486  1.00  0.00     0.031 C 
ATOM     60  C   UNL A   1      46.318  26.838  31.191  1.00  0.00     0.034 A 
BRANCH  47  61
ATOM     61  C   UNL A   1      43.307  31.780  33.368  1.00  0.00     0.023 A 
ATOM     62  C   UNL A   1      42.947  31.621  34.722  1.00  0.00     0.012 A 
ATOM     63  C   UNL A   1      43.722  33.045  32.908  1.00  0.00     0.148 A 
ATOM     64  C   UNL A   1      42.965  32.708  35.595  1.00  0.00     0.002 A 
ATOM     65  C   UNL A   1      43.779  34.114  33.794  1.00  0.00     0.091 A 
ATOM     66  F   UNL A   1      44.039  33.183  31.612  1.00  0.00    -0.205 F 
ATOM     67  C   UNL A   1      43.390  33.951  35.134  1.00  0.00     0.022 A 
BRANCH  65  68
ATOM     68  S   UNL A   1      44.387  35.736  33.316  1.00  0.00     0.127 S 
ATOM     69  O   UNL A   1      43.873  36.574  34.398  1.00  0.00    -0.237 OA
ATOM     70  O   UNL A   1      45.837  35.540  33.333  1.00  0.00    -0.237 OA
ATOM     71  O   UNL A   1      43.827  36.000  31.998  1.00  0.00    -0.744 OA
ENDBRANCH  65  68
ENDBRANCH  47  61
BRANCH  48  72
ATOM     72  C   UNL A   1      43.005  24.236  26.830  1.00  0.00     0.023 A 
ATOM     73  C   UNL A   1      43.703  24.397  25.618  1.00  0.00     0.012 A 
ATOM     74  C   UNL A   1      42.335  23.023  27.083  1.00  0.00     0.148 A 
ATOM     75  C   UNL A   1      43.712  23.380  24.663  1.00  0.00     0.002 A 
ATOM     76  C   UNL A   1      42.395  21.994  26.152  1.00  0.00     0.091 A 
ATOM     77  F   UNL A   1      41.668  22.895  28.238  1.00  0.00    -0.205 F 
ATOM     78  C   UNL A   1      43.069  22.175  24.934  1.00  0.00     0.022 A 
BRANCH  76  79
ATOM     79  S   UNL A   1      41.711  20.363  26.475  1.00  0.00     0.127 S 
ATOM     80  O   UNL A   1      42.251  19.587  25.363  1.00  0.00    -0.237 OA
ATOM     81  O   UNL A   1      42.284  20.049  27.784  1.00  0.00    -0.237 OA
ATOM     82  O   UNL A   1      40.265  20.539  26.482  1.00  0.00    -0.744 OA
ENDBRANCH  76  79
ENDBRANCH  48  72
BRANCH  60  83
ATOM     83  C   UNL A   1      47.679  26.328  31.581  1.00  0.00     0.023 A 
ATOM     84  C   UNL A   1      48.817  26.754  30.867  1.00  0.00     0.012 A 
ATOM     85  C   UNL A   1      47.840  25.487  32.700  1.00  0.00     0.148 A 
ATOM     86  C   UNL A   1      50.090  26.325  31.241  1.00  0.00     0.002 A 
ATOM     87  C   UNL A   1      49.116  25.103  33.095  1.00  0.00     0.091 A 
ATOM     88  F   UNL A   1      46.744  25.076  33.355  1.00  0.00    -0.205 F 
ATOM     89  C   UNL A   1      50.240  25.511  32.361  1.00  0.00     0.022 A 
BRANCH  87  90
ATOM     90  S   UNL A   1      49.411  24.134  34.580  1.00  0.00     0.127 S 
ATOM     91  O   UNL A   1      48.705  22.892  34.271  1.00  0.00    -0.237 OA
ATOM     92  O   UNL A   1      50.870  24.020  34.592  1.00  0.00    -0.237 OA
ATOM     93  O   UNL A   1      48.858  24.912  35.681  1.00  0.00    -0.744 OA
ENDBRANCH  87  90
ENDBRANCH  60  83
ENDBRANCH  34  35
ENDBRANCH  26  29
ENDBRANCH  24  25
ENDBRANCH  23  24
ENDBRANCH  22  23
ENDBRANCH   1  22
TORSDOF 19
ENDMDL
MODEL 3
REMARK VINA RESULT:      -9.7      5.718     10.003
REMARK SMILES CC(C)(C)C(=O)NCc1ccc(C(=O)NCCCCCCNC(=O)c2ccc(-c3c4nc(c(-c5cccc(S(=O)(=O)[O-])c5F)c5ccc([nH]5)c(-c5cccc(S(=O)(=O)[O-])c5F)c5nc(c(-c6cccc(S(=O)(=O)[O-])c6F)c6ccc3[nH]6)C=C5)C=C4)cc2)o1
REMARK SMILES IDX 18 1 17 2 16 3 15 4 13 5 14 6 12 8 9 9 10 10 88 11 11 12
REMARK SMILES IDX 8 13 7 14 5 15 6 16 2 18 1 19 3 20 4 21 19 22 20 23 21 24
REMARK SMILES IDX 22 25 23 26 24 28 25 29 26 30 87 31 27 32 86 33 28 34 29 35
REMARK SMILES IDX 30 36 80 37 31 38 85 39 79 40 81 41 32 42 84 43 78 44 77 45
REMARK SMILES IDX 33 47 65 48 45 49 64 50 46 51 49 52 63 53 82 54 47 55 48 56
REMARK SMILES IDX 62 58 83 59 50 60 34 61 35 62 43 63 36 64 38 65 44 66 37 67
REMARK SMILES IDX 39 68 40 69 41 70 42 71 66 72 67 73 75 74 68 75 70 76 76 77
REMARK SMILES IDX 69 78 71 79 72 80 73 81 74 82 51 83 52 84 60 85 53 86 55 87
REMARK SMILES IDX 61 88 54 89 56 90 57 91 58 92 59 93
REMARK H PARENT 15 7 7 17 22 27 81 46 49 57
REMARK Flexibility Score: inf
ROOT
ATOM      1  C   UNL A   1      35.019  31.191  28.485  1.00  0.00     0.002 C 
ENDROOT
BRANCH   1   2
ATOM      2  C   UNL A   1      35.310  29.926  27.663  1.00  0.00     0.021 C 
BRANCH   2   3
ATOM      3  C   UNL A   1      34.095  29.415  26.889  1.00  0.00     0.116 C 
BRANCH   3   4
ATOM      4  N   UNL A   1      34.441  29.149  25.510  1.00  0.00    -0.349 N 
ATOM      5  C   UNL A   1      33.786  28.457  24.520  1.00  0.00     0.286 C 
ATOM      6  O   UNL A   1      34.351  28.448  23.422  1.00  0.00    -0.266 OA
ATOM      7  H   UNL A   1      35.302  29.534  25.230  1.00  0.00     0.163 HD
BRANCH   5   8
ATOM      8  C   UNL A   1      32.512  27.795  24.751  1.00  0.00     0.191 A 
ATOM      9  C   UNL A   1      30.346  27.544  24.340  1.00  0.00     0.124 A 
ATOM     10  C   UNL A   1      30.660  26.619  25.307  1.00  0.00     0.048 A 
ATOM     11  O   UNL A   1      31.453  28.257  24.004  1.00  0.00    -0.454 OA
ATOM     12  C   UNL A   1      32.052  26.752  25.539  1.00  0.00     0.056 A 
BRANCH   9  13
ATOM     13  C   UNL A   1      29.112  27.850  23.581  1.00  0.00     0.191 C 
BRANCH  13  14
ATOM     14  N   UNL A   1      29.439  28.612  22.397  1.00  0.00    -0.348 N 
ATOM     15  C   UNL A   1      29.328  29.933  22.107  1.00  0.00     0.225 C 
ATOM     16  O   UNL A   1      29.799  30.291  21.022  1.00  0.00    -0.275 OA
ATOM     17  H   UNL A   1      29.813  28.071  21.664  1.00  0.00     0.163 HD
BRANCH  15  18
ATOM     18  C   UNL A   1      28.654  30.947  23.057  1.00  0.00     0.041 C 
ATOM     19  C   UNL A   1      28.432  32.268  22.280  1.00  0.00     0.021 C 
ATOM     20  C   UNL A   1      29.545  31.291  24.259  1.00  0.00     0.021 C 
ATOM     21  C   UNL A   1      27.269  30.445  23.491  1.00  0.00     0.021 C 
ENDBRANCH  15  18
ENDBRANCH  13  14
ENDBRANCH   9  13
ENDBRANCH   5   8
ENDBRANCH   3   4
ENDBRANCH   2   3
ENDBRANCH   1   2
BRANCH   1  22
ATOM     22  C   UNL A   1      35.766  32.450  28.022  1.00  0.00     0.002 C 
BRANCH  22  23
ATOM     23  C   UNL A   1      34.905  33.709  27.895  1.00  0.00     0.021 C 
BRANCH  23  24
ATOM     24  C   UNL A   1      33.430  33.503  28.232  1.00  0.00     0.116 C 
BRANCH  24  25
ATOM     25  N   UNL A   1      32.934  34.539  29.125  1.00  0.00    -0.352 N 
ATOM     26  C   UNL A   1      33.300  34.822  30.417  1.00  0.00     0.251 C 
ATOM     27  H   UNL A   1      32.235  35.121  28.748  1.00  0.00     0.163 HD
ATOM     28  O   UNL A   1      32.615  35.585  31.094  1.00  0.00    -0.269 OA
BRANCH  26  29
ATOM     29  C   UNL A   1      34.512  34.204  30.994  1.00  0.00     0.039 A 
ATOM     30  C   UNL A   1      34.397  32.984  31.666  1.00  0.00     0.014 A 
ATOM     31  C   UNL A   1      35.755  34.835  30.892  1.00  0.00     0.014 A 
ATOM     32  C   UNL A   1      35.538  32.373  32.192  1.00  0.00     0.010 A 
ATOM     33  C   UNL A   1      36.900  34.193  31.358  1.00  0.00     0.010 A 
ATOM     34  C   UNL A   1      36.802  32.960  32.019  1.00  0.00    -0.014 A 
BRANCH  34  35
ATOM     35  C   UNL A   1      38.034  32.290  32.509  1.00  0.00     0.031 A 
ATOM     36  C   UNL A   1      38.676  31.194  31.704  1.00  0.00     0.074 A 
ATOM     37  C   UNL A   1      38.523  32.610  33.723  1.00  0.00     0.049 A 
ATOM     38  N   UNL A   1      39.725  30.467  31.991  1.00  0.00    -0.248 NA
ATOM     39  C   UNL A   1      38.043  30.849  30.420  1.00  0.00     0.031 C 
ATOM     40  C   UNL A   1      37.939  33.595  34.635  1.00  0.00     0.029 A 
ATOM     41  N   UNL A   1      39.605  32.121  34.411  1.00  0.00    -0.354 N 
ATOM     42  C   UNL A   1      39.857  29.559  30.948  1.00  0.00     0.074 A 
ATOM     43  C   UNL A   1      38.761  29.803  30.035  1.00  0.00     0.031 C 
ATOM     44  C   UNL A   1      38.669  33.639  35.761  1.00  0.00     0.029 A 
ATOM     45  C   UNL A   1      39.757  32.671  35.662  1.00  0.00     0.049 A 
ATOM     46  H   UNL A   1      40.215  31.441  34.042  1.00  0.00     0.167 HD
ATOM     47  C   UNL A   1      40.819  28.626  30.751  1.00  0.00     0.034 A 
ATOM     48  C   UNL A   1      40.666  32.420  36.624  1.00  0.00     0.034 A 
ATOM     49  C   UNL A   1      41.932  28.418  31.637  1.00  0.00     0.049 A 
ATOM     50  C   UNL A   1      41.753  31.415  36.359  1.00  0.00     0.074 A 
ATOM     51  C   UNL A   1      43.013  27.568  31.478  1.00  0.00     0.029 A 
ATOM     52  N   UNL A   1      42.105  29.059  32.854  1.00  0.00    -0.354 N 
ATOM     53  N   UNL A   1      41.959  30.687  35.289  1.00  0.00    -0.248 NA
ATOM     54  C   UNL A   1      42.757  31.227  37.416  1.00  0.00     0.031 C 
ATOM     55  C   UNL A   1      43.828  27.680  32.608  1.00  0.00     0.029 A 
ATOM     56  C   UNL A   1      43.268  28.617  33.461  1.00  0.00     0.049 A 
ATOM     57  H   UNL A   1      41.492  29.731  33.231  1.00  0.00     0.167 HD
ATOM     58  C   UNL A   1      43.131  29.978  35.529  1.00  0.00     0.074 A 
ATOM     59  C   UNL A   1      43.602  30.383  36.837  1.00  0.00     0.031 C 
ATOM     60  C   UNL A   1      43.752  29.064  34.743  1.00  0.00     0.034 A 
BRANCH  47  61
ATOM     61  C   UNL A   1      40.741  27.795  29.495  1.00  0.00     0.023 A 
ATOM     62  C   UNL A   1      39.799  26.748  29.413  1.00  0.00     0.012 A 
ATOM     63  C   UNL A   1      41.556  28.080  28.382  1.00  0.00     0.148 A 
ATOM     64  C   UNL A   1      39.694  25.976  28.257  1.00  0.00     0.002 A 
ATOM     65  C   UNL A   1      41.414  27.333  27.218  1.00  0.00     0.091 A 
ATOM     66  F   UNL A   1      42.461  29.064  28.485  1.00  0.00    -0.205 F 
ATOM     67  C   UNL A   1      40.493  26.275  27.157  1.00  0.00     0.022 A 
BRANCH  65  68
ATOM     68  S   UNL A   1      42.342  27.690  25.721  1.00  0.00     0.127 S 
ATOM     69  O   UNL A   1      41.801  28.994  25.342  1.00  0.00    -0.237 OA
ATOM     70  O   UNL A   1      43.720  27.721  26.211  1.00  0.00    -0.237 OA
ATOM     71  O   UNL A   1      42.051  26.599  24.802  1.00  0.00    -0.744 OA
ENDBRANCH  65  68
ENDBRANCH  47  61
BRANCH  48  72
ATOM     72  C   UNL A   1      40.624  33.190  37.899  1.00  0.00     0.023 A 
ATOM     73  C   UNL A   1      39.840  32.713  38.967  1.00  0.00     0.012 A 
ATOM     74  C   UNL A   1      41.388  34.360  38.075  1.00  0.00     0.148 A 
ATOM     75  C   UNL A   1      39.795  33.405  40.179  1.00  0.00     0.002 A 
ATOM     76  C   UNL A   1      41.382  35.012  39.302  1.00  0.00     0.091 A 
ATOM     77  F   UNL A   1      42.119  34.802  37.042  1.00  0.00    -0.205 F 
ATOM     78  C   UNL A   1      40.573  34.546  40.350  1.00  0.00     0.022 A 
BRANCH  76  79
ATOM     79  S   UNL A   1      42.457  36.408  39.654  1.00  0.00     0.127 S 
ATOM     80  O   UNL A   1      41.940  36.866  40.941  1.00  0.00    -0.237 OA
ATOM     81  O   UNL A   1      43.773  35.771  39.708  1.00  0.00    -0.237 OA
ATOM     82  O   UNL A   1      42.283  37.328  38.538  1.00  0.00    -0.744 OA
ENDBRANCH  76  79
ENDBRANCH  48  72
BRANCH  60  83
ATOM     83  C   UNL A   1      45.028  28.452  35.260  1.00  0.00     0.023 A 
ATOM     84  C   UNL A   1      46.263  29.064  34.971  1.00  0.00     0.012 A 
ATOM     85  C   UNL A   1      44.996  27.316  36.091  1.00  0.00     0.148 A 
ATOM     86  C   UNL A   1      47.451  28.535  35.476  1.00  0.00     0.002 A 
ATOM     87  C   UNL A   1      46.178  26.824  36.630  1.00  0.00     0.091 A 
ATOM     88  F   UNL A   1      43.812  26.736  36.339  1.00  0.00    -0.205 F 
ATOM     89  C   UNL A   1      47.407  27.424  36.315  1.00  0.00     0.022 A 
BRANCH  87  90
ATOM     90  S   UNL A   1      46.208  25.456  37.796  1.00  0.00     0.127 S 
ATOM     91  O   UNL A   1      47.545  25.583  38.371  1.00  0.00    -0.237 OA
ATOM     92  O   UNL A   1      45.115  25.800  38.707  1.00  0.00    -0.237 OA
ATOM     93  O   UNL A   1      45.977  24.253  37.006  1.00  0.00    -0.744 OA
ENDBRANCH  87  90
ENDBRANCH  60  83
ENDBRANCH  34  35
ENDBRANCH  26  29
ENDBRANCH  24  25
ENDBRANCH  23  24
ENDBRANCH  22  23
ENDBRANCH   1  22
TORSDOF 19
ENDMDL
