MODEL 1
REMARK VINA RESULT:     -11.1      0.000      0.000
REMARK SMILES Cn1cc(/C=C/C(=O)N(CC(=O)NCCCCCCNC(=O)c2ccc(-c3c4nc(c(-c5cccc(S(=O)(=O)[O-])c5F)c5ccc([nH]5)c(-c5cccc(S(=O)(=O)[O-])c5F)c5nc(c(-c6cccc(S(=O)(=O)[O-])c6F)c6ccc3[nH]6)C=C5)C=C4)cc2)C(C)(C)C)cn1
REMARK SMILES IDX 16 1 15 2 14 3 13 4 11 5 12 6 10 8 9 9 7 10 8 11 6 12 5 13
REMARK SMILES IDX 4 14 1 15 2 16 3 17 91 18 90 19 86 20 87 21 88 22 89 23
REMARK SMILES IDX 17 24 18 25 19 26 20 27 21 28 22 30 23 31 24 32 85 33 25 34
REMARK SMILES IDX 84 35 26 36 27 37 28 38 78 39 29 40 83 41 77 42 79 43 30 44
REMARK SMILES IDX 82 45 76 46 75 47 31 49 63 50 43 51 62 52 44 53 47 54 61 55
REMARK SMILES IDX 80 56 45 57 46 58 60 60 81 61 48 62 32 63 33 64 41 65 34 66
REMARK SMILES IDX 36 67 42 68 35 69 37 70 38 71 39 72 40 73 64 74 65 75 73 76
REMARK SMILES IDX 66 77 68 78 74 79 67 80 69 81 70 82 71 83 72 84 49 85 50 86
REMARK SMILES IDX 58 87 51 88 53 89 59 90 52 91 54 92 55 93 56 94 57 95
REMARK H PARENT 13 7 20 29 79 48 47 59
REMARK Flexibility Score: inf
ROOT
ATOM      1  C   UNL A   1      31.240  27.942  22.715  1.00  0.00     0.002 C 
ENDROOT
BRANCH   1   2
ATOM      2  C   UNL A   1      31.252  26.555  22.084  1.00  0.00     0.021 C 
BRANCH   2   3
ATOM      3  C   UNL A   1      32.639  26.007  21.784  1.00  0.00     0.116 C 
BRANCH   3   4
ATOM      4  N   UNL A   1      32.680  24.565  21.628  1.00  0.00    -0.355 N 
ATOM      5  C   UNL A   1      33.211  23.575  22.394  1.00  0.00     0.239 C 
ATOM      6  O   UNL A   1      32.871  22.421  22.101  1.00  0.00    -0.273 OA
ATOM      7  H   UNL A   1      32.240  24.242  20.809  1.00  0.00     0.163 HD
BRANCH   5   8
ATOM      8  C   UNL A   1      34.054  23.807  23.667  1.00  0.00     0.220 C 
BRANCH   8   9
ATOM      9  N   UNL A   1      33.827  22.940  24.828  1.00  0.00    -0.325 N 
BRANCH   9  10
ATOM     10  C   UNL A   1      34.668  21.881  25.190  1.00  0.00     0.247 C 
ATOM     11  O   UNL A   1      35.696  22.067  25.849  1.00  0.00    -0.270 OA
BRANCH  10  12
ATOM     12  C   UNL A   1      34.447  20.435  24.806  1.00  0.00     0.072 C 
ATOM     13  C   UNL A   1      33.451  19.577  25.080  1.00  0.00     0.017 C 
BRANCH  13  14
ATOM     14  C   UNL A   1      33.384  18.193  24.756  1.00  0.00     0.013 A 
ATOM     15  C   UNL A   1      32.661  14.750  25.505  1.00  0.00     0.173 C 
ATOM     16  N   UNL A   1      33.012  16.047  24.981  1.00  0.00    -0.275 N 
ATOM     17  C   UNL A   1      32.798  17.255  25.578  1.00  0.00     0.116 A 
ATOM     18  N   UNL A   1      33.649  16.143  23.803  1.00  0.00    -0.181 NA
ATOM     19  C   UNL A   1      33.904  17.450  23.679  1.00  0.00     0.143 A 
ENDBRANCH  13  14
ENDBRANCH  10  12
ENDBRANCH   9  10
BRANCH   9  20
ATOM     20  C   UNL A   1      32.636  23.276  25.724  1.00  0.00     0.035 C 
ATOM     21  C   UNL A   1      31.360  22.525  25.298  1.00  0.00     0.034 C 
ATOM     22  C   UNL A   1      32.958  22.947  27.201  1.00  0.00     0.034 C 
ATOM     23  C   UNL A   1      32.238  24.782  25.719  1.00  0.00     0.034 C 
ENDBRANCH   9  20
ENDBRANCH   8   9
ENDBRANCH   5   8
ENDBRANCH   3   4
ENDBRANCH   2   3
ENDBRANCH   1   2
BRANCH   1  24
ATOM     24  C   UNL A   1      32.068  28.060  23.996  1.00  0.00     0.002 C 
BRANCH  24  25
ATOM     25  C   UNL A   1      31.654  29.204  24.927  1.00  0.00     0.021 C 
BRANCH  25  26
ATOM     26  C   UNL A   1      32.790  29.785  25.762  1.00  0.00     0.116 C 
BRANCH  26  27
ATOM     27  N   UNL A   1      32.526  31.162  26.147  1.00  0.00    -0.352 N 
ATOM     28  C   UNL A   1      33.134  31.918  27.121  1.00  0.00     0.251 C 
ATOM     29  H   UNL A   1      31.814  31.615  25.641  1.00  0.00     0.163 HD
ATOM     30  O   UNL A   1      32.644  32.984  27.470  1.00  0.00    -0.269 OA
BRANCH  28  31
ATOM     31  C   UNL A   1      34.378  31.424  27.748  1.00  0.00     0.039 A 
ATOM     32  C   UNL A   1      35.433  32.314  27.955  1.00  0.00     0.014 A 
ATOM     33  C   UNL A   1      34.495  30.085  28.135  1.00  0.00     0.014 A 
ATOM     34  C   UNL A   1      36.592  31.871  28.594  1.00  0.00     0.010 A 
ATOM     35  C   UNL A   1      35.618  29.666  28.841  1.00  0.00     0.010 A 
ATOM     36  C   UNL A   1      36.685  30.550  29.066  1.00  0.00    -0.014 A 
BRANCH  36  37
ATOM     37  C   UNL A   1      37.890  30.077  29.794  1.00  0.00     0.031 A 
ATOM     38  C   UNL A   1      38.173  30.566  31.188  1.00  0.00     0.074 A 
ATOM     39  C   UNL A   1      38.768  29.265  29.172  1.00  0.00     0.049 A 
ATOM     40  N   UNL A   1      39.190  30.296  31.966  1.00  0.00    -0.248 NA
ATOM     41  C   UNL A   1      37.200  31.500  31.780  1.00  0.00     0.031 C 
ATOM     42  C   UNL A   1      38.646  28.783  27.793  1.00  0.00     0.029 A 
ATOM     43  N   UNL A   1      39.950  28.720  29.609  1.00  0.00    -0.354 N 
ATOM     44  C   UNL A   1      38.999  31.050  33.117  1.00  0.00     0.074 A 
ATOM     45  C   UNL A   1      37.789  31.818  32.923  1.00  0.00     0.031 C 
ATOM     46  C   UNL A   1      39.704  28.009  27.503  1.00  0.00     0.029 A 
ATOM     47  C   UNL A   1      40.597  27.967  28.656  1.00  0.00     0.049 A 
ATOM     48  H   UNL A   1      40.301  28.857  30.519  1.00  0.00     0.167 HD
ATOM     49  C   UNL A   1      39.746  31.081  34.247  1.00  0.00     0.034 A 
ATOM     50  C   UNL A   1      41.779  27.323  28.704  1.00  0.00     0.034 A 
ATOM     51  C   UNL A   1      40.930  30.289  34.449  1.00  0.00     0.049 A 
ATOM     52  C   UNL A   1      42.577  27.354  29.980  1.00  0.00     0.074 A 
ATOM     53  C   UNL A   1      41.707  30.182  35.588  1.00  0.00     0.029 A 
ATOM     54  N   UNL A   1      41.516  29.482  33.487  1.00  0.00    -0.354 N 
ATOM     55  N   UNL A   1      42.297  27.945  31.116  1.00  0.00    -0.248 NA
ATOM     56  C   UNL A   1      43.840  26.600  29.992  1.00  0.00     0.031 C 
ATOM     57  C   UNL A   1      42.784  29.337  35.303  1.00  0.00     0.029 A 
ATOM     58  C   UNL A   1      42.655  28.885  34.000  1.00  0.00     0.049 A 
ATOM     59  H   UNL A   1      41.173  29.352  32.572  1.00  0.00     0.167 HD
ATOM     60  C   UNL A   1      43.325  27.605  31.987  1.00  0.00     0.074 A 
ATOM     61  C   UNL A   1      44.224  26.738  31.253  1.00  0.00     0.031 C 
ATOM     62  C   UNL A   1      43.515  27.986  33.275  1.00  0.00     0.034 A 
BRANCH  49  63
ATOM     63  C   UNL A   1      39.282  31.971  35.370  1.00  0.00     0.023 A 
ATOM     64  C   UNL A   1      38.393  31.465  36.342  1.00  0.00     0.012 A 
ATOM     65  C   UNL A   1      39.769  33.287  35.500  1.00  0.00     0.148 A 
ATOM     66  C   UNL A   1      37.965  32.264  37.400  1.00  0.00     0.002 A 
ATOM     67  C   UNL A   1      39.376  34.062  36.586  1.00  0.00     0.091 A 
ATOM     68  F   UNL A   1      40.598  33.758  34.558  1.00  0.00    -0.205 F 
ATOM     69  C   UNL A   1      38.464  33.558  37.528  1.00  0.00     0.022 A 
BRANCH  67  70
ATOM     70  S   UNL A   1      40.025  35.709  36.888  1.00  0.00     0.127 S 
ATOM     71  O   UNL A   1      39.361  36.061  38.143  1.00  0.00    -0.237 OA
ATOM     72  O   UNL A   1      41.461  35.454  37.009  1.00  0.00    -0.237 OA
ATOM     73  O   UNL A   1      39.643  36.511  35.734  1.00  0.00    -0.744 OA
ENDBRANCH  67  70
ENDBRANCH  49  63
BRANCH  50  74
ATOM     74  C   UNL A   1      42.257  26.550  27.523  1.00  0.00     0.023 A 
ATOM     75  C   UNL A   1      42.994  27.205  26.516  1.00  0.00     0.012 A 
ATOM     76  C   UNL A   1      42.000  25.172  27.398  1.00  0.00     0.148 A 
ATOM     77  C   UNL A   1      43.434  26.508  25.390  1.00  0.00     0.002 A 
ATOM     78  C   UNL A   1      42.491  24.472  26.302  1.00  0.00     0.091 A 
ATOM     79  F   UNL A   1      41.289  24.569  28.363  1.00  0.00    -0.205 F 
ATOM     80  C   UNL A   1      43.191  25.142  25.288  1.00  0.00     0.022 A 
BRANCH  78  81
ATOM     81  S   UNL A   1      42.337  22.689  26.148  1.00  0.00     0.127 S 
ATOM     82  O   UNL A   1      43.082  22.224  27.316  1.00  0.00    -0.237 OA
ATOM     83  O   UNL A   1      40.887  22.506  26.227  1.00  0.00    -0.237 OA
ATOM     84  O   UNL A   1      42.916  22.355  24.855  1.00  0.00    -0.744 OA
ENDBRANCH  78  81
ENDBRANCH  50  74
BRANCH  62  85
ATOM     85  C   UNL A   1      44.718  27.438  33.998  1.00  0.00     0.023 A 
ATOM     86  C   UNL A   1      45.939  28.140  33.969  1.00  0.00     0.012 A 
ATOM     87  C   UNL A   1      44.614  26.264  34.771  1.00  0.00     0.148 A 
ATOM     88  C   UNL A   1      47.046  27.665  34.671  1.00  0.00     0.002 A 
ATOM     89  C   UNL A   1      45.705  25.827  35.510  1.00  0.00     0.091 A 
ATOM     90  F   UNL A   1      43.448  25.602  34.772  1.00  0.00    -0.205 F 
ATOM     91  C   UNL A   1      46.925  26.517  35.450  1.00  0.00     0.022 A 
BRANCH  89  92
ATOM     92  S   UNL A   1      45.615  24.416  36.620  1.00  0.00     0.127 S 
ATOM     93  O   UNL A   1      44.501  24.790  37.488  1.00  0.00    -0.237 OA
ATOM     94  O   UNL A   1      45.327  23.317  35.698  1.00  0.00    -0.237 OA
ATOM     95  O   UNL A   1      46.914  24.334  37.274  1.00  0.00    -0.744 OA
ENDBRANCH  89  92
ENDBRANCH  62  85
ENDBRANCH  36  37
ENDBRANCH  28  31
ENDBRANCH  26  27
ENDBRANCH  25  26
ENDBRANCH  24  25
ENDBRANCH   1  24
TORSDOF 21
ENDMDL
MODEL 2
REMARK VINA RESULT:     -11.0      2.955      8.828
REMARK SMILES Cn1cc(/C=C/C(=O)N(CC(=O)NCCCCCCNC(=O)c2ccc(-c3c4nc(c(-c5cccc(S(=O)(=O)[O-])c5F)c5ccc([nH]5)c(-c5cccc(S(=O)(=O)[O-])c5F)c5nc(c(-c6cccc(S(=O)(=O)[O-])c6F)c6ccc3[nH]6)C=C5)C=C4)cc2)C(C)(C)C)cn1
REMARK SMILES IDX 16 1 15 2 14 3 13 4 11 5 12 6 10 8 9 9 7 10 8 11 6 12 5 13
REMARK SMILES IDX 4 14 1 15 2 16 3 17 91 18 90 19 86 20 87 21 88 22 89 23
REMARK SMILES IDX 17 24 18 25 19 26 20 27 21 28 22 30 23 31 24 32 85 33 25 34
REMARK SMILES IDX 84 35 26 36 27 37 28 38 78 39 29 40 83 41 77 42 79 43 30 44
REMARK SMILES IDX 82 45 76 46 75 47 31 49 63 50 43 51 62 52 44 53 47 54 61 55
REMARK SMILES IDX 80 56 45 57 46 58 60 60 81 61 48 62 32 63 33 64 41 65 34 66
REMARK SMILES IDX 36 67 42 68 35 69 37 70 38 71 39 72 40 73 64 74 65 75 73 76
REMARK SMILES IDX 66 77 68 78 74 79 67 80 69 81 70 82 71 83 72 84 49 85 50 86
REMARK SMILES IDX 58 87 51 88 53 89 59 90 52 91 54 92 55 93 56 94 57 95
REMARK H PARENT 13 7 20 29 79 48 47 59
REMARK Flexibility Score: inf
ROOT
ATOM      1  C   UNL A   1      32.529  29.704  27.182  1.00  0.00     0.002 C 
ENDROOT
BRANCH   1   2
ATOM      2  C   UNL A   1      31.680  28.461  27.422  1.00  0.00     0.021 C 
BRANCH   2   3
ATOM      3  C   UNL A   1      32.131  27.228  26.655  1.00  0.00     0.116 C 
BRANCH   3   4
ATOM      4  N   UNL A   1      31.351  26.039  26.942  1.00  0.00    -0.355 N 
ATOM      5  C   UNL A   1      31.499  24.736  26.581  1.00  0.00     0.239 C 
ATOM      6  O   UNL A   1      30.790  23.921  27.187  1.00  0.00    -0.273 OA
ATOM      7  H   UNL A   1      30.562  26.208  27.507  1.00  0.00     0.163 HD
BRANCH   5   8
ATOM      8  C   UNL A   1      32.577  24.213  25.608  1.00  0.00     0.220 C 
BRANCH   8   9
ATOM      9  N   UNL A   1      32.240  24.091  24.186  1.00  0.00    -0.325 N 
BRANCH   9  10
ATOM     10  C   UNL A   1      31.067  24.601  23.613  1.00  0.00     0.247 C 
ATOM     11  O   UNL A   1      30.161  23.857  23.225  1.00  0.00    -0.270 OA
BRANCH  10  12
ATOM     12  C   UNL A   1      30.791  26.068  23.378  1.00  0.00     0.072 C 
ATOM     13  C   UNL A   1      29.731  26.840  23.671  1.00  0.00     0.017 C 
BRANCH  13  14
ATOM     14  C   UNL A   1      29.523  28.201  23.313  1.00  0.00     0.013 A 
ATOM     15  C   UNL A   1      27.864  30.827  21.500  1.00  0.00     0.173 C 
ATOM     16  N   UNL A   1      28.659  29.956  22.330  1.00  0.00    -0.275 N 
ATOM     17  C   UNL A   1      28.469  28.620  22.530  1.00  0.00     0.116 A 
ATOM     18  N   UNL A   1      29.733  30.442  22.974  1.00  0.00    -0.181 NA
ATOM     19  C   UNL A   1      30.279  29.365  23.550  1.00  0.00     0.143 A 
ENDBRANCH  13  14
ENDBRANCH  10  12
ENDBRANCH   9  10
BRANCH   9  20
ATOM     20  C   UNL A   1      33.276  23.430  23.279  1.00  0.00     0.035 C 
ATOM     21  C   UNL A   1      33.275  24.033  21.861  1.00  0.00     0.034 C 
ATOM     22  C   UNL A   1      34.692  23.555  23.890  1.00  0.00     0.034 C 
ATOM     23  C   UNL A   1      33.057  21.903  23.068  1.00  0.00     0.034 C 
ENDBRANCH   9  20
ENDBRANCH   8   9
ENDBRANCH   5   8
ENDBRANCH   3   4
ENDBRANCH   2   3
ENDBRANCH   1   2
BRANCH   1  24
ATOM     24  C   UNL A   1      31.809  30.824  26.428  1.00  0.00     0.002 C 
BRANCH  24  25
ATOM     25  C   UNL A   1      31.680  32.140  27.202  1.00  0.00     0.021 C 
BRANCH  25  26
ATOM     26  C   UNL A   1      32.893  33.058  27.098  1.00  0.00     0.116 C 
BRANCH  26  27
ATOM     27  N   UNL A   1      32.655  34.340  27.742  1.00  0.00    -0.352 N 
ATOM     28  C   UNL A   1      33.191  34.834  28.906  1.00  0.00     0.251 C 
ATOM     29  H   UNL A   1      32.023  34.937  27.279  1.00  0.00     0.163 HD
ATOM     30  O   UNL A   1      32.718  35.836  29.428  1.00  0.00    -0.269 OA
BRANCH  28  31
ATOM     31  C   UNL A   1      34.337  34.136  29.528  1.00  0.00     0.039 A 
ATOM     32  C   UNL A   1      35.630  34.442  29.101  1.00  0.00     0.014 A 
ATOM     33  C   UNL A   1      34.129  33.188  30.534  1.00  0.00     0.014 A 
ATOM     34  C   UNL A   1      36.721  33.827  29.717  1.00  0.00     0.010 A 
ATOM     35  C   UNL A   1      35.220  32.637  31.200  1.00  0.00     0.010 A 
ATOM     36  C   UNL A   1      36.527  32.940  30.790  1.00  0.00    -0.014 A 
BRANCH  36  37
ATOM     37  C   UNL A   1      37.680  32.317  31.491  1.00  0.00     0.031 A 
ATOM     38  C   UNL A   1      38.431  31.182  30.851  1.00  0.00     0.074 A 
ATOM     39  C   UNL A   1      38.003  32.724  32.735  1.00  0.00     0.049 A 
ATOM     40  N   UNL A   1      39.436  30.489  31.322  1.00  0.00    -0.248 NA
ATOM     41  C   UNL A   1      37.981  30.750  29.516  1.00  0.00     0.031 C 
ATOM     42  C   UNL A   1      37.302  33.763  33.495  1.00  0.00     0.029 A 
ATOM     43  N   UNL A   1      38.988  32.298  33.589  1.00  0.00    -0.354 N 
ATOM     44  C   UNL A   1      39.714  29.522  30.363  1.00  0.00     0.074 A 
ATOM     45  C   UNL A   1      38.749  29.692  29.300  1.00  0.00     0.031 C 
ATOM     46  C   UNL A   1      37.885  33.897  34.697  1.00  0.00     0.029 A 
ATOM     47  C   UNL A   1      38.975  32.935  34.809  1.00  0.00     0.049 A 
ATOM     48  H   UNL A   1      39.643  31.601  33.352  1.00  0.00     0.167 HD
ATOM     49  C   UNL A   1      40.700  28.594  30.353  1.00  0.00     0.034 A 
ATOM     50  C   UNL A   1      39.748  32.756  35.898  1.00  0.00     0.034 A 
ATOM     51  C   UNL A   1      41.679  28.451  31.397  1.00  0.00     0.049 A 
ATOM     52  C   UNL A   1      40.853  31.735  35.851  1.00  0.00     0.074 A 
ATOM     53  C   UNL A   1      42.771  27.603  31.440  1.00  0.00     0.029 A 
ATOM     54  N   UNL A   1      41.678  29.164  32.586  1.00  0.00    -0.354 N 
ATOM     55  N   UNL A   1      41.202  30.939  34.868  1.00  0.00    -0.248 NA
ATOM     56  C   UNL A   1      41.694  31.609  37.051  1.00  0.00     0.031 C 
ATOM     57  C   UNL A   1      43.409  27.776  32.672  1.00  0.00     0.029 A 
ATOM     58  C   UNL A   1      42.740  28.762  33.378  1.00  0.00     0.049 A 
ATOM     59  H   UNL A   1      41.019  29.853  32.831  1.00  0.00     0.167 HD
ATOM     60  C   UNL A   1      42.322  30.248  35.315  1.00  0.00     0.074 A 
ATOM     61  C   UNL A   1      42.606  30.734  36.651  1.00  0.00     0.031 C 
ATOM     62  C   UNL A   1      43.041  29.288  34.684  1.00  0.00     0.034 A 
BRANCH  49  63
ATOM     63  C   UNL A   1      40.796  27.686  29.155  1.00  0.00     0.023 A 
ATOM     64  C   UNL A   1      39.972  26.542  29.077  1.00  0.00     0.012 A 
ATOM     65  C   UNL A   1      41.654  27.992  28.080  1.00  0.00     0.148 A 
ATOM     66  C   UNL A   1      40.030  25.698  27.969  1.00  0.00     0.002 A 
ATOM     67  C   UNL A   1      41.670  27.172  26.957  1.00  0.00     0.091 A 
ATOM     68  F   UNL A   1      42.442  29.071  28.179  1.00  0.00    -0.205 F 
ATOM     69  C   UNL A   1      40.870  26.018  26.906  1.00  0.00     0.022 A 
BRANCH  67  70
ATOM     70  S   UNL A   1      42.653  27.541  25.500  1.00  0.00     0.127 S 
ATOM     71  O   UNL A   1      42.385  26.374  24.661  1.00  0.00    -0.237 OA
ATOM     72  O   UNL A   1      42.044  28.784  25.028  1.00  0.00    -0.237 OA
ATOM     73  O   UNL A   1      44.027  27.673  25.964  1.00  0.00    -0.744 OA
ENDBRANCH  67  70
ENDBRANCH  49  63
BRANCH  50  74
ATOM     74  C   UNL A   1      39.540  33.600  37.109  1.00  0.00     0.023 A 
ATOM     75  C   UNL A   1      40.056  34.911  37.139  1.00  0.00     0.012 A 
ATOM     76  C   UNL A   1      38.824  33.119  38.221  1.00  0.00     0.148 A 
ATOM     77  C   UNL A   1      39.894  35.713  38.268  1.00  0.00     0.002 A 
ATOM     78  C   UNL A   1      38.616  33.944  39.320  1.00  0.00     0.091 A 
ATOM     79  F   UNL A   1      38.348  31.866  38.176  1.00  0.00    -0.205 F 
ATOM     80  C   UNL A   1      39.167  35.234  39.354  1.00  0.00     0.022 A 
BRANCH  78  81
ATOM     81  S   UNL A   1      37.585  33.460  40.709  1.00  0.00     0.127 S 
ATOM     82  O   UNL A   1      36.370  33.008  40.035  1.00  0.00    -0.237 OA
ATOM     83  O   UNL A   1      38.385  32.396  41.318  1.00  0.00    -0.237 OA
ATOM     84  O   UNL A   1      37.447  34.653  41.531  1.00  0.00    -0.744 OA
ENDBRANCH  78  81
ENDBRANCH  50  74
BRANCH  62  85
ATOM     85  C   UNL A   1      44.239  28.723  35.404  1.00  0.00     0.023 A 
ATOM     86  C   UNL A   1      45.528  29.220  35.126  1.00  0.00     0.012 A 
ATOM     87  C   UNL A   1      44.075  27.751  36.412  1.00  0.00     0.148 A 
ATOM     88  C   UNL A   1      46.639  28.735  35.816  1.00  0.00     0.002 A 
ATOM     89  C   UNL A   1      45.178  27.313  37.132  1.00  0.00     0.091 A 
ATOM     90  F   UNL A   1      42.843  27.280  36.649  1.00  0.00    -0.205 F 
ATOM     91  C   UNL A   1      46.462  27.792  36.826  1.00  0.00     0.022 A 
BRANCH  89  92
ATOM     92  S   UNL A   1      45.037  26.177  38.516  1.00  0.00     0.127 S 
ATOM     93  O   UNL A   1      44.145  26.909  39.414  1.00  0.00    -0.237 OA
ATOM     94  O   UNL A   1      44.437  24.999  37.888  1.00  0.00    -0.237 OA
ATOM     95  O   UNL A   1      46.391  25.975  39.013  1.00  0.00    -0.744 OA
ENDBRANCH  89  92
ENDBRANCH  62  85
ENDBRANCH  36  37
ENDBRANCH  28  31
ENDBRANCH  26  27
ENDBRANCH  25  26
ENDBRANCH  24  25
ENDBRANCH   1  24
TORSDOF 21
ENDMDL
MODEL 3
REMARK VINA RESULT:     -10.7      2.349      7.820
REMARK SMILES Cn1cc(/C=C/C(=O)N(CC(=O)NCCCCCCNC(=O)c2ccc(-c3c4nc(c(-c5cccc(S(=O)(=O)[O-])c5F)c5ccc([nH]5)c(-c5cccc(S(=O)(=O)[O-])c5F)c5nc(c(-c6cccc(S(=O)(=O)[O-])c6F)c6ccc3[nH]6)C=C5)C=C4)cc2)C(C)(C)C)cn1
REMARK SMILES IDX 16 1 15 2 14 3 13 4 11 5 12 6 10 8 9 9 7 10 8 11 6 12 5 13
REMARK SMILES IDX 4 14 1 15 2 16 3 17 91 18 90 19 86 20 87 21 88 22 89 23
REMARK SMILES IDX 17 24 18 25 19 26 20 27 21 28 22 30 23 31 24 32 85 33 25 34
REMARK SMILES IDX 84 35 26 36 27 37 28 38 78 39 29 40 83 41 77 42 79 43 30 44
REMARK SMILES IDX 82 45 76 46 75 47 31 49 63 50 43 51 62 52 44 53 47 54 61 55
REMARK SMILES IDX 80 56 45 57 46 58 60 60 81 61 48 62 32 63 33 64 41 65 34 66
REMARK SMILES IDX 36 67 42 68 35 69 37 70 38 71 39 72 40 73 64 74 65 75 73 76
REMARK SMILES IDX 66 77 68 78 74 79 67 80 69 81 70 82 71 83 72 84 49 85 50 86
REMARK SMILES IDX 58 87 51 88 53 89 59 90 52 91 54 92 55 93 56 94 57 95
REMARK H PARENT 13 7 20 29 79 48 47 59
REMARK Flexibility Score: inf
ROOT
ATOM      1  C   UNL A   1      30.644  30.171  24.353  1.00  0.00     0.002 C 
ENDROOT
BRANCH   1   2
ATOM      2  C   UNL A   1      30.910  29.013  23.397  1.00  0.00     0.021 C 
BRANCH   2   3
ATOM      3  C   UNL A   1      32.377  28.645  23.240  1.00  0.00     0.116 C 
BRANCH   3   4
ATOM      4  N   UNL A   1      32.649  27.786  22.103  1.00  0.00    -0.355 N 
ATOM      5  C   UNL A   1      33.150  26.526  22.005  1.00  0.00     0.239 C 
ATOM      6  O   UNL A   1      33.039  25.982  20.898  1.00  0.00    -0.273 OA
ATOM      7  H   UNL A   1      32.429  28.195  21.235  1.00  0.00     0.163 HD
BRANCH   5   8
ATOM      8  C   UNL A   1      33.685  25.700  23.195  1.00  0.00     0.220 C 
BRANCH   8   9
ATOM      9  N   UNL A   1      32.720  25.039  24.081  1.00  0.00    -0.325 N 
BRANCH   9  10
ATOM     10  C   UNL A   1      31.744  24.136  23.640  1.00  0.00     0.247 C 
ATOM     11  O   UNL A   1      30.737  24.517  23.034  1.00  0.00    -0.270 OA
BRANCH  10  12
ATOM     12  C   UNL A   1      31.786  22.643  23.871  1.00  0.00     0.072 C 
ATOM     13  C   UNL A   1      32.612  21.687  23.416  1.00  0.00     0.017 C 
BRANCH  13  14
ATOM     14  C   UNL A   1      32.505  20.282  23.611  1.00  0.00     0.013 A 
ATOM     15  C   UNL A   1      32.928  17.261  25.516  1.00  0.00     0.173 C 
ATOM     16  N   UNL A   1      32.655  18.326  24.582  1.00  0.00    -0.275 N 
ATOM     17  C   UNL A   1      32.776  19.665  24.812  1.00  0.00     0.116 A 
ATOM     18  N   UNL A   1      32.272  18.035  23.329  1.00  0.00    -0.181 NA
ATOM     19  C   UNL A   1      32.209  19.227  22.725  1.00  0.00     0.143 A 
ENDBRANCH  13  14
ENDBRANCH  10  12
ENDBRANCH   9  10
BRANCH   9  20
ATOM     20  C   UNL A   1      32.852  25.310  25.579  1.00  0.00     0.035 C 
ATOM     21  C   UNL A   1      31.481  25.390  26.276  1.00  0.00     0.034 C 
ATOM     22  C   UNL A   1      33.710  24.214  26.255  1.00  0.00     0.034 C 
ATOM     23  C   UNL A   1      33.559  26.653  25.924  1.00  0.00     0.034 C 
ENDBRANCH   9  20
ENDBRANCH   8   9
ENDBRANCH   5   8
ENDBRANCH   3   4
ENDBRANCH   2   3
ENDBRANCH   1   2
BRANCH   1  24
ATOM     24  C   UNL A   1      31.666  30.303  25.483  1.00  0.00     0.002 C 
BRANCH  24  25
ATOM     25  C   UNL A   1      31.456  31.510  26.402  1.00  0.00     0.021 C 
BRANCH  25  26
ATOM     26  C   UNL A   1      32.734  32.059  27.030  1.00  0.00     0.116 C 
BRANCH  26  27
ATOM     27  N   UNL A   1      32.589  33.453  27.417  1.00  0.00    -0.352 N 
ATOM     28  C   UNL A   1      33.242  34.146  28.407  1.00  0.00     0.251 C 
ATOM     29  H   UNL A   1      31.932  33.971  26.898  1.00  0.00     0.163 HD
ATOM     30  O   UNL A   1      32.844  35.252  28.751  1.00  0.00    -0.269 OA
BRANCH  28  31
ATOM     31  C   UNL A   1      34.422  33.539  29.058  1.00  0.00     0.039 A 
ATOM     32  C   UNL A   1      35.689  34.057  28.785  1.00  0.00     0.014 A 
ATOM     33  C   UNL A   1      34.272  32.464  29.939  1.00  0.00     0.014 A 
ATOM     34  C   UNL A   1      36.804  33.525  29.434  1.00  0.00     0.010 A 
ATOM     35  C   UNL A   1      35.373  31.989  30.643  1.00  0.00     0.010 A 
ATOM     36  C   UNL A   1      36.653  32.504  30.389  1.00  0.00    -0.014 A 
BRANCH  36  37
ATOM     37  C   UNL A   1      37.823  31.962  31.126  1.00  0.00     0.031 A 
ATOM     38  C   UNL A   1      38.649  30.856  30.528  1.00  0.00     0.074 A 
ATOM     39  C   UNL A   1      38.099  32.415  32.366  1.00  0.00     0.049 A 
ATOM     40  N   UNL A   1      39.680  30.230  31.034  1.00  0.00    -0.248 NA
ATOM     41  C   UNL A   1      38.250  30.369  29.195  1.00  0.00     0.031 C 
ATOM     42  C   UNL A   1      37.326  33.430  33.087  1.00  0.00     0.029 A 
ATOM     43  N   UNL A   1      39.088  32.063  33.249  1.00  0.00    -0.354 N 
ATOM     44  C   UNL A   1      40.030  29.258  30.105  1.00  0.00     0.074 A 
ATOM     45  C   UNL A   1      39.079  29.351  29.020  1.00  0.00     0.031 C 
ATOM     46  C   UNL A   1      37.876  33.624  34.296  1.00  0.00     0.029 A 
ATOM     47  C   UNL A   1      39.016  32.726  34.453  1.00  0.00     0.049 A 
ATOM     48  H   UNL A   1      39.784  31.398  33.041  1.00  0.00     0.167 HD
ATOM     49  C   UNL A   1      41.066  28.386  30.136  1.00  0.00     0.034 A 
ATOM     50  C   UNL A   1      39.775  32.615  35.560  1.00  0.00     0.034 A 
ATOM     51  C   UNL A   1      42.030  28.322  31.201  1.00  0.00     0.049 A 
ATOM     52  C   UNL A   1      40.934  31.656  35.558  1.00  0.00     0.074 A 
ATOM     53  C   UNL A   1      43.165  27.536  31.286  1.00  0.00     0.029 A 
ATOM     54  N   UNL A   1      41.966  29.060  32.373  1.00  0.00    -0.354 N 
ATOM     55  N   UNL A   1      41.346  30.858  34.603  1.00  0.00    -0.248 NA
ATOM     56  C   UNL A   1      41.756  31.605  36.777  1.00  0.00     0.031 C 
ATOM     57  C   UNL A   1      43.767  27.772  32.525  1.00  0.00     0.029 A 
ATOM     58  C   UNL A   1      43.031  28.736  33.195  1.00  0.00     0.049 A 
ATOM     59  H   UNL A   1      41.265  29.717  32.589  1.00  0.00     0.167 HD
ATOM     60  C   UNL A   1      42.493  30.241  35.087  1.00  0.00     0.074 A 
ATOM     61  C   UNL A   1      42.723  30.772  36.416  1.00  0.00     0.031 C 
ATOM     62  C   UNL A   1      43.277  29.308  34.493  1.00  0.00     0.034 A 
BRANCH  49  63
ATOM     63  C   UNL A   1      41.235  27.457  28.962  1.00  0.00     0.023 A 
ATOM     64  C   UNL A   1      40.458  26.282  28.883  1.00  0.00     0.012 A 
ATOM     65  C   UNL A   1      42.117  27.774  27.909  1.00  0.00     0.148 A 
ATOM     66  C   UNL A   1      40.585  25.417  27.797  1.00  0.00     0.002 A 
ATOM     67  C   UNL A   1      42.201  26.931  26.806  1.00  0.00     0.091 A 
ATOM     68  F   UNL A   1      42.860  28.884  28.010  1.00  0.00    -0.205 F 
ATOM     69  C   UNL A   1      41.447  25.747  26.755  1.00  0.00     0.022 A 
BRANCH  67  70
ATOM     70  S   UNL A   1      43.217  27.307  25.374  1.00  0.00     0.127 S 
ATOM     71  O   UNL A   1      44.379  27.942  25.996  1.00  0.00    -0.237 OA
ATOM     72  O   UNL A   1      43.473  25.977  24.823  1.00  0.00    -0.237 OA
ATOM     73  O   UNL A   1      42.413  28.175  24.525  1.00  0.00    -0.744 OA
ENDBRANCH  67  70
ENDBRANCH  49  63
BRANCH  50  74
ATOM     74  C   UNL A   1      39.496  33.474  36.746  1.00  0.00     0.023 A 
ATOM     75  C   UNL A   1      39.925  34.817  36.748  1.00  0.00     0.012 A 
ATOM     76  C   UNL A   1      38.798  32.976  37.862  1.00  0.00     0.148 A 
ATOM     77  C   UNL A   1      39.696  35.635  37.854  1.00  0.00     0.002 A 
ATOM     78  C   UNL A   1      38.523  33.813  38.937  1.00  0.00     0.091 A 
ATOM     79  F   UNL A   1      38.406  31.694  37.844  1.00  0.00    -0.205 F 
ATOM     80  C   UNL A   1      38.987  35.136  38.943  1.00  0.00     0.022 A 
BRANCH  78  81
ATOM     81  S   UNL A   1      37.507  33.297  40.326  1.00  0.00     0.127 S 
ATOM     82  O   UNL A   1      37.405  34.534  41.097  1.00  0.00    -0.237 OA
ATOM     83  O   UNL A   1      36.273  32.884  39.656  1.00  0.00    -0.237 OA
ATOM     84  O   UNL A   1      38.237  32.212  40.965  1.00  0.00    -0.744 OA
ENDBRANCH  78  81
ENDBRANCH  50  74
BRANCH  62  85
ATOM     85  C   UNL A   1      44.488  28.826  35.249  1.00  0.00     0.023 A 
ATOM     86  C   UNL A   1      45.740  29.437  35.037  1.00  0.00     0.012 A 
ATOM     87  C   UNL A   1      44.368  27.817  36.226  1.00  0.00     0.148 A 
ATOM     88  C   UNL A   1      46.860  29.029  35.762  1.00  0.00     0.002 A 
ATOM     89  C   UNL A   1      45.475  27.454  36.981  1.00  0.00     0.091 A 
ATOM     90  F   UNL A   1      43.172  27.237  36.400  1.00  0.00    -0.205 F 
ATOM     91  C   UNL A   1      46.724  28.047  36.741  1.00  0.00     0.022 A 
BRANCH  89  92
ATOM     92  S   UNL A   1      45.376  26.272  38.331  1.00  0.00     0.127 S 
ATOM     93  O   UNL A   1      44.207  26.755  39.065  1.00  0.00    -0.237 OA
ATOM     94  O   UNL A   1      45.170  25.009  37.621  1.00  0.00    -0.237 OA
ATOM     95  O   UNL A   1      46.642  26.367  39.045  1.00  0.00    -0.744 OA
ENDBRANCH  89  92
ENDBRANCH  62  85
ENDBRANCH  36  37
ENDBRANCH  28  31
ENDBRANCH  26  27
ENDBRANCH  25  26
ENDBRANCH  24  25
ENDBRANCH   1  24
TORSDOF 21
ENDMDL
