MODEL 1
REMARK VINA RESULT:     -13.2      0.000      0.000
REMARK SMILES CC[C@@H]1CCC[C@@](CC[NH+]2CCOCC2)(C(=O)NCCCCCCNC(=O)c2ccc(-c3c4nc(c(-c5cccc(S(=O)(=O)[O-])c5F)c5ccc([nH]5)c(-c5cccc(S(=O)(=O)[O-])c5F)c5nc(c(-c6cccc(S(=O)(=O)[O-])c6F)c6ccc3[nH]6)C=C5)C=C4)cc2)C1
REMARK SMILES IDX 21 1 20 2 19 3 18 4 16 5 17 6 7 8 3 9 4 10 91 11 5 12 6 13
REMARK SMILES IDX 2 14 1 15 8 16 9 17 10 18 11 19 15 20 12 22 14 23 13 24
REMARK SMILES IDX 22 25 23 26 24 27 25 28 26 29 27 31 28 32 29 33 90 34 30 35
REMARK SMILES IDX 89 36 31 37 32 38 33 39 83 40 34 41 88 42 82 43 84 44 35 45
REMARK SMILES IDX 87 46 81 47 80 48 36 50 68 51 48 52 67 53 49 54 52 55 66 56
REMARK SMILES IDX 85 57 50 58 51 59 65 61 86 62 53 63 37 64 38 65 46 66 39 67
REMARK SMILES IDX 41 68 47 69 40 70 42 71 43 72 44 73 45 74 69 75 70 76 78 77
REMARK SMILES IDX 71 78 73 79 79 80 72 81 74 82 75 83 76 84 77 85 54 86 55 87
REMARK SMILES IDX 63 88 56 89 58 90 64 91 57 92 59 93 60 94 61 95 62 96
REMARK H PARENT 18 7 10 21 25 30 84 49 52 60
REMARK Flexibility Score: inf
ROOT
ATOM      1  C   UNL A   1      32.487  30.145  27.282  1.00  0.00     0.002 C 
ENDROOT
BRANCH   1   2
ATOM      2  C   UNL A   1      32.731  28.648  26.985  1.00  0.00     0.021 C 
BRANCH   2   3
ATOM      3  C   UNL A   1      31.470  27.511  27.382  1.00  0.00     0.116 C 
BRANCH   3   4
ATOM      4  N   UNL A   1      30.993  25.709  26.481  1.00  0.00    -0.356 N 
ATOM      5  C   UNL A   1      31.492  25.021  25.002  1.00  0.00     0.226 C 
ATOM      6  O   UNL A   1      31.000  23.920  24.753  1.00  0.00    -0.274 OA
ATOM      7  H   UNL A   1      30.368  25.151  26.997  1.00  0.00     0.163 HD
BRANCH   5   8
ATOM      8  C   UNL A   1      32.977  25.822  24.079  1.00  0.00     0.055 C 
ATOM      9  C   UNL A   1      34.326  23.834  25.047  1.00  0.00    -0.010 C 
ATOM     10  C   UNL A   1      34.676  23.296  23.653  1.00  0.00     0.003 C 
ATOM     11  C   UNL A   1      34.138  25.396  25.065  1.00  0.00     0.020 C 
ATOM     12  C   UNL A   1      33.755  23.818  22.570  1.00  0.00     0.001 C 
ATOM     13  C   UNL A   1      33.537  25.307  22.701  1.00  0.00     0.017 C 
BRANCH   9  14
ATOM     14  C   UNL A   1      35.327  23.272  26.066  1.00  0.00     0.000 C 
ATOM     15  C   UNL A   1      34.991  21.873  26.553  1.00  0.00     0.004 C 
ENDBRANCH   9  14
BRANCH   8  16
ATOM     16  C   UNL A   1      32.972  27.655  23.652  1.00  0.00     0.078 C 
BRANCH  16  17
ATOM     17  C   UNL A   1      31.375  28.602  23.415  1.00  0.00     0.263 C 
BRANCH  17  18
ATOM     18  N   UNL A   1      30.091  27.780  23.061  1.00  0.00    -0.331 N 
ATOM     19  C   UNL A   1      29.927  29.000  22.311  1.00  0.00     0.291 C 
ATOM     20  C   UNL A   1      28.310  27.455  23.251  1.00  0.00     0.291 C 
ATOM     21  H   UNL A   1      30.315  26.797  23.217  1.00  0.00     0.348 HD
ATOM     22  C   UNL A   1      29.175  30.798  23.095  1.00  0.00     0.221 C 
ATOM     23  C   UNL A   1      26.847  28.717  23.626  1.00  0.00     0.221 C 
ATOM     24  O   UNL A   1      27.331  30.541  23.599  1.00  0.00    -0.370 OA
ENDBRANCH  17  18
ENDBRANCH  16  17
ENDBRANCH   8  16
ENDBRANCH   5   8
ENDBRANCH   3   4
ENDBRANCH   2   3
ENDBRANCH   1   2
BRANCH   1  25
ATOM     25  C   UNL A   1      31.534  30.871  26.311  1.00  0.00     0.002 C 
BRANCH  25  26
ATOM     26  C   UNL A   1      31.451  32.375  26.541  1.00  0.00     0.021 C 
BRANCH  26  27
ATOM     27  C   UNL A   1      32.715  32.943  27.161  1.00  0.00     0.116 C 
BRANCH  27  28
ATOM     28  N   UNL A   1      32.499  34.275  27.736  1.00  0.00    -0.352 N 
ATOM     29  C   UNL A   1      33.156  34.844  28.793  1.00  0.00     0.251 C 
ATOM     30  H   UNL A   1      31.799  34.823  27.312  1.00  0.00     0.163 HD
ATOM     31  O   UNL A   1      32.805  35.904  29.291  1.00  0.00    -0.269 OA
BRANCH  29  32
ATOM     32  C   UNL A   1      34.310  34.095  29.292  1.00  0.00     0.039 A 
ATOM     33  C   UNL A   1      35.592  34.492  28.921  1.00  0.00     0.014 A 
ATOM     34  C   UNL A   1      34.081  33.171  30.315  1.00  0.00     0.014 A 
ATOM     35  C   UNL A   1      36.673  33.968  29.619  1.00  0.00     0.010 A 
ATOM     36  C   UNL A   1      35.149  32.753  31.081  1.00  0.00     0.010 A 
ATOM     37  C   UNL A   1      36.454  33.118  30.717  1.00  0.00    -0.014 A 
BRANCH  37  38
ATOM     38  C   UNL A   1      37.579  32.522  31.463  1.00  0.00     0.031 A 
ATOM     39  C   UNL A   1      38.320  31.373  30.837  1.00  0.00     0.074 A 
ATOM     40  C   UNL A   1      37.871  32.956  32.703  1.00  0.00     0.049 A 
ATOM     41  N   UNL A   1      39.275  30.639  31.337  1.00  0.00    -0.248 NA
ATOM     42  C   UNL A   1      37.897  30.958  29.484  1.00  0.00     0.031 C 
ATOM     43  C   UNL A   1      37.149  34.002  33.434  1.00  0.00     0.029 A 
ATOM     44  N   UNL A   1      38.844  32.552  33.579  1.00  0.00    -0.354 N 
ATOM     45  C   UNL A   1      39.535  29.664  30.383  1.00  0.00     0.074 A 
ATOM     46  C   UNL A   1      38.594  29.849  29.306  1.00  0.00     0.031 C 
ATOM     47  C   UNL A   1      37.717  34.168  34.641  1.00  0.00     0.029 A 
ATOM     48  C   UNL A   1      38.820  33.223  34.779  1.00  0.00     0.049 A 
ATOM     49  H   UNL A   1      39.498  31.847  33.369  1.00  0.00     0.167 HD
ATOM     50  C   UNL A   1      40.513  28.731  30.378  1.00  0.00     0.034 A 
ATOM     51  C   UNL A   1      39.609  33.084  35.862  1.00  0.00     0.034 A 
ATOM     52  C   UNL A   1      41.487  28.610  31.422  1.00  0.00     0.049 A 
ATOM     53  C   UNL A   1      40.728  32.078  35.801  1.00  0.00     0.074 A 
ATOM     54  C   UNL A   1      42.570  27.755  31.493  1.00  0.00     0.029 A 
ATOM     55  N   UNL A   1      41.502  29.382  32.572  1.00  0.00    -0.354 N 
ATOM     56  N   UNL A   1      41.051  31.259  34.828  1.00  0.00    -0.248 NA
ATOM     57  C   UNL A   1      41.620  32.004  36.967  1.00  0.00     0.031 C 
ATOM     58  C   UNL A   1      43.236  28.005  32.696  1.00  0.00     0.029 A 
ATOM     59  C   UNL A   1      42.580  29.031  33.360  1.00  0.00     0.049 A 
ATOM     60  H   UNL A   1      40.842  30.078  32.795  1.00  0.00     0.167 HD
ATOM     61  C   UNL A   1      42.203  30.605  35.245  1.00  0.00     0.074 A 
ATOM     62  C   UNL A   1      42.536  31.142  36.550  1.00  0.00     0.031 C 
ATOM     63  C   UNL A   1      42.917  29.636  34.622  1.00  0.00     0.034 A 
BRANCH  50  64
ATOM     64  C   UNL A   1      40.618  27.835  29.175  1.00  0.00     0.023 A 
ATOM     65  C   UNL A   1      39.770  26.713  29.070  1.00  0.00     0.012 A 
ATOM     66  C   UNL A   1      41.514  28.125  28.129  1.00  0.00     0.148 A 
ATOM     67  C   UNL A   1      39.831  25.876  27.958  1.00  0.00     0.002 A 
ATOM     68  C   UNL A   1      41.534  27.314  27.001  1.00  0.00     0.091 A 
ATOM     69  F   UNL A   1      42.329  29.181  28.261  1.00  0.00    -0.205 F 
ATOM     70  C   UNL A   1      40.704  26.184  26.918  1.00  0.00     0.022 A 
BRANCH  68  71
ATOM     71  S   UNL A   1      42.563  27.665  25.571  1.00  0.00     0.127 S 
ATOM     72  O   UNL A   1      43.886  27.790  26.182  1.00  0.00    -0.237 OA
ATOM     73  O   UNL A   1      42.375  26.462  24.760  1.00  0.00    -0.237 OA
ATOM     74  O   UNL A   1      42.035  28.888  24.983  1.00  0.00    -0.744 OA
ENDBRANCH  68  71
ENDBRANCH  50  64
BRANCH  51  75
ATOM     75  C   UNL A   1      39.420  33.953  37.058  1.00  0.00     0.023 A 
ATOM     76  C   UNL A   1      39.853  35.294  37.018  1.00  0.00     0.012 A 
ATOM     77  C   UNL A   1      38.823  33.464  38.235  1.00  0.00     0.148 A 
ATOM     78  C   UNL A   1      39.743  36.114  38.142  1.00  0.00     0.002 A 
ATOM     79  C   UNL A   1      38.665  34.302  39.333  1.00  0.00     0.091 A 
ATOM     80  F   UNL A   1      38.424  32.184  38.261  1.00  0.00    -0.205 F 
ATOM     81  C   UNL A   1      39.143  35.621  39.298  1.00  0.00     0.022 A 
BRANCH  79  82
ATOM     82  S   UNL A   1      37.786  33.782  40.811  1.00  0.00     0.127 S 
ATOM     83  O   UNL A   1      38.753  32.885  41.436  1.00  0.00    -0.237 OA
ATOM     84  O   UNL A   1      37.582  35.053  41.510  1.00  0.00    -0.237 OA
ATOM     85  O   UNL A   1      36.557  33.163  40.332  1.00  0.00    -0.744 OA
ENDBRANCH  79  82
ENDBRANCH  51  75
BRANCH  63  86
ATOM     86  C   UNL A   1      44.153  29.131  35.311  1.00  0.00     0.023 A 
ATOM     87  C   UNL A   1      44.076  28.003  36.150  1.00  0.00     0.012 A 
ATOM     88  C   UNL A   1      45.404  29.724  35.053  1.00  0.00     0.148 A 
ATOM     89  C   UNL A   1      45.225  27.492  36.751  1.00  0.00     0.002 A 
ATOM     90  C   UNL A   1      46.550  29.177  35.612  1.00  0.00     0.091 A 
ATOM     91  F   UNL A   1      45.448  30.807  34.261  1.00  0.00    -0.205 F 
ATOM     92  C   UNL A   1      46.461  28.071  36.471  1.00  0.00     0.022 A 
BRANCH  90  93
ATOM     93  S   UNL A   1      48.193  29.790  35.225  1.00  0.00     0.127 S 
ATOM     94  O   UNL A   1      48.115  31.171  35.696  1.00  0.00    -0.237 OA
ATOM     95  O   UNL A   1      49.047  28.916  36.031  1.00  0.00    -0.237 OA
ATOM     96  O   UNL A   1      48.354  29.629  33.786  1.00  0.00    -0.744 OA
ENDBRANCH  90  93
ENDBRANCH  63  86
ENDBRANCH  37  38
ENDBRANCH  29  32
ENDBRANCH  27  28
ENDBRANCH  26  27
ENDBRANCH  25  26
ENDBRANCH   1  25
TORSDOF 20
ENDMDL
MODEL 2
REMARK VINA RESULT:     -13.0      2.628      8.553
REMARK SMILES CC[C@@H]1CCC[C@@](CC[NH+]2CCOCC2)(C(=O)NCCCCCCNC(=O)c2ccc(-c3c4nc(c(-c5cccc(S(=O)(=O)[O-])c5F)c5ccc([nH]5)c(-c5cccc(S(=O)(=O)[O-])c5F)c5nc(c(-c6cccc(S(=O)(=O)[O-])c6F)c6ccc3[nH]6)C=C5)C=C4)cc2)C1
REMARK SMILES IDX 21 1 20 2 19 3 18 4 16 5 17 6 7 8 3 9 4 10 91 11 5 12 6 13
REMARK SMILES IDX 2 14 1 15 8 16 9 17 10 18 11 19 15 20 12 22 14 23 13 24
REMARK SMILES IDX 22 25 23 26 24 27 25 28 26 29 27 31 28 32 29 33 90 34 30 35
REMARK SMILES IDX 89 36 31 37 32 38 33 39 83 40 34 41 88 42 82 43 84 44 35 45
REMARK SMILES IDX 87 46 81 47 80 48 36 50 68 51 48 52 67 53 49 54 52 55 66 56
REMARK SMILES IDX 85 57 50 58 51 59 65 61 86 62 53 63 37 64 38 65 46 66 39 67
REMARK SMILES IDX 41 68 47 69 40 70 42 71 43 72 44 73 45 74 69 75 70 76 78 77
REMARK SMILES IDX 71 78 73 79 79 80 72 81 74 82 75 83 76 84 77 85 54 86 55 87
REMARK SMILES IDX 63 88 56 89 58 90 64 91 57 92 59 93 60 94 61 95 62 96
REMARK H PARENT 18 7 10 21 25 30 84 49 52 60
REMARK Flexibility Score: inf
ROOT
ATOM      1  C   UNL A   1      31.766  29.577  25.192  1.00  0.00     0.002 C 
ENDROOT
BRANCH   1   2
ATOM      2  C   UNL A   1      32.915  28.578  24.929  1.00  0.00     0.021 C 
BRANCH   2   3
ATOM      3  C   UNL A   1      33.622  28.534  23.335  1.00  0.00     0.116 C 
BRANCH   3   4
ATOM      4  N   UNL A   1      33.174  27.303  21.732  1.00  0.00    -0.356 N 
ATOM      5  C   UNL A   1      33.267  25.610  21.551  1.00  0.00     0.226 C 
ATOM      6  O   UNL A   1      32.934  25.191  20.441  1.00  0.00    -0.274 OA
ATOM      7  H   UNL A   1      32.851  27.779  20.934  1.00  0.00     0.163 HD
BRANCH   5   8
ATOM      8  C   UNL A   1      33.524  24.537  23.125  1.00  0.00     0.055 C 
ATOM      9  C   UNL A   1      31.008  24.991  23.539  1.00  0.00    -0.010 C 
ATOM     10  C   UNL A   1      30.648  23.501  23.457  1.00  0.00     0.003 C 
ATOM     11  C   UNL A   1      32.468  25.235  24.074  1.00  0.00     0.020 C 
ATOM     12  C   UNL A   1      31.707  22.677  22.754  1.00  0.00     0.001 C 
ATOM     13  C   UNL A   1      33.093  23.028  23.241  1.00  0.00     0.017 C 
BRANCH   9  14
ATOM     14  C   UNL A   1      29.892  25.734  24.289  1.00  0.00     0.000 C 
ATOM     15  C   UNL A   1      29.529  27.077  23.678  1.00  0.00     0.004 C 
ENDBRANCH   9  14
BRANCH   8  16
ATOM     16  C   UNL A   1      35.231  24.345  23.894  1.00  0.00     0.078 C 
BRANCH  16  17
ATOM     17  C   UNL A   1      35.450  23.833  25.681  1.00  0.00     0.263 C 
BRANCH  17  18
ATOM     18  N   UNL A   1      34.242  23.128  26.385  1.00  0.00    -0.331 N 
ATOM     19  C   UNL A   1      35.310  22.168  26.508  1.00  0.00     0.291 C 
ATOM     20  C   UNL A   1      32.903  21.895  26.386  1.00  0.00     0.291 C 
ATOM     21  H   UNL A   1      33.602  23.864  26.685  1.00  0.00     0.348 HD
ATOM     22  C   UNL A   1      35.882  20.813  25.009  1.00  0.00     0.221 C 
ATOM     23  C   UNL A   1      32.827  20.138  25.503  1.00  0.00     0.221 C 
ATOM     24  O   UNL A   1      34.439  19.571  24.700  1.00  0.00    -0.370 OA
ENDBRANCH  17  18
ENDBRANCH  16  17
ENDBRANCH   8  16
ENDBRANCH   5   8
ENDBRANCH   3   4
ENDBRANCH   2   3
ENDBRANCH   1   2
BRANCH   1  25
ATOM     25  C   UNL A   1      31.583  30.011  26.661  1.00  0.00     0.002 C 
BRANCH  25  26
ATOM     26  C   UNL A   1      31.507  31.521  26.850  1.00  0.00     0.021 C 
BRANCH  26  27
ATOM     27  C   UNL A   1      32.876  32.169  26.953  1.00  0.00     0.116 C 
BRANCH  27  28
ATOM     28  N   UNL A   1      32.811  33.504  27.558  1.00  0.00    -0.352 N 
ATOM     29  C   UNL A   1      33.650  34.034  28.501  1.00  0.00     0.251 C 
ATOM     30  H   UNL A   1      32.080  34.086  27.249  1.00  0.00     0.163 HD
ATOM     31  O   UNL A   1      33.429  35.104  29.049  1.00  0.00    -0.269 OA
BRANCH  29  32
ATOM     32  C   UNL A   1      34.833  33.230  28.812  1.00  0.00     0.039 A 
ATOM     33  C   UNL A   1      36.096  33.728  28.501  1.00  0.00     0.014 A 
ATOM     34  C   UNL A   1      34.652  32.112  29.631  1.00  0.00     0.014 A 
ATOM     35  C   UNL A   1      37.206  33.103  29.055  1.00  0.00     0.010 A 
ATOM     36  C   UNL A   1      35.748  31.577  30.273  1.00  0.00     0.010 A 
ATOM     37  C   UNL A   1      37.035  32.043  29.962  1.00  0.00    -0.014 A 
BRANCH  37  38
ATOM     38  C   UNL A   1      38.191  31.338  30.546  1.00  0.00     0.031 A 
ATOM     39  C   UNL A   1      38.596  31.678  31.954  1.00  0.00     0.074 A 
ATOM     40  C   UNL A   1      38.902  30.472  29.799  1.00  0.00     0.049 A 
ATOM     41  N   UNL A   1      39.623  31.257  32.640  1.00  0.00    -0.248 NA
ATOM     42  C   UNL A   1      37.763  32.663  32.673  1.00  0.00     0.031 C 
ATOM     43  C   UNL A   1      38.644  30.146  28.393  1.00  0.00     0.029 A 
ATOM     44  N   UNL A   1      40.004  29.722  30.115  1.00  0.00    -0.354 N 
ATOM     45  C   UNL A   1      39.577  31.950  33.843  1.00  0.00     0.074 A 
ATOM     46  C   UNL A   1      38.469  32.870  33.771  1.00  0.00     0.031 C 
ATOM     47  C   UNL A   1      39.555  29.249  27.975  1.00  0.00     0.029 A 
ATOM     48  C   UNL A   1      40.472  28.960  29.072  1.00  0.00     0.049 A 
ATOM     49  H   UNL A   1      40.422  29.729  31.007  1.00  0.00     0.167 HD
ATOM     50  C   UNL A   1      40.356  31.791  34.936  1.00  0.00     0.034 A 
ATOM     51  C   UNL A   1      41.525  28.122  29.018  1.00  0.00     0.034 A 
ATOM     52  C   UNL A   1      41.405  30.818  35.017  1.00  0.00     0.049 A 
ATOM     53  C   UNL A   1      42.337  27.920  30.272  1.00  0.00     0.074 A 
ATOM     54  C   UNL A   1      42.212  30.511  36.095  1.00  0.00     0.029 A 
ATOM     55  N   UNL A   1      41.780  29.982  33.977  1.00  0.00    -0.354 N 
ATOM     56  N   UNL A   1      42.190  28.480  31.450  1.00  0.00    -0.248 NA
ATOM     57  C   UNL A   1      43.431  26.942  30.205  1.00  0.00     0.031 C 
ATOM     58  C   UNL A   1      43.085  29.493  35.702  1.00  0.00     0.029 A 
ATOM     59  C   UNL A   1      42.803  29.151  34.388  1.00  0.00     0.049 A 
ATOM     60  H   UNL A   1      41.377  29.981  33.079  1.00  0.00     0.167 HD
ATOM     61  C   UNL A   1      43.143  27.892  32.273  1.00  0.00     0.074 A 
ATOM     62  C   UNL A   1      43.845  26.916  31.464  1.00  0.00     0.031 C 
ATOM     63  C   UNL A   1      43.430  28.144  33.573  1.00  0.00     0.034 A 
BRANCH  50  64
ATOM     64  C   UNL A   1      40.044  32.629  36.145  1.00  0.00     0.023 A 
ATOM     65  C   UNL A   1      40.726  33.848  36.338  1.00  0.00     0.012 A 
ATOM     66  C   UNL A   1      39.048  32.242  37.060  1.00  0.00     0.148 A 
ATOM     67  C   UNL A   1      40.444  34.655  37.438  1.00  0.00     0.002 A 
ATOM     68  C   UNL A   1      38.737  33.075  38.127  1.00  0.00     0.091 A 
ATOM     69  F   UNL A   1      38.430  31.066  36.872  1.00  0.00    -0.205 F 
ATOM     70  C   UNL A   1      39.441  34.275  38.325  1.00  0.00     0.022 A 
BRANCH  68  71
ATOM     71  S   UNL A   1      37.410  32.719  39.284  1.00  0.00     0.127 S 
ATOM     72  O   UNL A   1      37.825  31.423  39.820  1.00  0.00    -0.237 OA
ATOM     73  O   UNL A   1      37.521  33.834  40.224  1.00  0.00    -0.237 OA
ATOM     74  O   UNL A   1      36.184  32.700  38.499  1.00  0.00    -0.744 OA
ENDBRANCH  68  71
ENDBRANCH  50  64
BRANCH  51  75
ATOM     75  C   UNL A   1      41.834  27.364  27.773  1.00  0.00     0.023 A 
ATOM     76  C   UNL A   1      42.316  28.053  26.642  1.00  0.00     0.012 A 
ATOM     77  C   UNL A   1      41.649  25.971  27.695  1.00  0.00     0.148 A 
ATOM     78  C   UNL A   1      42.559  27.378  25.444  1.00  0.00     0.002 A 
ATOM     79  C   UNL A   1      41.945  25.295  26.516  1.00  0.00     0.091 A 
ATOM     80  F   UNL A   1      41.181  25.330  28.776  1.00  0.00    -0.205 F 
ATOM     81  C   UNL A   1      42.380  25.998  25.383  1.00  0.00     0.022 A 
BRANCH  79  82
ATOM     82  S   UNL A   1      41.866  23.505  26.397  1.00  0.00     0.127 S 
ATOM     83  O   UNL A   1      40.430  23.261  26.493  1.00  0.00    -0.237 OA
ATOM     84  O   UNL A   1      42.446  23.259  25.075  1.00  0.00    -0.237 OA
ATOM     85  O   UNL A   1      42.674  23.007  27.503  1.00  0.00    -0.744 OA
ENDBRANCH  79  82
ENDBRANCH  51  75
BRANCH  63  86
ATOM     86  C   UNL A   1      44.508  27.320  34.219  1.00  0.00     0.023 A 
ATOM     87  C   UNL A   1      45.845  27.759  34.178  1.00  0.00     0.012 A 
ATOM     88  C   UNL A   1      44.178  26.157  34.942  1.00  0.00     0.148 A 
ATOM     89  C   UNL A   1      46.846  27.032  34.819  1.00  0.00     0.002 A 
ATOM     90  C   UNL A   1      45.171  25.469  35.623  1.00  0.00     0.091 A 
ATOM     91  F   UNL A   1      42.899  25.752  34.954  1.00  0.00    -0.205 F 
ATOM     92  C   UNL A   1      46.507  25.896  35.552  1.00  0.00     0.022 A 
BRANCH  90  93
ATOM     93  S   UNL A   1      44.812  24.059  36.676  1.00  0.00     0.127 S 
ATOM     94  O   UNL A   1      43.935  24.654  37.682  1.00  0.00    -0.237 OA
ATOM     95  O   UNL A   1      44.146  23.143  35.748  1.00  0.00    -0.237 OA
ATOM     96  O   UNL A   1      46.099  23.587  37.169  1.00  0.00    -0.744 OA
ENDBRANCH  90  93
ENDBRANCH  63  86
ENDBRANCH  37  38
ENDBRANCH  29  32
ENDBRANCH  27  28
ENDBRANCH  26  27
ENDBRANCH  25  26
ENDBRANCH   1  25
TORSDOF 20
ENDMDL
MODEL 3
REMARK VINA RESULT:     -12.9      1.718      3.745
REMARK SMILES CC[C@@H]1CCC[C@@](CC[NH+]2CCOCC2)(C(=O)NCCCCCCNC(=O)c2ccc(-c3c4nc(c(-c5cccc(S(=O)(=O)[O-])c5F)c5ccc([nH]5)c(-c5cccc(S(=O)(=O)[O-])c5F)c5nc(c(-c6cccc(S(=O)(=O)[O-])c6F)c6ccc3[nH]6)C=C5)C=C4)cc2)C1
REMARK SMILES IDX 21 1 20 2 19 3 18 4 16 5 17 6 7 8 3 9 4 10 91 11 5 12 6 13
REMARK SMILES IDX 2 14 1 15 8 16 9 17 10 18 11 19 15 20 12 22 14 23 13 24
REMARK SMILES IDX 22 25 23 26 24 27 25 28 26 29 27 31 28 32 29 33 90 34 30 35
REMARK SMILES IDX 89 36 31 37 32 38 33 39 83 40 34 41 88 42 82 43 84 44 35 45
REMARK SMILES IDX 87 46 81 47 80 48 36 50 68 51 48 52 67 53 49 54 52 55 66 56
REMARK SMILES IDX 85 57 50 58 51 59 65 61 86 62 53 63 37 64 38 65 46 66 39 67
REMARK SMILES IDX 41 68 47 69 40 70 42 71 43 72 44 73 45 74 69 75 70 76 78 77
REMARK SMILES IDX 71 78 73 79 79 80 72 81 74 82 75 83 76 84 77 85 54 86 55 87
REMARK SMILES IDX 63 88 56 89 58 90 64 91 57 92 59 93 60 94 61 95 62 96
REMARK H PARENT 18 7 10 21 25 30 84 49 52 60
REMARK Flexibility Score: inf
ROOT
ATOM      1  C   UNL A   1      35.197  29.343  27.565  1.00  0.00     0.002 C 
ENDROOT
BRANCH   1   2
ATOM      2  C   UNL A   1      34.067  28.883  26.617  1.00  0.00     0.021 C 
BRANCH   2   3
ATOM      3  C   UNL A   1      32.568  28.339  27.322  1.00  0.00     0.116 C 
BRANCH   3   4
ATOM      4  N   UNL A   1      31.350  26.761  26.764  1.00  0.00    -0.356 N 
ATOM      5  C   UNL A   1      30.779  26.262  25.237  1.00  0.00     0.226 C 
ATOM      6  O   UNL A   1      30.046  25.272  25.258  1.00  0.00    -0.274 OA
ATOM      7  H   UNL A   1      31.046  26.200  27.513  1.00  0.00     0.163 HD
BRANCH   5   8
ATOM      8  C   UNL A   1      31.581  27.032  23.668  1.00  0.00     0.055 C 
ATOM      9  C   UNL A   1      29.355  28.343  23.481  1.00  0.00    -0.010 C 
ATOM     10  C   UNL A   1      30.055  29.700  23.629  1.00  0.00     0.003 C 
ATOM     11  C   UNL A   1      30.273  27.256  22.808  1.00  0.00     0.020 C 
ATOM     12  C   UNL A   1      31.433  29.590  24.247  1.00  0.00     0.001 C 
ATOM     13  C   UNL A   1      32.228  28.466  23.626  1.00  0.00     0.017 C 
BRANCH   9  14
ATOM     14  C   UNL A   1      27.984  28.555  22.823  1.00  0.00     0.000 C 
ATOM     15  C   UNL A   1      27.372  29.918  23.101  1.00  0.00     0.004 C 
ENDBRANCH   9  14
BRANCH   8  16
ATOM     16  C   UNL A   1      32.956  26.135  22.747  1.00  0.00     0.078 C 
BRANCH  16  17
ATOM     17  C   UNL A   1      33.754  24.590  23.440  1.00  0.00     0.263 C 
BRANCH  17  18
ATOM     18  N   UNL A   1      32.815  23.390  23.801  1.00  0.00    -0.331 N 
ATOM     19  C   UNL A   1      33.553  23.619  25.019  1.00  0.00     0.291 C 
ATOM     20  C   UNL A   1      32.550  21.613  24.094  1.00  0.00     0.291 C 
ATOM     21  H   UNL A   1      32.021  23.432  23.163  1.00  0.00     0.348 HD
ATOM     22  C   UNL A   1      35.482  22.887  25.409  1.00  0.00     0.221 C 
ATOM     23  C   UNL A   1      33.791  20.272  24.825  1.00  0.00     0.221 C 
ATOM     24  O   UNL A   1      35.418  20.961  25.491  1.00  0.00    -0.370 OA
ENDBRANCH  17  18
ENDBRANCH  16  17
ENDBRANCH   8  16
ENDBRANCH   5   8
ENDBRANCH   3   4
ENDBRANCH   2   3
ENDBRANCH   1   2
BRANCH   1  25
ATOM     25  C   UNL A   1      35.167  30.832  27.966  1.00  0.00     0.002 C 
BRANCH  25  26
ATOM     26  C   UNL A   1      34.170  31.663  27.168  1.00  0.00     0.021 C 
BRANCH  26  27
ATOM     27  C   UNL A   1      33.055  32.227  28.029  1.00  0.00     0.116 C 
BRANCH  27  28
ATOM     28  N   UNL A   1      32.870  33.667  27.821  1.00  0.00    -0.352 N 
ATOM     29  C   UNL A   1      33.458  34.692  28.511  1.00  0.00     0.251 C 
ATOM     30  H   UNL A   1      32.251  33.926  27.101  1.00  0.00     0.163 HD
ATOM     31  O   UNL A   1      33.129  35.860  28.359  1.00  0.00    -0.269 OA
BRANCH  29  32
ATOM     32  C   UNL A   1      34.509  34.296  29.449  1.00  0.00     0.039 A 
ATOM     33  C   UNL A   1      34.173  33.547  30.573  1.00  0.00     0.014 A 
ATOM     34  C   UNL A   1      35.834  34.478  29.041  1.00  0.00     0.014 A 
ATOM     35  C   UNL A   1      35.196  32.937  31.290  1.00  0.00     0.010 A 
ATOM     36  C   UNL A   1      36.828  33.770  29.683  1.00  0.00     0.010 A 
ATOM     37  C   UNL A   1      36.522  33.025  30.833  1.00  0.00    -0.014 A 
BRANCH  37  38
ATOM     38  C   UNL A   1      37.635  32.414  31.584  1.00  0.00     0.031 A 
ATOM     39  C   UNL A   1      38.386  31.278  30.946  1.00  0.00     0.074 A 
ATOM     40  C   UNL A   1      37.909  32.823  32.837  1.00  0.00     0.049 A 
ATOM     41  N   UNL A   1      39.334  30.534  31.446  1.00  0.00    -0.248 NA
ATOM     42  C   UNL A   1      37.984  30.891  29.579  1.00  0.00     0.031 C 
ATOM     43  C   UNL A   1      37.176  33.854  33.577  1.00  0.00     0.029 A 
ATOM     44  N   UNL A   1      38.868  32.402  33.719  1.00  0.00    -0.354 N 
ATOM     45  C   UNL A   1      39.609  29.578  30.476  1.00  0.00     0.074 A 
ATOM     46  C   UNL A   1      38.684  29.785  29.389  1.00  0.00     0.031 C 
ATOM     47  C   UNL A   1      37.725  33.996  34.796  1.00  0.00     0.029 A 
ATOM     48  C   UNL A   1      38.827  33.049  34.931  1.00  0.00     0.049 A 
ATOM     49  H   UNL A   1      39.526  31.701  33.505  1.00  0.00     0.167 HD
ATOM     50  C   UNL A   1      40.586  28.645  30.467  1.00  0.00     0.034 A 
ATOM     51  C   UNL A   1      39.599  32.888  36.023  1.00  0.00     0.034 A 
ATOM     52  C   UNL A   1      41.545  28.504  31.523  1.00  0.00     0.049 A 
ATOM     53  C   UNL A   1      40.720  31.883  35.959  1.00  0.00     0.074 A 
ATOM     54  C   UNL A   1      42.627  27.647  31.593  1.00  0.00     0.029 A 
ATOM     55  N   UNL A   1      41.543  29.252  32.689  1.00  0.00    -0.354 N 
ATOM     56  N   UNL A   1      41.057  31.084  34.974  1.00  0.00    -0.248 NA
ATOM     57  C   UNL A   1      41.593  31.785  37.137  1.00  0.00     0.031 C 
ATOM     58  C   UNL A   1      43.274  27.873  32.811  1.00  0.00     0.029 A 
ATOM     59  C   UNL A   1      42.609  28.886  33.485  1.00  0.00     0.049 A 
ATOM     60  H   UNL A   1      40.879  29.943  32.916  1.00  0.00     0.167 HD
ATOM     61  C   UNL A   1      42.203  30.421  35.396  1.00  0.00     0.074 A 
ATOM     62  C   UNL A   1      42.516  30.932  36.716  1.00  0.00     0.031 C 
ATOM     63  C   UNL A   1      42.926  29.465  34.764  1.00  0.00     0.034 A 
BRANCH  50  64
ATOM     64  C   UNL A   1      40.711  27.774  29.248  1.00  0.00     0.023 A 
ATOM     65  C   UNL A   1      39.891  26.632  29.126  1.00  0.00     0.012 A 
ATOM     66  C   UNL A   1      41.594  28.105  28.204  1.00  0.00     0.148 A 
ATOM     67  C   UNL A   1      39.969  25.817  27.999  1.00  0.00     0.002 A 
ATOM     68  C   UNL A   1      41.631  27.316  27.062  1.00  0.00     0.091 A 
ATOM     69  F   UNL A   1      42.382  29.180  28.352  1.00  0.00    -0.205 F 
ATOM     70  C   UNL A   1      40.830  26.166  26.962  1.00  0.00     0.022 A 
BRANCH  68  71
ATOM     71  S   UNL A   1      42.644  27.718  25.635  1.00  0.00     0.127 S 
ATOM     72  O   UNL A   1      41.983  28.922  25.132  1.00  0.00    -0.237 OA
ATOM     73  O   UNL A   1      43.952  27.950  26.248  1.00  0.00    -0.237 OA
ATOM     74  O   UNL A   1      42.579  26.561  24.753  1.00  0.00    -0.744 OA
ENDBRANCH  68  71
ENDBRANCH  50  64
BRANCH  51  75
ATOM     75  C   UNL A   1      39.392  33.732  37.234  1.00  0.00     0.023 A 
ATOM     76  C   UNL A   1      39.918  35.040  37.267  1.00  0.00     0.012 A 
ATOM     77  C   UNL A   1      38.687  33.253  38.353  1.00  0.00     0.148 A 
ATOM     78  C   UNL A   1      39.791  35.832  38.409  1.00  0.00     0.002 A 
ATOM     79  C   UNL A   1      38.515  34.067  39.467  1.00  0.00     0.091 A 
ATOM     80  F   UNL A   1      38.199  32.004  38.310  1.00  0.00    -0.205 F 
ATOM     81  C   UNL A   1      39.083  35.349  39.506  1.00  0.00     0.022 A 
BRANCH  79  82
ATOM     82  S   UNL A   1      37.506  33.568  40.867  1.00  0.00     0.127 S 
ATOM     83  O   UNL A   1      37.432  34.805  41.639  1.00  0.00    -0.237 OA
ATOM     84  O   UNL A   1      36.256  33.169  40.219  1.00  0.00    -0.237 OA
ATOM     85  O   UNL A   1      38.230  32.468  41.492  1.00  0.00    -0.744 OA
ENDBRANCH  79  82
ENDBRANCH  51  75
BRANCH  63  86
ATOM     86  C   UNL A   1      44.152  28.946  35.461  1.00  0.00     0.023 A 
ATOM     87  C   UNL A   1      45.402  29.550  35.224  1.00  0.00     0.012 A 
ATOM     88  C   UNL A   1      44.045  27.919  36.419  1.00  0.00     0.148 A 
ATOM     89  C   UNL A   1      46.536  29.113  35.906  1.00  0.00     0.002 A 
ATOM     90  C   UNL A   1      45.168  27.527  37.133  1.00  0.00     0.091 A 
ATOM     91  F   UNL A   1      42.845  27.351  36.616  1.00  0.00    -0.205 F 
ATOM     92  C   UNL A   1      46.416  28.113  36.868  1.00  0.00     0.022 A 
BRANCH  90  93
ATOM     93  S   UNL A   1      45.088  26.323  38.462  1.00  0.00     0.127 S 
ATOM     94  O   UNL A   1      44.410  27.081  39.511  1.00  0.00    -0.237 OA
ATOM     95  O   UNL A   1      44.285  25.255  37.863  1.00  0.00    -0.237 OA
ATOM     96  O   UNL A   1      46.467  25.951  38.751  1.00  0.00    -0.744 OA
ENDBRANCH  90  93
ENDBRANCH  63  86
ENDBRANCH  37  38
ENDBRANCH  29  32
ENDBRANCH  27  28
ENDBRANCH  26  27
ENDBRANCH  25  26
ENDBRANCH   1  25
TORSDOF 20
ENDMDL
