MODEL 1
REMARK VINA RESULT:     -11.3      0.000      0.000
REMARK SMILES NS(=O)(=O)c1ccc(C#Cc2cc(Cl)cc3c2O[C@H](C(F)(F)F)C(C(=O)NCCCCCCNC(=O)c2ccc(-c4c5nc(c(-c6cccc(S(=O)(=O)[O-])c6F)c6ccc([nH]6)c(-c6cccc(S(=O)(=O)[O-])c6F)c6nc(c(-c7cccc(S(=O)(=O)[O-])c7F)c7ccc4[nH]7)C=C6)C=C5)cc2)=C3)cc1
REMARK SMILES IDX 30 1 29 2 28 3 27 4 25 5 26 6 24 8 11 9 12 10 17 11 13 12
REMARK SMILES IDX 16 13 18 14 14 15 15 16 100 17 19 18 10 19 9 20 8 21 5 22
REMARK SMILES IDX 6 23 102 24 7 25 101 26 2 27 3 28 4 29 1 30 20 33 21 34
REMARK SMILES IDX 22 35 23 36 31 37 32 38 33 39 34 40 35 41 36 43 37 44 38 45
REMARK SMILES IDX 99 46 39 47 98 48 40 49 41 50 42 51 92 52 43 53 97 54 91 55
REMARK SMILES IDX 93 56 44 57 96 58 90 59 89 60 45 62 77 63 57 64 76 65 58 66
REMARK SMILES IDX 61 67 75 68 94 69 59 70 60 71 74 73 95 74 62 75 46 76 47 77
REMARK SMILES IDX 55 78 48 79 50 80 56 81 49 82 51 83 52 84 53 85 54 86 78 87
REMARK SMILES IDX 79 88 87 89 80 90 82 91 88 92 81 93 83 94 84 95 85 96 86 97
REMARK SMILES IDX 63 98 64 99 72 100 65 101 67 102 73 103 66 104 68 105 69 106
REMARK SMILES IDX 70 107 71 108
REMARK H PARENT 27 7 1 31 1 32 34 42 93 61 61 72
REMARK Flexibility Score: inf
ROOT
ATOM      1  C   UNL A   1      40.182  22.152  26.241  1.00  0.00     0.002 C 
ENDROOT
BRANCH   1   2
ATOM      2  C   UNL A   1      38.681  21.879  26.350  1.00  0.00     0.021 C 
BRANCH   2   3
ATOM      3  C   UNL A   1      37.962  21.981  25.011  1.00  0.00     0.116 C 
BRANCH   3   4
ATOM      4  N   UNL A   1      37.036  20.880  24.812  1.00  0.00    -0.352 N 
ATOM      5  C   UNL A   1      35.696  20.691  24.871  1.00  0.00     0.251 C 
ATOM      6  O   UNL A   1      35.302  19.555  24.590  1.00  0.00    -0.270 OA
ATOM      7  H   UNL A   1      37.507  20.050  24.570  1.00  0.00     0.163 HD
BRANCH   5   8
ATOM      8  C   UNL A   1      34.705  21.743  25.248  1.00  0.00     0.067 C 
ATOM      9  C   UNL A   1      31.912  24.606  26.548  1.00  0.00     0.069 A 
ATOM     10  C   UNL A   1      30.604  24.218  26.833  1.00  0.00     0.041 A 
ATOM     11  C   UNL A   1      32.845  23.642  26.143  1.00  0.00     0.143 A 
ATOM     12  C   UNL A   1      30.245  22.875  26.714  1.00  0.00     0.043 A 
ATOM     13  C   UNL A   1      32.488  22.295  26.031  1.00  0.00     0.020 A 
ATOM     14  O   UNL A   1      34.115  24.076  25.910  1.00  0.00    -0.474 OA
ATOM     15  Cl  UNL A   1      28.629  22.394  27.068  1.00  0.00    -0.084 Cl
ATOM     16  C   UNL A   1      31.176  21.912  26.318  1.00  0.00     0.032 A 
ATOM     17  C   UNL A   1      33.499  21.311  25.657  1.00  0.00     0.025 C 
ATOM     18  C   UNL A   1      34.989  23.213  25.152  1.00  0.00     0.314 C 
BRANCH   9  19
ATOM     19  C   UNL A   1      32.295  25.986  26.636  1.00  0.00    -0.058 C 
ATOM     20  C   UNL A   1      32.588  27.146  26.777  1.00  0.00    -0.062 C 
BRANCH  20  21
ATOM     21  C   UNL A   1      32.979  28.502  27.014  1.00  0.00     0.025 A 
ATOM     22  C   UNL A   1      33.776  31.120  27.578  1.00  0.00     0.082 A 
ATOM     23  C   UNL A   1      32.437  30.856  27.280  1.00  0.00     0.023 A 
ATOM     24  C   UNL A   1      34.717  30.085  27.589  1.00  0.00     0.023 A 
ATOM     25  C   UNL A   1      32.040  29.542  26.997  1.00  0.00     0.018 A 
ATOM     26  C   UNL A   1      34.317  28.779  27.305  1.00  0.00     0.018 A 
BRANCH  22  27
ATOM     27  S   UNL A   1      34.356  32.747  27.973  1.00  0.00     0.238 S 
ATOM     28  O   UNL A   1      33.299  33.672  27.638  1.00  0.00    -0.207 OA
ATOM     29  O   UNL A   1      35.695  32.867  27.443  1.00  0.00    -0.207 OA
BRANCH  27  30
ATOM     30  N   UNL A   1      34.506  32.775  29.642  1.00  0.00    -0.225 NA
ATOM     31  H   UNL A   1      33.904  33.503  30.026  1.00  0.00     0.137 HD
ATOM     32  H   UNL A   1      35.476  32.968  29.892  1.00  0.00     0.137 HD
ENDBRANCH  27  30
ENDBRANCH  22  27
ENDBRANCH  20  21
ENDBRANCH   9  19
BRANCH  18  33
ATOM     33  C   UNL A   1      35.052  23.710  23.695  1.00  0.00     0.429 C 
ATOM     34  F   UNL A   1      34.575  24.975  23.601  1.00  0.00    -0.167 F 
ATOM     35  F   UNL A   1      36.314  23.741  23.208  1.00  0.00    -0.167 F 
ATOM     36  F   UNL A   1      34.329  22.934  22.856  1.00  0.00    -0.167 F 
ENDBRANCH  18  33
ENDBRANCH   5   8
ENDBRANCH   3   4
ENDBRANCH   2   3
ENDBRANCH   1   2
BRANCH   1  37
ATOM     37  C   UNL A   1      41.076  21.099  26.910  1.00  0.00     0.002 C 
BRANCH  37  38
ATOM     38  C   UNL A   1      41.255  19.807  26.110  1.00  0.00     0.021 C 
BRANCH  38  39
ATOM     39  C   UNL A   1      42.497  19.016  26.493  1.00  0.00     0.116 C 
BRANCH  39  40
ATOM     40  N   UNL A   1      43.376  18.798  25.352  1.00  0.00    -0.352 N 
ATOM     41  C   UNL A   1      44.078  19.714  24.608  1.00  0.00     0.251 C 
ATOM     42  H   UNL A   1      43.481  17.860  25.074  1.00  0.00     0.163 HD
ATOM     43  O   UNL A   1      44.595  19.379  23.547  1.00  0.00    -0.269 OA
BRANCH  41  44
ATOM     44  C   UNL A   1      44.175  21.107  25.091  1.00  0.00     0.039 A 
ATOM     45  C   UNL A   1      43.638  22.144  24.328  1.00  0.00     0.014 A 
ATOM     46  C   UNL A   1      44.848  21.385  26.282  1.00  0.00     0.014 A 
ATOM     47  C   UNL A   1      43.959  23.455  24.640  1.00  0.00     0.010 A 
ATOM     48  C   UNL A   1      45.058  22.713  26.662  1.00  0.00     0.010 A 
ATOM     49  C   UNL A   1      44.666  23.761  25.815  1.00  0.00    -0.014 A 
BRANCH  49  50
ATOM     50  C   UNL A   1      44.955  25.188  26.118  1.00  0.00     0.031 A 
ATOM     51  C   UNL A   1      43.895  26.103  26.673  1.00  0.00     0.074 A 
ATOM     52  C   UNL A   1      46.217  25.638  25.959  1.00  0.00     0.049 A 
ATOM     53  N   UNL A   1      44.023  27.336  27.090  1.00  0.00    -0.248 NA
ATOM     54  C   UNL A   1      42.520  25.583  26.774  1.00  0.00     0.031 C 
ATOM     55  C   UNL A   1      47.324  24.854  25.401  1.00  0.00     0.029 A 
ATOM     56  N   UNL A   1      46.792  26.842  26.275  1.00  0.00    -0.354 N 
ATOM     57  C   UNL A   1      42.751  27.748  27.468  1.00  0.00     0.074 A 
ATOM     58  C   UNL A   1      41.856  26.640  27.222  1.00  0.00     0.031 C 
ATOM     59  C   UNL A   1      48.453  25.571  25.475  1.00  0.00     0.029 A 
ATOM     60  C   UNL A   1      48.143  26.888  26.018  1.00  0.00     0.049 A 
ATOM     61  H   UNL A   1      46.288  27.599  26.650  1.00  0.00     0.167 HD
ATOM     62  C   UNL A   1      42.369  28.936  27.992  1.00  0.00     0.034 A 
ATOM     63  C   UNL A   1      49.039  27.879  26.186  1.00  0.00     0.034 A 
ATOM     64  C   UNL A   1      43.267  30.021  28.274  1.00  0.00     0.049 A 
ATOM     65  C   UNL A   1      48.587  29.186  26.763  1.00  0.00     0.074 A 
ATOM     66  C   UNL A   1      42.973  31.237  28.864  1.00  0.00     0.029 A 
ATOM     67  N   UNL A   1      44.619  30.030  27.979  1.00  0.00    -0.354 N 
ATOM     68  N   UNL A   1      47.399  29.513  27.207  1.00  0.00    -0.248 NA
ATOM     69  C   UNL A   1      49.590  30.255  26.874  1.00  0.00     0.031 C 
ATOM     70  C   UNL A   1      44.143  31.996  28.898  1.00  0.00     0.029 A 
ATOM     71  C   UNL A   1      45.171  31.238  28.359  1.00  0.00     0.049 A 
ATOM     72  H   UNL A   1      45.114  29.287  27.562  1.00  0.00     0.167 HD
ATOM     73  C   UNL A   1      47.511  30.820  27.661  1.00  0.00     0.074 A 
ATOM     74  C   UNL A   1      48.887  31.222  27.454  1.00  0.00     0.031 C 
ATOM     75  C   UNL A   1      46.551  31.612  28.189  1.00  0.00     0.034 A 
BRANCH  62  76
ATOM     76  C   UNL A   1      40.921  29.134  28.347  1.00  0.00     0.023 A 
ATOM     77  C   UNL A   1      39.979  29.332  27.319  1.00  0.00     0.012 A 
ATOM     78  C   UNL A   1      40.480  28.980  29.676  1.00  0.00     0.148 A 
ATOM     79  C   UNL A   1      38.616  29.375  27.608  1.00  0.00     0.002 A 
ATOM     80  C   UNL A   1      39.119  28.998  29.953  1.00  0.00     0.091 A 
ATOM     81  F   UNL A   1      41.398  28.794  30.635  1.00  0.00    -0.205 F 
ATOM     82  C   UNL A   1      38.186  29.196  28.921  1.00  0.00     0.022 A 
BRANCH  80  83
ATOM     83  S   UNL A   1      38.457  28.735  31.602  1.00  0.00     0.127 S 
ATOM     84  O   UNL A   1      37.024  28.925  31.375  1.00  0.00    -0.237 OA
ATOM     85  O   UNL A   1      38.853  27.354  31.874  1.00  0.00    -0.237 OA
ATOM     86  O   UNL A   1      39.082  29.736  32.454  1.00  0.00    -0.744 OA
ENDBRANCH  80  83
ENDBRANCH  62  76
BRANCH  63  87
ATOM     87  C   UNL A   1      50.460  27.636  25.820  1.00  0.00     0.023 A 
ATOM     88  C   UNL A   1      51.378  27.253  26.815  1.00  0.00     0.012 A 
ATOM     89  C   UNL A   1      50.877  27.691  24.475  1.00  0.00     0.148 A 
ATOM     90  C   UNL A   1      52.691  26.927  26.475  1.00  0.00     0.002 A 
ATOM     91  C   UNL A   1      52.174  27.329  24.140  1.00  0.00     0.091 A 
ATOM     92  F   UNL A   1      49.977  28.052  23.550  1.00  0.00    -0.205 F 
ATOM     93  C   UNL A   1      53.085  26.953  25.139  1.00  0.00     0.022 A 
BRANCH  91  94
ATOM     94  S   UNL A   1      52.748  27.246  22.441  1.00  0.00     0.127 S 
ATOM     95  O   UNL A   1      53.896  26.351  22.559  1.00  0.00    -0.237 OA
ATOM     96  O   UNL A   1      51.586  26.675  21.762  1.00  0.00    -0.237 OA
ATOM     97  O   UNL A   1      53.062  28.616  22.059  1.00  0.00    -0.744 OA
ENDBRANCH  91  94
ENDBRANCH  63  87
BRANCH  75  98
ATOM     98  C   UNL A   1      46.919  33.005  28.613  1.00  0.00     0.023 A 
ATOM     99  C   UNL A   1      47.456  33.216  29.896  1.00  0.00     0.012 A 
ATOM    100  C   UNL A   1      46.919  34.052  27.670  1.00  0.00     0.148 A 
ATOM    101  C   UNL A   1      48.007  34.452  30.230  1.00  0.00     0.002 A 
ATOM    102  C   UNL A   1      47.498  35.270  28.001  1.00  0.00     0.091 A 
ATOM    103  F   UNL A   1      46.403  33.815  26.456  1.00  0.00    -0.205 F 
ATOM    104  C   UNL A   1      48.044  35.471  29.280  1.00  0.00     0.022 A 
BRANCH 102 105
ATOM    105  S   UNL A   1      47.653  36.618  26.824  1.00  0.00     0.127 S 
ATOM    106  O   UNL A   1      48.427  35.990  25.754  1.00  0.00    -0.237 OA
ATOM    107  O   UNL A   1      46.257  36.894  26.490  1.00  0.00    -0.237 OA
ATOM    108  O   UNL A   1      48.342  37.692  27.528  1.00  0.00    -0.744 OA
ENDBRANCH 102 105
ENDBRANCH  75  98
ENDBRANCH  49  50
ENDBRANCH  41  44
ENDBRANCH  39  40
ENDBRANCH  38  39
ENDBRANCH  37  38
ENDBRANCH   1  37
TORSDOF 21
ENDMDL
MODEL 2
REMARK VINA RESULT:     -11.0      2.011      7.427
REMARK SMILES NS(=O)(=O)c1ccc(C#Cc2cc(Cl)cc3c2O[C@H](C(F)(F)F)C(C(=O)NCCCCCCNC(=O)c2ccc(-c4c5nc(c(-c6cccc(S(=O)(=O)[O-])c6F)c6ccc([nH]6)c(-c6cccc(S(=O)(=O)[O-])c6F)c6nc(c(-c7cccc(S(=O)(=O)[O-])c7F)c7ccc4[nH]7)C=C6)C=C5)cc2)=C3)cc1
REMARK SMILES IDX 30 1 29 2 28 3 27 4 25 5 26 6 24 8 11 9 12 10 17 11 13 12
REMARK SMILES IDX 16 13 18 14 14 15 15 16 100 17 19 18 10 19 9 20 8 21 5 22
REMARK SMILES IDX 6 23 102 24 7 25 101 26 2 27 3 28 4 29 1 30 20 33 21 34
REMARK SMILES IDX 22 35 23 36 31 37 32 38 33 39 34 40 35 41 36 43 37 44 38 45
REMARK SMILES IDX 99 46 39 47 98 48 40 49 41 50 42 51 92 52 43 53 97 54 91 55
REMARK SMILES IDX 93 56 44 57 96 58 90 59 89 60 45 62 77 63 57 64 76 65 58 66
REMARK SMILES IDX 61 67 75 68 94 69 59 70 60 71 74 73 95 74 62 75 46 76 47 77
REMARK SMILES IDX 55 78 48 79 50 80 56 81 49 82 51 83 52 84 53 85 54 86 78 87
REMARK SMILES IDX 79 88 87 89 80 90 82 91 88 92 81 93 83 94 84 95 85 96 86 97
REMARK SMILES IDX 63 98 64 99 72 100 65 101 67 102 73 103 66 104 68 105 69 106
REMARK SMILES IDX 70 107 71 108
REMARK H PARENT 27 7 1 31 1 32 34 42 93 61 61 72
REMARK Flexibility Score: inf
ROOT
ATOM      1  C   UNL A   1      39.039  21.585  25.694  1.00  0.00     0.002 C 
ENDROOT
BRANCH   1   2
ATOM      2  C   UNL A   1      38.226  20.312  25.452  1.00  0.00     0.021 C 
BRANCH   2   3
ATOM      3  C   UNL A   1      37.049  20.531  24.511  1.00  0.00     0.116 C 
BRANCH   3   4
ATOM      4  N   UNL A   1      35.779  20.299  25.176  1.00  0.00    -0.352 N 
ATOM      5  C   UNL A   1      34.625  20.982  25.372  1.00  0.00     0.251 C 
ATOM      6  O   UNL A   1      33.747  20.381  25.997  1.00  0.00    -0.270 OA
ATOM      7  H   UNL A   1      35.747  19.410  25.596  1.00  0.00     0.163 HD
BRANCH   5   8
ATOM      8  C   UNL A   1      34.369  22.374  24.893  1.00  0.00     0.067 C 
ATOM      9  C   UNL A   1      33.395  26.232  23.531  1.00  0.00     0.069 A 
ATOM     10  C   UNL A   1      32.977  26.416  22.214  1.00  0.00     0.041 A 
ATOM     11  C   UNL A   1      33.690  24.940  23.986  1.00  0.00     0.143 A 
ATOM     12  C   UNL A   1      32.854  25.311  21.371  1.00  0.00     0.043 A 
ATOM     13  C   UNL A   1      33.561  23.830  23.145  1.00  0.00     0.020 A 
ATOM     14  O   UNL A   1      34.063  24.818  25.291  1.00  0.00    -0.474 OA
ATOM     15  Cl  UNL A   1      32.336  25.538  19.745  1.00  0.00    -0.084 Cl
ATOM     16  C   UNL A   1      33.141  24.022  21.826  1.00  0.00     0.032 A 
ATOM     17  C   UNL A   1      33.827  22.494  23.668  1.00  0.00     0.025 C 
ATOM     18  C   UNL A   1      34.719  23.596  25.689  1.00  0.00     0.314 C 
BRANCH   9  19
ATOM     19  C   UNL A   1      33.555  27.358  24.406  1.00  0.00    -0.058 C 
ATOM     20  C   UNL A   1      33.690  28.256  25.196  1.00  0.00    -0.062 C 
BRANCH  20  21
ATOM     21  C   UNL A   1      33.922  29.287  26.162  1.00  0.00     0.025 A 
ATOM     22  C   UNL A   1      34.366  31.373  27.966  1.00  0.00     0.082 A 
ATOM     23  C   UNL A   1      35.342  30.387  27.799  1.00  0.00     0.023 A 
ATOM     24  C   UNL A   1      33.170  31.317  27.244  1.00  0.00     0.023 A 
ATOM     25  C   UNL A   1      35.115  29.341  26.893  1.00  0.00     0.018 A 
ATOM     26  C   UNL A   1      32.949  30.273  26.344  1.00  0.00     0.018 A 
BRANCH  22  27
ATOM     27  S   UNL A   1      34.583  32.743  29.070  1.00  0.00     0.238 S 
ATOM     28  O   UNL A   1      35.086  32.214  30.315  1.00  0.00    -0.207 OA
ATOM     29  O   UNL A   1      33.388  33.551  28.991  1.00  0.00    -0.207 OA
BRANCH  27  30
ATOM     30  N   UNL A   1      35.817  33.661  28.405  1.00  0.00    -0.225 NA
ATOM     31  H   UNL A   1      35.493  34.090  27.538  1.00  0.00     0.137 HD
ATOM     32  H   UNL A   1      36.618  33.061  28.208  1.00  0.00     0.137 HD
ENDBRANCH  27  30
ENDBRANCH  22  27
ENDBRANCH  20  21
ENDBRANCH   9  19
BRANCH  18  33
ATOM     33  C   UNL A   1      36.239  23.839  25.764  1.00  0.00     0.429 C 
ATOM     34  F   UNL A   1      36.828  23.550  24.578  1.00  0.00    -0.167 F 
ATOM     35  F   UNL A   1      36.549  25.127  26.040  1.00  0.00    -0.167 F 
ATOM     36  F   UNL A   1      36.832  23.083  26.714  1.00  0.00    -0.167 F 
ENDBRANCH  18  33
ENDBRANCH   5   8
ENDBRANCH   3   4
ENDBRANCH   2   3
ENDBRANCH   1   2
BRANCH   1  37
ATOM     37  C   UNL A   1      40.237  21.410  26.637  1.00  0.00     0.002 C 
BRANCH  37  38
ATOM     38  C   UNL A   1      40.766  19.979  26.746  1.00  0.00     0.021 C 
BRANCH  38  39
ATOM     39  C   UNL A   1      42.253  19.896  27.056  1.00  0.00     0.116 C 
BRANCH  39  40
ATOM     40  N   UNL A   1      43.011  19.343  25.943  1.00  0.00    -0.352 N 
ATOM     41  C   UNL A   1      43.853  19.977  25.063  1.00  0.00     0.251 C 
ATOM     42  H   UNL A   1      42.903  18.374  25.800  1.00  0.00     0.163 HD
ATOM     43  O   UNL A   1      44.237  19.398  24.052  1.00  0.00    -0.269 OA
BRANCH  41  44
ATOM     44  C   UNL A   1      44.263  21.369  25.342  1.00  0.00     0.039 A 
ATOM     45  C   UNL A   1      45.366  21.616  26.159  1.00  0.00     0.014 A 
ATOM     46  C   UNL A   1      43.514  22.430  24.829  1.00  0.00     0.014 A 
ATOM     47  C   UNL A   1      45.588  22.899  26.634  1.00  0.00     0.010 A 
ATOM     48  C   UNL A   1      43.823  23.739  25.210  1.00  0.00     0.010 A 
ATOM     49  C   UNL A   1      44.825  23.981  26.161  1.00  0.00    -0.014 A 
BRANCH  49  50
ATOM     50  C   UNL A   1      45.127  25.341  26.680  1.00  0.00     0.031 A 
ATOM     51  C   UNL A   1      46.485  25.967  26.499  1.00  0.00     0.074 A 
ATOM     52  C   UNL A   1      44.132  26.046  27.256  1.00  0.00     0.049 A 
ATOM     53  N   UNL A   1      46.865  27.183  26.796  1.00  0.00    -0.248 NA
ATOM     54  C   UNL A   1      47.554  25.137  25.918  1.00  0.00     0.031 C 
ATOM     55  C   UNL A   1      42.781  25.537  27.514  1.00  0.00     0.029 A 
ATOM     56  N   UNL A   1      44.084  27.344  27.699  1.00  0.00    -0.354 N 
ATOM     57  C   UNL A   1      48.214  27.254  26.473  1.00  0.00     0.074 A 
ATOM     58  C   UNL A   1      48.597  25.956  25.966  1.00  0.00     0.031 C 
ATOM     59  C   UNL A   1      42.023  26.524  28.007  1.00  0.00     0.029 A 
ATOM     60  C   UNL A   1      42.845  27.718  28.167  1.00  0.00     0.049 A 
ATOM     61  H   UNL A   1      44.860  27.949  27.683  1.00  0.00     0.167 HD
ATOM     62  C   UNL A   1      49.052  28.312  26.570  1.00  0.00     0.034 A 
ATOM     63  C   UNL A   1      42.412  28.885  28.679  1.00  0.00     0.034 A 
ATOM     64  C   UNL A   1      48.659  29.613  27.036  1.00  0.00     0.049 A 
ATOM     65  C   UNL A   1      43.363  30.038  28.782  1.00  0.00     0.074 A 
ATOM     66  C   UNL A   1      49.430  30.760  27.107  1.00  0.00     0.029 A 
ATOM     67  N   UNL A   1      47.403  29.939  27.517  1.00  0.00    -0.354 N 
ATOM     68  N   UNL A   1      44.606  30.108  28.374  1.00  0.00    -0.248 NA
ATOM     69  C   UNL A   1      42.859  31.273  29.401  1.00  0.00     0.031 C 
ATOM     70  C   UNL A   1      48.649  31.773  27.662  1.00  0.00     0.029 A 
ATOM     71  C   UNL A   1      47.382  31.265  27.904  1.00  0.00     0.049 A 
ATOM     72  H   UNL A   1      46.640  29.320  27.574  1.00  0.00     0.167 HD
ATOM     73  C   UNL A   1      45.031  31.395  28.674  1.00  0.00     0.074 A 
ATOM     74  C   UNL A   1      43.910  32.078  29.285  1.00  0.00     0.031 C 
ATOM     75  C   UNL A   1      46.248  31.948  28.470  1.00  0.00     0.034 A 
BRANCH  62  76
ATOM     76  C   UNL A   1      50.480  28.144  26.128  1.00  0.00     0.023 A 
ATOM     77  C   UNL A   1      50.836  28.472  24.806  1.00  0.00     0.012 A 
ATOM     78  C   UNL A   1      51.483  27.802  27.056  1.00  0.00     0.148 A 
ATOM     79  C   UNL A   1      52.172  28.463  24.411  1.00  0.00     0.002 A 
ATOM     80  C   UNL A   1      52.815  27.820  26.661  1.00  0.00     0.091 A 
ATOM     81  F   UNL A   1      51.116  27.493  28.307  1.00  0.00    -0.205 F 
ATOM     82  C   UNL A   1      53.161  28.149  25.340  1.00  0.00     0.022 A 
BRANCH  80  83
ATOM     83  S   UNL A   1      54.170  27.474  27.790  1.00  0.00     0.127 S 
ATOM     84  O   UNL A   1      55.318  27.966  27.027  1.00  0.00    -0.237 OA
ATOM     85  O   UNL A   1      53.815  28.288  28.951  1.00  0.00    -0.237 OA
ATOM     86  O   UNL A   1      54.152  26.036  28.015  1.00  0.00    -0.744 OA
ENDBRANCH  80  83
ENDBRANCH  62  76
BRANCH  63  87
ATOM     87  C   UNL A   1      40.992  29.003  29.105  1.00  0.00     0.023 A 
ATOM     88  C   UNL A   1      39.977  29.053  28.131  1.00  0.00     0.012 A 
ATOM     89  C   UNL A   1      40.643  28.969  30.469  1.00  0.00     0.148 A 
ATOM     90  C   UNL A   1      38.635  29.066  28.511  1.00  0.00     0.002 A 
ATOM     91  C   UNL A   1      39.305  28.944  30.838  1.00  0.00     0.091 A 
ATOM     92  F   UNL A   1      41.631  28.914  31.371  1.00  0.00    -0.205 F 
ATOM     93  C   UNL A   1      38.299  28.999  29.861  1.00  0.00     0.022 A 
BRANCH  91  94
ATOM     94  S   UNL A   1      38.774  28.769  32.545  1.00  0.00     0.127 S 
ATOM     95  O   UNL A   1      39.736  27.795  33.055  1.00  0.00    -0.237 OA
ATOM     96  O   UNL A   1      38.945  30.130  33.050  1.00  0.00    -0.237 OA
ATOM     97  O   UNL A   1      37.394  28.310  32.487  1.00  0.00    -0.744 OA
ENDBRANCH  91  94
ENDBRANCH  63  87
BRANCH  75  98
ATOM     98  C   UNL A   1      46.470  33.375  28.883  1.00  0.00     0.023 A 
ATOM     99  C   UNL A   1      47.072  33.646  30.125  1.00  0.00     0.012 A 
ATOM    100  C   UNL A   1      46.268  34.417  27.957  1.00  0.00     0.148 A 
ATOM    101  C   UNL A   1      47.489  34.940  30.434  1.00  0.00     0.002 A 
ATOM    102  C   UNL A   1      46.716  35.696  28.259  1.00  0.00     0.091 A 
ATOM    103  F   UNL A   1      45.696  34.121  26.781  1.00  0.00    -0.205 F 
ATOM    104  C   UNL A   1      47.327  35.959  29.497  1.00  0.00     0.022 A 
BRANCH 102 105
ATOM    105  S   UNL A   1      46.612  37.057  27.092  1.00  0.00     0.127 S 
ATOM    106  O   UNL A   1      47.594  37.992  27.639  1.00  0.00    -0.237 OA
ATOM    107  O   UNL A   1      47.008  36.416  25.839  1.00  0.00    -0.237 OA
ATOM    108  O   UNL A   1      45.232  37.524  27.135  1.00  0.00    -0.744 OA
ENDBRANCH 102 105
ENDBRANCH  75  98
ENDBRANCH  49  50
ENDBRANCH  41  44
ENDBRANCH  39  40
ENDBRANCH  38  39
ENDBRANCH  37  38
ENDBRANCH   1  37
TORSDOF 21
ENDMDL
MODEL 3
REMARK VINA RESULT:     -10.8      5.064     10.795
REMARK SMILES NS(=O)(=O)c1ccc(C#Cc2cc(Cl)cc3c2O[C@H](C(F)(F)F)C(C(=O)NCCCCCCNC(=O)c2ccc(-c4c5nc(c(-c6cccc(S(=O)(=O)[O-])c6F)c6ccc([nH]6)c(-c6cccc(S(=O)(=O)[O-])c6F)c6nc(c(-c7cccc(S(=O)(=O)[O-])c7F)c7ccc4[nH]7)C=C6)C=C5)cc2)=C3)cc1
REMARK SMILES IDX 30 1 29 2 28 3 27 4 25 5 26 6 24 8 11 9 12 10 17 11 13 12
REMARK SMILES IDX 16 13 18 14 14 15 15 16 100 17 19 18 10 19 9 20 8 21 5 22
REMARK SMILES IDX 6 23 102 24 7 25 101 26 2 27 3 28 4 29 1 30 20 33 21 34
REMARK SMILES IDX 22 35 23 36 31 37 32 38 33 39 34 40 35 41 36 43 37 44 38 45
REMARK SMILES IDX 99 46 39 47 98 48 40 49 41 50 42 51 92 52 43 53 97 54 91 55
REMARK SMILES IDX 93 56 44 57 96 58 90 59 89 60 45 62 77 63 57 64 76 65 58 66
REMARK SMILES IDX 61 67 75 68 94 69 59 70 60 71 74 73 95 74 62 75 46 76 47 77
REMARK SMILES IDX 55 78 48 79 50 80 56 81 49 82 51 83 52 84 53 85 54 86 78 87
REMARK SMILES IDX 79 88 87 89 80 90 82 91 88 92 81 93 83 94 84 95 85 96 86 97
REMARK SMILES IDX 63 98 64 99 72 100 65 101 67 102 73 103 66 104 68 105 69 106
REMARK SMILES IDX 70 107 71 108
REMARK H PARENT 27 7 1 31 1 32 34 42 93 61 61 72
REMARK Flexibility Score: inf
ROOT
ATOM      1  C   UNL A   1      34.383  36.367  32.927  1.00  0.00     0.002 C 
ENDROOT
BRANCH   1   2
ATOM      2  C   UNL A   1      32.971  36.469  32.348  1.00  0.00     0.021 C 
BRANCH   2   3
ATOM      3  C   UNL A   1      32.772  35.598  31.115  1.00  0.00     0.116 C 
BRANCH   3   4
ATOM      4  N   UNL A   1      33.398  36.178  29.940  1.00  0.00    -0.352 N 
ATOM      5  C   UNL A   1      34.037  35.726  28.834  1.00  0.00     0.251 C 
ATOM      6  O   UNL A   1      34.404  36.593  28.036  1.00  0.00    -0.270 OA
ATOM      7  H   UNL A   1      33.343  37.161  29.948  1.00  0.00     0.163 HD
BRANCH   5   8
ATOM      8  C   UNL A   1      34.316  34.288  28.542  1.00  0.00     0.067 C 
ATOM      9  C   UNL A   1      35.057  30.291  27.466  1.00  0.00     0.069 A 
ATOM     10  C   UNL A   1      34.006  29.484  27.033  1.00  0.00     0.041 A 
ATOM     11  C   UNL A   1      34.808  31.630  27.795  1.00  0.00     0.143 A 
ATOM     12  C   UNL A   1      32.723  30.023  26.929  1.00  0.00     0.043 A 
ATOM     13  C   UNL A   1      33.524  32.174  27.685  1.00  0.00     0.020 A 
ATOM     14  O   UNL A   1      35.880  32.377  28.180  1.00  0.00    -0.474 OA
ATOM     15  Cl  UNL A   1      31.425  29.027  26.393  1.00  0.00    -0.084 Cl
ATOM     16  C   UNL A   1      32.476  31.360  27.251  1.00  0.00     0.032 A 
ATOM     17  C   UNL A   1      33.312  33.585  27.987  1.00  0.00     0.025 C 
ATOM     18  C   UNL A   1      35.617  33.618  28.869  1.00  0.00     0.314 C 
BRANCH   9  19
ATOM     19  C   UNL A   1      36.378  29.748  27.605  1.00  0.00    -0.058 C 
ATOM     20  C   UNL A   1      37.465  29.236  27.683  1.00  0.00    -0.062 C 
BRANCH  20  21
ATOM     21  C   UNL A   1      38.759  28.624  27.692  1.00  0.00     0.025 A 
ATOM     22  C   UNL A   1      41.290  27.449  27.818  1.00  0.00     0.082 A 
ATOM     23  C   UNL A   1      41.094  28.577  27.017  1.00  0.00     0.023 A 
ATOM     24  C   UNL A   1      40.230  26.903  28.548  1.00  0.00     0.023 A 
ATOM     25  C   UNL A   1      39.822  29.164  26.956  1.00  0.00     0.018 A 
ATOM     26  C   UNL A   1      38.965  27.491  28.482  1.00  0.00     0.018 A 
BRANCH  22  27
ATOM     27  S   UNL A   1      42.871  26.661  27.973  1.00  0.00     0.238 S 
ATOM     28  O   UNL A   1      42.785  25.391  27.292  1.00  0.00    -0.207 OA
ATOM     29  O   UNL A   1      43.275  26.779  29.355  1.00  0.00    -0.207 OA
BRANCH  27  30
ATOM     30  N   UNL A   1      43.931  27.611  27.089  1.00  0.00    -0.225 NA
ATOM     31  H   UNL A   1      44.015  27.238  26.143  1.00  0.00     0.137 HD
ATOM     32  H   UNL A   1      44.846  27.606  27.539  1.00  0.00     0.137 HD
ENDBRANCH  27  30
ENDBRANCH  22  27
ENDBRANCH  20  21
ENDBRANCH   9  19
BRANCH  18  33
ATOM     33  C   UNL A   1      35.811  33.409  30.383  1.00  0.00     0.429 C 
ATOM     34  F   UNL A   1      36.282  34.538  30.964  1.00  0.00    -0.167 F 
ATOM     35  F   UNL A   1      34.656  33.104  31.020  1.00  0.00    -0.167 F 
ATOM     36  F   UNL A   1      36.682  32.411  30.655  1.00  0.00    -0.167 F 
ENDBRANCH  18  33
ENDBRANCH   5   8
ENDBRANCH   3   4
ENDBRANCH   2   3
ENDBRANCH   1   2
BRANCH   1  37
ATOM     37  C   UNL A   1      34.490  35.532  34.210  1.00  0.00     0.002 C 
BRANCH  37  38
ATOM     38  C   UNL A   1      35.110  34.146  34.024  1.00  0.00     0.021 C 
BRANCH  38  39
ATOM     39  C   UNL A   1      36.567  34.063  34.453  1.00  0.00     0.116 C 
BRANCH  39  40
ATOM     40  N   UNL A   1      36.740  33.231  35.636  1.00  0.00    -0.352 N 
ATOM     41  C   UNL A   1      37.686  32.270  35.893  1.00  0.00     0.251 C 
ATOM     42  H   UNL A   1      36.083  33.379  36.355  1.00  0.00     0.163 HD
ATOM     43  O   UNL A   1      37.552  31.513  36.849  1.00  0.00    -0.269 OA
BRANCH  41  44
ATOM     44  C   UNL A   1      38.846  32.146  34.986  1.00  0.00     0.039 A 
ATOM     45  C   UNL A   1      38.670  31.629  33.703  1.00  0.00     0.014 A 
ATOM     46  C   UNL A   1      40.121  32.497  35.435  1.00  0.00     0.014 A 
ATOM     47  C   UNL A   1      39.779  31.266  32.957  1.00  0.00     0.010 A 
ATOM     48  C   UNL A   1      41.231  32.247  34.623  1.00  0.00     0.010 A 
ATOM     49  C   UNL A   1      41.076  31.575  33.401  1.00  0.00    -0.014 A 
BRANCH  49  50
ATOM     50  C   UNL A   1      42.229  31.191  32.546  1.00  0.00     0.031 A 
ATOM     51  C   UNL A   1      42.891  29.845  32.678  1.00  0.00     0.074 A 
ATOM     52  C   UNL A   1      42.631  32.047  31.584  1.00  0.00     0.049 A 
ATOM     53  N   UNL A   1      43.831  29.324  31.931  1.00  0.00    -0.248 NA
ATOM     54  C   UNL A   1      42.457  28.969  33.779  1.00  0.00     0.031 C 
ATOM     55  C   UNL A   1      42.087  33.393  31.376  1.00  0.00     0.029 A 
ATOM     56  N   UNL A   1      43.560  31.910  30.584  1.00  0.00    -0.354 N 
ATOM     57  C   UNL A   1      44.122  28.085  32.487  1.00  0.00     0.074 A 
ATOM     58  C   UNL A   1      43.270  27.929  33.644  1.00  0.00     0.031 C 
ATOM     59  C   UNL A   1      42.642  33.930  30.282  1.00  0.00     0.029 A 
ATOM     60  C   UNL A   1      43.631  33.001  29.748  1.00  0.00     0.049 A 
ATOM     61  H   UNL A   1      44.122  31.109  30.475  1.00  0.00     0.167 HD
ATOM     62  C   UNL A   1      45.005  27.153  32.059  1.00  0.00     0.034 A 
ATOM     63  C   UNL A   1      44.409  33.241  28.676  1.00  0.00     0.034 A 
ATOM     64  C   UNL A   1      45.822  27.293  30.886  1.00  0.00     0.049 A 
ATOM     65  C   UNL A   1      45.383  32.195  28.228  1.00  0.00     0.074 A 
ATOM     66  C   UNL A   1      46.698  26.370  30.344  1.00  0.00     0.029 A 
ATOM     67  N   UNL A   1      45.874  28.420  30.084  1.00  0.00    -0.354 N 
ATOM     68  N   UNL A   1      45.565  30.990  28.711  1.00  0.00    -0.248 NA
ATOM     69  C   UNL A   1      46.249  32.526  27.088  1.00  0.00     0.031 C 
ATOM     70  C   UNL A   1      47.306  26.950  29.232  1.00  0.00     0.029 A 
ATOM     71  C   UNL A   1      46.782  28.222  29.061  1.00  0.00     0.049 A 
ATOM     72  H   UNL A   1      45.344  29.238  30.221  1.00  0.00     0.167 HD
ATOM     73  C   UNL A   1      46.556  30.415  27.929  1.00  0.00     0.074 A 
ATOM     74  C   UNL A   1      46.928  31.394  26.930  1.00  0.00     0.031 C 
ATOM     75  C   UNL A   1      47.113  29.188  28.045  1.00  0.00     0.034 A 
BRANCH  62  76
ATOM     76  C   UNL A   1      45.121  25.865  32.827  1.00  0.00     0.023 A 
ATOM     77  C   UNL A   1      44.307  24.773  32.470  1.00  0.00     0.012 A 
ATOM     78  C   UNL A   1      46.130  25.695  33.795  1.00  0.00     0.148 A 
ATOM     79  C   UNL A   1      44.493  23.527  33.067  1.00  0.00     0.002 A 
ATOM     80  C   UNL A   1      46.327  24.444  34.367  1.00  0.00     0.091 A 
ATOM     81  F   UNL A   1      46.890  26.751  34.116  1.00  0.00    -0.205 F 
ATOM     82  C   UNL A   1      45.509  23.360  34.004  1.00  0.00     0.022 A 
BRANCH  80  83
ATOM     83  S   UNL A   1      47.634  24.110  35.553  1.00  0.00     0.127 S 
ATOM     84  O   UNL A   1      48.821  24.155  34.699  1.00  0.00    -0.237 OA
ATOM     85  O   UNL A   1      47.504  25.236  36.476  1.00  0.00    -0.237 OA
ATOM     86  O   UNL A   1      47.338  22.805  36.126  1.00  0.00    -0.744 OA
ENDBRANCH  80  83
ENDBRANCH  62  76
BRANCH  63  87
ATOM     87  C   UNL A   1      44.259  34.530  27.950  1.00  0.00     0.023 A 
ATOM     88  C   UNL A   1      43.270  34.657  26.956  1.00  0.00     0.012 A 
ATOM     89  C   UNL A   1      45.028  35.654  28.310  1.00  0.00     0.148 A 
ATOM     90  C   UNL A   1      43.049  35.885  26.334  1.00  0.00     0.002 A 
ATOM     91  C   UNL A   1      44.777  36.882  27.713  1.00  0.00     0.091 A 
ATOM     92  F   UNL A   1      45.956  35.504  29.265  1.00  0.00    -0.205 F 
ATOM     93  C   UNL A   1      43.793  36.998  26.720  1.00  0.00     0.022 A 
BRANCH  91  94
ATOM     94  S   UNL A   1      45.620  38.389  28.206  1.00  0.00     0.127 S 
ATOM     95  O   UNL A   1      45.239  38.495  29.612  1.00  0.00    -0.237 OA
ATOM     96  O   UNL A   1      47.019  38.038  27.969  1.00  0.00    -0.237 OA
ATOM     97  O   UNL A   1      45.100  39.437  27.339  1.00  0.00    -0.744 OA
ENDBRANCH  91  94
ENDBRANCH  63  87
BRANCH  75  98
ATOM     98  C   UNL A   1      48.181  28.785  27.069  1.00  0.00     0.023 A 
ATOM     99  C   UNL A   1      49.522  28.752  27.492  1.00  0.00     0.012 A 
ATOM    100  C   UNL A   1      47.825  28.251  25.815  1.00  0.00     0.148 A 
ATOM    101  C   UNL A   1      50.498  28.174  26.681  1.00  0.00     0.002 A 
ATOM    102  C   UNL A   1      48.797  27.649  25.028  1.00  0.00     0.091 A 
ATOM    103  F   UNL A   1      46.537  28.296  25.447  1.00  0.00    -0.205 F 
ATOM    104  C   UNL A   1      50.134  27.608  25.460  1.00  0.00     0.022 A 
BRANCH 102 105
ATOM    105  S   UNL A   1      48.415  26.836  23.473  1.00  0.00     0.127 S 
ATOM    106  O   UNL A   1      49.739  26.722  22.864  1.00  0.00    -0.237 OA
ATOM    107  O   UNL A   1      47.837  25.571  23.923  1.00  0.00    -0.237 OA
ATOM    108  O   UNL A   1      47.492  27.718  22.770  1.00  0.00    -0.744 OA
ENDBRANCH 102 105
ENDBRANCH  75  98
ENDBRANCH  49  50
ENDBRANCH  41  44
ENDBRANCH  39  40
ENDBRANCH  38  39
ENDBRANCH  37  38
ENDBRANCH   1  37
TORSDOF 21
ENDMDL
