MODEL 1
REMARK VINA RESULT:     -10.3      0.000      0.000
REMARK SMILES Cc1ccc(C)c(OCCNC(=O)CCC(=O)NCCCCCCNC(=O)c2ccc(-c3c4nc(c(-c5cccc(S(=O)(=O)[O-])c5F)c5ccc([nH]5)c(-c5cccc(S(=O)(=O)[O-])c5F)c5nc(c(-c6cccc(S(=O)(=O)[O-])c6F)c6ccc3[nH]6)C=C5)C=C4)cc2)c1
REMARK SMILES IDX 20 1 19 2 18 3 16 4 17 5 15 7 14 8 12 9 11 10 13 12 10 13
REMARK SMILES IDX 9 14 8 15 7 16 1 17 2 18 3 19 91 20 4 21 5 22 6 23 21 24
REMARK SMILES IDX 22 25 23 26 24 27 25 28 26 29 27 31 28 32 29 33 90 34 30 35
REMARK SMILES IDX 89 36 31 37 32 38 33 39 83 40 34 41 88 42 82 43 84 44 35 45
REMARK SMILES IDX 87 46 81 47 80 48 36 50 68 51 48 52 67 53 49 54 52 55 66 56
REMARK SMILES IDX 85 57 50 58 51 59 65 61 86 62 53 63 37 64 38 65 46 66 39 67
REMARK SMILES IDX 41 68 47 69 40 70 42 71 43 72 44 73 45 74 69 75 70 76 78 77
REMARK SMILES IDX 71 78 73 79 79 80 72 81 74 82 75 83 76 84 77 85 54 86 55 87
REMARK SMILES IDX 63 88 56 89 58 90 64 91 57 92 59 93 60 94 61 95 62 96
REMARK H PARENT 18 6 11 11 25 30 84 49 52 60
REMARK Flexibility Score: inf
ROOT
ATOM      1  C   UNL A   1      35.315  32.199  28.822  1.00  0.00     0.021 C 
ENDROOT
BRANCH   1   2
ATOM      2  C   UNL A   1      34.826  31.330  27.622  1.00  0.00     0.116 C 
BRANCH   2   3
ATOM      3  N   UNL A   1      33.500  30.711  27.596  1.00  0.00    -0.356 N 
ATOM      4  C   UNL A   1      33.146  29.418  27.350  1.00  0.00     0.220 C 
ATOM      5  O   UNL A   1      31.979  29.058  27.515  1.00  0.00    -0.275 OA
ATOM      6  H   UNL A   1      32.751  31.320  27.786  1.00  0.00     0.163 HD
BRANCH   4   7
ATOM      7  C   UNL A   1      34.171  28.522  26.750  1.00  0.00     0.110 C 
BRANCH   7   8
ATOM      8  C   UNL A   1      33.670  28.013  25.410  1.00  0.00     0.110 C 
BRANCH   8   9
ATOM      9  C   UNL A   1      33.597  26.513  25.186  1.00  0.00     0.220 C 
ATOM     10  N   UNL A   1      33.640  25.872  23.986  1.00  0.00    -0.353 N 
ATOM     11  H   UNL A   1      33.513  24.907  24.132  1.00  0.00     0.163 HD
ATOM     12  O   UNL A   1      33.422  25.758  26.153  1.00  0.00    -0.275 OA
BRANCH  10  13
ATOM     13  C   UNL A   1      33.811  26.123  22.528  1.00  0.00     0.157 C 
BRANCH  13  14
ATOM     14  C   UNL A   1      32.685  25.908  21.314  1.00  0.00     0.250 C 
BRANCH  14  15
ATOM     15  O   UNL A   1      31.364  26.491  21.367  1.00  0.00    -0.491 OA
BRANCH  15  16
ATOM     16  C   UNL A   1      30.699  26.976  22.510  1.00  0.00     0.122 A 
ATOM     17  C   UNL A   1      28.132  29.779  22.360  1.00  0.00     0.044 C 
ATOM     18  C   UNL A   1      28.863  28.585  22.928  1.00  0.00    -0.047 A 
ATOM     19  C   UNL A   1      28.165  27.644  23.669  1.00  0.00     0.004 A 
ATOM     20  C   UNL A   1      30.171  28.281  22.481  1.00  0.00     0.050 A 
ATOM     21  C   UNL A   1      28.764  26.414  23.926  1.00  0.00     0.007 A 
ATOM     22  C   UNL A   1      30.005  26.054  23.325  1.00  0.00    -0.009 A 
ATOM     23  C   UNL A   1      30.419  24.622  23.494  1.00  0.00     0.048 C 
ENDBRANCH  15  16
ENDBRANCH  14  15
ENDBRANCH  13  14
ENDBRANCH  10  13
ENDBRANCH   8   9
ENDBRANCH   7   8
ENDBRANCH   4   7
ENDBRANCH   2   3
ENDBRANCH   1   2
BRANCH   1  24
ATOM     24  C   UNL A   1      34.433  32.834  29.921  1.00  0.00     0.002 C 
BRANCH  24  25
ATOM     25  C   UNL A   1      34.632  34.316  30.308  1.00  0.00     0.002 C 
BRANCH  25  26
ATOM     26  C   UNL A   1      34.495  34.574  31.783  1.00  0.00     0.021 C 
BRANCH  26  27
ATOM     27  C   UNL A   1      34.428  33.325  32.602  1.00  0.00     0.116 C 
BRANCH  27  28
ATOM     28  N   UNL A   1      35.266  33.083  33.762  1.00  0.00    -0.352 N 
ATOM     29  C   UNL A   1      36.442  32.330  33.666  1.00  0.00     0.251 C 
ATOM     30  H   UNL A   1      35.002  33.456  34.634  1.00  0.00     0.163 HD
ATOM     31  O   UNL A   1      37.171  32.097  34.628  1.00  0.00    -0.269 OA
BRANCH  29  32
ATOM     32  C   UNL A   1      36.786  31.842  32.293  1.00  0.00     0.039 A 
ATOM     33  C   UNL A   1      36.464  30.500  32.040  1.00  0.00     0.014 A 
ATOM     34  C   UNL A   1      37.917  32.420  31.716  1.00  0.00     0.014 A 
ATOM     35  C   UNL A   1      37.437  29.656  31.498  1.00  0.00     0.010 A 
ATOM     36  C   UNL A   1      38.898  31.559  31.225  1.00  0.00     0.010 A 
ATOM     37  C   UNL A   1      38.711  30.159  31.222  1.00  0.00    -0.014 A 
BRANCH  37  38
ATOM     38  C   UNL A   1      39.810  29.269  30.813  1.00  0.00     0.031 A 
ATOM     39  C   UNL A   1      40.657  28.856  31.948  1.00  0.00     0.074 A 
ATOM     40  C   UNL A   1      40.108  28.659  29.643  1.00  0.00     0.049 A 
ATOM     41  N   UNL A   1      41.647  29.524  32.435  1.00  0.00    -0.248 NA
ATOM     42  C   UNL A   1      40.241  27.686  32.732  1.00  0.00     0.031 C 
ATOM     43  C   UNL A   1      39.301  28.457  28.443  1.00  0.00     0.029 A 
ATOM     44  N   UNL A   1      41.260  27.975  29.344  1.00  0.00    -0.354 N 
ATOM     45  C   UNL A   1      42.107  28.734  33.473  1.00  0.00     0.074 A 
ATOM     46  C   UNL A   1      41.042  27.816  33.790  1.00  0.00     0.031 C 
ATOM     47  C   UNL A   1      39.902  27.540  27.639  1.00  0.00     0.029 A 
ATOM     48  C   UNL A   1      41.209  27.210  28.186  1.00  0.00     0.049 A 
ATOM     49  H   UNL A   1      42.063  28.022  29.910  1.00  0.00     0.167 HD
ATOM     50  C   UNL A   1      43.422  28.674  33.805  1.00  0.00     0.034 A 
ATOM     51  C   UNL A   1      42.172  26.361  27.741  1.00  0.00     0.034 A 
ATOM     52  C   UNL A   1      44.227  29.629  33.087  1.00  0.00     0.049 A 
ATOM     53  C   UNL A   1      43.439  26.721  28.425  1.00  0.00     0.074 A 
ATOM     54  C   UNL A   1      44.194  30.993  32.866  1.00  0.00     0.029 A 
ATOM     55  N   UNL A   1      45.091  29.121  32.144  1.00  0.00    -0.354 N 
ATOM     56  N   UNL A   1      44.154  27.777  28.154  1.00  0.00    -0.248 NA
ATOM     57  C   UNL A   1      43.805  26.015  29.643  1.00  0.00     0.031 C 
ATOM     58  C   UNL A   1      44.689  31.174  31.539  1.00  0.00     0.029 A 
ATOM     59  C   UNL A   1      44.994  29.911  31.029  1.00  0.00     0.049 A 
ATOM     60  H   UNL A   1      45.672  28.333  32.251  1.00  0.00     0.167 HD
ATOM     61  C   UNL A   1      44.764  28.106  29.355  1.00  0.00     0.074 A 
ATOM     62  C   UNL A   1      44.636  26.912  30.180  1.00  0.00     0.031 C 
ATOM     63  C   UNL A   1      45.047  29.406  29.672  1.00  0.00     0.034 A 
BRANCH  50  64
ATOM     64  C   UNL A   1      44.037  27.514  34.535  1.00  0.00     0.023 A 
ATOM     65  C   UNL A   1      44.857  27.803  35.642  1.00  0.00     0.012 A 
ATOM     66  C   UNL A   1      44.003  26.175  34.091  1.00  0.00     0.148 A 
ATOM     67  C   UNL A   1      45.598  26.803  36.279  1.00  0.00     0.002 A 
ATOM     68  C   UNL A   1      44.637  25.168  34.804  1.00  0.00     0.091 A 
ATOM     69  F   UNL A   1      43.475  25.866  32.900  1.00  0.00    -0.205 F 
ATOM     70  C   UNL A   1      45.463  25.478  35.882  1.00  0.00     0.022 A 
BRANCH  68  71
ATOM     71  S   UNL A   1      44.332  23.452  34.379  1.00  0.00     0.127 S 
ATOM     72  O   UNL A   1      42.883  23.362  34.510  1.00  0.00    -0.237 OA
ATOM     73  O   UNL A   1      44.840  23.372  33.009  1.00  0.00    -0.237 OA
ATOM     74  O   UNL A   1      45.127  22.701  35.347  1.00  0.00    -0.744 OA
ENDBRANCH  68  71
ENDBRANCH  50  64
BRANCH  51  75
ATOM     75  C   UNL A   1      42.154  25.192  26.824  1.00  0.00     0.023 A 
ATOM     76  C   UNL A   1      43.194  25.056  25.875  1.00  0.00     0.012 A 
ATOM     77  C   UNL A   1      41.320  24.077  27.060  1.00  0.00     0.148 A 
ATOM     78  C   UNL A   1      43.432  23.842  25.224  1.00  0.00     0.002 A 
ATOM     79  C   UNL A   1      41.555  22.868  26.402  1.00  0.00     0.091 A 
ATOM     80  F   UNL A   1      40.355  24.185  27.984  1.00  0.00    -0.205 F 
ATOM     81  C   UNL A   1      42.622  22.746  25.498  1.00  0.00     0.022 A 
BRANCH  79  82
ATOM     82  S   UNL A   1      40.612  21.371  26.743  1.00  0.00     0.127 S 
ATOM     83  O   UNL A   1      41.360  20.359  25.996  1.00  0.00    -0.237 OA
ATOM     84  O   UNL A   1      40.730  21.253  28.197  1.00  0.00    -0.237 OA
ATOM     85  O   UNL A   1      39.257  21.619  26.266  1.00  0.00    -0.744 OA
ENDBRANCH  79  82
ENDBRANCH  51  75
BRANCH  63  86
ATOM     86  C   UNL A   1      45.067  30.432  28.564  1.00  0.00     0.023 A 
ATOM     87  C   UNL A   1      43.883  30.945  27.997  1.00  0.00     0.012 A 
ATOM     88  C   UNL A   1      46.298  30.999  28.180  1.00  0.00     0.148 A 
ATOM     89  C   UNL A   1      43.922  31.962  27.041  1.00  0.00     0.002 A 
ATOM     90  C   UNL A   1      46.330  32.047  27.265  1.00  0.00     0.091 A 
ATOM     91  F   UNL A   1      47.424  30.511  28.722  1.00  0.00    -0.205 F 
ATOM     92  C   UNL A   1      45.145  32.522  26.683  1.00  0.00     0.022 A 
BRANCH  90  93
ATOM     93  S   UNL A   1      47.860  32.902  26.871  1.00  0.00     0.127 S 
ATOM     94  O   UNL A   1      47.438  33.822  25.819  1.00  0.00    -0.237 OA
ATOM     95  O   UNL A   1      48.205  33.545  28.141  1.00  0.00    -0.237 OA
ATOM     96  O   UNL A   1      48.797  31.860  26.465  1.00  0.00    -0.744 OA
ENDBRANCH  90  93
ENDBRANCH  63  86
ENDBRANCH  37  38
ENDBRANCH  29  32
ENDBRANCH  27  28
ENDBRANCH  26  27
ENDBRANCH  25  26
ENDBRANCH  24  25
ENDBRANCH   1  24
TORSDOF 22
ENDMDL
MODEL 2
REMARK VINA RESULT:     -10.0      2.269      3.234
REMARK SMILES Cc1ccc(C)c(OCCNC(=O)CCC(=O)NCCCCCCNC(=O)c2ccc(-c3c4nc(c(-c5cccc(S(=O)(=O)[O-])c5F)c5ccc([nH]5)c(-c5cccc(S(=O)(=O)[O-])c5F)c5nc(c(-c6cccc(S(=O)(=O)[O-])c6F)c6ccc3[nH]6)C=C5)C=C4)cc2)c1
REMARK SMILES IDX 20 1 19 2 18 3 16 4 17 5 15 7 14 8 12 9 11 10 13 12 10 13
REMARK SMILES IDX 9 14 8 15 7 16 1 17 2 18 3 19 91 20 4 21 5 22 6 23 21 24
REMARK SMILES IDX 22 25 23 26 24 27 25 28 26 29 27 31 28 32 29 33 90 34 30 35
REMARK SMILES IDX 89 36 31 37 32 38 33 39 83 40 34 41 88 42 82 43 84 44 35 45
REMARK SMILES IDX 87 46 81 47 80 48 36 50 68 51 48 52 67 53 49 54 52 55 66 56
REMARK SMILES IDX 85 57 50 58 51 59 65 61 86 62 53 63 37 64 38 65 46 66 39 67
REMARK SMILES IDX 41 68 47 69 40 70 42 71 43 72 44 73 45 74 69 75 70 76 78 77
REMARK SMILES IDX 71 78 73 79 79 80 72 81 74 82 75 83 76 84 77 85 54 86 55 87
REMARK SMILES IDX 63 88 56 89 58 90 64 91 57 92 59 93 60 94 61 95 62 96
REMARK H PARENT 18 6 11 11 25 30 84 49 52 60
REMARK Flexibility Score: inf
ROOT
ATOM      1  C   UNL A   1      33.873  31.168  27.531  1.00  0.00     0.021 C 
ENDROOT
BRANCH   1   2
ATOM      2  C   UNL A   1      32.989  30.017  26.959  1.00  0.00     0.116 C 
BRANCH   2   3
ATOM      3  N   UNL A   1      33.529  28.688  26.671  1.00  0.00    -0.356 N 
ATOM      4  C   UNL A   1      32.879  27.506  26.472  1.00  0.00     0.220 C 
ATOM      5  O   UNL A   1      33.508  26.514  26.098  1.00  0.00    -0.275 OA
ATOM      6  H   UNL A   1      34.510  28.639  26.613  1.00  0.00     0.163 HD
BRANCH   4   7
ATOM      7  C   UNL A   1      31.444  27.433  26.855  1.00  0.00     0.110 C 
BRANCH   7   8
ATOM      8  C   UNL A   1      30.672  26.699  25.773  1.00  0.00     0.110 C 
BRANCH   8   9
ATOM      9  C   UNL A   1      30.719  25.182  25.751  1.00  0.00     0.220 C 
ATOM     10  N   UNL A   1      30.938  24.396  24.662  1.00  0.00    -0.353 N 
ATOM     11  H   UNL A   1      30.856  23.452  24.925  1.00  0.00     0.163 HD
ATOM     12  O   UNL A   1      30.482  24.548  26.789  1.00  0.00    -0.275 OA
BRANCH  10  13
ATOM     13  C   UNL A   1      31.259  24.468  23.209  1.00  0.00     0.157 C 
BRANCH  13  14
ATOM     14  C   UNL A   1      32.744  24.252  22.478  1.00  0.00     0.250 C 
BRANCH  14  15
ATOM     15  O   UNL A   1      33.520  23.044  22.636  1.00  0.00    -0.491 OA
BRANCH  15  16
ATOM     16  C   UNL A   1      33.758  22.344  23.835  1.00  0.00     0.122 A 
ATOM     17  C   UNL A   1      32.539  18.787  24.413  1.00  0.00     0.044 C 
ATOM     18  C   UNL A   1      33.374  20.028  24.626  1.00  0.00    -0.047 A 
ATOM     19  C   UNL A   1      34.702  19.903  25.003  1.00  0.00     0.004 A 
ATOM     20  C   UNL A   1      32.898  21.283  24.180  1.00  0.00     0.050 A 
ATOM     21  C   UNL A   1      35.535  21.013  24.902  1.00  0.00     0.007 A 
ATOM     22  C   UNL A   1      35.091  22.220  24.288  1.00  0.00    -0.009 A 
ATOM     23  C   UNL A   1      36.151  23.250  24.031  1.00  0.00     0.048 C 
ENDBRANCH  15  16
ENDBRANCH  14  15
ENDBRANCH  13  14
ENDBRANCH  10  13
ENDBRANCH   8   9
ENDBRANCH   7   8
ENDBRANCH   4   7
ENDBRANCH   2   3
ENDBRANCH   1   2
BRANCH   1  24
ATOM     24  C   UNL A   1      33.421  32.616  27.832  1.00  0.00     0.002 C 
BRANCH  24  25
ATOM     25  C   UNL A   1      34.431  33.634  28.404  1.00  0.00     0.002 C 
BRANCH  25  26
ATOM     26  C   UNL A   1      34.020  34.205  29.733  1.00  0.00     0.021 C 
BRANCH  26  27
ATOM     27  C   UNL A   1      35.142  34.289  30.717  1.00  0.00     0.116 C 
BRANCH  27  28
ATOM     28  N   UNL A   1      35.232  33.454  31.901  1.00  0.00    -0.352 N 
ATOM     29  C   UNL A   1      35.989  32.276  31.907  1.00  0.00     0.251 C 
ATOM     30  H   UNL A   1      34.751  33.721  32.717  1.00  0.00     0.163 HD
ATOM     31  O   UNL A   1      36.080  31.540  32.887  1.00  0.00    -0.269 OA
BRANCH  29  32
ATOM     32  C   UNL A   1      36.722  31.975  30.636  1.00  0.00     0.039 A 
ATOM     33  C   UNL A   1      36.436  30.726  30.066  1.00  0.00     0.014 A 
ATOM     34  C   UNL A   1      38.001  32.523  30.536  1.00  0.00     0.014 A 
ATOM     35  C   UNL A   1      37.492  29.885  29.701  1.00  0.00     0.010 A 
ATOM     36  C   UNL A   1      39.047  31.658  30.218  1.00  0.00     0.010 A 
ATOM     37  C   UNL A   1      38.809  30.300  29.912  1.00  0.00    -0.014 A 
BRANCH  37  38
ATOM     38  C   UNL A   1      39.940  29.382  29.702  1.00  0.00     0.031 A 
ATOM     39  C   UNL A   1      40.591  28.985  30.964  1.00  0.00     0.074 A 
ATOM     40  C   UNL A   1      40.405  28.736  28.606  1.00  0.00     0.049 A 
ATOM     41  N   UNL A   1      41.506  29.649  31.585  1.00  0.00    -0.248 NA
ATOM     42  C   UNL A   1      40.034  27.842  31.700  1.00  0.00     0.031 C 
ATOM     43  C   UNL A   1      39.792  28.517  27.300  1.00  0.00     0.029 A 
ATOM     44  N   UNL A   1      41.576  28.026  28.508  1.00  0.00    -0.354 N 
ATOM     45  C   UNL A   1      41.782  28.879  32.700  1.00  0.00     0.074 A 
ATOM     46  C   UNL A   1      40.662  27.987  32.867  1.00  0.00     0.031 C 
ATOM     47  C   UNL A   1      40.493  27.570  26.621  1.00  0.00     0.029 A 
ATOM     48  C   UNL A   1      41.691  27.233  27.374  1.00  0.00     0.049 A 
ATOM     49  H   UNL A   1      42.282  28.076  29.192  1.00  0.00     0.167 HD
ATOM     50  C   UNL A   1      43.027  28.806  33.236  1.00  0.00     0.034 A 
ATOM     51  C   UNL A   1      42.695  26.357  27.105  1.00  0.00     0.034 A 
ATOM     52  C   UNL A   1      43.954  29.729  32.631  1.00  0.00     0.049 A 
ATOM     53  C   UNL A   1      43.847  26.714  27.971  1.00  0.00     0.074 A 
ATOM     54  C   UNL A   1      43.983  31.087  32.376  1.00  0.00     0.029 A 
ATOM     55  N   UNL A   1      44.944  29.183  31.847  1.00  0.00    -0.354 N 
ATOM     56  N   UNL A   1      44.615  27.751  27.791  1.00  0.00    -0.248 NA
ATOM     57  C   UNL A   1      44.004  26.034  29.247  1.00  0.00     0.031 C 
ATOM     58  C   UNL A   1      44.683  31.226  31.139  1.00  0.00     0.029 A 
ATOM     59  C   UNL A   1      45.039  29.945  30.712  1.00  0.00     0.049 A 
ATOM     60  H   UNL A   1      45.485  28.389  32.061  1.00  0.00     0.167 HD
ATOM     61  C   UNL A   1      45.037  28.102  29.065  1.00  0.00     0.074 A 
ATOM     62  C   UNL A   1      44.757  26.931  29.887  1.00  0.00     0.031 C 
ATOM     63  C   UNL A   1      45.293  29.405  29.393  1.00  0.00     0.034 A 
BRANCH  50  64
ATOM     64  C   UNL A   1      43.497  27.655  34.079  1.00  0.00     0.023 A 
ATOM     65  C   UNL A   1      44.121  26.578  33.421  1.00  0.00     0.012 A 
ATOM     66  C   UNL A   1      43.203  27.489  35.449  1.00  0.00     0.148 A 
ATOM     67  C   UNL A   1      44.441  25.399  34.100  1.00  0.00     0.002 A 
ATOM     68  C   UNL A   1      43.639  26.371  36.145  1.00  0.00     0.091 A 
ATOM     69  F   UNL A   1      42.379  28.339  36.076  1.00  0.00    -0.205 F 
ATOM     70  C   UNL A   1      44.232  25.307  35.471  1.00  0.00     0.022 A 
BRANCH  68  71
ATOM     71  S   UNL A   1      43.503  26.330  37.933  1.00  0.00     0.127 S 
ATOM     72  O   UNL A   1      42.058  26.318  38.125  1.00  0.00    -0.237 OA
ATOM     73  O   UNL A   1      44.187  25.082  38.272  1.00  0.00    -0.237 OA
ATOM     74  O   UNL A   1      44.213  27.529  38.370  1.00  0.00    -0.744 OA
ENDBRANCH  68  71
ENDBRANCH  50  64
BRANCH  51  75
ATOM     75  C   UNL A   1      42.797  25.166  26.224  1.00  0.00     0.023 A 
ATOM     76  C   UNL A   1      43.814  25.131  25.242  1.00  0.00     0.012 A 
ATOM     77  C   UNL A   1      42.122  23.962  26.524  1.00  0.00     0.148 A 
ATOM     78  C   UNL A   1      44.184  23.937  24.617  1.00  0.00     0.002 A 
ATOM     79  C   UNL A   1      42.488  22.771  25.893  1.00  0.00     0.091 A 
ATOM     80  F   UNL A   1      41.182  23.977  27.479  1.00  0.00    -0.205 F 
ATOM     81  C   UNL A   1      43.532  22.756  24.953  1.00  0.00     0.022 A 
BRANCH  79  82
ATOM     82  S   UNL A   1      41.758  21.178  26.312  1.00  0.00     0.127 S 
ATOM     83  O   UNL A   1      42.470  20.267  25.416  1.00  0.00    -0.237 OA
ATOM     84  O   UNL A   1      42.115  21.034  27.723  1.00  0.00    -0.237 OA
ATOM     85  O   UNL A   1      40.327  21.301  26.062  1.00  0.00    -0.744 OA
ENDBRANCH  79  82
ENDBRANCH  51  75
BRANCH  63  86
ATOM     86  C   UNL A   1      45.506  30.402  28.278  1.00  0.00     0.023 A 
ATOM     87  C   UNL A   1      44.430  30.979  27.574  1.00  0.00     0.012 A 
ATOM     88  C   UNL A   1      46.808  30.876  28.025  1.00  0.00     0.148 A 
ATOM     89  C   UNL A   1      44.646  31.968  26.612  1.00  0.00     0.002 A 
ATOM     90  C   UNL A   1      47.014  31.898  27.104  1.00  0.00     0.091 A 
ATOM     91  F   UNL A   1      47.831  30.326  28.698  1.00  0.00    -0.205 F 
ATOM     92  C   UNL A   1      45.936  32.437  26.386  1.00  0.00     0.022 A 
BRANCH  90  93
ATOM     93  S   UNL A   1      48.633  32.639  26.871  1.00  0.00     0.127 S 
ATOM     94  O   UNL A   1      49.450  31.488  26.496  1.00  0.00    -0.237 OA
ATOM     95  O   UNL A   1      48.396  33.597  25.788  1.00  0.00    -0.237 OA
ATOM     96  O   UNL A   1      48.965  33.264  28.147  1.00  0.00    -0.744 OA
ENDBRANCH  90  93
ENDBRANCH  63  86
ENDBRANCH  37  38
ENDBRANCH  29  32
ENDBRANCH  27  28
ENDBRANCH  26  27
ENDBRANCH  25  26
ENDBRANCH  24  25
ENDBRANCH   1  24
TORSDOF 22
ENDMDL
MODEL 3
REMARK VINA RESULT:      -9.8      1.946      2.942
REMARK SMILES Cc1ccc(C)c(OCCNC(=O)CCC(=O)NCCCCCCNC(=O)c2ccc(-c3c4nc(c(-c5cccc(S(=O)(=O)[O-])c5F)c5ccc([nH]5)c(-c5cccc(S(=O)(=O)[O-])c5F)c5nc(c(-c6cccc(S(=O)(=O)[O-])c6F)c6ccc3[nH]6)C=C5)C=C4)cc2)c1
REMARK SMILES IDX 20 1 19 2 18 3 16 4 17 5 15 7 14 8 12 9 11 10 13 12 10 13
REMARK SMILES IDX 9 14 8 15 7 16 1 17 2 18 3 19 91 20 4 21 5 22 6 23 21 24
REMARK SMILES IDX 22 25 23 26 24 27 25 28 26 29 27 31 28 32 29 33 90 34 30 35
REMARK SMILES IDX 89 36 31 37 32 38 33 39 83 40 34 41 88 42 82 43 84 44 35 45
REMARK SMILES IDX 87 46 81 47 80 48 36 50 68 51 48 52 67 53 49 54 52 55 66 56
REMARK SMILES IDX 85 57 50 58 51 59 65 61 86 62 53 63 37 64 38 65 46 66 39 67
REMARK SMILES IDX 41 68 47 69 40 70 42 71 43 72 44 73 45 74 69 75 70 76 78 77
REMARK SMILES IDX 71 78 73 79 79 80 72 81 74 82 75 83 76 84 77 85 54 86 55 87
REMARK SMILES IDX 63 88 56 89 58 90 64 91 57 92 59 93 60 94 61 95 62 96
REMARK H PARENT 18 6 11 11 25 30 84 49 52 60
REMARK Flexibility Score: inf
ROOT
ATOM      1  C   UNL A   1      35.054  33.005  27.994  1.00  0.00     0.021 C 
ENDROOT
BRANCH   1   2
ATOM      2  C   UNL A   1      33.929  31.924  28.009  1.00  0.00     0.116 C 
BRANCH   2   3
ATOM      3  N   UNL A   1      34.221  30.493  27.918  1.00  0.00    -0.356 N 
ATOM      4  C   UNL A   1      33.516  29.496  27.313  1.00  0.00     0.220 C 
ATOM      5  O   UNL A   1      34.001  28.367  27.222  1.00  0.00    -0.275 OA
ATOM      6  H   UNL A   1      35.052  30.207  28.361  1.00  0.00     0.163 HD
BRANCH   4   7
ATOM      7  C   UNL A   1      32.114  29.787  26.908  1.00  0.00     0.110 C 
BRANCH   7   8
ATOM      8  C   UNL A   1      32.059  30.002  25.407  1.00  0.00     0.110 C 
BRANCH   8   9
ATOM      9  C   UNL A   1      31.292  29.003  24.559  1.00  0.00     0.220 C 
ATOM     10  N   UNL A   1      31.646  27.712  24.313  1.00  0.00    -0.353 N 
ATOM     11  H   UNL A   1      31.000  27.315  23.686  1.00  0.00     0.163 HD
ATOM     12  O   UNL A   1      30.269  29.366  23.962  1.00  0.00    -0.275 OA
BRANCH  10  13
ATOM     13  C   UNL A   1      32.672  26.690  24.662  1.00  0.00     0.157 C 
BRANCH  13  14
ATOM     14  C   UNL A   1      32.427  25.080  25.033  1.00  0.00     0.250 C 
BRANCH  14  15
ATOM     15  O   UNL A   1      32.224  24.072  24.018  1.00  0.00    -0.491 OA
BRANCH  15  16
ATOM     16  C   UNL A   1      33.040  22.953  23.763  1.00  0.00     0.122 A 
ATOM     17  C   UNL A   1      36.826  23.194  23.483  1.00  0.00     0.044 C 
ATOM     18  C   UNL A   1      35.481  22.537  23.686  1.00  0.00    -0.047 A 
ATOM     19  C   UNL A   1      35.361  21.483  24.578  1.00  0.00     0.004 A 
ATOM     20  C   UNL A   1      34.311  23.160  23.192  1.00  0.00     0.050 A 
ATOM     21  C   UNL A   1      34.089  21.088  24.983  1.00  0.00     0.007 A 
ATOM     22  C   UNL A   1      32.930  21.833  24.618  1.00  0.00    -0.009 A 
ATOM     23  C   UNL A   1      31.659  21.441  25.310  1.00  0.00     0.048 C 
ENDBRANCH  15  16
ENDBRANCH  14  15
ENDBRANCH  13  14
ENDBRANCH  10  13
ENDBRANCH   8   9
ENDBRANCH   7   8
ENDBRANCH   4   7
ENDBRANCH   2   3
ENDBRANCH   1   2
BRANCH   1  24
ATOM     24  C   UNL A   1      35.336  34.059  29.089  1.00  0.00     0.002 C 
BRANCH  24  25
ATOM     25  C   UNL A   1      34.173  34.883  29.682  1.00  0.00     0.002 C 
BRANCH  25  26
ATOM     26  C   UNL A   1      34.071  34.784  31.180  1.00  0.00     0.021 C 
BRANCH  26  27
ATOM     27  C   UNL A   1      34.298  33.401  31.700  1.00  0.00     0.116 C 
BRANCH  27  28
ATOM     28  N   UNL A   1      35.020  33.117  32.927  1.00  0.00    -0.352 N 
ATOM     29  C   UNL A   1      36.206  32.373  32.919  1.00  0.00     0.251 C 
ATOM     30  H   UNL A   1      34.669  33.455  33.782  1.00  0.00     0.163 HD
ATOM     31  O   UNL A   1      36.839  32.106  33.939  1.00  0.00    -0.269 OA
BRANCH  29  32
ATOM     32  C   UNL A   1      36.686  31.941  31.568  1.00  0.00     0.039 A 
ATOM     33  C   UNL A   1      36.378  30.617  31.222  1.00  0.00     0.014 A 
ATOM     34  C   UNL A   1      37.879  32.525  31.140  1.00  0.00     0.014 A 
ATOM     35  C   UNL A   1      37.393  29.781  30.748  1.00  0.00     0.010 A 
ATOM     36  C   UNL A   1      38.896  31.670  30.716  1.00  0.00     0.010 A 
ATOM     37  C   UNL A   1      38.694  30.275  30.630  1.00  0.00    -0.014 A 
BRANCH  37  38
ATOM     38  C   UNL A   1      39.819  29.386  30.298  1.00  0.00     0.031 A 
ATOM     39  C   UNL A   1      40.590  28.980  31.488  1.00  0.00     0.074 A 
ATOM     40  C   UNL A   1      40.195  28.771  29.153  1.00  0.00     0.049 A 
ATOM     41  N   UNL A   1      41.545  29.652  32.037  1.00  0.00    -0.248 NA
ATOM     42  C   UNL A   1      40.126  27.812  32.248  1.00  0.00     0.031 C 
ATOM     43  C   UNL A   1      39.469  28.562  27.904  1.00  0.00     0.029 A 
ATOM     44  N   UNL A   1      41.366  28.088  28.934  1.00  0.00    -0.354 N 
ATOM     45  C   UNL A   1      41.937  28.868  33.106  1.00  0.00     0.074 A 
ATOM     46  C   UNL A   1      40.855  27.949  33.356  1.00  0.00     0.031 C 
ATOM     47  C   UNL A   1      40.124  27.643  27.145  1.00  0.00     0.029 A 
ATOM     48  C   UNL A   1      41.393  27.318  27.778  1.00  0.00     0.049 A 
ATOM     49  H   UNL A   1      42.130  28.140  29.551  1.00  0.00     0.167 HD
ATOM     50  C   UNL A   1      43.228  28.812  33.525  1.00  0.00     0.034 A 
ATOM     51  C   UNL A   1      42.385  26.470  27.401  1.00  0.00     0.034 A 
ATOM     52  C   UNL A   1      44.077  29.766  32.857  1.00  0.00     0.049 A 
ATOM     53  C   UNL A   1      43.604  26.836  28.166  1.00  0.00     0.074 A 
ATOM     54  C   UNL A   1      44.055  31.129  32.628  1.00  0.00     0.029 A 
ATOM     55  N   UNL A   1      45.001  29.256  31.975  1.00  0.00    -0.354 N 
ATOM     56  N   UNL A   1      44.332  27.892  27.938  1.00  0.00    -0.248 NA
ATOM     57  C   UNL A   1      43.890  26.136  29.409  1.00  0.00     0.031 C 
ATOM     58  C   UNL A   1      44.636  31.305  31.336  1.00  0.00     0.029 A 
ATOM     59  C   UNL A   1      44.977  30.041  30.852  1.00  0.00     0.049 A 
ATOM     60  H   UNL A   1      45.576  28.470  32.123  1.00  0.00     0.167 HD
ATOM     61  C   UNL A   1      44.861  28.228  29.175  1.00  0.00     0.074 A 
ATOM     62  C   UNL A   1      44.681  27.037  29.995  1.00  0.00     0.031 C 
ATOM     63  C   UNL A   1      45.120  29.530  29.504  1.00  0.00     0.034 A 
BRANCH  50  64
ATOM     64  C   UNL A   1      43.795  27.657  34.299  1.00  0.00     0.023 A 
ATOM     65  C   UNL A   1      44.140  26.498  33.577  1.00  0.00     0.012 A 
ATOM     66  C   UNL A   1      43.842  27.576  35.707  1.00  0.00     0.148 A 
ATOM     67  C   UNL A   1      44.520  25.322  34.230  1.00  0.00     0.002 A 
ATOM     68  C   UNL A   1      44.343  26.451  36.344  1.00  0.00     0.091 A 
ATOM     69  F   UNL A   1      43.277  28.528  36.461  1.00  0.00    -0.205 F 
ATOM     70  C   UNL A   1      44.655  25.306  35.614  1.00  0.00     0.022 A 
BRANCH  68  71
ATOM     71  S   UNL A   1      44.658  26.496  38.109  1.00  0.00     0.127 S 
ATOM     72  O   UNL A   1      45.413  27.735  38.248  1.00  0.00    -0.237 OA
ATOM     73  O   UNL A   1      43.306  26.525  38.669  1.00  0.00    -0.237 OA
ATOM     74  O   UNL A   1      45.379  25.255  38.372  1.00  0.00    -0.744 OA
ENDBRANCH  68  71
ENDBRANCH  50  64
BRANCH  51  75
ATOM     75  C   UNL A   1      42.430  25.297  26.490  1.00  0.00     0.023 A 
ATOM     76  C   UNL A   1      43.302  25.333  25.378  1.00  0.00     0.012 A 
ATOM     77  C   UNL A   1      41.869  24.053  26.855  1.00  0.00     0.148 A 
ATOM     78  C   UNL A   1      43.648  24.169  24.685  1.00  0.00     0.002 A 
ATOM     79  C   UNL A   1      42.210  22.893  26.156  1.00  0.00     0.091 A 
ATOM     80  F   UNL A   1      41.071  24.002  27.930  1.00  0.00    -0.205 F 
ATOM     81  C   UNL A   1      43.114  22.949  25.083  1.00  0.00     0.022 A 
BRANCH  79  82
ATOM     82  S   UNL A   1      41.633  21.256  26.639  1.00  0.00     0.127 S 
ATOM     83  O   UNL A   1      41.718  21.316  28.098  1.00  0.00    -0.237 OA
ATOM     84  O   UNL A   1      40.266  21.242  26.116  1.00  0.00    -0.237 OA
ATOM     85  O   UNL A   1      42.530  20.298  26.004  1.00  0.00    -0.744 OA
ENDBRANCH  79  82
ENDBRANCH  51  75
BRANCH  63  86
ATOM     86  C   UNL A   1      45.210  30.552  28.395  1.00  0.00     0.023 A 
ATOM     87  C   UNL A   1      44.064  31.079  27.767  1.00  0.00     0.012 A 
ATOM     88  C   UNL A   1      46.467  31.099  28.072  1.00  0.00     0.148 A 
ATOM     89  C   UNL A   1      44.167  32.091  26.811  1.00  0.00     0.002 A 
ATOM     90  C   UNL A   1      46.561  32.143  27.157  1.00  0.00     0.091 A 
ATOM     91  F   UNL A   1      47.558  30.597  28.672  1.00  0.00    -0.205 F 
ATOM     92  C   UNL A   1      45.414  32.632  26.514  1.00  0.00     0.022 A 
BRANCH  90  93
ATOM     93  S   UNL A   1      48.121  32.975  26.838  1.00  0.00     0.127 S 
ATOM     94  O   UNL A   1      48.433  33.557  28.140  1.00  0.00    -0.237 OA
ATOM     95  O   UNL A   1      48.997  31.872  26.437  1.00  0.00    -0.237 OA
ATOM     96  O   UNL A   1      47.845  33.927  25.767  1.00  0.00    -0.744 OA
ENDBRANCH  90  93
ENDBRANCH  63  86
ENDBRANCH  37  38
ENDBRANCH  29  32
ENDBRANCH  27  28
ENDBRANCH  26  27
ENDBRANCH  25  26
ENDBRANCH  24  25
ENDBRANCH   1  24
TORSDOF 22
ENDMDL
