MODEL 1
REMARK VINA RESULT:     -11.4      0.000      0.000
REMARK SMILES COc1cc(Cl)c2c(c1)C=C(C(=O)NCCCCCCNC(=O)c1ccc(-c3c4nc(c(-c5cccc(S(=O)(=O)[O-])c5F)c5ccc([nH]5)c(-c5cccc(S(=O)(=O)[O-])c5F)c5nc(c(-c6cccc(S(=O)(=O)[O-])c6F)c6ccc3[nH]6)C=C5)C=C4)cc1)[C@@H](C(F)(F)F)O2
REMARK SMILES IDX 18 1 17 2 16 3 15 4 14 5 12 6 13 7 11 9 3 10 4 11 9 12 5 13
REMARK SMILES IDX 8 14 6 15 7 16 10 17 92 18 87 19 2 20 1 21 88 22 89 23 90 24
REMARK SMILES IDX 91 25 19 26 20 27 21 28 22 29 23 31 24 32 25 33 86 34 26 35
REMARK SMILES IDX 85 36 27 37 28 38 29 39 79 40 30 41 84 42 78 43 80 44 31 45
REMARK SMILES IDX 83 46 77 47 76 48 32 50 64 51 44 52 63 53 45 54 48 55 62 56
REMARK SMILES IDX 81 57 46 58 47 59 61 61 82 62 49 63 33 64 34 65 42 66 35 67
REMARK SMILES IDX 37 68 43 69 36 70 38 71 39 72 40 73 41 74 65 75 66 76 74 77
REMARK SMILES IDX 67 78 69 79 75 80 68 81 70 82 71 83 72 84 73 85 50 86 51 87
REMARK SMILES IDX 59 88 52 89 54 90 60 91 53 92 55 93 56 94 57 95 58 96
REMARK H PARENT 14 8 21 30 80 49 48 60
REMARK Flexibility Score: inf
ROOT
ATOM      1  C   UNL A   1      38.649  21.866  25.751  1.00  0.00     0.002 C 
ENDROOT
BRANCH   1   2
ATOM      2  C   UNL A   1      37.305  22.205  25.089  1.00  0.00     0.002 C 
BRANCH   2   3
ATOM      3  C   UNL A   1      36.304  21.048  25.016  1.00  0.00     0.021 C 
BRANCH   3   4
ATOM      4  C   UNL A   1      35.246  21.081  26.115  1.00  0.00     0.116 C 
BRANCH   4   5
ATOM      5  N   UNL A   1      34.080  20.290  25.758  1.00  0.00    -0.352 N 
ATOM      6  C   UNL A   1      32.863  20.510  25.211  1.00  0.00     0.251 C 
ATOM      7  O   UNL A   1      32.164  19.500  25.065  1.00  0.00    -0.270 OA
ATOM      8  H   UNL A   1      34.211  19.338  25.973  1.00  0.00     0.163 HD
BRANCH   6   9
ATOM      9  C   UNL A   1      32.331  21.840  24.785  1.00  0.00     0.067 C 
ATOM     10  C   UNL A   1      32.489  25.443  21.562  1.00  0.00     0.121 A 
ATOM     11  C   UNL A   1      31.419  26.075  22.193  1.00  0.00     0.070 A 
ATOM     12  C   UNL A   1      32.924  24.192  22.004  1.00  0.00     0.058 A 
ATOM     13  C   UNL A   1      30.821  25.477  23.300  1.00  0.00     0.087 A 
ATOM     14  C   UNL A   1      32.335  23.596  23.123  1.00  0.00     0.022 A 
ATOM     15  Cl  UNL A   1      29.499  26.289  24.058  1.00  0.00    -0.080 Cl
ATOM     16  C   UNL A   1      31.291  24.250  23.780  1.00  0.00     0.146 A 
ATOM     17  C   UNL A   1      32.772  22.287  23.594  1.00  0.00     0.025 C 
ATOM     18  O   UNL A   1      30.668  23.695  24.861  1.00  0.00    -0.474 OA
ATOM     19  C   UNL A   1      31.406  22.693  25.607  1.00  0.00     0.314 C 
BRANCH  10  20
ATOM     20  O   UNL A   1      33.130  25.954  20.466  1.00  0.00    -0.497 OA
ATOM     21  C   UNL A   1      32.528  25.576  19.230  1.00  0.00     0.278 C 
ENDBRANCH  10  20
BRANCH  19  22
ATOM     22  C   UNL A   1      32.127  23.358  26.797  1.00  0.00     0.429 C 
ATOM     23  F   UNL A   1      32.252  22.493  27.829  1.00  0.00    -0.167 F 
ATOM     24  F   UNL A   1      33.380  23.762  26.477  1.00  0.00    -0.167 F 
ATOM     25  F   UNL A   1      31.469  24.450  27.248  1.00  0.00    -0.167 F 
ENDBRANCH  19  22
ENDBRANCH   6   9
ENDBRANCH   4   5
ENDBRANCH   3   4
ENDBRANCH   2   3
ENDBRANCH   1   2
BRANCH   1  26
ATOM     26  C   UNL A   1      39.189  20.463  25.457  1.00  0.00     0.021 C 
BRANCH  26  27
ATOM     27  C   UNL A   1      39.974  19.837  26.606  1.00  0.00     0.116 C 
BRANCH  27  28
ATOM     28  N   UNL A   1      41.119  19.085  26.120  1.00  0.00    -0.352 N 
ATOM     29  C   UNL A   1      42.354  19.554  25.754  1.00  0.00     0.251 C 
ATOM     30  H   UNL A   1      40.991  18.112  26.044  1.00  0.00     0.163 HD
ATOM     31  O   UNL A   1      43.142  18.832  25.149  1.00  0.00    -0.269 OA
BRANCH  29  32
ATOM     32  C   UNL A   1      42.724  20.941  26.094  1.00  0.00     0.039 A 
ATOM     33  C   UNL A   1      42.958  21.278  27.429  1.00  0.00     0.014 A 
ATOM     34  C   UNL A   1      42.839  21.902  25.083  1.00  0.00     0.014 A 
ATOM     35  C   UNL A   1      43.342  22.580  27.751  1.00  0.00     0.010 A 
ATOM     36  C   UNL A   1      43.270  23.185  25.400  1.00  0.00     0.010 A 
ATOM     37  C   UNL A   1      43.509  23.537  26.737  1.00  0.00    -0.014 A 
BRANCH  37  38
ATOM     38  C   UNL A   1      43.894  24.928  27.060  1.00  0.00     0.031 A 
ATOM     39  C   UNL A   1      45.317  25.369  26.868  1.00  0.00     0.074 A 
ATOM     40  C   UNL A   1      42.985  25.772  27.583  1.00  0.00     0.049 A 
ATOM     41  N   UNL A   1      45.856  26.534  27.112  1.00  0.00    -0.248 NA
ATOM     42  C   UNL A   1      46.263  24.364  26.352  1.00  0.00     0.031 C 
ATOM     43  C   UNL A   1      41.590  25.439  27.869  1.00  0.00     0.029 A 
ATOM     44  N   UNL A   1      43.106  27.079  27.982  1.00  0.00    -0.354 N 
ATOM     45  C   UNL A   1      47.203  26.397  26.807  1.00  0.00     0.074 A 
ATOM     46  C   UNL A   1      47.409  25.029  26.384  1.00  0.00     0.031 C 
ATOM     47  C   UNL A   1      40.981  26.516  28.393  1.00  0.00     0.029 A 
ATOM     48  C   UNL A   1      41.946  27.609  28.492  1.00  0.00     0.049 A 
ATOM     49  H   UNL A   1      43.946  27.588  27.910  1.00  0.00     0.167 HD
ATOM     50  C   UNL A   1      48.176  27.335  26.844  1.00  0.00     0.034 A 
ATOM     51  C   UNL A   1      41.686  28.838  28.977  1.00  0.00     0.034 A 
ATOM     52  C   UNL A   1      47.959  28.704  27.213  1.00  0.00     0.049 A 
ATOM     53  C   UNL A   1      42.775  29.874  28.981  1.00  0.00     0.074 A 
ATOM     54  C   UNL A   1      48.863  29.752  27.191  1.00  0.00     0.029 A 
ATOM     55  N   UNL A   1      46.758  29.217  27.673  1.00  0.00    -0.354 N 
ATOM     56  N   UNL A   1      44.011  29.766  28.557  1.00  0.00    -0.248 NA
ATOM     57  C   UNL A   1      42.432  31.205  29.501  1.00  0.00     0.031 C 
ATOM     58  C   UNL A   1      48.208  30.899  27.650  1.00  0.00     0.029 A 
ATOM     59  C   UNL A   1      46.897  30.565  27.949  1.00  0.00     0.049 A 
ATOM     60  H   UNL A   1      45.928  28.699  27.788  1.00  0.00     0.167 HD
ATOM     61  C   UNL A   1      44.588  31.016  28.737  1.00  0.00     0.074 A 
ATOM     62  C   UNL A   1      43.564  31.872  29.299  1.00  0.00     0.031 C 
ATOM     63  C   UNL A   1      45.855  31.414  28.468  1.00  0.00     0.034 A 
BRANCH  50  64
ATOM     64  C   UNL A   1      49.554  26.926  26.408  1.00  0.00     0.023 A 
ATOM     65  C   UNL A   1      50.343  26.143  27.274  1.00  0.00     0.012 A 
ATOM     66  C   UNL A   1      50.041  27.255  25.129  1.00  0.00     0.148 A 
ATOM     67  C   UNL A   1      51.607  25.707  26.880  1.00  0.00     0.002 A 
ATOM     68  C   UNL A   1      51.289  26.792  24.732  1.00  0.00     0.091 A 
ATOM     69  F   UNL A   1      49.278  28.019  24.334  1.00  0.00    -0.205 F 
ATOM     70  C   UNL A   1      52.074  26.024  25.608  1.00  0.00     0.022 A 
BRANCH  68  71
ATOM     71  S   UNL A   1      51.965  27.100  23.097  1.00  0.00     0.127 S 
ATOM     72  O   UNL A   1      53.111  26.192  23.078  1.00  0.00    -0.237 OA
ATOM     73  O   UNL A   1      50.857  26.704  22.228  1.00  0.00    -0.237 OA
ATOM     74  O   UNL A   1      52.295  28.518  23.057  1.00  0.00    -0.744 OA
ENDBRANCH  68  71
ENDBRANCH  50  64
BRANCH  51  75
ATOM     75  C   UNL A   1      40.302  29.168  29.409  1.00  0.00     0.023 A 
ATOM     76  C   UNL A   1      39.344  29.495  28.430  1.00  0.00     0.012 A 
ATOM     77  C   UNL A   1      39.909  29.068  30.756  1.00  0.00     0.148 A 
ATOM     78  C   UNL A   1      38.015  29.720  28.787  1.00  0.00     0.002 A 
ATOM     79  C   UNL A   1      38.576  29.261  31.101  1.00  0.00     0.091 A 
ATOM     80  F   UNL A   1      40.841  28.748  31.665  1.00  0.00    -0.205 F 
ATOM     81  C   UNL A   1      37.629  29.595  30.119  1.00  0.00     0.022 A 
BRANCH  79  82
ATOM     82  S   UNL A   1      37.959  29.026  32.771  1.00  0.00     0.127 S 
ATOM     83  O   UNL A   1      36.653  29.681  32.702  1.00  0.00    -0.237 OA
ATOM     84  O   UNL A   1      37.911  27.567  32.866  1.00  0.00    -0.237 OA
ATOM     85  O   UNL A   1      38.928  29.666  33.648  1.00  0.00    -0.744 OA
ENDBRANCH  79  82
ENDBRANCH  51  75
BRANCH  63  86
ATOM     86  C   UNL A   1      46.233  32.838  28.768  1.00  0.00     0.023 A 
ATOM     87  C   UNL A   1      46.970  33.122  29.931  1.00  0.00     0.012 A 
ATOM     88  C   UNL A   1      45.989  33.859  27.828  1.00  0.00     0.148 A 
ATOM     89  C   UNL A   1      47.460  34.408  30.159  1.00  0.00     0.002 A 
ATOM     90  C   UNL A   1      46.509  35.129  28.045  1.00  0.00     0.091 A 
ATOM     91  F   UNL A   1      45.278  33.559  26.732  1.00  0.00    -0.205 F 
ATOM     92  C   UNL A   1      47.242  35.406  29.211  1.00  0.00     0.022 A 
BRANCH  90  93
ATOM     93  S   UNL A   1      46.352  36.457  26.846  1.00  0.00     0.127 S 
ATOM     94  O   UNL A   1      47.142  35.944  25.728  1.00  0.00    -0.237 OA
ATOM     95  O   UNL A   1      44.909  36.489  26.608  1.00  0.00    -0.237 OA
ATOM     96  O   UNL A   1      46.889  37.649  27.488  1.00  0.00    -0.744 OA
ENDBRANCH  90  93
ENDBRANCH  63  86
ENDBRANCH  37  38
ENDBRANCH  29  32
ENDBRANCH  27  28
ENDBRANCH  26  27
ENDBRANCH   1  26
TORSDOF 18
ENDMDL
MODEL 2
REMARK VINA RESULT:     -11.2      6.138     11.527
REMARK SMILES COc1cc(Cl)c2c(c1)C=C(C(=O)NCCCCCCNC(=O)c1ccc(-c3c4nc(c(-c5cccc(S(=O)(=O)[O-])c5F)c5ccc([nH]5)c(-c5cccc(S(=O)(=O)[O-])c5F)c5nc(c(-c6cccc(S(=O)(=O)[O-])c6F)c6ccc3[nH]6)C=C5)C=C4)cc1)[C@@H](C(F)(F)F)O2
REMARK SMILES IDX 18 1 17 2 16 3 15 4 14 5 12 6 13 7 11 9 3 10 4 11 9 12 5 13
REMARK SMILES IDX 8 14 6 15 7 16 10 17 92 18 87 19 2 20 1 21 88 22 89 23 90 24
REMARK SMILES IDX 91 25 19 26 20 27 21 28 22 29 23 31 24 32 25 33 86 34 26 35
REMARK SMILES IDX 85 36 27 37 28 38 29 39 79 40 30 41 84 42 78 43 80 44 31 45
REMARK SMILES IDX 83 46 77 47 76 48 32 50 64 51 44 52 63 53 45 54 48 55 62 56
REMARK SMILES IDX 81 57 46 58 47 59 61 61 82 62 49 63 33 64 34 65 42 66 35 67
REMARK SMILES IDX 37 68 43 69 36 70 38 71 39 72 40 73 41 74 65 75 66 76 74 77
REMARK SMILES IDX 67 78 69 79 75 80 68 81 70 82 71 83 72 84 73 85 50 86 51 87
REMARK SMILES IDX 59 88 52 89 54 90 60 91 53 92 55 93 56 94 57 95 58 96
REMARK H PARENT 14 8 21 30 80 49 48 60
REMARK Flexibility Score: inf
ROOT
ATOM      1  C   UNL A   1      35.069  32.935  28.001  1.00  0.00     0.002 C 
ENDROOT
BRANCH   1   2
ATOM      2  C   UNL A   1      34.929  31.521  28.583  1.00  0.00     0.002 C 
BRANCH   2   3
ATOM      3  C   UNL A   1      35.452  30.393  27.688  1.00  0.00     0.021 C 
BRANCH   3   4
ATOM      4  C   UNL A   1      34.417  29.310  27.396  1.00  0.00     0.116 C 
BRANCH   4   5
ATOM      5  N   UNL A   1      33.984  29.344  26.010  1.00  0.00    -0.352 N 
ATOM      6  C   UNL A   1      33.313  28.533  25.161  1.00  0.00     0.251 C 
ATOM      7  O   UNL A   1      33.144  28.989  24.024  1.00  0.00    -0.270 OA
ATOM      8  H   UNL A   1      34.251  30.184  25.570  1.00  0.00     0.163 HD
BRANCH   6   9
ATOM      9  C   UNL A   1      32.782  27.177  25.495  1.00  0.00     0.067 C 
ATOM     10  C   UNL A   1      33.683  22.442  25.903  1.00  0.00     0.121 A 
ATOM     11  C   UNL A   1      32.403  22.227  26.412  1.00  0.00     0.070 A 
ATOM     12  C   UNL A   1      34.118  23.740  25.628  1.00  0.00     0.058 A 
ATOM     13  C   UNL A   1      31.542  23.308  26.594  1.00  0.00     0.087 A 
ATOM     14  C   UNL A   1      33.253  24.825  25.797  1.00  0.00     0.022 A 
ATOM     15  Cl  UNL A   1      29.964  23.004  27.225  1.00  0.00    -0.080 Cl
ATOM     16  C   UNL A   1      31.957  24.603  26.266  1.00  0.00     0.146 A 
ATOM     17  C   UNL A   1      33.694  26.187  25.521  1.00  0.00     0.025 C 
ATOM     18  O   UNL A   1      31.085  25.633  26.471  1.00  0.00    -0.474 OA
ATOM     19  C   UNL A   1      31.332  26.864  25.742  1.00  0.00     0.314 C 
BRANCH  10  20
ATOM     20  O   UNL A   1      34.594  21.441  25.700  1.00  0.00    -0.497 OA
ATOM     21  C   UNL A   1      34.059  20.323  24.996  1.00  0.00     0.278 C 
ENDBRANCH  10  20
BRANCH  19  22
ATOM     22  C   UNL A   1      30.502  26.873  24.443  1.00  0.00     0.429 C 
ATOM     23  F   UNL A   1      29.407  26.088  24.566  1.00  0.00    -0.167 F 
ATOM     24  F   UNL A   1      30.055  28.113  24.129  1.00  0.00    -0.167 F 
ATOM     25  F   UNL A   1      31.211  26.432  23.379  1.00  0.00    -0.167 F 
ENDBRANCH  19  22
ENDBRANCH   6   9
ENDBRANCH   4   5
ENDBRANCH   3   4
ENDBRANCH   2   3
ENDBRANCH   1   2
BRANCH   1  26
ATOM     26  C   UNL A   1      33.825  33.821  28.122  1.00  0.00     0.021 C 
BRANCH  26  27
ATOM     27  C   UNL A   1      34.107  35.244  28.593  1.00  0.00     0.116 C 
BRANCH  27  28
ATOM     28  N   UNL A   1      33.284  35.598  29.738  1.00  0.00    -0.352 N 
ATOM     29  C   UNL A   1      33.367  35.132  31.024  1.00  0.00     0.251 C 
ATOM     30  H   UNL A   1      32.575  36.259  29.567  1.00  0.00     0.163 HD
ATOM     31  O   UNL A   1      32.462  35.350  31.826  1.00  0.00    -0.269 OA
BRANCH  29  32
ATOM     32  C   UNL A   1      34.556  34.362  31.433  1.00  0.00     0.039 A 
ATOM     33  C   UNL A   1      34.394  33.062  31.918  1.00  0.00     0.014 A 
ATOM     34  C   UNL A   1      35.829  34.933  31.330  1.00  0.00     0.014 A 
ATOM     35  C   UNL A   1      35.520  32.317  32.272  1.00  0.00     0.010 A 
ATOM     36  C   UNL A   1      36.952  34.173  31.637  1.00  0.00     0.010 A 
ATOM     37  C   UNL A   1      36.804  32.866  32.125  1.00  0.00    -0.014 A 
BRANCH  37  38
ATOM     38  C   UNL A   1      38.008  32.100  32.516  1.00  0.00     0.031 A 
ATOM     39  C   UNL A   1      38.685  32.396  33.824  1.00  0.00     0.074 A 
ATOM     40  C   UNL A   1      38.527  31.190  31.672  1.00  0.00     0.049 A 
ATOM     41  N   UNL A   1      39.758  31.853  34.334  1.00  0.00    -0.248 NA
ATOM     42  C   UNL A   1      38.089  33.453  34.659  1.00  0.00     0.031 C 
ATOM     43  C   UNL A   1      37.991  30.860  30.351  1.00  0.00     0.029 A 
ATOM     44  N   UNL A   1      39.632  30.387  31.795  1.00  0.00    -0.354 N 
ATOM     45  C   UNL A   1      39.982  32.516  35.533  1.00  0.00     0.074 A 
ATOM     46  C   UNL A   1      38.950  33.522  35.665  1.00  0.00     0.031 C 
ATOM     47  C   UNL A   1      38.766  29.918  29.787  1.00  0.00     0.029 A 
ATOM     48  C   UNL A   1      39.858  29.589  30.699  1.00  0.00     0.049 A 
ATOM     49  H   UNL A   1      40.209  30.383  32.593  1.00  0.00     0.167 HD
ATOM     50  C   UNL A   1      40.942  32.288  36.457  1.00  0.00     0.034 A 
ATOM     51  C   UNL A   1      40.831  28.688  30.460  1.00  0.00     0.034 A 
ATOM     52  C   UNL A   1      41.932  31.256  36.349  1.00  0.00     0.049 A 
ATOM     53  C   UNL A   1      41.871  28.429  31.515  1.00  0.00     0.074 A 
ATOM     54  C   UNL A   1      42.889  30.885  37.277  1.00  0.00     0.029 A 
ATOM     55  N   UNL A   1      42.097  30.432  35.248  1.00  0.00    -0.354 N 
ATOM     56  N   UNL A   1      41.985  28.970  32.703  1.00  0.00    -0.248 NA
ATOM     57  C   UNL A   1      42.897  27.421  31.211  1.00  0.00     0.031 C 
ATOM     58  C   UNL A   1      43.641  29.841  36.731  1.00  0.00     0.029 A 
ATOM     59  C   UNL A   1      43.147  29.559  35.467  1.00  0.00     0.049 A 
ATOM     60  H   UNL A   1      41.550  30.464  34.430  1.00  0.00     0.167 HD
ATOM     61  C   UNL A   1      43.079  28.354  33.299  1.00  0.00     0.074 A 
ATOM     62  C   UNL A   1      43.588  27.391  32.345  1.00  0.00     0.031 C 
ATOM     63  C   UNL A   1      43.615  28.576  34.524  1.00  0.00     0.034 A 
BRANCH  50  64
ATOM     64  C   UNL A   1      40.924  33.128  37.702  1.00  0.00     0.023 A 
ATOM     65  C   UNL A   1      40.098  32.745  38.778  1.00  0.00     0.012 A 
ATOM     66  C   UNL A   1      41.765  34.249  37.835  1.00  0.00     0.148 A 
ATOM     67  C   UNL A   1      40.094  33.476  39.963  1.00  0.00     0.002 A 
ATOM     68  C   UNL A   1      41.778  34.957  39.031  1.00  0.00     0.091 A 
ATOM     69  F   UNL A   1      42.524  34.605  36.789  1.00  0.00    -0.205 F 
ATOM     70  C   UNL A   1      40.940  34.574  40.092  1.00  0.00     0.022 A 
BRANCH  68  71
ATOM     71  S   UNL A   1      42.866  36.356  39.321  1.00  0.00     0.127 S 
ATOM     72  O   UNL A   1      44.147  35.834  38.848  1.00  0.00    -0.237 OA
ATOM     73  O   UNL A   1      42.274  37.386  38.468  1.00  0.00    -0.237 OA
ATOM     74  O   UNL A   1      42.796  36.631  40.749  1.00  0.00    -0.744 OA
ENDBRANCH  68  71
ENDBRANCH  50  64
BRANCH  51  75
ATOM     75  C   UNL A   1      40.797  27.904  29.197  1.00  0.00     0.023 A 
ATOM     76  C   UNL A   1      39.795  26.929  29.029  1.00  0.00     0.012 A 
ATOM     77  C   UNL A   1      41.678  28.182  28.136  1.00  0.00     0.148 A 
ATOM     78  C   UNL A   1      39.674  26.239  27.824  1.00  0.00     0.002 A 
ATOM     79  C   UNL A   1      41.531  27.515  26.926  1.00  0.00     0.091 A 
ATOM     80  F   UNL A   1      42.616  29.121  28.322  1.00  0.00    -0.205 F 
ATOM     81  C   UNL A   1      40.535  26.536  26.771  1.00  0.00     0.022 A 
BRANCH  79  82
ATOM     82  S   UNL A   1      42.523  27.894  25.477  1.00  0.00     0.127 S 
ATOM     83  O   UNL A   1      42.274  26.727  24.631  1.00  0.00    -0.237 OA
ATOM     84  O   UNL A   1      41.903  29.135  25.012  1.00  0.00    -0.237 OA
ATOM     85  O   UNL A   1      43.890  28.033  25.956  1.00  0.00    -0.744 OA
ENDBRANCH  79  82
ENDBRANCH  51  75
BRANCH  63  86
ATOM     86  C   UNL A   1      44.819  27.772  34.929  1.00  0.00     0.023 A 
ATOM     87  C   UNL A   1      46.101  28.330  34.775  1.00  0.00     0.012 A 
ATOM     88  C   UNL A   1      44.669  26.540  35.594  1.00  0.00     0.148 A 
ATOM     89  C   UNL A   1      47.222  27.670  35.278  1.00  0.00     0.002 A 
ATOM     90  C   UNL A   1      45.787  25.904  36.122  1.00  0.00     0.091 A 
ATOM     91  F   UNL A   1      43.435  26.029  35.720  1.00  0.00    -0.205 F 
ATOM     92  C   UNL A   1      47.064  26.467  35.962  1.00  0.00     0.022 A 
BRANCH  90  93
ATOM     93  S   UNL A   1      45.677  24.395  37.089  1.00  0.00     0.127 S 
ATOM     94  O   UNL A   1      47.081  24.142  37.407  1.00  0.00    -0.237 OA
ATOM     95  O   UNL A   1      44.861  24.817  38.229  1.00  0.00    -0.237 OA
ATOM     96  O   UNL A   1      45.049  23.405  36.226  1.00  0.00    -0.744 OA
ENDBRANCH  90  93
ENDBRANCH  63  86
ENDBRANCH  37  38
ENDBRANCH  29  32
ENDBRANCH  27  28
ENDBRANCH  26  27
ENDBRANCH   1  26
TORSDOF 18
ENDMDL
MODEL 3
REMARK VINA RESULT:     -11.1      6.291     11.421
REMARK SMILES COc1cc(Cl)c2c(c1)C=C(C(=O)NCCCCCCNC(=O)c1ccc(-c3c4nc(c(-c5cccc(S(=O)(=O)[O-])c5F)c5ccc([nH]5)c(-c5cccc(S(=O)(=O)[O-])c5F)c5nc(c(-c6cccc(S(=O)(=O)[O-])c6F)c6ccc3[nH]6)C=C5)C=C4)cc1)[C@@H](C(F)(F)F)O2
REMARK SMILES IDX 18 1 17 2 16 3 15 4 14 5 12 6 13 7 11 9 3 10 4 11 9 12 5 13
REMARK SMILES IDX 8 14 6 15 7 16 10 17 92 18 87 19 2 20 1 21 88 22 89 23 90 24
REMARK SMILES IDX 91 25 19 26 20 27 21 28 22 29 23 31 24 32 25 33 86 34 26 35
REMARK SMILES IDX 85 36 27 37 28 38 29 39 79 40 30 41 84 42 78 43 80 44 31 45
REMARK SMILES IDX 83 46 77 47 76 48 32 50 64 51 44 52 63 53 45 54 48 55 62 56
REMARK SMILES IDX 81 57 46 58 47 59 61 61 82 62 49 63 33 64 34 65 42 66 35 67
REMARK SMILES IDX 37 68 43 69 36 70 38 71 39 72 40 73 41 74 65 75 66 76 74 77
REMARK SMILES IDX 67 78 69 79 75 80 68 81 70 82 71 83 72 84 73 85 50 86 51 87
REMARK SMILES IDX 59 88 52 89 54 90 60 91 53 92 55 93 56 94 57 95 58 96
REMARK H PARENT 14 8 21 30 80 49 48 60
REMARK Flexibility Score: inf
ROOT
ATOM      1  C   UNL A   1      32.629  30.541  27.215  1.00  0.00     0.002 C 
ENDROOT
BRANCH   1   2
ATOM      2  C   UNL A   1      31.733  29.444  26.622  1.00  0.00     0.002 C 
BRANCH   2   3
ATOM      3  C   UNL A   1      31.581  28.188  27.486  1.00  0.00     0.021 C 
BRANCH   3   4
ATOM      4  C   UNL A   1      31.874  26.889  26.741  1.00  0.00     0.116 C 
BRANCH   4   5
ATOM      5  N   UNL A   1      32.610  27.133  25.513  1.00  0.00    -0.352 N 
ATOM      6  C   UNL A   1      33.293  26.400  24.604  1.00  0.00     0.251 C 
ATOM      7  O   UNL A   1      33.767  27.043  23.661  1.00  0.00    -0.270 OA
ATOM      8  H   UNL A   1      32.614  28.090  25.278  1.00  0.00     0.163 HD
BRANCH   6   9
ATOM      9  C   UNL A   1      33.502  24.921  24.664  1.00  0.00     0.067 C 
ATOM     10  C   UNL A   1      36.660  21.263  24.862  1.00  0.00     0.121 A 
ATOM     11  C   UNL A   1      35.617  20.349  24.997  1.00  0.00     0.070 A 
ATOM     12  C   UNL A   1      36.392  22.633  24.829  1.00  0.00     0.058 A 
ATOM     13  C   UNL A   1      34.301  20.806  25.045  1.00  0.00     0.087 A 
ATOM     14  C   UNL A   1      35.073  23.095  24.864  1.00  0.00     0.022 A 
ATOM     15  Cl  UNL A   1      33.033  19.646  25.213  1.00  0.00    -0.080 Cl
ATOM     16  C   UNL A   1      34.027  22.175  24.957  1.00  0.00     0.146 A 
ATOM     17  C   UNL A   1      34.776  24.522  24.837  1.00  0.00     0.025 C 
ATOM     18  O   UNL A   1      32.724  22.580  25.019  1.00  0.00    -0.474 OA
ATOM     19  C   UNL A   1      32.414  23.897  24.494  1.00  0.00     0.314 C 
BRANCH  10  20
ATOM     20  O   UNL A   1      37.980  20.903  24.814  1.00  0.00    -0.497 OA
ATOM     21  C   UNL A   1      38.198  19.515  25.059  1.00  0.00     0.278 C 
ENDBRANCH  10  20
BRANCH  19  22
ATOM     22  C   UNL A   1      31.947  23.776  23.030  1.00  0.00     0.429 C 
ATOM     23  F   UNL A   1      31.097  24.779  22.711  1.00  0.00    -0.167 F 
ATOM     24  F   UNL A   1      32.979  23.851  22.155  1.00  0.00    -0.167 F 
ATOM     25  F   UNL A   1      31.316  22.604  22.790  1.00  0.00    -0.167 F 
ENDBRANCH  19  22
ENDBRANCH   6   9
ENDBRANCH   4   5
ENDBRANCH   3   4
ENDBRANCH   2   3
ENDBRANCH   1   2
BRANCH   1  26
ATOM     26  C   UNL A   1      32.019  31.946  27.235  1.00  0.00     0.021 C 
BRANCH  26  27
ATOM     27  C   UNL A   1      33.011  33.068  26.945  1.00  0.00     0.116 C 
BRANCH  27  28
ATOM     28  N   UNL A   1      32.725  34.251  27.740  1.00  0.00    -0.352 N 
ATOM     29  C   UNL A   1      33.246  34.606  28.956  1.00  0.00     0.251 C 
ATOM     30  H   UNL A   1      32.072  34.878  27.353  1.00  0.00     0.163 HD
ATOM     31  O   UNL A   1      32.740  35.516  29.609  1.00  0.00    -0.269 OA
BRANCH  29  32
ATOM     32  C   UNL A   1      34.420  33.880  29.474  1.00  0.00     0.039 A 
ATOM     33  C   UNL A   1      35.701  34.342  29.160  1.00  0.00     0.014 A 
ATOM     34  C   UNL A   1      34.245  32.744  30.271  1.00  0.00     0.014 A 
ATOM     35  C   UNL A   1      36.814  33.678  29.677  1.00  0.00     0.010 A 
ATOM     36  C   UNL A   1      35.353  32.114  30.825  1.00  0.00     0.010 A 
ATOM     37  C   UNL A   1      36.646  32.566  30.519  1.00  0.00    -0.014 A 
BRANCH  37  38
ATOM     38  C   UNL A   1      37.814  31.836  31.058  1.00  0.00     0.031 A 
ATOM     39  C   UNL A   1      38.318  32.156  32.437  1.00  0.00     0.074 A 
ATOM     40  C   UNL A   1      38.457  30.938  30.290  1.00  0.00     0.049 A 
ATOM     41  N   UNL A   1      39.335  31.645  33.077  1.00  0.00    -0.248 NA
ATOM     42  C   UNL A   1      37.596  33.198  33.186  1.00  0.00     0.031 C 
ATOM     43  C   UNL A   1      38.095  30.589  28.916  1.00  0.00     0.029 A 
ATOM     44  N   UNL A   1      39.560  30.167  30.552  1.00  0.00    -0.354 N 
ATOM     45  C   UNL A   1      39.393  32.318  34.290  1.00  0.00     0.074 A 
ATOM     46  C   UNL A   1      38.326  33.294  34.288  1.00  0.00     0.031 C 
ATOM     47  C   UNL A   1      38.958  29.667  28.456  1.00  0.00     0.029 A 
ATOM     48  C   UNL A   1      39.940  29.372  29.497  1.00  0.00     0.049 A 
ATOM     49  H   UNL A   1      40.036  30.182  31.414  1.00  0.00     0.167 HD
ATOM     50  C   UNL A   1      40.239  32.119  35.325  1.00  0.00     0.034 A 
ATOM     51  C   UNL A   1      40.960  28.499  29.384  1.00  0.00     0.034 A 
ATOM     52  C   UNL A   1      41.264  31.116  35.346  1.00  0.00     0.049 A 
ATOM     53  C   UNL A   1      41.870  28.272  30.559  1.00  0.00     0.074 A 
ATOM     54  C   UNL A   1      42.110  30.775  36.386  1.00  0.00     0.029 A 
ATOM     55  N   UNL A   1      41.585  30.294  34.278  1.00  0.00    -0.354 N 
ATOM     56  N   UNL A   1      41.824  28.820  31.749  1.00  0.00    -0.248 NA
ATOM     57  C   UNL A   1      42.953  27.293  30.389  1.00  0.00     0.031 C 
ATOM     58  C   UNL A   1      42.952  29.751  35.942  1.00  0.00     0.029 A 
ATOM     59  C   UNL A   1      42.623  29.451  34.630  1.00  0.00     0.049 A 
ATOM     60  H   UNL A   1      41.140  30.307  33.400  1.00  0.00     0.167 HD
ATOM     61  C   UNL A   1      42.853  28.237  32.477  1.00  0.00     0.074 A 
ATOM     62  C   UNL A   1      43.501  27.286  31.598  1.00  0.00     0.031 C 
ATOM     63  C   UNL A   1      43.230  28.479  33.757  1.00  0.00     0.034 A 
BRANCH  50  64
ATOM     64  C   UNL A   1      40.047  32.964  36.553  1.00  0.00     0.023 A 
ATOM     65  C   UNL A   1      40.723  34.196  36.651  1.00  0.00     0.012 A 
ATOM     66  C   UNL A   1      39.155  32.575  37.571  1.00  0.00     0.148 A 
ATOM     67  C   UNL A   1      40.529  35.024  37.755  1.00  0.00     0.002 A 
ATOM     68  C   UNL A   1      38.944  33.419  38.654  1.00  0.00     0.091 A 
ATOM     69  F   UNL A   1      38.542  31.388  37.462  1.00  0.00    -0.205 F 
ATOM     70  C   UNL A   1      39.634  34.640  38.749  1.00  0.00     0.022 A 
BRANCH  68  71
ATOM     71  S   UNL A   1      37.775  33.045  39.965  1.00  0.00     0.127 S 
ATOM     72  O   UNL A   1      37.849  34.257  40.779  1.00  0.00    -0.237 OA
ATOM     73  O   UNL A   1      36.525  32.881  39.224  1.00  0.00    -0.237 OA
ATOM     74  O   UNL A   1      38.267  31.834  40.608  1.00  0.00    -0.744 OA
ENDBRANCH  68  71
ENDBRANCH  50  64
BRANCH  51  75
ATOM     75  C   UNL A   1      41.101  27.710  28.131  1.00  0.00     0.023 A 
ATOM     76  C   UNL A   1      41.710  28.312  27.014  1.00  0.00     0.012 A 
ATOM     77  C   UNL A   1      40.728  26.355  28.071  1.00  0.00     0.148 A 
ATOM     78  C   UNL A   1      41.942  27.576  25.852  1.00  0.00     0.002 A 
ATOM     79  C   UNL A   1      40.993  25.618  26.923  1.00  0.00     0.091 A 
ATOM     80  F   UNL A   1      40.157  25.807  29.153  1.00  0.00    -0.205 F 
ATOM     81  C   UNL A   1      41.592  26.229  25.809  1.00  0.00     0.022 A 
BRANCH  79  82
ATOM     82  S   UNL A   1      40.672  23.855  26.800  1.00  0.00     0.127 S 
ATOM     83  O   UNL A   1      39.244  23.831  26.486  1.00  0.00    -0.237 OA
ATOM     84  O   UNL A   1      41.552  23.471  25.696  1.00  0.00    -0.237 OA
ATOM     85  O   UNL A   1      41.032  23.294  28.094  1.00  0.00    -0.744 OA
ENDBRANCH  79  82
ENDBRANCH  51  75
BRANCH  63  86
ATOM     86  C   UNL A   1      44.398  27.710  34.311  1.00  0.00     0.023 A 
ATOM     87  C   UNL A   1      45.689  28.258  34.211  1.00  0.00     0.012 A 
ATOM     88  C   UNL A   1      44.193  26.532  35.055  1.00  0.00     0.148 A 
ATOM     89  C   UNL A   1      46.767  27.640  34.844  1.00  0.00     0.002 A 
ATOM     90  C   UNL A   1      45.266  25.941  35.712  1.00  0.00     0.091 A 
ATOM     91  F   UNL A   1      42.952  26.030  35.127  1.00  0.00    -0.205 F 
ATOM     92  C   UNL A   1      46.554  26.492  35.605  1.00  0.00     0.022 A 
BRANCH  90  93
ATOM     93  S   UNL A   1      45.079  24.510  36.781  1.00  0.00     0.127 S 
ATOM     94  O   UNL A   1      44.573  23.505  35.847  1.00  0.00    -0.237 OA
ATOM     95  O   UNL A   1      46.451  24.282  37.235  1.00  0.00    -0.237 OA
ATOM     96  O   UNL A   1      44.149  24.905  37.829  1.00  0.00    -0.744 OA
ENDBRANCH  90  93
ENDBRANCH  63  86
ENDBRANCH  37  38
ENDBRANCH  29  32
ENDBRANCH  27  28
ENDBRANCH  26  27
ENDBRANCH   1  26
TORSDOF 18
ENDMDL
