MODEL 1
REMARK VINA RESULT:     -10.4      0.000      0.000
REMARK SMILES CCOc1ccc2c(c1)=N[C@H](SCC(=O)NCCCCCCNC(=O)c1ccc(-c3c4nc(c(-c5cccc(S(=O)(=O)[O-])c5F)c5ccc([nH]5)c(-c5cccc(S(=O)(=O)[O-])c5F)c5nc(c(-c6cccc(S(=O)(=O)[O-])c6F)c6ccc3[nH]6)C=C5)C=C4)cc1)N=2
REMARK SMILES IDX 19 1 18 2 17 3 16 4 14 5 15 6 13 8 12 9 11 10 4 11 5 12 9 13
REMARK SMILES IDX 6 14 8 15 7 16 10 17 89 18 3 19 2 20 1 21 20 22 21 23 22 24
REMARK SMILES IDX 23 25 24 26 25 28 26 29 27 30 88 31 28 32 87 33 29 34 30 35
REMARK SMILES IDX 31 36 81 37 32 38 86 39 80 40 82 41 33 42 85 43 79 44 78 45
REMARK SMILES IDX 34 47 66 48 46 49 65 50 47 51 50 52 64 53 83 54 48 55 49 56
REMARK SMILES IDX 63 58 84 59 51 60 35 61 36 62 44 63 37 64 39 65 45 66 38 67
REMARK SMILES IDX 40 68 41 69 42 70 43 71 67 72 68 73 76 74 69 75 71 76 77 77
REMARK SMILES IDX 70 78 72 79 73 80 74 81 75 82 52 83 53 84 61 85 54 86 56 87
REMARK SMILES IDX 62 88 55 89 57 90 58 91 59 92 60 93
REMARK H PARENT 16 7 23 27 82 46 50 57
REMARK Flexibility Score: inf
ROOT
ATOM      1  C   UNL A   1      32.057  29.249  25.479  1.00  0.00     0.002 C 
ENDROOT
BRANCH   1   2
ATOM      2  C   UNL A   1      31.162  29.792  24.357  1.00  0.00     0.021 C 
BRANCH   2   3
ATOM      3  C   UNL A   1      30.778  28.752  23.299  1.00  0.00     0.116 C 
BRANCH   3   4
ATOM      4  N   UNL A   1      29.543  28.076  23.662  1.00  0.00    -0.355 N 
ATOM      5  C   UNL A   1      29.268  26.741  23.704  1.00  0.00     0.230 C 
ATOM      6  O   UNL A   1      28.101  26.395  23.907  1.00  0.00    -0.274 OA
ATOM      7  H   UNL A   1      28.797  28.668  23.913  1.00  0.00     0.163 HD
BRANCH   5   8
ATOM      8  C   UNL A   1      30.380  25.714  23.583  1.00  0.00     0.173 C 
BRANCH   8   9
ATOM      9  S   UNL A   1      31.143  25.283  25.168  1.00  0.00    -0.102 SA
BRANCH   9  10
ATOM     10  C   UNL A   1      32.890  25.734  24.809  1.00  0.00     0.281 C 
ATOM     11  C   UNL A   1      36.053  22.583  25.300  1.00  0.00     0.121 A 
ATOM     12  C   UNL A   1      35.789  22.443  23.879  1.00  0.00     0.049 A 
ATOM     13  C   UNL A   1      35.443  23.495  26.070  1.00  0.00     0.076 A 
ATOM     14  C   UNL A   1      34.955  23.242  23.200  1.00  0.00     0.034 A 
ATOM     15  C   UNL A   1      34.481  24.383  25.418  1.00  0.00     0.090 A 
ATOM     16  C   UNL A   1      34.232  24.256  23.968  1.00  0.00     0.087 A 
ATOM     17  N   UNL A   1      33.773  25.320  25.940  1.00  0.00    -0.246 NA
ATOM     18  N   UNL A   1      33.363  25.105  23.546  1.00  0.00    -0.246 NA
BRANCH  11  19
ATOM     19  O   UNL A   1      36.854  21.610  25.854  1.00  0.00    -0.494 OA
BRANCH  19  20
ATOM     20  C   UNL A   1      37.834  21.085  24.952  1.00  0.00     0.226 C 
ATOM     21  C   UNL A   1      37.756  19.569  24.917  1.00  0.00     0.049 C 
ENDBRANCH  19  20
ENDBRANCH  11  19
ENDBRANCH   9  10
ENDBRANCH   8   9
ENDBRANCH   5   8
ENDBRANCH   3   4
ENDBRANCH   2   3
ENDBRANCH   1   2
BRANCH   1  22
ATOM     22  C   UNL A   1      31.893  29.933  26.840  1.00  0.00     0.002 C 
BRANCH  22  23
ATOM     23  C   UNL A   1      31.682  31.447  26.787  1.00  0.00     0.021 C 
BRANCH  23  24
ATOM     24  C   UNL A   1      32.904  32.278  27.159  1.00  0.00     0.116 C 
BRANCH  24  25
ATOM     25  N   UNL A   1      32.568  33.655  27.490  1.00  0.00    -0.352 N 
ATOM     26  C   UNL A   1      33.117  34.466  28.457  1.00  0.00     0.251 C 
ATOM     27  H   UNL A   1      31.853  34.060  26.948  1.00  0.00     0.163 HD
ATOM     28  O   UNL A   1      32.619  35.562  28.700  1.00  0.00    -0.269 OA
BRANCH  26  29
ATOM     29  C   UNL A   1      34.286  33.985  29.225  1.00  0.00     0.039 A 
ATOM     30  C   UNL A   1      35.575  34.395  28.879  1.00  0.00     0.014 A 
ATOM     31  C   UNL A   1      34.093  33.072  30.265  1.00  0.00     0.014 A 
ATOM     32  C   UNL A   1      36.675  33.767  29.456  1.00  0.00     0.010 A 
ATOM     33  C   UNL A   1      35.200  32.497  30.896  1.00  0.00     0.010 A 
ATOM     34  C   UNL A   1      36.500  32.799  30.458  1.00  0.00    -0.014 A 
BRANCH  34  35
ATOM     35  C   UNL A   1      37.690  32.107  31.021  1.00  0.00     0.031 A 
ATOM     36  C   UNL A   1      38.116  32.337  32.448  1.00  0.00     0.074 A 
ATOM     37  C   UNL A   1      38.363  31.226  30.255  1.00  0.00     0.049 A 
ATOM     38  N   UNL A   1      39.105  31.789  33.107  1.00  0.00    -0.248 NA
ATOM     39  C   UNL A   1      37.338  33.305  33.241  1.00  0.00     0.031 C 
ATOM     40  C   UNL A   1      38.061  30.927  28.855  1.00  0.00     0.029 A 
ATOM     41  N   UNL A   1      39.425  30.410  30.548  1.00  0.00    -0.354 N 
ATOM     42  C   UNL A   1      39.095  32.371  34.369  1.00  0.00     0.074 A 
ATOM     43  C   UNL A   1      38.002  33.318  34.389  1.00  0.00     0.031 C 
ATOM     44  C   UNL A   1      38.887  29.963  28.422  1.00  0.00     0.029 A 
ATOM     45  C   UNL A   1      39.808  29.608  29.498  1.00  0.00     0.049 A 
ATOM     46  H   UNL A   1      39.873  30.399  31.425  1.00  0.00     0.167 HD
ATOM     47  C   UNL A   1      39.907  32.122  35.423  1.00  0.00     0.034 A 
ATOM     48  C   UNL A   1      40.788  28.689  29.406  1.00  0.00     0.034 A 
ATOM     49  C   UNL A   1      40.952  31.135  35.429  1.00  0.00     0.049 A 
ATOM     50  C   UNL A   1      41.659  28.417  30.598  1.00  0.00     0.074 A 
ATOM     51  C   UNL A   1      41.790  30.782  36.473  1.00  0.00     0.029 A 
ATOM     52  N   UNL A   1      41.296  30.338  34.351  1.00  0.00    -0.354 N 
ATOM     53  N   UNL A   1      41.581  28.925  31.804  1.00  0.00    -0.248 NA
ATOM     54  C   UNL A   1      42.743  27.440  30.424  1.00  0.00     0.031 C 
ATOM     55  C   UNL A   1      42.642  29.769  36.024  1.00  0.00     0.029 A 
ATOM     56  C   UNL A   1      42.334  29.492  34.703  1.00  0.00     0.049 A 
ATOM     57  H   UNL A   1      40.867  30.368  33.465  1.00  0.00     0.167 HD
ATOM     58  C   UNL A   1      42.597  28.324  32.535  1.00  0.00     0.074 A 
ATOM     59  C   UNL A   1      43.265  27.397  31.644  1.00  0.00     0.031 C 
ATOM     60  C   UNL A   1      42.957  28.540  33.823  1.00  0.00     0.034 A 
BRANCH  47  61
ATOM     61  C   UNL A   1      39.671  32.883  36.698  1.00  0.00     0.023 A 
ATOM     62  C   UNL A   1      40.308  34.125  36.881  1.00  0.00     0.012 A 
ATOM     63  C   UNL A   1      38.737  32.432  37.652  1.00  0.00     0.148 A 
ATOM     64  C   UNL A   1      40.024  34.909  37.999  1.00  0.00     0.002 A 
ATOM     65  C   UNL A   1      38.439  33.230  38.749  1.00  0.00     0.091 A 
ATOM     66  F   UNL A   1      38.153  31.242  37.457  1.00  0.00    -0.205 F 
ATOM     67  C   UNL A   1      39.083  34.468  38.926  1.00  0.00     0.022 A 
BRANCH  65  68
ATOM     68  S   UNL A   1      37.204  32.783  39.975  1.00  0.00     0.127 S 
ATOM     69  O   UNL A   1      36.005  32.645  39.148  1.00  0.00    -0.237 OA
ATOM     70  O   UNL A   1      37.732  31.523  40.496  1.00  0.00    -0.237 OA
ATOM     71  O   UNL A   1      37.171  33.877  40.935  1.00  0.00    -0.744 OA
ENDBRANCH  65  68
ENDBRANCH  47  61
BRANCH  48  72
ATOM     72  C   UNL A   1      40.948  27.920  28.142  1.00  0.00     0.023 A 
ATOM     73  C   UNL A   1      41.579  28.533  27.043  1.00  0.00     0.012 A 
ATOM     74  C   UNL A   1      40.554  26.572  28.053  1.00  0.00     0.148 A 
ATOM     75  C   UNL A   1      41.812  27.813  25.871  1.00  0.00     0.002 A 
ATOM     76  C   UNL A   1      40.829  25.850  26.900  1.00  0.00     0.091 A 
ATOM     77  F   UNL A   1      39.945  26.018  29.111  1.00  0.00    -0.205 F 
ATOM     78  C   UNL A   1      41.449  26.470  25.804  1.00  0.00     0.022 A 
BRANCH  76  79
ATOM     79  S   UNL A   1      40.507  24.088  26.764  1.00  0.00     0.127 S 
ATOM     80  O   UNL A   1      40.831  23.620  28.109  1.00  0.00    -0.237 OA
ATOM     81  O   UNL A   1      39.083  24.067  26.431  1.00  0.00    -0.237 OA
ATOM     82  O   UNL A   1      41.382  23.607  25.702  1.00  0.00    -0.744 OA
ENDBRANCH  76  79
ENDBRANCH  48  72
BRANCH  60  83
ATOM     83  C   UNL A   1      44.126  27.771  34.367  1.00  0.00     0.023 A 
ATOM     84  C   UNL A   1      45.412  28.342  34.301  1.00  0.00     0.012 A 
ATOM     85  C   UNL A   1      43.938  26.553  35.047  1.00  0.00     0.148 A 
ATOM     86  C   UNL A   1      46.497  27.708  34.901  1.00  0.00     0.002 A 
ATOM     87  C   UNL A   1      45.019  25.942  35.671  1.00  0.00     0.091 A 
ATOM     88  F   UNL A   1      42.704  26.028  35.087  1.00  0.00    -0.205 F 
ATOM     89  C   UNL A   1      46.299  26.516  35.596  1.00  0.00     0.022 A 
BRANCH  87  90
ATOM     90  S   UNL A   1      44.854  24.444  36.649  1.00  0.00     0.127 S 
ATOM     91  O   UNL A   1      44.005  24.901  37.749  1.00  0.00    -0.237 OA
ATOM     92  O   UNL A   1      44.199  23.533  35.710  1.00  0.00    -0.237 OA
ATOM     93  O   UNL A   1      46.206  24.058  37.028  1.00  0.00    -0.744 OA
ENDBRANCH  87  90
ENDBRANCH  60  83
ENDBRANCH  34  35
ENDBRANCH  26  29
ENDBRANCH  24  25
ENDBRANCH  23  24
ENDBRANCH  22  23
ENDBRANCH   1  22
TORSDOF 20
ENDMDL
MODEL 2
REMARK VINA RESULT:     -10.1      1.759      2.204
REMARK SMILES CCOc1ccc2c(c1)=N[C@H](SCC(=O)NCCCCCCNC(=O)c1ccc(-c3c4nc(c(-c5cccc(S(=O)(=O)[O-])c5F)c5ccc([nH]5)c(-c5cccc(S(=O)(=O)[O-])c5F)c5nc(c(-c6cccc(S(=O)(=O)[O-])c6F)c6ccc3[nH]6)C=C5)C=C4)cc1)N=2
REMARK SMILES IDX 19 1 18 2 17 3 16 4 14 5 15 6 13 8 12 9 11 10 4 11 5 12 9 13
REMARK SMILES IDX 6 14 8 15 7 16 10 17 89 18 3 19 2 20 1 21 20 22 21 23 22 24
REMARK SMILES IDX 23 25 24 26 25 28 26 29 27 30 88 31 28 32 87 33 29 34 30 35
REMARK SMILES IDX 31 36 81 37 32 38 86 39 80 40 82 41 33 42 85 43 79 44 78 45
REMARK SMILES IDX 34 47 66 48 46 49 65 50 47 51 50 52 64 53 83 54 48 55 49 56
REMARK SMILES IDX 63 58 84 59 51 60 35 61 36 62 44 63 37 64 39 65 45 66 38 67
REMARK SMILES IDX 40 68 41 69 42 70 43 71 67 72 68 73 76 74 69 75 71 76 77 77
REMARK SMILES IDX 70 78 72 79 73 80 74 81 75 82 52 83 53 84 61 85 54 86 56 87
REMARK SMILES IDX 62 88 55 89 57 90 58 91 59 92 60 93
REMARK H PARENT 16 7 23 27 82 46 50 57
REMARK Flexibility Score: inf
ROOT
ATOM      1  C   UNL A   1      32.310  29.482  26.621  1.00  0.00     0.002 C 
ENDROOT
BRANCH   1   2
ATOM      2  C   UNL A   1      31.777  28.126  27.102  1.00  0.00     0.021 C 
BRANCH   2   3
ATOM      3  C   UNL A   1      31.761  27.038  26.023  1.00  0.00     0.116 C 
BRANCH   3   4
ATOM      4  N   UNL A   1      31.233  27.557  24.773  1.00  0.00    -0.355 N 
ATOM      5  C   UNL A   1      31.471  27.143  23.495  1.00  0.00     0.230 C 
ATOM      6  O   UNL A   1      31.020  27.824  22.570  1.00  0.00    -0.274 OA
ATOM      7  H   UNL A   1      30.614  28.318  24.860  1.00  0.00     0.163 HD
BRANCH   5   8
ATOM      8  C   UNL A   1      32.202  25.840  23.224  1.00  0.00     0.173 C 
BRANCH   8   9
ATOM      9  S   UNL A   1      31.151  24.374  23.382  1.00  0.00    -0.102 SA
BRANCH   9  10
ATOM     10  C   UNL A   1      32.228  23.125  22.567  1.00  0.00     0.281 C 
ATOM     11  C   UNL A   1      35.685  21.444  24.892  1.00  0.00     0.121 A 
ATOM     12  C   UNL A   1      34.690  20.421  25.162  1.00  0.00     0.049 A 
ATOM     13  C   UNL A   1      35.450  22.501  24.102  1.00  0.00     0.076 A 
ATOM     14  C   UNL A   1      33.469  20.412  24.609  1.00  0.00     0.034 A 
ATOM     15  C   UNL A   1      34.124  22.595  23.490  1.00  0.00     0.090 A 
ATOM     16  C   UNL A   1      33.122  21.542  23.746  1.00  0.00     0.087 A 
ATOM     17  N   UNL A   1      33.664  23.509  22.711  1.00  0.00    -0.246 NA
ATOM     18  N   UNL A   1      32.011  21.767  23.139  1.00  0.00    -0.246 NA
BRANCH  11  19
ATOM     19  O   UNL A   1      36.844  21.353  25.628  1.00  0.00    -0.494 OA
BRANCH  19  20
ATOM     20  C   UNL A   1      37.881  22.234  25.185  1.00  0.00     0.226 C 
ATOM     21  C   UNL A   1      38.242  23.216  26.286  1.00  0.00     0.049 C 
ENDBRANCH  19  20
ENDBRANCH  11  19
ENDBRANCH   9  10
ENDBRANCH   8   9
ENDBRANCH   5   8
ENDBRANCH   3   4
ENDBRANCH   2   3
ENDBRANCH   1   2
BRANCH   1  22
ATOM     22  C   UNL A   1      31.427  30.690  26.952  1.00  0.00     0.002 C 
BRANCH  22  23
ATOM     23  C   UNL A   1      31.985  32.045  26.517  1.00  0.00     0.021 C 
BRANCH  23  24
ATOM     24  C   UNL A   1      32.908  32.713  27.528  1.00  0.00     0.116 C 
BRANCH  24  25
ATOM     25  N   UNL A   1      32.527  34.089  27.814  1.00  0.00    -0.352 N 
ATOM     26  C   UNL A   1      33.050  34.950  28.751  1.00  0.00     0.251 C 
ATOM     27  H   UNL A   1      31.798  34.452  27.261  1.00  0.00     0.163 HD
ATOM     28  O   UNL A   1      32.517  36.037  28.958  1.00  0.00    -0.269 OA
BRANCH  26  29
ATOM     29  C   UNL A   1      34.236  34.535  29.532  1.00  0.00     0.039 A 
ATOM     30  C   UNL A   1      35.521  34.724  29.018  1.00  0.00     0.014 A 
ATOM     31  C   UNL A   1      34.056  33.899  30.763  1.00  0.00     0.014 A 
ATOM     32  C   UNL A   1      36.609  34.130  29.651  1.00  0.00     0.010 A 
ATOM     33  C   UNL A   1      35.161  33.369  31.436  1.00  0.00     0.010 A 
ATOM     34  C   UNL A   1      36.440  33.431  30.858  1.00  0.00    -0.014 A 
BRANCH  34  35
ATOM     35  C   UNL A   1      37.610  32.764  31.486  1.00  0.00     0.031 A 
ATOM     36  C   UNL A   1      38.090  33.170  32.856  1.00  0.00     0.074 A 
ATOM     37  C   UNL A   1      38.216  31.749  30.838  1.00  0.00     0.049 A 
ATOM     38  N   UNL A   1      39.071  32.668  33.563  1.00  0.00    -0.248 NA
ATOM     39  C   UNL A   1      37.385  34.280  33.520  1.00  0.00     0.031 C 
ATOM     40  C   UNL A   1      37.856  31.271  29.502  1.00  0.00     0.029 A 
ATOM     41  N   UNL A   1      39.245  30.927  31.219  1.00  0.00    -0.354 N 
ATOM     42  C   UNL A   1      39.128  33.422  34.728  1.00  0.00     0.074 A 
ATOM     43  C   UNL A   1      38.084  34.419  34.639  1.00  0.00     0.031 C 
ATOM     44  C   UNL A   1      38.621  30.214  29.192  1.00  0.00     0.029 A 
ATOM     45  C   UNL A   1      39.555  29.966  30.286  1.00  0.00     0.049 A 
ATOM     46  H   UNL A   1      39.717  31.016  32.078  1.00  0.00     0.167 HD
ATOM     47  C   UNL A   1      39.958  33.281  35.789  1.00  0.00     0.034 A 
ATOM     48  C   UNL A   1      40.485  28.992  30.304  1.00  0.00     0.034 A 
ATOM     49  C   UNL A   1      40.952  32.251  35.911  1.00  0.00     0.049 A 
ATOM     50  C   UNL A   1      41.377  28.845  31.502  1.00  0.00     0.074 A 
ATOM     51  C   UNL A   1      41.804  32.005  36.975  1.00  0.00     0.029 A 
ATOM     52  N   UNL A   1      41.223  31.293  34.950  1.00  0.00    -0.354 N 
ATOM     53  N   UNL A   1      41.361  29.521  32.624  1.00  0.00    -0.248 NA
ATOM     54  C   UNL A   1      42.407  27.797  31.443  1.00  0.00     0.031 C 
ATOM     55  C   UNL A   1      42.590  30.894  36.656  1.00  0.00     0.029 A 
ATOM     56  C   UNL A   1      42.229  30.451  35.395  1.00  0.00     0.049 A 
ATOM     57  H   UNL A   1      40.770  31.220  34.079  1.00  0.00     0.167 HD
ATOM     58  C   UNL A   1      42.368  28.976  33.409  1.00  0.00     0.074 A 
ATOM     59  C   UNL A   1      42.962  27.899  32.645  1.00  0.00     0.031 C 
ATOM     60  C   UNL A   1      42.777  29.352  34.645  1.00  0.00     0.034 A 
BRANCH  47  61
ATOM     61  C   UNL A   1      39.798  34.226  36.948  1.00  0.00     0.023 A 
ATOM     62  C   UNL A   1      40.114  35.587  36.769  1.00  0.00     0.012 A 
ATOM     63  C   UNL A   1      39.230  33.797  38.163  1.00  0.00     0.148 A 
ATOM     64  C   UNL A   1      39.870  36.509  37.785  1.00  0.00     0.002 A 
ATOM     65  C   UNL A   1      38.966  34.726  39.162  1.00  0.00     0.091 A 
ATOM     66  F   UNL A   1      38.948  32.494  38.309  1.00  0.00    -0.205 F 
ATOM     67  C   UNL A   1      39.288  36.082  38.976  1.00  0.00     0.022 A 
BRANCH  65  68
ATOM     68  S   UNL A   1      38.169  34.292  40.712  1.00  0.00     0.127 S 
ATOM     69  O   UNL A   1      37.850  35.612  41.258  1.00  0.00    -0.237 OA
ATOM     70  O   UNL A   1      37.010  33.526  40.257  1.00  0.00    -0.237 OA
ATOM     71  O   UNL A   1      39.148  33.528  41.471  1.00  0.00    -0.744 OA
ENDBRANCH  65  68
ENDBRANCH  47  61
BRANCH  48  72
ATOM     72  C   UNL A   1      40.569  28.045  29.159  1.00  0.00     0.023 A 
ATOM     73  C   UNL A   1      39.646  26.985  29.078  1.00  0.00     0.012 A 
ATOM     74  C   UNL A   1      41.497  28.237  28.118  1.00  0.00     0.148 A 
ATOM     75  C   UNL A   1      39.650  26.127  27.977  1.00  0.00     0.002 A 
ATOM     76  C   UNL A   1      41.466  27.407  27.006  1.00  0.00     0.091 A 
ATOM     77  F   UNL A   1      42.371  29.248  28.228  1.00  0.00    -0.205 F 
ATOM     78  C   UNL A   1      40.550  26.346  26.937  1.00  0.00     0.022 A 
BRANCH  76  79
ATOM     79  S   UNL A   1      42.504  27.683  25.566  1.00  0.00     0.127 S 
ATOM     80  O   UNL A   1      41.991  28.955  25.066  1.00  0.00    -0.237 OA
ATOM     81  O   UNL A   1      43.838  27.748  26.165  1.00  0.00    -0.237 OA
ATOM     82  O   UNL A   1      42.290  26.532  24.699  1.00  0.00    -0.744 OA
ENDBRANCH  76  79
ENDBRANCH  48  72
BRANCH  60  83
ATOM     83  C   UNL A   1      43.923  28.606  35.266  1.00  0.00     0.023 A 
ATOM     84  C   UNL A   1      45.240  29.021  34.989  1.00  0.00     0.012 A 
ATOM     85  C   UNL A   1      43.696  27.587  36.211  1.00  0.00     0.148 A 
ATOM     86  C   UNL A   1      46.318  28.427  35.640  1.00  0.00     0.002 A 
ATOM     87  C   UNL A   1      44.775  27.021  36.880  1.00  0.00     0.091 A 
ATOM     88  F   UNL A   1      42.432  27.207  36.449  1.00  0.00    -0.205 F 
ATOM     89  C   UNL A   1      46.085  27.437  36.593  1.00  0.00     0.022 A 
BRANCH  87  90
ATOM     90  S   UNL A   1      44.574  25.792  38.175  1.00  0.00     0.127 S 
ATOM     91  O   UNL A   1      43.920  24.702  37.450  1.00  0.00    -0.237 OA
ATOM     92  O   UNL A   1      45.959  25.523  38.562  1.00  0.00    -0.237 OA
ATOM     93  O   UNL A   1      43.765  26.423  39.208  1.00  0.00    -0.744 OA
ENDBRANCH  87  90
ENDBRANCH  60  83
ENDBRANCH  34  35
ENDBRANCH  26  29
ENDBRANCH  24  25
ENDBRANCH  23  24
ENDBRANCH  22  23
ENDBRANCH   1  22
TORSDOF 20
ENDMDL
MODEL 3
REMARK VINA RESULT:     -10.1      2.299      3.203
REMARK SMILES CCOc1ccc2c(c1)=N[C@H](SCC(=O)NCCCCCCNC(=O)c1ccc(-c3c4nc(c(-c5cccc(S(=O)(=O)[O-])c5F)c5ccc([nH]5)c(-c5cccc(S(=O)(=O)[O-])c5F)c5nc(c(-c6cccc(S(=O)(=O)[O-])c6F)c6ccc3[nH]6)C=C5)C=C4)cc1)N=2
REMARK SMILES IDX 19 1 18 2 17 3 16 4 14 5 15 6 13 8 12 9 11 10 4 11 5 12 9 13
REMARK SMILES IDX 6 14 8 15 7 16 10 17 89 18 3 19 2 20 1 21 20 22 21 23 22 24
REMARK SMILES IDX 23 25 24 26 25 28 26 29 27 30 88 31 28 32 87 33 29 34 30 35
REMARK SMILES IDX 31 36 81 37 32 38 86 39 80 40 82 41 33 42 85 43 79 44 78 45
REMARK SMILES IDX 34 47 66 48 46 49 65 50 47 51 50 52 64 53 83 54 48 55 49 56
REMARK SMILES IDX 63 58 84 59 51 60 35 61 36 62 44 63 37 64 39 65 45 66 38 67
REMARK SMILES IDX 40 68 41 69 42 70 43 71 67 72 68 73 76 74 69 75 71 76 77 77
REMARK SMILES IDX 70 78 72 79 73 80 74 81 75 82 52 83 53 84 61 85 54 86 56 87
REMARK SMILES IDX 62 88 55 89 57 90 58 91 59 92 60 93
REMARK H PARENT 16 7 23 27 82 46 50 57
REMARK Flexibility Score: inf
ROOT
ATOM      1  C   UNL A   1      34.206  32.062  28.469  1.00  0.00     0.002 C 
ENDROOT
BRANCH   1   2
ATOM      2  C   UNL A   1      35.327  31.170  27.919  1.00  0.00     0.021 C 
BRANCH   2   3
ATOM      3  C   UNL A   1      34.873  29.761  27.526  1.00  0.00     0.116 C 
BRANCH   3   4
ATOM      4  N   UNL A   1      34.482  29.714  26.127  1.00  0.00    -0.355 N 
ATOM      5  C   UNL A   1      33.261  29.454  25.578  1.00  0.00     0.230 C 
ATOM      6  O   UNL A   1      33.191  29.328  24.352  1.00  0.00    -0.274 OA
ATOM      7  H   UNL A   1      35.204  29.896  25.482  1.00  0.00     0.163 HD
BRANCH   5   8
ATOM      8  C   UNL A   1      32.016  29.398  26.444  1.00  0.00     0.173 C 
BRANCH   8   9
ATOM      9  S   UNL A   1      31.766  27.796  27.250  1.00  0.00    -0.102 SA
BRANCH   9  10
ATOM     10  C   UNL A   1      31.023  26.854  25.855  1.00  0.00     0.281 C 
ATOM     11  C   UNL A   1      32.050  22.501  25.434  1.00  0.00     0.121 A 
ATOM     12  C   UNL A   1      30.809  22.387  26.181  1.00  0.00     0.049 A 
ATOM     13  C   UNL A   1      32.557  23.676  25.036  1.00  0.00     0.076 A 
ATOM     14  C   UNL A   1      30.037  23.436  26.495  1.00  0.00     0.034 A 
ATOM     15  C   UNL A   1      31.799  24.880  25.377  1.00  0.00     0.090 A 
ATOM     16  C   UNL A   1      30.527  24.761  26.115  1.00  0.00     0.087 A 
ATOM     17  N   UNL A   1      32.083  26.107  25.115  1.00  0.00    -0.246 NA
ATOM     18  N   UNL A   1      29.982  25.905  26.337  1.00  0.00    -0.246 NA
BRANCH  11  19
ATOM     19  O   UNL A   1      32.767  21.335  25.294  1.00  0.00    -0.494 OA
BRANCH  19  20
ATOM     20  C   UNL A   1      32.839  20.859  23.946  1.00  0.00     0.226 C 
ATOM     21  C   UNL A   1      32.603  19.359  23.906  1.00  0.00     0.049 C 
ENDBRANCH  19  20
ENDBRANCH  11  19
ENDBRANCH   9  10
ENDBRANCH   8   9
ENDBRANCH   5   8
ENDBRANCH   3   4
ENDBRANCH   2   3
ENDBRANCH   1   2
BRANCH   1  22
ATOM     22  C   UNL A   1      34.286  33.539  28.068  1.00  0.00     0.002 C 
BRANCH  22  23
ATOM     23  C   UNL A   1      33.019  34.354  28.326  1.00  0.00     0.021 C 
BRANCH  23  24
ATOM     24  C   UNL A   1      33.253  35.723  28.953  1.00  0.00     0.116 C 
BRANCH  24  25
ATOM     25  N   UNL A   1      32.527  35.902  30.202  1.00  0.00    -0.352 N 
ATOM     26  C   UNL A   1      32.793  35.358  31.437  1.00  0.00     0.251 C 
ATOM     27  H   UNL A   1      31.739  36.491  30.155  1.00  0.00     0.163 HD
ATOM     28  O   UNL A   1      31.995  35.499  32.360  1.00  0.00    -0.269 OA
BRANCH  26  29
ATOM     29  C   UNL A   1      34.031  34.571  31.628  1.00  0.00     0.039 A 
ATOM     30  C   UNL A   1      33.974  33.290  32.182  1.00  0.00     0.014 A 
ATOM     31  C   UNL A   1      35.263  35.144  31.304  1.00  0.00     0.014 A 
ATOM     32  C   UNL A   1      35.152  32.654  32.565  1.00  0.00     0.010 A 
ATOM     33  C   UNL A   1      36.446  34.468  31.621  1.00  0.00     0.010 A 
ATOM     34  C   UNL A   1      36.400  33.242  32.305  1.00  0.00    -0.014 A 
BRANCH  34  35
ATOM     35  C   UNL A   1      37.638  32.565  32.770  1.00  0.00     0.031 A 
ATOM     36  C   UNL A   1      38.265  32.923  34.093  1.00  0.00     0.074 A 
ATOM     37  C   UNL A   1      38.176  31.584  32.019  1.00  0.00     0.049 A 
ATOM     38  N   UNL A   1      39.323  32.406  34.666  1.00  0.00    -0.248 NA
ATOM     39  C   UNL A   1      37.630  33.998  34.876  1.00  0.00     0.031 C 
ATOM     40  C   UNL A   1      37.673  31.155  30.713  1.00  0.00     0.029 A 
ATOM     41  N   UNL A   1      39.247  30.760  32.249  1.00  0.00    -0.354 N 
ATOM     42  C   UNL A   1      39.504  33.115  35.847  1.00  0.00     0.074 A 
ATOM     43  C   UNL A   1      38.449  34.102  35.916  1.00  0.00     0.031 C 
ATOM     44  C   UNL A   1      38.406  30.120  30.277  1.00  0.00     0.029 A 
ATOM     45  C   UNL A   1      39.458  29.841  31.249  1.00  0.00     0.049 A 
ATOM     46  H   UNL A   1      39.812  30.822  33.053  1.00  0.00     0.167 HD
ATOM     47  C   UNL A   1      40.449  32.943  36.802  1.00  0.00     0.034 A 
ATOM     48  C   UNL A   1      40.393  28.879  31.124  1.00  0.00     0.034 A 
ATOM     49  C   UNL A   1      41.459  31.921  36.770  1.00  0.00     0.049 A 
ATOM     50  C   UNL A   1      41.415  28.696  32.208  1.00  0.00     0.074 A 
ATOM     51  C   UNL A   1      42.426  31.644  37.722  1.00  0.00     0.029 A 
ATOM     52  N   UNL A   1      41.629  31.005  35.747  1.00  0.00    -0.354 N 
ATOM     53  N   UNL A   1      41.519  29.327  33.351  1.00  0.00    -0.248 NA
ATOM     54  C   UNL A   1      42.439  27.664  31.993  1.00  0.00     0.031 C 
ATOM     55  C   UNL A   1      43.181  30.557  37.273  1.00  0.00     0.029 A 
ATOM     56  C   UNL A   1      42.684  30.159  36.043  1.00  0.00     0.049 A 
ATOM     57  H   UNL A   1      41.081  30.961  34.930  1.00  0.00     0.167 HD
ATOM     58  C   UNL A   1      42.612  28.765  33.996  1.00  0.00     0.074 A 
ATOM     59  C   UNL A   1      43.125  27.726  33.128  1.00  0.00     0.031 C 
ATOM     60  C   UNL A   1      43.154  29.097  35.193  1.00  0.00     0.034 A 
BRANCH  47  61
ATOM     61  C   UNL A   1      40.412  33.839  38.008  1.00  0.00     0.023 A 
ATOM     62  C   UNL A   1      41.198  35.008  38.016  1.00  0.00     0.012 A 
ATOM     63  C   UNL A   1      39.522  33.592  39.071  1.00  0.00     0.148 A 
ATOM     64  C   UNL A   1      41.103  35.919  39.067  1.00  0.00     0.002 A 
ATOM     65  C   UNL A   1      39.413  34.517  40.103  1.00  0.00     0.091 A 
ATOM     66  F   UNL A   1      38.793  32.467  39.043  1.00  0.00    -0.205 F 
ATOM     67  C   UNL A   1      40.205  35.679  40.104  1.00  0.00     0.022 A 
BRANCH  65  68
ATOM     68  S   UNL A   1      38.249  34.333  41.459  1.00  0.00     0.127 S 
ATOM     69  O   UNL A   1      39.118  33.843  42.528  1.00  0.00    -0.237 OA
ATOM     70  O   UNL A   1      37.773  35.704  41.641  1.00  0.00    -0.237 OA
ATOM     71  O   UNL A   1      37.239  33.390  41.001  1.00  0.00    -0.744 OA
ENDBRANCH  65  68
ENDBRANCH  47  61
BRANCH  48  72
ATOM     72  C   UNL A   1      40.355  27.979  29.939  1.00  0.00     0.023 A 
ATOM     73  C   UNL A   1      39.396  26.950  29.891  1.00  0.00     0.012 A 
ATOM     74  C   UNL A   1      41.204  28.188  28.835  1.00  0.00     0.148 A 
ATOM     75  C   UNL A   1      39.286  26.138  28.761  1.00  0.00     0.002 A 
ATOM     76  C   UNL A   1      41.058  27.406  27.697  1.00  0.00     0.091 A 
ATOM     77  F   UNL A   1      42.114  29.168  28.914  1.00  0.00    -0.205 F 
ATOM     78  C   UNL A   1      40.107  26.375  27.661  1.00  0.00     0.022 A 
BRANCH  76  79
ATOM     79  S   UNL A   1      41.986  27.712  26.191  1.00  0.00     0.127 S 
ATOM     80  O   UNL A   1      41.518  26.631  25.327  1.00  0.00    -0.237 OA
ATOM     81  O   UNL A   1      41.520  29.047  25.815  1.00  0.00    -0.237 OA
ATOM     82  O   UNL A   1      43.391  27.650  26.573  1.00  0.00    -0.744 OA
ENDBRANCH  76  79
ENDBRANCH  48  72
BRANCH  60  83
ATOM     83  C   UNL A   1      44.368  28.342  35.651  1.00  0.00     0.023 A 
ATOM     84  C   UNL A   1      45.643  28.794  35.262  1.00  0.00     0.012 A 
ATOM     85  C   UNL A   1      44.254  27.271  36.559  1.00  0.00     0.148 A 
ATOM     86  C   UNL A   1      46.791  28.188  35.766  1.00  0.00     0.002 A 
ATOM     87  C   UNL A   1      45.404  26.691  37.082  1.00  0.00     0.091 A 
ATOM     88  F   UNL A   1      43.027  26.856  36.906  1.00  0.00    -0.205 F 
ATOM     89  C   UNL A   1      46.672  27.146  36.684  1.00  0.00     0.022 A 
BRANCH  87  90
ATOM     90  S   UNL A   1      45.356  25.394  38.323  1.00  0.00     0.127 S 
ATOM     91  O   UNL A   1      46.777  25.207  38.613  1.00  0.00    -0.237 OA
ATOM     92  O   UNL A   1      44.591  26.024  39.399  1.00  0.00    -0.237 OA
ATOM     93  O   UNL A   1      44.696  24.258  37.694  1.00  0.00    -0.744 OA
ENDBRANCH  87  90
ENDBRANCH  60  83
ENDBRANCH  34  35
ENDBRANCH  26  29
ENDBRANCH  24  25
ENDBRANCH  23  24
ENDBRANCH  22  23
ENDBRANCH   1  22
TORSDOF 20
ENDMDL
