MODEL 1
REMARK VINA RESULT:     -11.2      0.000      0.000
REMARK SMILES C#CC[C@]1(C(=O)NCCCCCCNC(=O)c2ccc(-c3c4nc(c(-c5cccc(S(=O)(=O)[O-])c5F)c5ccc([nH]5)c(-c5cccc(S(=O)(=O)[O-])c5F)c5nc(c(-c6cccc(S(=O)(=O)[O-])c6F)c6ccc3[nH]6)C=C5)C=C4)cc2)CCCN(C(=O)OC(C)(C)C)C1
REMARK SMILES IDX 10 1 9 2 8 3 7 4 5 5 6 6 4 8 80 9 91 10 81 11 83 12 82 13
REMARK SMILES IDX 3 14 2 15 1 16 84 17 85 18 86 19 87 20 88 21 89 22 90 23
REMARK SMILES IDX 11 24 12 25 13 26 14 27 15 28 16 30 17 31 18 32 79 33 19 34
REMARK SMILES IDX 78 35 20 36 21 37 22 38 72 39 23 40 77 41 71 42 73 43 24 44
REMARK SMILES IDX 76 45 70 46 69 47 25 49 57 50 37 51 56 52 38 53 41 54 55 55
REMARK SMILES IDX 74 56 39 57 40 58 54 60 75 61 42 62 26 63 27 64 35 65 28 66
REMARK SMILES IDX 30 67 36 68 29 69 31 70 32 71 33 72 34 73 58 74 59 75 67 76
REMARK SMILES IDX 60 77 62 78 68 79 61 80 63 81 64 82 65 83 66 84 43 85 44 86
REMARK SMILES IDX 52 87 45 88 47 89 53 90 46 91 48 92 49 93 50 94 51 95
REMARK H PARENT 7 7 14 29 73 48 41 59
REMARK Flexibility Score: inf
ROOT
ATOM      1  C   UNL A   1      33.274  22.846  25.103  1.00  0.00     0.002 C 
ENDROOT
BRANCH   1   2
ATOM      2  C   UNL A   1      33.767  23.936  26.062  1.00  0.00     0.021 C 
BRANCH   2   3
ATOM      3  C   UNL A   1      34.321  25.164  25.351  1.00  0.00     0.116 C 
BRANCH   3   4
ATOM      4  N   UNL A   1      33.882  26.373  26.011  1.00  0.00    -0.356 N 
ATOM      5  C   UNL A   1      32.870  27.242  25.767  1.00  0.00     0.228 C 
ATOM      6  O   UNL A   1      32.691  28.072  26.663  1.00  0.00    -0.274 OA
ATOM      7  H   UNL A   1      34.427  26.613  26.795  1.00  0.00     0.163 HD
BRANCH   5   8
ATOM      8  C   UNL A   1      31.926  27.094  24.554  1.00  0.00     0.078 C 
ATOM      9  C   UNL A   1      31.089  25.788  24.503  1.00  0.00     0.021 C 
ATOM     10  C   UNL A   1      31.029  28.346  24.660  1.00  0.00     0.141 C 
ATOM     11  C   UNL A   1      29.851  25.886  23.585  1.00  0.00     0.023 C 
ATOM     12  N   UNL A   1      29.977  28.334  23.668  1.00  0.00    -0.307 N 
ATOM     13  C   UNL A   1      29.073  27.196  23.736  1.00  0.00     0.123 C 
BRANCH   8  14
ATOM     14  C   UNL A   1      32.686  27.177  23.202  1.00  0.00     0.108 C 
BRANCH  14  15
ATOM     15  C   UNL A   1      32.895  25.847  22.496  1.00  0.00    -0.106 C 
ATOM     16  C   UNL A   1      33.074  24.706  21.891  1.00  0.00     0.004 C 
ENDBRANCH  14  15
ENDBRANCH   8  14
BRANCH  12  17
ATOM     17  C   UNL A   1      29.910  29.378  22.767  1.00  0.00     0.410 C 
ATOM     18  O   UNL A   1      30.141  29.237  21.571  1.00  0.00    -0.224 OA
BRANCH  17  19
ATOM     19  O   UNL A   1      29.545  30.551  23.337  1.00  0.00    -0.444 OA
BRANCH  19  20
ATOM     20  C   UNL A   1      28.478  31.328  22.736  1.00  0.00     0.106 C 
ATOM     21  C   UNL A   1      28.875  32.802  22.571  1.00  0.00     0.056 C 
ATOM     22  C   UNL A   1      28.012  30.708  21.410  1.00  0.00     0.056 C 
ATOM     23  C   UNL A   1      27.321  31.246  23.741  1.00  0.00     0.056 C 
ENDBRANCH  19  20
ENDBRANCH  17  19
ENDBRANCH  12  17
ENDBRANCH   5   8
ENDBRANCH   3   4
ENDBRANCH   2   3
ENDBRANCH   1   2
BRANCH   1  24
ATOM     24  C   UNL A   1      34.328  21.801  24.724  1.00  0.00     0.002 C 
BRANCH  24  25
ATOM     25  C   UNL A   1      35.440  21.606  25.758  1.00  0.00     0.021 C 
BRANCH  25  26
ATOM     26  C   UNL A   1      36.838  21.898  25.233  1.00  0.00     0.116 C 
BRANCH  26  27
ATOM     27  N   UNL A   1      37.770  20.834  25.564  1.00  0.00    -0.352 N 
ATOM     28  C   UNL A   1      39.062  20.936  26.011  1.00  0.00     0.251 C 
ATOM     29  H   UNL A   1      37.428  19.918  25.453  1.00  0.00     0.163 HD
ATOM     30  O   UNL A   1      39.786  19.945  26.039  1.00  0.00    -0.269 OA
BRANCH  28  31
ATOM     31  C   UNL A   1      39.580  22.252  26.440  1.00  0.00     0.039 A 
ATOM     32  C   UNL A   1      40.648  22.299  27.337  1.00  0.00     0.014 A 
ATOM     33  C   UNL A   1      39.019  23.433  25.945  1.00  0.00     0.014 A 
ATOM     34  C   UNL A   1      41.185  23.534  27.701  1.00  0.00     0.010 A 
ATOM     35  C   UNL A   1      39.609  24.656  26.245  1.00  0.00     0.010 A 
ATOM     36  C   UNL A   1      40.691  24.721  27.135  1.00  0.00    -0.014 A 
BRANCH  36  37
ATOM     37  C   UNL A   1      41.294  26.037  27.461  1.00  0.00     0.031 A 
ATOM     38  C   UNL A   1      42.697  26.360  27.021  1.00  0.00     0.074 A 
ATOM     39  C   UNL A   1      40.606  26.914  28.220  1.00  0.00     0.049 A 
ATOM     40  N   UNL A   1      43.406  27.433  27.251  1.00  0.00    -0.248 NA
ATOM     41  C   UNL A   1      43.407  25.330  26.243  1.00  0.00     0.031 C 
ATOM     42  C   UNL A   1      39.268  26.689  28.770  1.00  0.00     0.029 A 
ATOM     43  N   UNL A   1      40.947  28.163  28.678  1.00  0.00    -0.354 N 
ATOM     44  C   UNL A   1      44.650  27.198  26.677  1.00  0.00     0.074 A 
ATOM     45  C   UNL A   1      44.613  25.863  26.122  1.00  0.00     0.031 C 
ATOM     46  C   UNL A   1      38.898  27.764  29.484  1.00  0.00     0.029 A 
ATOM     47  C   UNL A   1      39.984  28.740  29.473  1.00  0.00     0.049 A 
ATOM     48  H   UNL A   1      41.800  28.603  28.460  1.00  0.00     0.167 HD
ATOM     49  C   UNL A   1      45.717  28.028  26.595  1.00  0.00     0.034 A 
ATOM     50  C   UNL A   1      39.979  29.917  30.128  1.00  0.00     0.034 A 
ATOM     51  C   UNL A   1      45.738  29.366  27.119  1.00  0.00     0.049 A 
ATOM     52  C   UNL A   1      41.170  30.828  30.002  1.00  0.00     0.074 A 
ATOM     53  C   UNL A   1      46.740  30.314  27.015  1.00  0.00     0.029 A 
ATOM     54  N   UNL A   1      44.716  29.944  27.857  1.00  0.00    -0.354 N 
ATOM     55  N   UNL A   1      42.279  30.647  29.327  1.00  0.00    -0.248 NA
ATOM     56  C   UNL A   1      41.094  32.122  30.695  1.00  0.00     0.031 C 
ATOM     57  C   UNL A   1      46.340  31.452  27.722  1.00  0.00     0.029 A 
ATOM     58  C   UNL A   1      45.069  31.229  28.229  1.00  0.00     0.049 A 
ATOM     59  H   UNL A   1      43.865  29.504  28.084  1.00  0.00     0.167 HD
ATOM     60  C   UNL A   1      43.015  31.817  29.482  1.00  0.00     0.074 A 
ATOM     61  C   UNL A   1      42.216  32.707  30.299  1.00  0.00     0.031 C 
ATOM     62  C   UNL A   1      44.245  32.124  29.001  1.00  0.00     0.034 A 
BRANCH  49  63
ATOM     63  C   UNL A   1      46.942  27.524  25.873  1.00  0.00     0.023 A 
ATOM     64  C   UNL A   1      47.862  26.696  26.551  1.00  0.00     0.012 A 
ATOM     65  C   UNL A   1      47.151  27.819  24.512  1.00  0.00     0.148 A 
ATOM     66  C   UNL A   1      48.990  26.203  25.897  1.00  0.00     0.002 A 
ATOM     67  C   UNL A   1      48.252  27.284  23.854  1.00  0.00     0.091 A 
ATOM     68  F   UNL A   1      46.277  28.622  23.890  1.00  0.00    -0.205 F 
ATOM     69  C   UNL A   1      49.179  26.487  24.548  1.00  0.00     0.022 A 
BRANCH  67  70
ATOM     70  S   UNL A   1      48.542  27.520  22.098  1.00  0.00     0.127 S 
ATOM     71  O   UNL A   1      48.875  26.162  21.669  1.00  0.00    -0.237 OA
ATOM     72  O   UNL A   1      47.243  28.005  21.634  1.00  0.00    -0.237 OA
ATOM     73  O   UNL A   1      49.626  28.489  21.995  1.00  0.00    -0.744 OA
ENDBRANCH  67  70
ENDBRANCH  49  63
BRANCH  50  74
ATOM     74  C   UNL A   1      38.786  30.324  30.923  1.00  0.00     0.023 A 
ATOM     75  C   UNL A   1      38.713  29.986  32.288  1.00  0.00     0.012 A 
ATOM     76  C   UNL A   1      37.736  31.058  30.339  1.00  0.00     0.148 A 
ATOM     77  C   UNL A   1      37.597  30.340  33.049  1.00  0.00     0.002 A 
ATOM     78  C   UNL A   1      36.655  31.457  31.116  1.00  0.00     0.091 A 
ATOM     79  F   UNL A   1      37.821  31.362  29.036  1.00  0.00    -0.205 F 
ATOM     80  C   UNL A   1      36.574  31.082  32.466  1.00  0.00     0.022 A 
BRANCH  78  81
ATOM     81  S   UNL A   1      35.356  32.524  30.484  1.00  0.00     0.127 S 
ATOM     82  O   UNL A   1      36.076  33.777  30.267  1.00  0.00    -0.237 OA
ATOM     83  O   UNL A   1      34.958  31.821  29.264  1.00  0.00    -0.237 OA
ATOM     84  O   UNL A   1      34.334  32.556  31.520  1.00  0.00    -0.744 OA
ENDBRANCH  78  81
ENDBRANCH  50  74
BRANCH  62  85
ATOM     85  C   UNL A   1      44.793  33.495  29.301  1.00  0.00     0.023 A 
ATOM     86  C   UNL A   1      45.573  33.708  30.455  1.00  0.00     0.012 A 
ATOM     87  C   UNL A   1      44.591  34.556  28.396  1.00  0.00     0.148 A 
ATOM     88  C   UNL A   1      46.114  34.966  30.721  1.00  0.00     0.002 A 
ATOM     89  C   UNL A   1      45.178  35.791  28.640  1.00  0.00     0.091 A 
ATOM     90  F   UNL A   1      43.831  34.336  27.313  1.00  0.00    -0.205 F 
ATOM     91  C   UNL A   1      45.927  36.002  29.809  1.00  0.00     0.022 A 
BRANCH  89  92
ATOM     92  S   UNL A   1      45.076  37.154  27.475  1.00  0.00     0.127 S 
ATOM     93  O   UNL A   1      45.522  38.279  28.294  1.00  0.00    -0.237 OA
ATOM     94  O   UNL A   1      46.022  36.743  26.436  1.00  0.00    -0.237 OA
ATOM     95  O   UNL A   1      43.687  37.210  27.040  1.00  0.00    -0.744 OA
ENDBRANCH  89  92
ENDBRANCH  62  85
ENDBRANCH  36  37
ENDBRANCH  28  31
ENDBRANCH  26  27
ENDBRANCH  25  26
ENDBRANCH  24  25
ENDBRANCH   1  24
TORSDOF 21
ENDMDL
MODEL 2
REMARK VINA RESULT:     -11.2      2.362      8.173
REMARK SMILES C#CC[C@]1(C(=O)NCCCCCCNC(=O)c2ccc(-c3c4nc(c(-c5cccc(S(=O)(=O)[O-])c5F)c5ccc([nH]5)c(-c5cccc(S(=O)(=O)[O-])c5F)c5nc(c(-c6cccc(S(=O)(=O)[O-])c6F)c6ccc3[nH]6)C=C5)C=C4)cc2)CCCN(C(=O)OC(C)(C)C)C1
REMARK SMILES IDX 10 1 9 2 8 3 7 4 5 5 6 6 4 8 80 9 91 10 81 11 83 12 82 13
REMARK SMILES IDX 3 14 2 15 1 16 84 17 85 18 86 19 87 20 88 21 89 22 90 23
REMARK SMILES IDX 11 24 12 25 13 26 14 27 15 28 16 30 17 31 18 32 79 33 19 34
REMARK SMILES IDX 78 35 20 36 21 37 22 38 72 39 23 40 77 41 71 42 73 43 24 44
REMARK SMILES IDX 76 45 70 46 69 47 25 49 57 50 37 51 56 52 38 53 41 54 55 55
REMARK SMILES IDX 74 56 39 57 40 58 54 60 75 61 42 62 26 63 27 64 35 65 28 66
REMARK SMILES IDX 30 67 36 68 29 69 31 70 32 71 33 72 34 73 58 74 59 75 67 76
REMARK SMILES IDX 60 77 62 78 68 79 61 80 63 81 64 82 65 83 66 84 43 85 44 86
REMARK SMILES IDX 52 87 45 88 47 89 53 90 46 91 48 92 49 93 50 94 51 95
REMARK H PARENT 7 7 14 29 73 48 41 59
REMARK Flexibility Score: inf
ROOT
ATOM      1  C   UNL A   1      37.390  21.825  24.510  1.00  0.00     0.002 C 
ENDROOT
BRANCH   1   2
ATOM      2  C   UNL A   1      36.322  22.619  23.749  1.00  0.00     0.021 C 
BRANCH   2   3
ATOM      3  C   UNL A   1      35.730  23.767  24.556  1.00  0.00     0.116 C 
BRANCH   3   4
ATOM      4  N   UNL A   1      35.498  23.359  25.923  1.00  0.00    -0.356 N 
ATOM      5  C   UNL A   1      34.370  23.099  26.630  1.00  0.00     0.228 C 
ATOM      6  O   UNL A   1      34.573  22.594  27.737  1.00  0.00    -0.274 OA
ATOM      7  H   UNL A   1      36.325  23.245  26.446  1.00  0.00     0.163 HD
BRANCH   5   8
ATOM      8  C   UNL A   1      32.958  23.270  26.026  1.00  0.00     0.078 C 
ATOM      9  C   UNL A   1      31.781  22.770  26.907  1.00  0.00     0.021 C 
ATOM     10  C   UNL A   1      32.875  24.790  25.767  1.00  0.00     0.141 C 
ATOM     11  C   UNL A   1      30.417  23.375  26.510  1.00  0.00     0.023 C 
ATOM     12  N   UNL A   1      31.562  25.182  25.307  1.00  0.00    -0.307 N 
ATOM     13  C   UNL A   1      30.469  24.878  26.220  1.00  0.00     0.123 C 
BRANCH   8  14
ATOM     14  C   UNL A   1      32.813  22.553  24.656  1.00  0.00     0.108 C 
BRANCH  14  15
ATOM     15  C   UNL A   1      32.847  21.035  24.715  1.00  0.00    -0.106 C 
ATOM     16  C   UNL A   1      32.877  19.732  24.766  1.00  0.00     0.004 C 
ENDBRANCH  14  15
ENDBRANCH   8  14
BRANCH  12  17
ATOM     17  C   UNL A   1      31.452  25.802  24.079  1.00  0.00     0.410 C 
ATOM     18  O   UNL A   1      30.496  25.629  23.331  1.00  0.00    -0.224 OA
BRANCH  17  19
ATOM     19  O   UNL A   1      32.490  26.628  23.805  1.00  0.00    -0.444 OA
BRANCH  19  20
ATOM     20  C   UNL A   1      32.312  28.061  23.948  1.00  0.00     0.106 C 
ATOM     21  C   UNL A   1      31.856  28.707  22.633  1.00  0.00     0.056 C 
ATOM     22  C   UNL A   1      31.364  28.394  25.110  1.00  0.00     0.056 C 
ATOM     23  C   UNL A   1      33.708  28.596  24.294  1.00  0.00     0.056 C 
ENDBRANCH  19  20
ENDBRANCH  17  19
ENDBRANCH  12  17
ENDBRANCH   5   8
ENDBRANCH   3   4
ENDBRANCH   2   3
ENDBRANCH   1   2
BRANCH   1  24
ATOM     24  C   UNL A   1      37.004  20.377  24.832  1.00  0.00     0.002 C 
BRANCH  24  25
ATOM     25  C   UNL A   1      38.186  19.442  25.100  1.00  0.00     0.021 C 
BRANCH  25  26
ATOM     26  C   UNL A   1      39.330  20.088  25.869  1.00  0.00     0.116 C 
BRANCH  26  27
ATOM     27  N   UNL A   1      40.460  19.187  26.011  1.00  0.00    -0.352 N 
ATOM     28  C   UNL A   1      41.786  19.495  26.175  1.00  0.00     0.251 C 
ATOM     29  H   UNL A   1      40.244  18.227  25.986  1.00  0.00     0.163 HD
ATOM     30  O   UNL A   1      42.641  18.622  26.065  1.00  0.00    -0.269 OA
BRANCH  28  31
ATOM     31  C   UNL A   1      42.175  20.890  26.470  1.00  0.00     0.039 A 
ATOM     32  C   UNL A   1      42.416  21.260  27.794  1.00  0.00     0.014 A 
ATOM     33  C   UNL A   1      42.315  21.822  25.437  1.00  0.00     0.014 A 
ATOM     34  C   UNL A   1      42.845  22.558  28.077  1.00  0.00     0.010 A 
ATOM     35  C   UNL A   1      42.822  23.088  25.714  1.00  0.00     0.010 A 
ATOM     36  C   UNL A   1      43.081  23.473  27.037  1.00  0.00    -0.014 A 
BRANCH  36  37
ATOM     37  C   UNL A   1      43.600  24.835  27.317  1.00  0.00     0.031 A 
ATOM     38  C   UNL A   1      42.678  25.908  27.833  1.00  0.00     0.074 A 
ATOM     39  C   UNL A   1      44.885  25.128  27.034  1.00  0.00     0.049 A 
ATOM     40  N   UNL A   1      42.938  27.163  28.091  1.00  0.00    -0.248 NA
ATOM     41  C   UNL A   1      41.275  25.528  28.066  1.00  0.00     0.031 C 
ATOM     42  C   UNL A   1      45.858  24.196  26.460  1.00  0.00     0.029 A 
ATOM     43  N   UNL A   1      45.587  26.300  27.168  1.00  0.00    -0.354 N 
ATOM     44  C   UNL A   1      41.731  27.728  28.483  1.00  0.00     0.074 A 
ATOM     45  C   UNL A   1      40.728  26.690  28.392  1.00  0.00     0.031 C 
ATOM     46  C   UNL A   1      47.032  24.828  26.301  1.00  0.00     0.029 A 
ATOM     47  C   UNL A   1      46.887  26.217  26.724  1.00  0.00     0.049 A 
ATOM     48  H   UNL A   1      45.198  27.121  27.546  1.00  0.00     0.167 HD
ATOM     49  C   UNL A   1      41.483  28.991  28.907  1.00  0.00     0.034 A 
ATOM     50  C   UNL A   1      47.850  27.156  26.657  1.00  0.00     0.034 A 
ATOM     51  C   UNL A   1      42.488  30.011  29.027  1.00  0.00     0.049 A 
ATOM     52  C   UNL A   1      47.554  28.544  27.155  1.00  0.00     0.074 A 
ATOM     53  C   UNL A   1      42.355  31.295  29.524  1.00  0.00     0.029 A 
ATOM     54  N   UNL A   1      43.811  29.870  28.635  1.00  0.00    -0.354 N 
ATOM     55  N   UNL A   1      46.442  29.019  27.663  1.00  0.00    -0.248 NA
ATOM     56  C   UNL A   1      48.654  29.518  27.104  1.00  0.00     0.031 C 
ATOM     57  C   UNL A   1      43.587  31.943  29.398  1.00  0.00     0.029 A 
ATOM     58  C   UNL A   1      44.500  31.047  28.864  1.00  0.00     0.049 A 
ATOM     59  H   UNL A   1      44.202  29.052  28.251  1.00  0.00     0.167 HD
ATOM     60  C   UNL A   1      46.721  30.331  28.030  1.00  0.00     0.074 A 
ATOM     61  C   UNL A   1      48.111  30.570  27.701  1.00  0.00     0.031 C 
ATOM     62  C   UNL A   1      45.897  31.258  28.578  1.00  0.00     0.034 A 
BRANCH  49  63
ATOM     63  C   UNL A   1      40.070  29.328  29.314  1.00  0.00     0.023 A 
ATOM     64  C   UNL A   1      39.118  29.657  28.326  1.00  0.00     0.012 A 
ATOM     65  C   UNL A   1      39.672  29.262  30.663  1.00  0.00     0.148 A 
ATOM     66  C   UNL A   1      37.802  29.952  28.679  1.00  0.00     0.002 A 
ATOM     67  C   UNL A   1      38.347  29.510  31.001  1.00  0.00     0.091 A 
ATOM     68  F   UNL A   1      40.594  28.967  31.589  1.00  0.00    -0.205 F 
ATOM     69  C   UNL A   1      37.414  29.868  30.012  1.00  0.00     0.022 A 
BRANCH  67  70
ATOM     70  S   UNL A   1      37.726  29.347  32.678  1.00  0.00     0.127 S 
ATOM     71  O   UNL A   1      36.365  29.865  32.540  1.00  0.00    -0.237 OA
ATOM     72  O   UNL A   1      37.811  27.904  32.899  1.00  0.00    -0.237 OA
ATOM     73  O   UNL A   1      38.613  30.144  33.515  1.00  0.00    -0.744 OA
ENDBRANCH  67  70
ENDBRANCH  49  63
BRANCH  50  74
ATOM     74  C   UNL A   1      49.203  26.802  26.141  1.00  0.00     0.023 A 
ATOM     75  C   UNL A   1      50.063  26.015  26.932  1.00  0.00     0.012 A 
ATOM     76  C   UNL A   1      49.633  27.224  24.869  1.00  0.00     0.148 A 
ATOM     77  C   UNL A   1      51.342  25.685  26.480  1.00  0.00     0.002 A 
ATOM     78  C   UNL A   1      50.886  26.844  24.401  1.00  0.00     0.091 A 
ATOM     79  F   UNL A   1      48.804  27.980  24.136  1.00  0.00    -0.205 F 
ATOM     80  C   UNL A   1      51.749  26.091  25.212  1.00  0.00     0.022 A 
BRANCH  78  81
ATOM     81  S   UNL A   1      51.442  27.210  22.733  1.00  0.00     0.127 S 
ATOM     82  O   UNL A   1      52.624  26.359  22.618  1.00  0.00    -0.237 OA
ATOM     83  O   UNL A   1      50.294  26.785  21.933  1.00  0.00    -0.237 OA
ATOM     84  O   UNL A   1      51.694  28.645  22.708  1.00  0.00    -0.744 OA
ENDBRANCH  78  81
ENDBRANCH  50  74
BRANCH  62  85
ATOM     85  C   UNL A   1      46.481  32.607  28.906  1.00  0.00     0.023 A 
ATOM     86  C   UNL A   1      47.163  32.807  30.123  1.00  0.00     0.012 A 
ATOM     87  C   UNL A   1      46.414  33.659  27.971  1.00  0.00     0.148 A 
ATOM     88  C   UNL A   1      47.738  34.043  30.418  1.00  0.00     0.002 A 
ATOM     89  C   UNL A   1      47.035  34.870  28.249  1.00  0.00     0.091 A 
ATOM     90  F   UNL A   1      45.746  33.454  26.826  1.00  0.00    -0.205 F 
ATOM     91  C   UNL A   1      47.684  35.068  29.478  1.00  0.00     0.022 A 
BRANCH  89  92
ATOM     92  S   UNL A   1      47.105  36.214  27.058  1.00  0.00     0.127 S 
ATOM     93  O   UNL A   1      47.922  35.628  25.997  1.00  0.00    -0.237 OA
ATOM     94  O   UNL A   1      45.694  36.394  26.714  1.00  0.00    -0.237 OA
ATOM     95  O   UNL A   1      47.706  37.341  27.758  1.00  0.00    -0.744 OA
ENDBRANCH  89  92
ENDBRANCH  62  85
ENDBRANCH  36  37
ENDBRANCH  28  31
ENDBRANCH  26  27
ENDBRANCH  25  26
ENDBRANCH  24  25
ENDBRANCH   1  24
TORSDOF 21
ENDMDL
MODEL 3
REMARK VINA RESULT:     -11.0      5.355      8.438
REMARK SMILES C#CC[C@]1(C(=O)NCCCCCCNC(=O)c2ccc(-c3c4nc(c(-c5cccc(S(=O)(=O)[O-])c5F)c5ccc([nH]5)c(-c5cccc(S(=O)(=O)[O-])c5F)c5nc(c(-c6cccc(S(=O)(=O)[O-])c6F)c6ccc3[nH]6)C=C5)C=C4)cc2)CCCN(C(=O)OC(C)(C)C)C1
REMARK SMILES IDX 10 1 9 2 8 3 7 4 5 5 6 6 4 8 80 9 91 10 81 11 83 12 82 13
REMARK SMILES IDX 3 14 2 15 1 16 84 17 85 18 86 19 87 20 88 21 89 22 90 23
REMARK SMILES IDX 11 24 12 25 13 26 14 27 15 28 16 30 17 31 18 32 79 33 19 34
REMARK SMILES IDX 78 35 20 36 21 37 22 38 72 39 23 40 77 41 71 42 73 43 24 44
REMARK SMILES IDX 76 45 70 46 69 47 25 49 57 50 37 51 56 52 38 53 41 54 55 55
REMARK SMILES IDX 74 56 39 57 40 58 54 60 75 61 42 62 26 63 27 64 35 65 28 66
REMARK SMILES IDX 30 67 36 68 29 69 31 70 32 71 33 72 34 73 58 74 59 75 67 76
REMARK SMILES IDX 60 77 62 78 68 79 61 80 63 81 64 82 65 83 66 84 43 85 44 86
REMARK SMILES IDX 52 87 45 88 47 89 53 90 46 91 48 92 49 93 50 94 51 95
REMARK H PARENT 7 7 14 29 73 48 41 59
REMARK Flexibility Score: inf
ROOT
ATOM      1  C   UNL A   1      31.977  27.246  26.258  1.00  0.00     0.002 C 
ENDROOT
BRANCH   1   2
ATOM      2  C   UNL A   1      30.636  26.599  25.896  1.00  0.00     0.021 C 
BRANCH   2   3
ATOM      3  C   UNL A   1      30.743  25.560  24.787  1.00  0.00     0.116 C 
BRANCH   3   4
ATOM      4  N   UNL A   1      30.358  24.255  25.276  1.00  0.00    -0.356 N 
ATOM      5  C   UNL A   1      31.054  23.114  25.508  1.00  0.00     0.228 C 
ATOM      6  O   UNL A   1      30.412  22.245  26.104  1.00  0.00    -0.274 OA
ATOM      7  H   UNL A   1      29.398  24.179  25.483  1.00  0.00     0.163 HD
BRANCH   5   8
ATOM      8  C   UNL A   1      32.561  22.987  25.199  1.00  0.00     0.078 C 
ATOM      9  C   UNL A   1      33.473  24.086  25.808  1.00  0.00     0.021 C 
ATOM     10  C   UNL A   1      32.909  21.585  25.746  1.00  0.00     0.141 C 
ATOM     11  C   UNL A   1      34.959  23.676  25.890  1.00  0.00     0.023 C 
ATOM     12  N   UNL A   1      34.327  21.316  25.663  1.00  0.00    -0.307 N 
ATOM     13  C   UNL A   1      35.178  22.245  26.391  1.00  0.00     0.123 C 
BRANCH   8  14
ATOM     14  C   UNL A   1      32.851  22.977  23.673  1.00  0.00     0.108 C 
BRANCH  14  15
ATOM     15  C   UNL A   1      33.280  24.313  23.089  1.00  0.00    -0.106 C 
ATOM     16  C   UNL A   1      33.649  25.460  22.589  1.00  0.00     0.004 C 
ENDBRANCH  14  15
ENDBRANCH   8  14
BRANCH  12  17
ATOM     17  C   UNL A   1      34.748  20.227  24.927  1.00  0.00     0.410 C 
ATOM     18  O   UNL A   1      35.884  19.773  25.005  1.00  0.00    -0.224 OA
BRANCH  17  19
ATOM     19  O   UNL A   1      33.776  19.708  24.140  1.00  0.00    -0.444 OA
BRANCH  19  20
ATOM     20  C   UNL A   1      33.366  18.330  24.336  1.00  0.00     0.106 C 
ATOM     21  C   UNL A   1      34.512  17.353  24.040  1.00  0.00     0.056 C 
ATOM     22  C   UNL A   1      32.776  18.115  25.738  1.00  0.00     0.056 C 
ATOM     23  C   UNL A   1      32.254  18.102  23.302  1.00  0.00     0.056 C 
ENDBRANCH  19  20
ENDBRANCH  17  19
ENDBRANCH  12  17
ENDBRANCH   5   8
ENDBRANCH   3   4
ENDBRANCH   2   3
ENDBRANCH   1   2
BRANCH   1  24
ATOM     24  C   UNL A   1      32.675  27.967  25.100  1.00  0.00     0.002 C 
BRANCH  24  25
ATOM     25  C   UNL A   1      33.099  29.406  25.403  1.00  0.00     0.021 C 
BRANCH  25  26
ATOM     26  C   UNL A   1      32.670  29.907  26.774  1.00  0.00     0.116 C 
BRANCH  26  27
ATOM     27  N   UNL A   1      32.606  31.357  26.822  1.00  0.00    -0.352 N 
ATOM     28  C   UNL A   1      33.440  32.231  27.469  1.00  0.00     0.251 C 
ATOM     29  H   UNL A   1      31.863  31.767  26.322  1.00  0.00     0.163 HD
ATOM     30  O   UNL A   1      33.126  33.412  27.589  1.00  0.00    -0.269 OA
BRANCH  28  31
ATOM     31  C   UNL A   1      34.711  31.735  28.036  1.00  0.00     0.039 A 
ATOM     32  C   UNL A   1      35.834  32.564  28.008  1.00  0.00     0.014 A 
ATOM     33  C   UNL A   1      34.787  30.460  28.605  1.00  0.00     0.014 A 
ATOM     34  C   UNL A   1      37.023  32.130  28.597  1.00  0.00     0.010 A 
ATOM     35  C   UNL A   1      35.947  30.064  29.262  1.00  0.00     0.010 A 
ATOM     36  C   UNL A   1      37.081  30.890  29.255  1.00  0.00    -0.014 A 
BRANCH  36  37
ATOM     37  C   UNL A   1      38.318  30.442  29.942  1.00  0.00     0.031 A 
ATOM     38  C   UNL A   1      39.204  29.402  29.310  1.00  0.00     0.074 A 
ATOM     39  C   UNL A   1      38.605  30.917  31.170  1.00  0.00     0.049 A 
ATOM     40  N   UNL A   1      40.295  28.856  29.778  1.00  0.00    -0.248 NA
ATOM     41  C   UNL A   1      38.797  28.889  27.992  1.00  0.00     0.031 C 
ATOM     42  C   UNL A   1      37.787  31.872  31.921  1.00  0.00     0.029 A 
ATOM     43  N   UNL A   1      39.653  30.644  32.015  1.00  0.00    -0.354 N 
ATOM     44  C   UNL A   1      40.686  27.916  28.832  1.00  0.00     0.074 A 
ATOM     45  C   UNL A   1      39.694  27.937  27.780  1.00  0.00     0.031 C 
ATOM     46  C   UNL A   1      38.366  32.112  33.108  1.00  0.00     0.029 A 
ATOM     47  C   UNL A   1      39.575  31.302  33.220  1.00  0.00     0.049 A 
ATOM     48  H   UNL A   1      40.389  30.034  31.780  1.00  0.00     0.167 HD
ATOM     49  C   UNL A   1      41.786  27.125  28.824  1.00  0.00     0.034 A 
ATOM     50  C   UNL A   1      40.381  31.252  34.299  1.00  0.00     0.034 A 
ATOM     51  C   UNL A   1      42.788  27.131  29.855  1.00  0.00     0.049 A 
ATOM     52  C   UNL A   1      41.607  30.382  34.255  1.00  0.00     0.074 A 
ATOM     53  C   UNL A   1      43.979  26.429  29.900  1.00  0.00     0.029 A 
ATOM     54  N   UNL A   1      42.712  27.865  31.029  1.00  0.00    -0.354 N 
ATOM     55  N   UNL A   1      42.038  29.612  33.285  1.00  0.00    -0.248 NA
ATOM     56  C   UNL A   1      42.479  30.401  35.438  1.00  0.00     0.031 C 
ATOM     57  C   UNL A   1      44.606  26.709  31.118  1.00  0.00     0.029 A 
ATOM     58  C   UNL A   1      43.826  27.620  31.813  1.00  0.00     0.049 A 
ATOM     59  H   UNL A   1      41.974  28.470  31.271  1.00  0.00     0.167 HD
ATOM     60  C   UNL A   1      43.249  29.088  33.724  1.00  0.00     0.074 A 
ATOM     61  C   UNL A   1      43.491  29.642  35.040  1.00  0.00     0.031 C 
ATOM     62  C   UNL A   1      44.080  28.217  33.100  1.00  0.00     0.034 A 
BRANCH  49  63
ATOM     63  C   UNL A   1      41.986  26.215  27.639  1.00  0.00     0.023 A 
ATOM     64  C   UNL A   1      42.642  26.700  26.488  1.00  0.00     0.012 A 
ATOM     65  C   UNL A   1      41.581  24.867  27.687  1.00  0.00     0.148 A 
ATOM     66  C   UNL A   1      42.856  25.868  25.389  1.00  0.00     0.002 A 
ATOM     67  C   UNL A   1      41.841  24.032  26.606  1.00  0.00     0.091 A 
ATOM     68  F   UNL A   1      40.943  24.429  28.781  1.00  0.00    -0.205 F 
ATOM     69  C   UNL A   1      42.465  24.534  25.452  1.00  0.00     0.022 A 
BRANCH  67  70
ATOM     70  S   UNL A   1      41.454  22.279  26.620  1.00  0.00     0.127 S 
ATOM     71  O   UNL A   1      42.042  21.838  25.355  1.00  0.00    -0.237 OA
ATOM     72  O   UNL A   1      42.159  21.817  27.815  1.00  0.00    -0.237 OA
ATOM     73  O   UNL A   1      40.002  22.187  26.696  1.00  0.00    -0.744 OA
ENDBRANCH  67  70
ENDBRANCH  49  63
BRANCH  50  74
ATOM     74  C   UNL A   1      40.080  32.089  35.495  1.00  0.00     0.023 A 
ATOM     75  C   UNL A   1      40.815  33.269  35.718  1.00  0.00     0.012 A 
ATOM     76  C   UNL A   1      39.062  31.732  36.398  1.00  0.00     0.148 A 
ATOM     77  C   UNL A   1      40.565  34.061  36.841  1.00  0.00     0.002 A 
ATOM     78  C   UNL A   1      38.779  32.554  37.483  1.00  0.00     0.091 A 
ATOM     79  F   UNL A   1      38.380  30.600  36.173  1.00  0.00    -0.205 F 
ATOM     80  C   UNL A   1      39.543  33.708  37.717  1.00  0.00     0.022 A 
BRANCH  78  81
ATOM     81  S   UNL A   1      37.397  32.249  38.589  1.00  0.00     0.127 S 
ATOM     82  O   UNL A   1      37.792  33.004  39.776  1.00  0.00    -0.237 OA
ATOM     83  O   UNL A   1      36.280  32.820  37.837  1.00  0.00    -0.237 OA
ATOM     84  O   UNL A   1      37.336  30.803  38.752  1.00  0.00    -0.744 OA
ENDBRANCH  78  81
ENDBRANCH  50  74
BRANCH  62  85
ATOM     85  C   UNL A   1      45.357  27.839  33.804  1.00  0.00     0.023 A 
ATOM     86  C   UNL A   1      46.510  28.635  33.654  1.00  0.00     0.012 A 
ATOM     87  C   UNL A   1      45.390  26.731  34.675  1.00  0.00     0.148 A 
ATOM     88  C   UNL A   1      47.686  28.313  34.332  1.00  0.00     0.002 A 
ATOM     89  C   UNL A   1      46.548  26.449  35.387  1.00  0.00     0.091 A 
ATOM     90  F   UNL A   1      44.287  25.977  34.791  1.00  0.00    -0.205 F 
ATOM     91  C   UNL A   1      47.701  27.229  35.206  1.00  0.00     0.022 A 
BRANCH  89  92
ATOM     92  S   UNL A   1      46.631  25.135  36.610  1.00  0.00     0.127 S 
ATOM     93  O   UNL A   1      48.067  24.863  36.657  1.00  0.00    -0.237 OA
ATOM     94  O   UNL A   1      46.096  25.791  37.804  1.00  0.00    -0.237 OA
ATOM     95  O   UNL A   1      45.807  24.051  36.094  1.00  0.00    -0.744 OA
ENDBRANCH  89  92
ENDBRANCH  62  85
ENDBRANCH  36  37
ENDBRANCH  28  31
ENDBRANCH  26  27
ENDBRANCH  25  26
ENDBRANCH  24  25
ENDBRANCH   1  24
TORSDOF 21
ENDMDL
