MODEL 1
REMARK VINA RESULT:     -12.1      0.000      0.000
REMARK SMILES Cc1ccc(C(=O)NCCCCCCNC(=O)c2ccc(-c3c4nc(c(-c5cccc(S(=O)(=O)[O-])c5F)c5ccc([nH]5)c(-c5cccc(S(=O)(=O)[O-])c5F)c5nc(c(-c6cccc(S(=O)(=O)[O-])c6F)c6ccc3[nH]6)C=C5)C=C4)cc2)cc1/[NH+]=C1\NCCS1
REMARK SMILES IDX 12 1 11 2 10 3 9 4 8 5 6 6 7 7 5 9 1 10 2 11 3 12 82 13 4 14
REMARK SMILES IDX 81 15 83 16 84 17 85 19 88 20 86 21 87 23 13 24 14 25 15 26
REMARK SMILES IDX 16 27 17 29 18 30 19 31 80 32 20 33 79 34 21 35 22 36 23 37
REMARK SMILES IDX 73 38 24 39 78 40 72 41 74 42 25 43 77 44 71 45 70 46 26 48
REMARK SMILES IDX 58 49 38 50 57 51 39 52 42 53 56 54 75 55 40 56 41 57 55 59
REMARK SMILES IDX 76 60 43 61 27 62 28 63 36 64 29 65 31 66 37 67 30 68 32 69
REMARK SMILES IDX 33 70 34 71 35 72 59 73 60 74 68 75 61 76 63 77 69 78 62 79
REMARK SMILES IDX 64 80 65 81 66 82 67 83 44 84 45 85 53 86 46 87 48 88 54 89
REMARK SMILES IDX 47 90 49 91 50 92 51 93 52 94
REMARK H PARENT 8 8 83 18 85 22 15 28 74 47 42 58
REMARK Flexibility Score: inf
ROOT
ATOM      1  C   UNL A   1      36.332  21.210  24.904  1.00  0.00     0.002 C 
ENDROOT
BRANCH   1   2
ATOM      2  C   UNL A   1      35.989  22.308  23.879  1.00  0.00     0.002 C 
BRANCH   2   3
ATOM      3  C   UNL A   1      35.172  23.502  24.400  1.00  0.00     0.021 C 
BRANCH   3   4
ATOM      4  C   UNL A   1      34.710  23.363  25.853  1.00  0.00     0.116 C 
BRANCH   4   5
ATOM      5  N   UNL A   1      33.276  23.530  25.964  1.00  0.00    -0.352 N 
ATOM      6  C   UNL A   1      32.185  22.854  25.489  1.00  0.00     0.251 C 
ATOM      7  O   UNL A   1      31.087  23.266  25.877  1.00  0.00    -0.269 OA
ATOM      8  H   UNL A   1      33.027  24.312  26.507  1.00  0.00     0.163 HD
BRANCH   6   9
ATOM      9  C   UNL A   1      32.216  21.662  24.589  1.00  0.00     0.044 A 
ATOM     10  C   UNL A   1      32.173  18.485  21.630  1.00  0.00     0.049 C 
ATOM     11  C   UNL A   1      32.183  19.564  22.677  1.00  0.00    -0.004 A 
ATOM     12  C   UNL A   1      32.153  20.899  22.266  1.00  0.00     0.008 A 
ATOM     13  C   UNL A   1      32.283  19.280  24.050  1.00  0.00     0.129 A 
ATOM     14  C   UNL A   1      32.150  21.928  23.210  1.00  0.00     0.014 A 
ATOM     15  C   UNL A   1      32.329  20.329  24.985  1.00  0.00     0.065 A 
BRANCH  13  16
ATOM     16  N   UNL A   1      32.254  17.966  24.540  1.00  0.00    -0.235 N 
ATOM     17  C   UNL A   1      33.362  17.380  24.823  1.00  0.00     0.309 C 
ATOM     18  H   UNL A   1      31.397  17.500  24.667  1.00  0.00     0.313 HD
ATOM     19  N   UNL A   1      34.650  17.813  24.748  1.00  0.00    -0.268 N 
ATOM     20  S   UNL A   1      33.309  15.715  25.391  1.00  0.00    -0.035 SA
ATOM     21  C   UNL A   1      35.671  16.923  25.251  1.00  0.00     0.246 C 
ATOM     22  H   UNL A   1      34.877  18.692  24.368  1.00  0.00     0.305 HD
ATOM     23  C   UNL A   1      35.102  15.510  25.154  1.00  0.00     0.128 C 
ENDBRANCH  13  16
ENDBRANCH   6   9
ENDBRANCH   4   5
ENDBRANCH   3   4
ENDBRANCH   2   3
ENDBRANCH   1   2
BRANCH   1  24
ATOM     24  C   UNL A   1      37.792  21.142  25.358  1.00  0.00     0.021 C 
BRANCH  24  25
ATOM     25  C   UNL A   1      38.369  22.482  25.788  1.00  0.00     0.116 C 
BRANCH  25  26
ATOM     26  N   UNL A   1      39.758  22.405  26.208  1.00  0.00    -0.352 N 
ATOM     27  C   UNL A   1      40.632  23.425  26.531  1.00  0.00     0.251 C 
ATOM     28  H   UNL A   1      40.130  21.496  26.273  1.00  0.00     0.163 HD
ATOM     29  O   UNL A   1      41.828  23.164  26.656  1.00  0.00    -0.269 OA
BRANCH  27  30
ATOM     30  C   UNL A   1      40.105  24.774  26.845  1.00  0.00     0.039 A 
ATOM     31  C   UNL A   1      40.750  25.876  26.269  1.00  0.00     0.014 A 
ATOM     32  C   UNL A   1      39.163  24.964  27.853  1.00  0.00     0.014 A 
ATOM     33  C   UNL A   1      40.645  27.127  26.872  1.00  0.00     0.010 A 
ATOM     34  C   UNL A   1      39.124  26.176  28.506  1.00  0.00     0.010 A 
ATOM     35  C   UNL A   1      39.918  27.233  28.053  1.00  0.00    -0.014 A 
BRANCH  35  36
ATOM     36  C   UNL A   1      39.965  28.377  28.944  1.00  0.00     0.031 A 
ATOM     37  C   UNL A   1      39.092  29.536  28.712  1.00  0.00     0.074 A 
ATOM     38  C   UNL A   1      40.685  28.273  30.082  1.00  0.00     0.049 A 
ATOM     39  N   UNL A   1      39.318  30.711  29.188  1.00  0.00    -0.248 NA
ATOM     40  C   UNL A   1      37.884  29.447  27.904  1.00  0.00     0.031 C 
ATOM     41  C   UNL A   1      40.591  29.103  31.275  1.00  0.00     0.029 A 
ATOM     42  N   UNL A   1      41.823  27.491  30.297  1.00  0.00    -0.354 N 
ATOM     43  C   UNL A   1      38.166  31.443  29.008  1.00  0.00     0.074 A 
ATOM     44  C   UNL A   1      37.337  30.645  28.134  1.00  0.00     0.031 C 
ATOM     45  C   UNL A   1      41.745  29.010  31.954  1.00  0.00     0.029 A 
ATOM     46  C   UNL A   1      42.666  28.259  31.117  1.00  0.00     0.049 A 
ATOM     47  H   UNL A   1      41.998  26.587  29.948  1.00  0.00     0.167 HD
ATOM     48  C   UNL A   1      37.954  32.555  29.765  1.00  0.00     0.034 A 
ATOM     49  C   UNL A   1      43.912  28.671  30.738  1.00  0.00     0.034 A 
ATOM     50  C   UNL A   1      39.075  32.797  30.680  1.00  0.00     0.049 A 
ATOM     51  C   UNL A   1      44.080  30.179  30.791  1.00  0.00     0.074 A 
ATOM     52  C   UNL A   1      39.285  32.477  32.013  1.00  0.00     0.029 A 
ATOM     53  N   UNL A   1      40.311  33.176  30.172  1.00  0.00    -0.354 N 
ATOM     54  N   UNL A   1      43.100  31.022  30.970  1.00  0.00    -0.248 NA
ATOM     55  C   UNL A   1      45.359  30.859  30.626  1.00  0.00     0.031 C 
ATOM     56  C   UNL A   1      40.668  32.617  32.292  1.00  0.00     0.029 A 
ATOM     57  C   UNL A   1      41.299  33.042  31.136  1.00  0.00     0.049 A 
ATOM     58  H   UNL A   1      40.464  33.496  29.254  1.00  0.00     0.167 HD
ATOM     59  C   UNL A   1      43.552  32.313  30.843  1.00  0.00     0.074 A 
ATOM     60  C   UNL A   1      44.991  32.151  30.700  1.00  0.00     0.031 C 
ATOM     61  C   UNL A   1      42.686  33.378  30.824  1.00  0.00     0.034 A 
BRANCH  48  62
ATOM     62  C   UNL A   1      36.578  33.165  29.937  1.00  0.00     0.023 A 
ATOM     63  C   UNL A   1      36.028  33.864  28.841  1.00  0.00     0.012 A 
ATOM     64  C   UNL A   1      35.817  33.167  31.127  1.00  0.00     0.148 A 
ATOM     65  C   UNL A   1      34.858  34.622  28.943  1.00  0.00     0.002 A 
ATOM     66  C   UNL A   1      34.687  33.982  31.254  1.00  0.00     0.091 A 
ATOM     67  F   UNL A   1      36.151  32.335  32.124  1.00  0.00    -0.205 F 
ATOM     68  C   UNL A   1      34.208  34.714  30.163  1.00  0.00     0.022 A 
BRANCH  66  69
ATOM     69  S   UNL A   1      33.872  34.256  32.837  1.00  0.00     0.127 S 
ATOM     70  O   UNL A   1      33.487  32.898  33.230  1.00  0.00    -0.237 OA
ATOM     71  O   UNL A   1      34.937  34.842  33.646  1.00  0.00    -0.237 OA
ATOM     72  O   UNL A   1      32.737  35.125  32.547  1.00  0.00    -0.744 OA
ENDBRANCH  66  69
ENDBRANCH  48  62
BRANCH  49  73
ATOM     73  C   UNL A   1      44.572  27.753  29.759  1.00  0.00     0.023 A 
ATOM     74  C   UNL A   1      44.767  26.411  30.175  1.00  0.00     0.012 A 
ATOM     75  C   UNL A   1      44.620  28.046  28.386  1.00  0.00     0.148 A 
ATOM     76  C   UNL A   1      44.841  25.374  29.245  1.00  0.00     0.002 A 
ATOM     77  C   UNL A   1      44.714  27.004  27.463  1.00  0.00     0.091 A 
ATOM     78  F   UNL A   1      44.499  29.321  27.995  1.00  0.00    -0.205 F 
ATOM     79  C   UNL A   1      44.776  25.667  27.888  1.00  0.00     0.022 A 
BRANCH  77  80
ATOM     80  S   UNL A   1      44.638  27.322  25.694  1.00  0.00     0.127 S 
ATOM     81  O   UNL A   1      45.904  28.013  25.468  1.00  0.00    -0.237 OA
ATOM     82  O   UNL A   1      44.564  25.976  25.128  1.00  0.00    -0.237 OA
ATOM     83  O   UNL A   1      43.425  28.108  25.519  1.00  0.00    -0.744 OA
ENDBRANCH  77  80
ENDBRANCH  49  73
BRANCH  61  84
ATOM     84  C   UNL A   1      43.017  34.836  30.508  1.00  0.00     0.023 A 
ATOM     85  C   UNL A   1      43.450  35.754  31.480  1.00  0.00     0.012 A 
ATOM     86  C   UNL A   1      43.011  35.310  29.164  1.00  0.00     0.148 A 
ATOM     87  C   UNL A   1      43.832  37.064  31.156  1.00  0.00     0.002 A 
ATOM     88  C   UNL A   1      43.498  36.574  28.833  1.00  0.00     0.091 A 
ATOM     89  F   UNL A   1      42.498  34.555  28.183  1.00  0.00    -0.205 F 
ATOM     90  C   UNL A   1      43.886  37.465  29.831  1.00  0.00     0.022 A 
BRANCH  88  91
ATOM     91  S   UNL A   1      43.781  37.043  27.118  1.00  0.00     0.127 S 
ATOM     92  O   UNL A   1      44.641  35.959  26.646  1.00  0.00    -0.237 OA
ATOM     93  O   UNL A   1      42.426  37.030  26.562  1.00  0.00    -0.237 OA
ATOM     94  O   UNL A   1      44.386  38.366  27.180  1.00  0.00    -0.744 OA
ENDBRANCH  88  91
ENDBRANCH  61  84
ENDBRANCH  35  36
ENDBRANCH  27  30
ENDBRANCH  25  26
ENDBRANCH  24  25
ENDBRANCH   1  24
TORSDOF 17
ENDMDL
MODEL 2
REMARK VINA RESULT:     -11.6      4.123      9.825
REMARK SMILES Cc1ccc(C(=O)NCCCCCCNC(=O)c2ccc(-c3c4nc(c(-c5cccc(S(=O)(=O)[O-])c5F)c5ccc([nH]5)c(-c5cccc(S(=O)(=O)[O-])c5F)c5nc(c(-c6cccc(S(=O)(=O)[O-])c6F)c6ccc3[nH]6)C=C5)C=C4)cc2)cc1/[NH+]=C1\NCCS1
REMARK SMILES IDX 12 1 11 2 10 3 9 4 8 5 6 6 7 7 5 9 1 10 2 11 3 12 82 13 4 14
REMARK SMILES IDX 81 15 83 16 84 17 85 19 88 20 86 21 87 23 13 24 14 25 15 26
REMARK SMILES IDX 16 27 17 29 18 30 19 31 80 32 20 33 79 34 21 35 22 36 23 37
REMARK SMILES IDX 73 38 24 39 78 40 72 41 74 42 25 43 77 44 71 45 70 46 26 48
REMARK SMILES IDX 58 49 38 50 57 51 39 52 42 53 56 54 75 55 40 56 41 57 55 59
REMARK SMILES IDX 76 60 43 61 27 62 28 63 36 64 29 65 31 66 37 67 30 68 32 69
REMARK SMILES IDX 33 70 34 71 35 72 59 73 60 74 68 75 61 76 63 77 69 78 62 79
REMARK SMILES IDX 64 80 65 81 66 82 67 83 44 84 45 85 53 86 46 87 48 88 54 89
REMARK SMILES IDX 47 90 49 91 50 92 51 93 52 94
REMARK H PARENT 8 8 83 18 85 22 15 28 74 47 42 58
REMARK Flexibility Score: inf
ROOT
ATOM      1  C   UNL A   1      34.463  31.327  27.576  1.00  0.00     0.002 C 
ENDROOT
BRANCH   1   2
ATOM      2  C   UNL A   1      34.897  29.857  27.729  1.00  0.00     0.002 C 
BRANCH   2   3
ATOM      3  C   UNL A   1      34.109  28.820  26.912  1.00  0.00     0.021 C 
BRANCH   3   4
ATOM      4  C   UNL A   1      33.188  29.424  25.848  1.00  0.00     0.116 C 
BRANCH   4   5
ATOM      5  N   UNL A   1      33.803  29.374  24.537  1.00  0.00    -0.352 N 
ATOM      6  C   UNL A   1      33.888  28.435  23.545  1.00  0.00     0.251 C 
ATOM      7  O   UNL A   1      34.443  28.801  22.505  1.00  0.00    -0.269 OA
ATOM      8  H   UNL A   1      34.267  30.210  24.305  1.00  0.00     0.163 HD
BRANCH   6   9
ATOM      9  C   UNL A   1      33.343  27.045  23.605  1.00  0.00     0.044 A 
ATOM     10  C   UNL A   1      31.385  23.170  23.546  1.00  0.00     0.049 C 
ATOM     11  C   UNL A   1      32.079  24.503  23.592  1.00  0.00    -0.004 A 
ATOM     12  C   UNL A   1      31.626  25.525  22.753  1.00  0.00     0.008 A 
ATOM     13  C   UNL A   1      33.202  24.740  24.403  1.00  0.00     0.129 A 
ATOM     14  C   UNL A   1      32.239  26.780  22.776  1.00  0.00     0.014 A 
ATOM     15  C   UNL A   1      33.838  25.994  24.377  1.00  0.00     0.065 A 
BRANCH  13  16
ATOM     16  N   UNL A   1      33.674  23.785  25.316  1.00  0.00    -0.235 N 
ATOM     17  C   UNL A   1      34.700  23.076  25.005  1.00  0.00     0.309 C 
ATOM     18  H   UNL A   1      33.226  23.660  26.183  1.00  0.00     0.313 HD
ATOM     19  N   UNL A   1      35.485  23.074  23.893  1.00  0.00    -0.268 N 
ATOM     20  S   UNL A   1      35.248  21.850  26.142  1.00  0.00    -0.035 SA
ATOM     21  C   UNL A   1      36.641  22.209  23.909  1.00  0.00     0.246 C 
ATOM     22  H   UNL A   1      35.274  23.636  23.113  1.00  0.00     0.305 HD
ATOM     23  C   UNL A   1      36.329  21.085  24.894  1.00  0.00     0.128 C 
ENDBRANCH  13  16
ENDBRANCH   6   9
ENDBRANCH   4   5
ENDBRANCH   3   4
ENDBRANCH   2   3
ENDBRANCH   1   2
BRANCH   1  24
ATOM     24  C   UNL A   1      34.253  32.108  28.875  1.00  0.00     0.021 C 
BRANCH  24  25
ATOM     25  C   UNL A   1      34.350  33.617  28.711  1.00  0.00     0.116 C 
BRANCH  25  26
ATOM     26  N   UNL A   1      33.573  34.357  29.693  1.00  0.00    -0.352 N 
ATOM     27  C   UNL A   1      33.758  34.460  31.057  1.00  0.00     0.251 C 
ATOM     28  H   UNL A   1      32.806  34.857  29.332  1.00  0.00     0.163 HD
ATOM     29  O   UNL A   1      32.866  34.961  31.741  1.00  0.00    -0.269 OA
BRANCH  27  30
ATOM     30  C   UNL A   1      35.062  34.087  31.654  1.00  0.00     0.039 A 
ATOM     31  C   UNL A   1      36.200  34.778  31.216  1.00  0.00     0.014 A 
ATOM     32  C   UNL A   1      35.198  32.944  32.438  1.00  0.00     0.014 A 
ATOM     33  C   UNL A   1      37.455  34.186  31.342  1.00  0.00     0.010 A 
ATOM     34  C   UNL A   1      36.420  32.314  32.488  1.00  0.00     0.010 A 
ATOM     35  C   UNL A   1      37.531  32.906  31.879  1.00  0.00    -0.014 A 
BRANCH  35  36
ATOM     36  C   UNL A   1      38.701  32.053  31.801  1.00  0.00     0.031 A 
ATOM     37  C   UNL A   1      38.647  30.781  31.067  1.00  0.00     0.074 A 
ATOM     38  C   UNL A   1      39.879  32.538  32.253  1.00  0.00     0.049 A 
ATOM     39  N   UNL A   1      39.471  29.809  31.254  1.00  0.00    -0.248 NA
ATOM     40  C   UNL A   1      37.633  30.512  30.056  1.00  0.00     0.031 C 
ATOM     41  C   UNL A   1      41.218  32.049  31.954  1.00  0.00     0.029 A 
ATOM     42  N   UNL A   1      40.075  33.475  33.271  1.00  0.00    -0.354 N 
ATOM     43  C   UNL A   1      39.291  28.927  30.211  1.00  0.00     0.074 A 
ATOM     44  C   UNL A   1      38.085  29.364  29.543  1.00  0.00     0.031 C 
ATOM     45  C   UNL A   1      42.048  32.452  32.929  1.00  0.00     0.029 A 
ATOM     46  C   UNL A   1      41.223  33.054  33.962  1.00  0.00     0.049 A 
ATOM     47  H   UNL A   1      39.523  34.267  33.464  1.00  0.00     0.167 HD
ATOM     48  C   UNL A   1      40.277  28.040  29.907  1.00  0.00     0.034 A 
ATOM     49  C   UNL A   1      41.220  32.703  35.282  1.00  0.00     0.034 A 
ATOM     50  C   UNL A   1      41.419  28.180  30.817  1.00  0.00     0.049 A 
ATOM     51  C   UNL A   1      41.729  31.293  35.522  1.00  0.00     0.074 A 
ATOM     52  C   UNL A   1      42.621  28.865  30.718  1.00  0.00     0.029 A 
ATOM     53  N   UNL A   1      41.283  27.825  32.154  1.00  0.00    -0.354 N 
ATOM     54  N   UNL A   1      41.951  30.421  34.578  1.00  0.00    -0.248 NA
ATOM     55  C   UNL A   1      42.010  30.746  36.844  1.00  0.00     0.031 C 
ATOM     56  C   UNL A   1      43.185  28.965  32.015  1.00  0.00     0.029 A 
ATOM     57  C   UNL A   1      42.338  28.324  32.903  1.00  0.00     0.049 A 
ATOM     58  H   UNL A   1      40.540  27.292  32.519  1.00  0.00     0.167 HD
ATOM     59  C   UNL A   1      42.284  29.203  35.120  1.00  0.00     0.074 A 
ATOM     60  C   UNL A   1      42.376  29.487  36.544  1.00  0.00     0.031 C 
ATOM     61  C   UNL A   1      42.403  28.079  34.342  1.00  0.00     0.034 A 
BRANCH  48  62
ATOM     62  C   UNL A   1      40.351  27.342  28.564  1.00  0.00     0.023 A 
ATOM     63  C   UNL A   1      39.465  26.269  28.332  1.00  0.00     0.012 A 
ATOM     64  C   UNL A   1      41.284  27.618  27.539  1.00  0.00     0.148 A 
ATOM     65  C   UNL A   1      39.567  25.438  27.213  1.00  0.00     0.002 A 
ATOM     66  C   UNL A   1      41.437  26.745  26.457  1.00  0.00     0.091 A 
ATOM     67  F   UNL A   1      41.989  28.757  27.579  1.00  0.00    -0.205 F 
ATOM     68  C   UNL A   1      40.582  25.651  26.294  1.00  0.00     0.022 A 
BRANCH  66  69
ATOM     69  S   UNL A   1      42.811  26.881  25.299  1.00  0.00     0.127 S 
ATOM     70  O   UNL A   1      42.734  25.611  24.572  1.00  0.00    -0.237 OA
ATOM     71  O   UNL A   1      42.446  28.053  24.509  1.00  0.00    -0.237 OA
ATOM     72  O   UNL A   1      44.006  27.012  26.123  1.00  0.00    -0.744 OA
ENDBRANCH  66  69
ENDBRANCH  48  62
BRANCH  49  73
ATOM     73  C   UNL A   1      40.165  33.398  36.082  1.00  0.00     0.023 A 
ATOM     74  C   UNL A   1      38.977  32.667  36.342  1.00  0.00     0.012 A 
ATOM     75  C   UNL A   1      40.458  34.514  36.883  1.00  0.00     0.148 A 
ATOM     76  C   UNL A   1      38.197  32.940  37.466  1.00  0.00     0.002 A 
ATOM     77  C   UNL A   1      39.662  34.791  37.995  1.00  0.00     0.091 A 
ATOM     78  F   UNL A   1      41.546  35.243  36.600  1.00  0.00    -0.205 F 
ATOM     79  C   UNL A   1      38.562  33.979  38.314  1.00  0.00     0.022 A 
BRANCH  77  80
ATOM     80  S   UNL A   1      40.082  36.123  39.128  1.00  0.00     0.127 S 
ATOM     81  O   UNL A   1      39.444  35.669  40.361  1.00  0.00    -0.237 OA
ATOM     82  O   UNL A   1      41.543  36.085  39.144  1.00  0.00    -0.237 OA
ATOM     83  O   UNL A   1      39.524  37.316  38.507  1.00  0.00    -0.744 OA
ENDBRANCH  77  80
ENDBRANCH  49  73
BRANCH  61  84
ATOM     84  C   UNL A   1      42.583  26.638  34.817  1.00  0.00     0.023 A 
ATOM     85  C   UNL A   1      41.648  25.973  35.628  1.00  0.00     0.012 A 
ATOM     86  C   UNL A   1      43.675  25.848  34.352  1.00  0.00     0.148 A 
ATOM     87  C   UNL A   1      41.788  24.623  35.981  1.00  0.00     0.002 A 
ATOM     88  C   UNL A   1      43.750  24.480  34.612  1.00  0.00     0.091 A 
ATOM     89  F   UNL A   1      44.682  26.419  33.678  1.00  0.00    -0.205 F 
ATOM     90  C   UNL A   1      42.821  23.868  35.449  1.00  0.00     0.022 A 
BRANCH  88  91
ATOM     91  S   UNL A   1      44.949  23.437  33.766  1.00  0.00     0.127 S 
ATOM     92  O   UNL A   1      44.616  23.669  32.362  1.00  0.00    -0.237 OA
ATOM     93  O   UNL A   1      46.225  24.018  34.193  1.00  0.00    -0.237 OA
ATOM     94  O   UNL A   1      44.709  22.094  34.274  1.00  0.00    -0.744 OA
ENDBRANCH  88  91
ENDBRANCH  61  84
ENDBRANCH  35  36
ENDBRANCH  27  30
ENDBRANCH  25  26
ENDBRANCH  24  25
ENDBRANCH   1  24
TORSDOF 17
ENDMDL
MODEL 3
REMARK VINA RESULT:     -11.6      2.988      4.661
REMARK SMILES Cc1ccc(C(=O)NCCCCCCNC(=O)c2ccc(-c3c4nc(c(-c5cccc(S(=O)(=O)[O-])c5F)c5ccc([nH]5)c(-c5cccc(S(=O)(=O)[O-])c5F)c5nc(c(-c6cccc(S(=O)(=O)[O-])c6F)c6ccc3[nH]6)C=C5)C=C4)cc2)cc1/[NH+]=C1\NCCS1
REMARK SMILES IDX 12 1 11 2 10 3 9 4 8 5 6 6 7 7 5 9 1 10 2 11 3 12 82 13 4 14
REMARK SMILES IDX 81 15 83 16 84 17 85 19 88 20 86 21 87 23 13 24 14 25 15 26
REMARK SMILES IDX 16 27 17 29 18 30 19 31 80 32 20 33 79 34 21 35 22 36 23 37
REMARK SMILES IDX 73 38 24 39 78 40 72 41 74 42 25 43 77 44 71 45 70 46 26 48
REMARK SMILES IDX 58 49 38 50 57 51 39 52 42 53 56 54 75 55 40 56 41 57 55 59
REMARK SMILES IDX 76 60 43 61 27 62 28 63 36 64 29 65 31 66 37 67 30 68 32 69
REMARK SMILES IDX 33 70 34 71 35 72 59 73 60 74 68 75 61 76 63 77 69 78 62 79
REMARK SMILES IDX 64 80 65 81 66 82 67 83 44 84 45 85 53 86 46 87 48 88 54 89
REMARK SMILES IDX 47 90 49 91 50 92 51 93 52 94
REMARK H PARENT 8 8 83 18 85 22 15 28 74 47 42 58
REMARK Flexibility Score: inf
ROOT
ATOM      1  C   UNL A   1      35.655  22.951  25.499  1.00  0.00     0.002 C 
ENDROOT
BRANCH   1   2
ATOM      2  C   UNL A   1      35.047  22.160  24.326  1.00  0.00     0.002 C 
BRANCH   2   3
ATOM      3  C   UNL A   1      34.739  22.958  23.048  1.00  0.00     0.021 C 
BRANCH   3   4
ATOM      4  C   UNL A   1      33.246  23.166  22.779  1.00  0.00     0.116 C 
BRANCH   4   5
ATOM      5  N   UNL A   1      33.036  24.115  21.705  1.00  0.00    -0.352 N 
ATOM      6  C   UNL A   1      32.752  25.452  21.639  1.00  0.00     0.251 C 
ATOM      7  O   UNL A   1      32.729  25.941  20.505  1.00  0.00    -0.269 OA
ATOM      8  H   UNL A   1      33.118  23.703  20.815  1.00  0.00     0.163 HD
BRANCH   6   9
ATOM      9  C   UNL A   1      32.509  26.355  22.805  1.00  0.00     0.044 A 
ATOM     10  C   UNL A   1      31.886  28.607  26.464  1.00  0.00     0.049 C 
ATOM     11  C   UNL A   1      32.083  27.847  25.182  1.00  0.00    -0.004 A 
ATOM     12  C   UNL A   1      32.696  26.593  25.232  1.00  0.00     0.008 A 
ATOM     13  C   UNL A   1      31.729  28.379  23.929  1.00  0.00     0.129 A 
ATOM     14  C   UNL A   1      32.887  25.853  24.062  1.00  0.00     0.014 A 
ATOM     15  C   UNL A   1      31.974  27.642  22.757  1.00  0.00     0.065 A 
BRANCH  13  16
ATOM     16  N   UNL A   1      31.055  29.602  23.806  1.00  0.00    -0.235 N 
ATOM     17  C   UNL A   1      29.817  29.602  23.459  1.00  0.00     0.309 C 
ATOM     18  H   UNL A   1      31.523  30.450  23.984  1.00  0.00     0.313 HD
ATOM     19  N   UNL A   1      28.965  28.579  23.178  1.00  0.00    -0.268 N 
ATOM     20  S   UNL A   1      29.001  31.149  23.263  1.00  0.00    -0.035 SA
ATOM     21  C   UNL A   1      27.587  28.927  22.919  1.00  0.00     0.246 C 
ATOM     22  H   UNL A   1      29.273  27.645  23.152  1.00  0.00     0.305 HD
ATOM     23  C   UNL A   1      27.589  30.369  22.420  1.00  0.00     0.128 C 
ENDBRANCH  13  16
ENDBRANCH   6   9
ENDBRANCH   4   5
ENDBRANCH   3   4
ENDBRANCH   2   3
ENDBRANCH   1   2
BRANCH   1  24
ATOM     24  C   UNL A   1      36.923  22.364  26.124  1.00  0.00     0.021 C 
BRANCH  24  25
ATOM     25  C   UNL A   1      38.187  22.628  25.321  1.00  0.00     0.116 C 
BRANCH  25  26
ATOM     26  N   UNL A   1      39.408  22.299  26.039  1.00  0.00    -0.352 N 
ATOM     27  C   UNL A   1      40.301  23.136  26.677  1.00  0.00     0.251 C 
ATOM     28  H   UNL A   1      39.628  21.340  26.077  1.00  0.00     0.163 HD
ATOM     29  O   UNL A   1      41.384  22.681  27.043  1.00  0.00    -0.269 OA
BRANCH  27  30
ATOM     30  C   UNL A   1      39.896  24.520  27.021  1.00  0.00     0.039 A 
ATOM     31  C   UNL A   1      40.598  25.573  26.422  1.00  0.00     0.014 A 
ATOM     32  C   UNL A   1      39.018  24.774  28.072  1.00  0.00     0.014 A 
ATOM     33  C   UNL A   1      40.618  26.824  27.035  1.00  0.00     0.010 A 
ATOM     34  C   UNL A   1      39.103  25.979  28.732  1.00  0.00     0.010 A 
ATOM     35  C   UNL A   1      39.955  26.975  28.249  1.00  0.00    -0.014 A 
BRANCH  35  36
ATOM     36  C   UNL A   1      40.131  28.104  29.142  1.00  0.00     0.031 A 
ATOM     37  C   UNL A   1      39.253  29.278  29.040  1.00  0.00     0.074 A 
ATOM     38  C   UNL A   1      40.989  27.974  30.178  1.00  0.00     0.049 A 
ATOM     39  N   UNL A   1      39.555  30.442  29.499  1.00  0.00    -0.248 NA
ATOM     40  C   UNL A   1      37.950  29.216  28.391  1.00  0.00     0.031 C 
ATOM     41  C   UNL A   1      41.059  28.786  31.385  1.00  0.00     0.029 A 
ATOM     42  N   UNL A   1      42.134  27.174  30.235  1.00  0.00    -0.354 N 
ATOM     43  C   UNL A   1      38.400  31.191  29.478  1.00  0.00     0.074 A 
ATOM     44  C   UNL A   1      37.454  30.417  28.705  1.00  0.00     0.031 C 
ATOM     45  C   UNL A   1      42.289  28.668  31.910  1.00  0.00     0.029 A 
ATOM     46  C   UNL A   1      43.085  27.919  30.952  1.00  0.00     0.049 A 
ATOM     47  H   UNL A   1      42.250  26.274  29.854  1.00  0.00     0.167 HD
ATOM     48  C   UNL A   1      38.301  32.293  30.271  1.00  0.00     0.034 A 
ATOM     49  C   UNL A   1      44.278  28.321  30.423  1.00  0.00     0.034 A 
ATOM     50  C   UNL A   1      39.532  32.508  31.040  1.00  0.00     0.049 A 
ATOM     51  C   UNL A   1      44.473  29.827  30.475  1.00  0.00     0.074 A 
ATOM     52  C   UNL A   1      39.906  32.164  32.330  1.00  0.00     0.029 A 
ATOM     53  N   UNL A   1      40.699  32.879  30.383  1.00  0.00    -0.354 N 
ATOM     54  N   UNL A   1      43.537  30.679  30.789  1.00  0.00    -0.248 NA
ATOM     55  C   UNL A   1      45.731  30.493  30.158  1.00  0.00     0.031 C 
ATOM     56  C   UNL A   1      41.315  32.282  32.432  1.00  0.00     0.029 A 
ATOM     57  C   UNL A   1      41.800  32.718  31.211  1.00  0.00     0.049 A 
ATOM     58  H   UNL A   1      40.739  33.212  29.457  1.00  0.00     0.167 HD
ATOM     59  C   UNL A   1      43.987  31.966  30.624  1.00  0.00     0.074 A 
ATOM     60  C   UNL A   1      45.393  31.788  30.297  1.00  0.00     0.031 C 
ATOM     61  C   UNL A   1      43.141  33.041  30.730  1.00  0.00     0.034 A 
BRANCH  48  62
ATOM     62  C   UNL A   1      36.967  32.918  30.625  1.00  0.00     0.023 A 
ATOM     63  C   UNL A   1      36.431  32.642  31.902  1.00  0.00     0.012 A 
ATOM     64  C   UNL A   1      36.165  33.699  29.763  1.00  0.00     0.148 A 
ATOM     65  C   UNL A   1      35.132  33.008  32.266  1.00  0.00     0.002 A 
ATOM     66  C   UNL A   1      34.840  34.001  30.097  1.00  0.00     0.091 A 
ATOM     67  F   UNL A   1      36.699  34.201  28.641  1.00  0.00    -0.205 F 
ATOM     68  C   UNL A   1      34.320  33.652  31.346  1.00  0.00     0.022 A 
BRANCH  66  69
ATOM     69  S   UNL A   1      33.689  34.716  28.909  1.00  0.00     0.127 S 
ATOM     70  O   UNL A   1      33.494  33.616  27.961  1.00  0.00    -0.237 OA
ATOM     71  O   UNL A   1      32.524  35.016  29.737  1.00  0.00    -0.237 OA
ATOM     72  O   UNL A   1      34.380  35.866  28.338  1.00  0.00    -0.744 OA
ENDBRANCH  66  69
ENDBRANCH  48  62
BRANCH  49  73
ATOM     73  C   UNL A   1      44.795  27.411  29.355  1.00  0.00     0.023 A 
ATOM     74  C   UNL A   1      45.070  26.073  29.737  1.00  0.00     0.012 A 
ATOM     75  C   UNL A   1      44.631  27.702  27.991  1.00  0.00     0.148 A 
ATOM     76  C   UNL A   1      45.018  25.035  28.806  1.00  0.00     0.002 A 
ATOM     77  C   UNL A   1      44.598  26.660  27.064  1.00  0.00     0.091 A 
ATOM     78  F   UNL A   1      44.434  28.975  27.622  1.00  0.00    -0.205 F 
ATOM     79  C   UNL A   1      44.743  25.324  27.475  1.00  0.00     0.022 A 
BRANCH  77  80
ATOM     80  S   UNL A   1      44.251  26.973  25.327  1.00  0.00     0.127 S 
ATOM     81  O   UNL A   1      43.619  25.719  24.926  1.00  0.00    -0.237 OA
ATOM     82  O   UNL A   1      43.350  28.123  25.381  1.00  0.00    -0.237 OA
ATOM     83  O   UNL A   1      45.552  27.263  24.744  1.00  0.00    -0.744 OA
ENDBRANCH  77  80
ENDBRANCH  49  73
BRANCH  61  84
ATOM     84  C   UNL A   1      43.449  34.500  30.395  1.00  0.00     0.023 A 
ATOM     85  C   UNL A   1      43.905  35.428  31.347  1.00  0.00     0.012 A 
ATOM     86  C   UNL A   1      43.398  34.966  29.049  1.00  0.00     0.148 A 
ATOM     87  C   UNL A   1      44.266  36.739  31.003  1.00  0.00     0.002 A 
ATOM     88  C   UNL A   1      43.864  36.231  28.695  1.00  0.00     0.091 A 
ATOM     89  F   UNL A   1      42.861  34.200  28.089  1.00  0.00    -0.205 F 
ATOM     90  C   UNL A   1      44.276  37.132  29.675  1.00  0.00     0.022 A 
BRANCH  88  91
ATOM     91  S   UNL A   1      44.090  36.691  26.969  1.00  0.00     0.127 S 
ATOM     92  O   UNL A   1      44.960  35.622  26.482  1.00  0.00    -0.237 OA
ATOM     93  O   UNL A   1      42.720  36.644  26.451  1.00  0.00    -0.237 OA
ATOM     94  O   UNL A   1      44.667  38.027  27.004  1.00  0.00    -0.744 OA
ENDBRANCH  88  91
ENDBRANCH  61  84
ENDBRANCH  35  36
ENDBRANCH  27  30
ENDBRANCH  25  26
ENDBRANCH  24  25
ENDBRANCH   1  24
TORSDOF 17
ENDMDL
