MODEL 1
REMARK VINA RESULT:     -11.2      0.000      0.000
REMARK SMILES C#CC[C@]1(C(=O)NCCCCCCNC(=O)c2ccc(-c3c4nc(c(-c5cccc(S(=O)(=O)[O-])c5F)c5ccc([nH]5)c(-c5cccc(S(=O)(=O)[O-])c5F)c5nc(c(-c6cccc(S(=O)(=O)[O-])c6F)c6ccc3[nH]6)C=C5)C=C4)cc2)CC[C@@H](C)C1
REMARK SMILES IDX 11 1 10 2 9 3 8 4 7 5 5 6 6 7 4 9 80 10 84 11 81 12 82 13
REMARK SMILES IDX 83 14 3 15 2 16 1 17 12 18 13 19 14 20 15 21 16 23 17 24
REMARK SMILES IDX 18 25 79 26 19 27 78 28 20 29 21 30 22 31 72 32 23 33 77 34
REMARK SMILES IDX 71 35 73 36 24 37 76 38 70 39 69 40 25 42 57 43 37 44 56 45
REMARK SMILES IDX 38 46 41 47 55 48 74 49 39 50 40 51 54 53 75 54 42 55 26 56
REMARK SMILES IDX 27 57 35 58 28 59 30 60 36 61 29 62 31 63 32 64 33 65 34 66
REMARK SMILES IDX 58 67 59 68 67 69 60 70 62 71 68 72 61 73 63 74 64 75 65 76
REMARK SMILES IDX 66 77 43 78 44 79 52 80 45 81 47 82 53 83 46 84 48 85 49 86
REMARK SMILES IDX 50 87 51 88
REMARK H PARENT 7 8 14 22 73 41 41 52
REMARK Flexibility Score: inf
ROOT
ATOM      1  C   UNL A   1      31.488  29.282  24.468  1.00  0.00     0.002 C 
ENDROOT
BRANCH   1   2
ATOM      2  C   UNL A   1      30.894  27.904  24.784  1.00  0.00     0.002 C 
BRANCH   2   3
ATOM      3  C   UNL A   1      30.563  27.039  23.570  1.00  0.00     0.021 C 
BRANCH   3   4
ATOM      4  C   UNL A   1      29.870  25.728  23.907  1.00  0.00     0.116 C 
BRANCH   4   5
ATOM      5  N   UNL A   1      30.072  25.310  25.275  1.00  0.00    -0.356 N 
ATOM      6  C   UNL A   1      31.008  24.538  25.875  1.00  0.00     0.227 C 
ATOM      7  O   UNL A   1      31.025  24.620  27.114  1.00  0.00    -0.274 OA
ATOM      8  H   UNL A   1      29.392  25.656  25.896  1.00  0.00     0.163 HD
BRANCH   6   9
ATOM      9  C   UNL A   1      32.011  23.590  25.174  1.00  0.00     0.060 C 
ATOM     10  C   UNL A   1      32.412  23.830  23.699  1.00  0.00     0.018 C 
ATOM     11  C   UNL A   1      33.392  23.720  25.862  1.00  0.00     0.021 C 
ATOM     12  C   UNL A   1      33.612  24.781  23.678  1.00  0.00     0.004 C 
ATOM     13  C   UNL A   1      34.158  24.815  25.104  1.00  0.00    -0.013 C 
ATOM     14  C   UNL A   1      34.031  26.196  25.741  1.00  0.00     0.007 C 
BRANCH   9  15
ATOM     15  C   UNL A   1      31.386  22.155  25.439  1.00  0.00     0.106 C 
BRANCH  15  16
ATOM     16  C   UNL A   1      32.257  21.086  24.800  1.00  0.00    -0.106 C 
ATOM     17  C   UNL A   1      33.005  20.169  24.252  1.00  0.00     0.004 C 
ENDBRANCH  15  16
ENDBRANCH   9  15
ENDBRANCH   6   9
ENDBRANCH   4   5
ENDBRANCH   3   4
ENDBRANCH   2   3
ENDBRANCH   1   2
BRANCH   1  18
ATOM     18  C   UNL A   1      32.576  29.778  25.429  1.00  0.00     0.021 C 
BRANCH  18  19
ATOM     19  C   UNL A   1      32.067  30.261  26.784  1.00  0.00     0.116 C 
BRANCH  19  20
ATOM     20  N   UNL A   1      32.016  31.712  26.861  1.00  0.00    -0.352 N 
ATOM     21  C   UNL A   1      32.886  32.589  27.461  1.00  0.00     0.251 C 
ATOM     22  H   UNL A   1      31.243  32.129  26.416  1.00  0.00     0.163 HD
ATOM     23  O   UNL A   1      32.572  33.763  27.608  1.00  0.00    -0.269 OA
BRANCH  21  24
ATOM     24  C   UNL A   1      34.196  32.101  27.941  1.00  0.00     0.039 A 
ATOM     25  C   UNL A   1      35.267  32.995  28.003  1.00  0.00     0.014 A 
ATOM     26  C   UNL A   1      34.359  30.771  28.339  1.00  0.00     0.014 A 
ATOM     27  C   UNL A   1      36.485  32.573  28.537  1.00  0.00     0.010 A 
ATOM     28  C   UNL A   1      35.553  30.372  28.930  1.00  0.00     0.010 A 
ATOM     29  C   UNL A   1      36.625  31.272  29.045  1.00  0.00    -0.014 A 
BRANCH  29  30
ATOM     30  C   UNL A   1      37.854  30.851  29.766  1.00  0.00     0.031 A 
ATOM     31  C   UNL A   1      38.782  29.834  29.162  1.00  0.00     0.074 A 
ATOM     32  C   UNL A   1      38.061  31.299  31.021  1.00  0.00     0.049 A 
ATOM     33  N   UNL A   1      39.840  29.276  29.689  1.00  0.00    -0.248 NA
ATOM     34  C   UNL A   1      38.472  29.368  27.800  1.00  0.00     0.031 C 
ATOM     35  C   UNL A   1      37.186  32.226  31.743  1.00  0.00     0.029 A 
ATOM     36  N   UNL A   1      39.046  31.000  31.930  1.00  0.00    -0.354 N 
ATOM     37  C   UNL A   1      40.295  28.360  28.747  1.00  0.00     0.074 A 
ATOM     38  C   UNL A   1      39.396  28.433  27.617  1.00  0.00     0.031 C 
ATOM     39  C   UNL A   1      37.661  32.405  32.985  1.00  0.00     0.029 A 
ATOM     40  C   UNL A   1      38.847  31.575  33.165  1.00  0.00     0.049 A 
ATOM     41  H   UNL A   1      39.820  30.429  31.719  1.00  0.00     0.167 HD
ATOM     42  C   UNL A   1      41.372  27.545  28.817  1.00  0.00     0.034 A 
ATOM     43  C   UNL A   1      39.521  31.424  34.323  1.00  0.00     0.034 A 
ATOM     44  C   UNL A   1      42.287  27.508  29.926  1.00  0.00     0.049 A 
ATOM     45  C   UNL A   1      40.726  30.525  34.357  1.00  0.00     0.074 A 
ATOM     46  C   UNL A   1      43.477  26.810  30.031  1.00  0.00     0.029 A 
ATOM     47  N   UNL A   1      42.103  28.170  31.128  1.00  0.00    -0.354 N 
ATOM     48  N   UNL A   1      41.257  29.823  33.387  1.00  0.00    -0.248 NA
ATOM     49  C   UNL A   1      41.442  30.417  35.637  1.00  0.00     0.031 C 
ATOM     50  C   UNL A   1      43.989  27.012  31.316  1.00  0.00     0.029 A 
ATOM     51  C   UNL A   1      43.137  27.866  31.996  1.00  0.00     0.049 A 
ATOM     52  H   UNL A   1      41.349  28.768  31.335  1.00  0.00     0.167 HD
ATOM     53  C   UNL A   1      42.381  29.210  33.931  1.00  0.00     0.074 A 
ATOM     54  C   UNL A   1      42.472  29.649  35.307  1.00  0.00     0.031 C 
ATOM     55  C   UNL A   1      43.246  28.345  33.350  1.00  0.00     0.034 A 
BRANCH  42  56
ATOM     56  C   UNL A   1      41.657  26.632  27.655  1.00  0.00     0.023 A 
ATOM     57  C   UNL A   1      42.414  27.102  26.564  1.00  0.00     0.012 A 
ATOM     58  C   UNL A   1      41.277  25.276  27.703  1.00  0.00     0.148 A 
ATOM     59  C   UNL A   1      42.777  26.240  25.530  1.00  0.00     0.002 A 
ATOM     60  C   UNL A   1      41.680  24.413  26.691  1.00  0.00     0.091 A 
ATOM     61  F   UNL A   1      40.542  24.857  28.743  1.00  0.00    -0.205 F 
ATOM     62  C   UNL A   1      42.422  24.895  25.600  1.00  0.00     0.022 A 
BRANCH  60  63
ATOM     63  S   UNL A   1      41.346  22.649  26.731  1.00  0.00     0.127 S 
ATOM     64  O   UNL A   1      39.884  22.628  26.780  1.00  0.00    -0.237 OA
ATOM     65  O   UNL A   1      41.920  22.202  25.462  1.00  0.00    -0.237 OA
ATOM     66  O   UNL A   1      42.012  22.136  27.919  1.00  0.00    -0.744 OA
ENDBRANCH  60  63
ENDBRANCH  42  56
BRANCH  43  67
ATOM     67  C   UNL A   1      39.073  32.143  35.551  1.00  0.00     0.023 A 
ATOM     68  C   UNL A   1      39.353  33.515  35.698  1.00  0.00     0.012 A 
ATOM     69  C   UNL A   1      38.377  31.471  36.575  1.00  0.00     0.148 A 
ATOM     70  C   UNL A   1      38.989  34.195  36.861  1.00  0.00     0.002 A 
ATOM     71  C   UNL A   1      37.961  32.168  37.703  1.00  0.00     0.091 A 
ATOM     72  F   UNL A   1      38.132  30.162  36.426  1.00  0.00    -0.205 F 
ATOM     73  C   UNL A   1      38.285  33.524  37.859  1.00  0.00     0.022 A 
BRANCH  71  74
ATOM     74  S   UNL A   1      36.932  31.414  38.967  1.00  0.00     0.127 S 
ATOM     75  O   UNL A   1      37.776  31.536  40.152  1.00  0.00    -0.237 OA
ATOM     76  O   UNL A   1      35.753  32.280  38.956  1.00  0.00    -0.237 OA
ATOM     77  O   UNL A   1      36.678  30.056  38.503  1.00  0.00    -0.744 OA
ENDBRANCH  71  74
ENDBRANCH  43  67
BRANCH  55  78
ATOM     78  C   UNL A   1      44.384  27.822  34.184  1.00  0.00     0.023 A 
ATOM     79  C   UNL A   1      45.607  28.521  34.213  1.00  0.00     0.012 A 
ATOM     80  C   UNL A   1      44.213  26.692  35.009  1.00  0.00     0.148 A 
ATOM     81  C   UNL A   1      46.651  28.090  35.031  1.00  0.00     0.002 A 
ATOM     82  C   UNL A   1      45.238  26.298  35.858  1.00  0.00     0.091 A 
ATOM     83  F   UNL A   1      43.045  26.035  34.955  1.00  0.00    -0.205 F 
ATOM     84  C   UNL A   1      46.462  26.988  35.862  1.00  0.00     0.022 A 
BRANCH  82  85
ATOM     85  S   UNL A   1      45.058  24.952  37.034  1.00  0.00     0.127 S 
ATOM     86  O   UNL A   1      43.947  25.425  37.859  1.00  0.00    -0.237 OA
ATOM     87  O   UNL A   1      44.734  23.823  36.161  1.00  0.00    -0.237 OA
ATOM     88  O   UNL A   1      46.337  24.840  37.723  1.00  0.00    -0.744 OA
ENDBRANCH  82  85
ENDBRANCH  55  78
ENDBRANCH  29  30
ENDBRANCH  21  24
ENDBRANCH  19  20
ENDBRANCH  18  19
ENDBRANCH   1  18
TORSDOF 18
ENDMDL
MODEL 2
REMARK VINA RESULT:     -11.0      4.018      9.992
REMARK SMILES C#CC[C@]1(C(=O)NCCCCCCNC(=O)c2ccc(-c3c4nc(c(-c5cccc(S(=O)(=O)[O-])c5F)c5ccc([nH]5)c(-c5cccc(S(=O)(=O)[O-])c5F)c5nc(c(-c6cccc(S(=O)(=O)[O-])c6F)c6ccc3[nH]6)C=C5)C=C4)cc2)CC[C@@H](C)C1
REMARK SMILES IDX 11 1 10 2 9 3 8 4 7 5 5 6 6 7 4 9 80 10 84 11 81 12 82 13
REMARK SMILES IDX 83 14 3 15 2 16 1 17 12 18 13 19 14 20 15 21 16 23 17 24
REMARK SMILES IDX 18 25 79 26 19 27 78 28 20 29 21 30 22 31 72 32 23 33 77 34
REMARK SMILES IDX 71 35 73 36 24 37 76 38 70 39 69 40 25 42 57 43 37 44 56 45
REMARK SMILES IDX 38 46 41 47 55 48 74 49 39 50 40 51 54 53 75 54 42 55 26 56
REMARK SMILES IDX 27 57 35 58 28 59 30 60 36 61 29 62 31 63 32 64 33 65 34 66
REMARK SMILES IDX 58 67 59 68 67 69 60 70 62 71 68 72 61 73 63 74 64 75 65 76
REMARK SMILES IDX 66 77 43 78 44 79 52 80 45 81 47 82 53 83 46 84 48 85 49 86
REMARK SMILES IDX 50 87 51 88
REMARK H PARENT 7 8 14 22 73 41 41 52
REMARK Flexibility Score: inf
ROOT
ATOM      1  C   UNL A   1      34.294  34.295  30.277  1.00  0.00     0.002 C 
ENDROOT
BRANCH   1   2
ATOM      2  C   UNL A   1      33.546  35.498  30.865  1.00  0.00     0.002 C 
BRANCH   2   3
ATOM      3  C   UNL A   1      33.387  35.492  32.384  1.00  0.00     0.021 C 
BRANCH   3   4
ATOM      4  C   UNL A   1      34.669  35.788  33.147  1.00  0.00     0.116 C 
BRANCH   4   5
ATOM      5  N   UNL A   1      34.908  34.873  34.239  1.00  0.00    -0.356 N 
ATOM      6  C   UNL A   1      35.831  33.905  34.446  1.00  0.00     0.227 C 
ATOM      7  O   UNL A   1      35.905  33.507  35.620  1.00  0.00    -0.274 OA
ATOM      8  H   UNL A   1      34.271  34.974  34.983  1.00  0.00     0.163 HD
BRANCH   6   9
ATOM      9  C   UNL A   1      36.758  33.271  33.381  1.00  0.00     0.060 C 
ATOM     10  C   UNL A   1      37.398  34.149  32.279  1.00  0.00     0.018 C 
ATOM     11  C   UNL A   1      38.031  32.730  34.079  1.00  0.00     0.021 C 
ATOM     12  C   UNL A   1      38.726  34.694  32.813  1.00  0.00     0.004 C 
ATOM     13  C   UNL A   1      39.063  33.868  34.053  1.00  0.00    -0.013 C 
ATOM     14  C   UNL A   1      39.070  34.710  35.326  1.00  0.00     0.007 C 
BRANCH   9  15
ATOM     15  C   UNL A   1      35.880  32.077  32.815  1.00  0.00     0.106 C 
BRANCH  15  16
ATOM     16  C   UNL A   1      36.624  30.762  32.986  1.00  0.00    -0.106 C 
ATOM     17  C   UNL A   1      37.262  29.634  33.133  1.00  0.00     0.004 C 
ENDBRANCH  15  16
ENDBRANCH   9  15
ENDBRANCH   6   9
ENDBRANCH   4   5
ENDBRANCH   3   4
ENDBRANCH   2   3
ENDBRANCH   1   2
BRANCH   1  18
ATOM     18  C   UNL A   1      35.084  34.562  28.991  1.00  0.00     0.021 C 
BRANCH  18  19
ATOM     19  C   UNL A   1      35.716  33.328  28.353  1.00  0.00     0.116 C 
BRANCH  19  20
ATOM     20  N   UNL A   1      34.713  32.406  27.843  1.00  0.00    -0.352 N 
ATOM     21  C   UNL A   1      34.817  31.066  27.565  1.00  0.00     0.251 C 
ATOM     22  H   UNL A   1      33.828  32.801  27.672  1.00  0.00     0.163 HD
ATOM     23  O   UNL A   1      33.930  30.497  26.941  1.00  0.00    -0.269 OA
BRANCH  21  24
ATOM     24  C   UNL A   1      36.013  30.319  28.009  1.00  0.00     0.039 A 
ATOM     25  C   UNL A   1      37.162  30.351  27.217  1.00  0.00     0.014 A 
ATOM     26  C   UNL A   1      35.999  29.601  29.209  1.00  0.00     0.014 A 
ATOM     27  C   UNL A   1      38.325  29.725  27.665  1.00  0.00     0.010 A 
ATOM     28  C   UNL A   1      37.177  29.034  29.684  1.00  0.00     0.010 A 
ATOM     29  C   UNL A   1      38.355  29.100  28.922  1.00  0.00    -0.014 A 
BRANCH  29  30
ATOM     30  C   UNL A   1      39.621  28.572  29.493  1.00  0.00     0.031 A 
ATOM     31  C   UNL A   1      40.328  29.312  30.594  1.00  0.00     0.074 A 
ATOM     32  C   UNL A   1      40.191  27.489  28.927  1.00  0.00     0.049 A 
ATOM     33  N   UNL A   1      41.488  29.056  31.140  1.00  0.00    -0.248 NA
ATOM     34  C   UNL A   1      39.659  30.505  31.139  1.00  0.00     0.031 C 
ATOM     35  C   UNL A   1      39.638  26.733  27.800  1.00  0.00     0.029 A 
ATOM     36  N   UNL A   1      41.384  26.860  29.191  1.00  0.00    -0.354 N 
ATOM     37  C   UNL A   1      41.711  30.078  32.055  1.00  0.00     0.074 A 
ATOM     38  C   UNL A   1      40.568  30.962  31.990  1.00  0.00     0.031 C 
ATOM     39  C   UNL A   1      40.496  25.760  27.457  1.00  0.00     0.029 A 
ATOM     40  C   UNL A   1      41.677  25.845  28.309  1.00  0.00     0.049 A 
ATOM     41  H   UNL A   1      41.972  27.112  29.939  1.00  0.00     0.167 HD
ATOM     42  C   UNL A   1      42.768  30.251  32.883  1.00  0.00     0.034 A 
ATOM     43  C   UNL A   1      42.786  25.091  28.175  1.00  0.00     0.034 A 
ATOM     44  C   UNL A   1      43.880  29.345  32.973  1.00  0.00     0.049 A 
ATOM     45  C   UNL A   1      43.932  25.299  29.127  1.00  0.00     0.074 A 
ATOM     46  C   UNL A   1      44.931  29.368  33.873  1.00  0.00     0.029 A 
ATOM     47  N   UNL A   1      44.103  28.276  32.123  1.00  0.00    -0.354 N 
ATOM     48  N   UNL A   1      44.033  26.145  30.123  1.00  0.00    -0.248 NA
ATOM     49  C   UNL A   1      45.108  24.432  28.956  1.00  0.00     0.031 C 
ATOM     50  C   UNL A   1      45.817  28.341  33.535  1.00  0.00     0.029 A 
ATOM     51  C   UNL A   1      45.296  27.655  32.451  1.00  0.00     0.049 A 
ATOM     52  H   UNL A   1      43.503  27.998  31.394  1.00  0.00     0.167 HD
ATOM     53  C   UNL A   1      45.268  25.896  30.711  1.00  0.00     0.074 A 
ATOM     54  C   UNL A   1      45.866  24.800  29.980  1.00  0.00     0.031 C 
ATOM     55  C   UNL A   1      45.862  26.533  31.747  1.00  0.00     0.034 A 
BRANCH  42  56
ATOM     56  C   UNL A   1      42.777  31.452  33.790  1.00  0.00     0.023 A 
ATOM     57  C   UNL A   1      43.185  32.705  33.292  1.00  0.00     0.012 A 
ATOM     58  C   UNL A   1      42.264  31.360  35.100  1.00  0.00     0.148 A 
ATOM     59  C   UNL A   1      43.098  33.846  34.087  1.00  0.00     0.002 A 
ATOM     60  C   UNL A   1      42.139  32.509  35.871  1.00  0.00     0.091 A 
ATOM     61  F   UNL A   1      41.898  30.155  35.558  1.00  0.00    -0.205 F 
ATOM     62  C   UNL A   1      42.563  33.751  35.370  1.00  0.00     0.022 A 
BRANCH  60  63
ATOM     63  S   UNL A   1      41.386  32.506  37.502  1.00  0.00     0.127 S 
ATOM     64  O   UNL A   1      41.472  33.919  37.867  1.00  0.00    -0.237 OA
ATOM     65  O   UNL A   1      40.033  32.033  37.211  1.00  0.00    -0.237 OA
ATOM     66  O   UNL A   1      42.188  31.606  38.318  1.00  0.00    -0.744 OA
ENDBRANCH  60  63
ENDBRANCH  42  56
BRANCH  43  67
ATOM     67  C   UNL A   1      42.871  24.065  27.096  1.00  0.00     0.023 A 
ATOM     68  C   UNL A   1      43.591  24.348  25.919  1.00  0.00     0.012 A 
ATOM     69  C   UNL A   1      42.238  22.814  27.229  1.00  0.00     0.148 A 
ATOM     70  C   UNL A   1      43.640  23.422  24.876  1.00  0.00     0.002 A 
ATOM     71  C   UNL A   1      42.344  21.872  26.213  1.00  0.00     0.091 A 
ATOM     72  F   UNL A   1      41.544  22.567  28.349  1.00  0.00    -0.205 F 
ATOM     73  C   UNL A   1      43.025  22.181  25.026  1.00  0.00     0.022 A 
BRANCH  71  74
ATOM     74  S   UNL A   1      41.700  20.204  26.385  1.00  0.00     0.127 S 
ATOM     75  O   UNL A   1      40.262  20.424  26.264  1.00  0.00    -0.237 OA
ATOM     76  O   UNL A   1      42.318  19.521  25.249  1.00  0.00    -0.237 OA
ATOM     77  O   UNL A   1      42.166  19.739  27.685  1.00  0.00    -0.744 OA
ENDBRANCH  71  74
ENDBRANCH  43  67
BRANCH  55  78
ATOM     78  C   UNL A   1      47.224  26.057  32.178  1.00  0.00     0.023 A 
ATOM     79  C   UNL A   1      48.377  26.644  31.622  1.00  0.00     0.012 A 
ATOM     80  C   UNL A   1      47.360  25.095  33.199  1.00  0.00     0.148 A 
ATOM     81  C   UNL A   1      49.647  26.262  32.057  1.00  0.00     0.002 A 
ATOM     82  C   UNL A   1      48.625  24.757  33.662  1.00  0.00     0.091 A 
ATOM     83  F   UNL A   1      46.248  24.539  33.704  1.00  0.00    -0.205 F 
ATOM     84  C   UNL A   1      49.770  25.330  33.084  1.00  0.00     0.022 A 
BRANCH  82  85
ATOM     85  S   UNL A   1      48.882  23.639  35.045  1.00  0.00     0.127 S 
ATOM     86  O   UNL A   1      48.000  22.526  34.696  1.00  0.00    -0.237 OA
ATOM     87  O   UNL A   1      50.311  23.343  34.938  1.00  0.00    -0.237 OA
ATOM     88  O   UNL A   1      48.502  24.379  36.240  1.00  0.00    -0.744 OA
ENDBRANCH  82  85
ENDBRANCH  55  78
ENDBRANCH  29  30
ENDBRANCH  21  24
ENDBRANCH  19  20
ENDBRANCH  18  19
ENDBRANCH   1  18
TORSDOF 18
ENDMDL
MODEL 3
REMARK VINA RESULT:     -11.0      4.343     10.213
REMARK SMILES C#CC[C@]1(C(=O)NCCCCCCNC(=O)c2ccc(-c3c4nc(c(-c5cccc(S(=O)(=O)[O-])c5F)c5ccc([nH]5)c(-c5cccc(S(=O)(=O)[O-])c5F)c5nc(c(-c6cccc(S(=O)(=O)[O-])c6F)c6ccc3[nH]6)C=C5)C=C4)cc2)CC[C@@H](C)C1
REMARK SMILES IDX 11 1 10 2 9 3 8 4 7 5 5 6 6 7 4 9 80 10 84 11 81 12 82 13
REMARK SMILES IDX 83 14 3 15 2 16 1 17 12 18 13 19 14 20 15 21 16 23 17 24
REMARK SMILES IDX 18 25 79 26 19 27 78 28 20 29 21 30 22 31 72 32 23 33 77 34
REMARK SMILES IDX 71 35 73 36 24 37 76 38 70 39 69 40 25 42 57 43 37 44 56 45
REMARK SMILES IDX 38 46 41 47 55 48 74 49 39 50 40 51 54 53 75 54 42 55 26 56
REMARK SMILES IDX 27 57 35 58 28 59 30 60 36 61 29 62 31 63 32 64 33 65 34 66
REMARK SMILES IDX 58 67 59 68 67 69 60 70 62 71 68 72 61 73 63 74 64 75 65 76
REMARK SMILES IDX 66 77 43 78 44 79 52 80 45 81 47 82 53 83 46 84 48 85 49 86
REMARK SMILES IDX 50 87 51 88
REMARK H PARENT 7 8 14 22 73 41 41 52
REMARK Flexibility Score: inf
ROOT
ATOM      1  C   UNL A   1      33.817  34.712  29.563  1.00  0.00     0.002 C 
ENDROOT
BRANCH   1   2
ATOM      2  C   UNL A   1      33.705  35.891  30.537  1.00  0.00     0.002 C 
BRANCH   2   3
ATOM      3  C   UNL A   1      33.540  35.512  32.007  1.00  0.00     0.021 C 
BRANCH   3   4
ATOM      4  C   UNL A   1      34.789  35.719  32.849  1.00  0.00     0.116 C 
BRANCH   4   5
ATOM      5  N   UNL A   1      34.828  34.886  34.028  1.00  0.00    -0.356 N 
ATOM      6  C   UNL A   1      35.772  34.070  34.551  1.00  0.00     0.227 C 
ATOM      7  O   UNL A   1      35.563  33.726  35.726  1.00  0.00    -0.274 OA
ATOM      8  H   UNL A   1      33.999  34.918  34.560  1.00  0.00     0.163 HD
BRANCH   6   9
ATOM      9  C   UNL A   1      37.036  33.541  33.831  1.00  0.00     0.060 C 
ATOM     10  C   UNL A   1      37.474  32.067  34.001  1.00  0.00     0.018 C 
ATOM     11  C   UNL A   1      36.800  33.586  32.301  1.00  0.00     0.021 C 
ATOM     12  C   UNL A   1      36.766  31.231  32.931  1.00  0.00     0.004 C 
ATOM     13  C   UNL A   1      36.213  32.221  31.908  1.00  0.00    -0.013 C 
ATOM     14  C   UNL A   1      34.689  32.209  31.854  1.00  0.00     0.007 C 
BRANCH   9  15
ATOM     15  C   UNL A   1      38.149  34.590  34.256  1.00  0.00     0.106 C 
BRANCH  15  16
ATOM     16  C   UNL A   1      39.293  34.565  33.255  1.00  0.00    -0.106 C 
ATOM     17  C   UNL A   1      40.273  34.542  32.396  1.00  0.00     0.004 C 
ENDBRANCH  15  16
ENDBRANCH   9  15
ENDBRANCH   6   9
ENDBRANCH   4   5
ENDBRANCH   3   4
ENDBRANCH   2   3
ENDBRANCH   1   2
BRANCH   1  18
ATOM     18  C   UNL A   1      35.057  34.706  28.660  1.00  0.00     0.021 C 
BRANCH  18  19
ATOM     19  C   UNL A   1      35.628  33.324  28.358  1.00  0.00     0.116 C 
BRANCH  19  20
ATOM     20  N   UNL A   1      34.593  32.382  27.962  1.00  0.00    -0.352 N 
ATOM     21  C   UNL A   1      34.672  31.027  27.761  1.00  0.00     0.251 C 
ATOM     22  H   UNL A   1      33.703  32.775  27.816  1.00  0.00     0.163 HD
ATOM     23  O   UNL A   1      33.749  30.429  27.223  1.00  0.00    -0.269 OA
BRANCH  21  24
ATOM     24  C   UNL A   1      35.886  30.297  28.185  1.00  0.00     0.039 A 
ATOM     25  C   UNL A   1      37.008  30.312  27.353  1.00  0.00     0.014 A 
ATOM     26  C   UNL A   1      35.917  29.612  29.402  1.00  0.00     0.014 A 
ATOM     27  C   UNL A   1      38.189  29.703  27.778  1.00  0.00     0.010 A 
ATOM     28  C   UNL A   1      37.113  29.062  29.852  1.00  0.00     0.010 A 
ATOM     29  C   UNL A   1      38.264  29.112  29.049  1.00  0.00    -0.014 A 
BRANCH  29  30
ATOM     30  C   UNL A   1      39.551  28.604  29.590  1.00  0.00     0.031 A 
ATOM     31  C   UNL A   1      40.277  29.362  30.667  1.00  0.00     0.074 A 
ATOM     32  C   UNL A   1      40.121  27.524  29.018  1.00  0.00     0.049 A 
ATOM     33  N   UNL A   1      41.454  29.125  31.184  1.00  0.00    -0.248 NA
ATOM     34  C   UNL A   1      39.607  30.550  31.221  1.00  0.00     0.031 C 
ATOM     35  C   UNL A   1      39.548  26.754  27.910  1.00  0.00     0.029 A 
ATOM     36  N   UNL A   1      41.328  26.913  29.255  1.00  0.00    -0.354 N 
ATOM     37  C   UNL A   1      41.688  30.156  32.086  1.00  0.00     0.074 A 
ATOM     38  C   UNL A   1      40.533  31.024  32.044  1.00  0.00     0.031 C 
ATOM     39  C   UNL A   1      40.409  25.789  27.552  1.00  0.00     0.029 A 
ATOM     40  C   UNL A   1      41.611  25.895  28.372  1.00  0.00     0.049 A 
ATOM     41  H   UNL A   1      41.933  27.178  29.985  1.00  0.00     0.167 HD
ATOM     42  C   UNL A   1      42.763  30.349  32.885  1.00  0.00     0.034 A 
ATOM     43  C   UNL A   1      42.726  25.155  28.214  1.00  0.00     0.034 A 
ATOM     44  C   UNL A   1      43.890  29.458  32.952  1.00  0.00     0.049 A 
ATOM     45  C   UNL A   1      43.894  25.384  29.135  1.00  0.00     0.074 A 
ATOM     46  C   UNL A   1      44.964  29.501  33.824  1.00  0.00     0.029 A 
ATOM     47  N   UNL A   1      44.105  28.385  32.104  1.00  0.00    -0.354 N 
ATOM     48  N   UNL A   1      44.009  26.239  30.121  1.00  0.00    -0.248 NA
ATOM     49  C   UNL A   1      45.076  24.531  28.939  1.00  0.00     0.031 C 
ATOM     50  C   UNL A   1      45.853  28.483  33.470  1.00  0.00     0.029 A 
ATOM     51  C   UNL A   1      45.314  27.782  32.405  1.00  0.00     0.049 A 
ATOM     52  H   UNL A   1      43.489  28.094  31.393  1.00  0.00     0.167 HD
ATOM     53  C   UNL A   1      45.263  26.010  30.678  1.00  0.00     0.074 A 
ATOM     54  C   UNL A   1      45.856  24.916  29.940  1.00  0.00     0.031 C 
ATOM     55  C   UNL A   1      45.876  26.663  31.695  1.00  0.00     0.034 A 
BRANCH  42  56
ATOM     56  C   UNL A   1      42.781  31.556  33.783  1.00  0.00     0.023 A 
ATOM     57  C   UNL A   1      43.436  32.732  33.366  1.00  0.00     0.012 A 
ATOM     58  C   UNL A   1      42.043  31.562  34.984  1.00  0.00     0.148 A 
ATOM     59  C   UNL A   1      43.371  33.891  34.137  1.00  0.00     0.002 A 
ATOM     60  C   UNL A   1      41.946  32.734  35.725  1.00  0.00     0.091 A 
ATOM     61  F   UNL A   1      41.443  30.427  35.368  1.00  0.00    -0.205 F 
ATOM     62  C   UNL A   1      42.616  33.896  35.307  1.00  0.00     0.022 A 
BRANCH  60  63
ATOM     63  S   UNL A   1      40.931  32.867  37.201  1.00  0.00     0.127 S 
ATOM     64  O   UNL A   1      41.585  31.910  38.093  1.00  0.00    -0.237 OA
ATOM     65  O   UNL A   1      41.115  34.269  37.571  1.00  0.00    -0.237 OA
ATOM     66  O   UNL A   1      39.578  32.512  36.796  1.00  0.00    -0.744 OA
ENDBRANCH  60  63
ENDBRANCH  42  56
BRANCH  43  67
ATOM     67  C   UNL A   1      42.796  24.122  27.141  1.00  0.00     0.023 A 
ATOM     68  C   UNL A   1      43.487  24.402  25.946  1.00  0.00     0.012 A 
ATOM     69  C   UNL A   1      42.177  22.866  27.296  1.00  0.00     0.148 A 
ATOM     70  C   UNL A   1      43.521  23.469  24.909  1.00  0.00     0.002 A 
ATOM     71  C   UNL A   1      42.269  21.918  26.285  1.00  0.00     0.091 A 
ATOM     72  F   UNL A   1      41.510  22.621  28.434  1.00  0.00    -0.205 F 
ATOM     73  C   UNL A   1      42.921  22.225  25.081  1.00  0.00     0.022 A 
BRANCH  71  74
ATOM     74  S   UNL A   1      41.644  20.246  26.483  1.00  0.00     0.127 S 
ATOM     75  O   UNL A   1      40.200  20.464  26.480  1.00  0.00    -0.237 OA
ATOM     76  O   UNL A   1      42.171  19.581  25.290  1.00  0.00    -0.237 OA
ATOM     77  O   UNL A   1      42.213  19.763  27.734  1.00  0.00    -0.744 OA
ENDBRANCH  71  74
ENDBRANCH  43  67
BRANCH  55  78
ATOM     78  C   UNL A   1      47.254  26.207  32.093  1.00  0.00     0.023 A 
ATOM     79  C   UNL A   1      47.408  25.301  33.160  1.00  0.00     0.012 A 
ATOM     80  C   UNL A   1      48.385  26.604  31.352  1.00  0.00     0.148 A 
ATOM     81  C   UNL A   1      48.671  24.816  33.501  1.00  0.00     0.002 A 
ATOM     82  C   UNL A   1      49.632  26.077  31.665  1.00  0.00     0.091 A 
ATOM     83  F   UNL A   1      48.216  27.477  30.349  1.00  0.00    -0.205 F 
ATOM     84  C   UNL A   1      49.779  25.193  32.746  1.00  0.00     0.022 A 
BRANCH  82  85
ATOM     85  S   UNL A   1      51.102  26.428  30.693  1.00  0.00     0.127 S 
ATOM     86  O   UNL A   1      52.118  25.648  31.398  1.00  0.00    -0.237 OA
ATOM     87  O   UNL A   1      50.733  25.903  29.378  1.00  0.00    -0.237 OA
ATOM     88  O   UNL A   1      51.286  27.872  30.742  1.00  0.00    -0.744 OA
ENDBRANCH  82  85
ENDBRANCH  55  78
ENDBRANCH  29  30
ENDBRANCH  21  24
ENDBRANCH  19  20
ENDBRANCH  18  19
ENDBRANCH   1  18
TORSDOF 18
ENDMDL
