MODEL 1
REMARK VINA RESULT:      -8.8      0.000      0.000
REMARK SMILES C[C@@H](CCC(=O)Nc1ccccn1)C(=O)NCCCCCCNC(=O)c1ccc(-c2c3nc(c(-c4cccc(S(=O)(=O)[O-])c4F)c4ccc([nH]4)c(-c4cccc(S(=O)(=O)[O-])c4F)c4nc(c(-c5cccc(S(=O)(=O)[O-])c5F)c5ccc2[nH]5)C=C4)C=C3)cc1
REMARK SMILES IDX 19 1 18 2 17 3 16 4 14 5 15 6 2 8 1 9 3 10 4 11 5 12 6 13
REMARK SMILES IDX 7 14 8 16 9 17 13 18 10 19 12 20 11 21 20 22 21 23 22 24
REMARK SMILES IDX 23 25 24 26 25 28 26 29 27 30 88 31 28 32 87 33 29 34 30 35
REMARK SMILES IDX 31 36 81 37 32 38 86 39 80 40 82 41 33 42 85 43 79 44 78 45
REMARK SMILES IDX 34 47 66 48 46 49 65 50 47 51 50 52 64 53 83 54 48 55 49 56
REMARK SMILES IDX 63 58 84 59 51 60 35 61 36 62 44 63 37 64 39 65 45 66 38 67
REMARK SMILES IDX 40 68 41 69 42 70 43 71 67 72 68 73 76 74 69 75 71 76 77 77
REMARK SMILES IDX 70 78 72 79 73 80 74 81 75 82 52 83 53 84 61 85 54 86 56 87
REMARK SMILES IDX 62 88 55 89 57 90 58 91 59 92 60 93
REMARK H PARENT 16 7 7 15 23 27 82 46 50 57
REMARK Flexibility Score: inf
ROOT
ATOM      1  C   UNL A   1      35.054  32.486  31.015  1.00  0.00     0.002 C 
ENDROOT
BRANCH   1   2
ATOM      2  C   UNL A   1      36.490  32.420  31.564  1.00  0.00     0.021 C 
BRANCH   2   3
ATOM      3  C   UNL A   1      36.682  31.817  32.977  1.00  0.00     0.116 C 
BRANCH   3   4
ATOM      4  N   UNL A   1      36.926  30.369  32.922  1.00  0.00    -0.356 N 
ATOM      5  C   UNL A   1      37.895  29.475  33.220  1.00  0.00     0.222 C 
ATOM      6  O   UNL A   1      37.486  28.302  33.254  1.00  0.00    -0.275 OA
ATOM      7  H   UNL A   1      36.139  29.906  32.554  1.00  0.00     0.163 HD
BRANCH   5   8
ATOM      8  C   UNL A   1      39.401  29.698  33.463  1.00  0.00     0.076 C 
ATOM      9  C   UNL A   1      39.676  30.754  34.568  1.00  0.00     0.018 C 
BRANCH   8  10
ATOM     10  C   UNL A   1      40.377  28.534  33.548  1.00  0.00     0.023 C 
BRANCH  10  11
ATOM     11  C   UNL A   1      41.699  28.784  34.275  1.00  0.00     0.101 C 
BRANCH  11  12
ATOM     12  C   UNL A   1      41.869  28.118  35.612  1.00  0.00     0.225 C 
ATOM     13  O   UNL A   1      41.682  28.809  36.624  1.00  0.00    -0.275 OA
ATOM     14  N   UNL A   1      42.126  26.816  35.840  1.00  0.00    -0.311 N 
ATOM     15  H   UNL A   1      41.811  26.595  36.746  1.00  0.00     0.171 HD
BRANCH  14  16
ATOM     16  C   UNL A   1      42.669  25.665  35.280  1.00  0.00     0.132 A 
ATOM     17  C   UNL A   1      42.335  24.350  35.521  1.00  0.00     0.047 A 
ATOM     18  N   UNL A   1      43.511  25.977  34.274  1.00  0.00    -0.239 NA
ATOM     19  C   UNL A   1      42.888  23.325  34.741  1.00  0.00     0.005 A 
ATOM     20  C   UNL A   1      44.049  24.981  33.535  1.00  0.00     0.113 A 
ATOM     21  C   UNL A   1      43.773  23.645  33.728  1.00  0.00     0.020 A 
ENDBRANCH  14  16
ENDBRANCH  11  12
ENDBRANCH  10  11
ENDBRANCH   8  10
ENDBRANCH   5   8
ENDBRANCH   3   4
ENDBRANCH   2   3
ENDBRANCH   1   2
BRANCH   1  22
ATOM     22  C   UNL A   1      34.608  33.787  30.346  1.00  0.00     0.002 C 
BRANCH  22  23
ATOM     23  C   UNL A   1      33.941  33.661  28.975  1.00  0.00     0.021 C 
BRANCH  23  24
ATOM     24  C   UNL A   1      34.668  32.806  27.934  1.00  0.00     0.116 C 
BRANCH  24  25
ATOM     25  N   UNL A   1      33.991  31.548  27.650  1.00  0.00    -0.352 N 
ATOM     26  C   UNL A   1      34.459  30.256  27.620  1.00  0.00     0.251 C 
ATOM     27  H   UNL A   1      33.032  31.638  27.445  1.00  0.00     0.163 HD
ATOM     28  O   UNL A   1      33.726  29.365  27.194  1.00  0.00    -0.269 OA
BRANCH  26  29
ATOM     29  C   UNL A   1      35.823  29.914  28.086  1.00  0.00     0.039 A 
ATOM     30  C   UNL A   1      36.895  30.060  27.196  1.00  0.00     0.014 A 
ATOM     31  C   UNL A   1      36.051  29.379  29.356  1.00  0.00     0.014 A 
ATOM     32  C   UNL A   1      38.192  29.716  27.594  1.00  0.00     0.010 A 
ATOM     33  C   UNL A   1      37.352  29.091  29.772  1.00  0.00     0.010 A 
ATOM     34  C   UNL A   1      38.435  29.247  28.894  1.00  0.00    -0.014 A 
BRANCH  34  35
ATOM     35  C   UNL A   1      39.808  28.900  29.346  1.00  0.00     0.031 A 
ATOM     36  C   UNL A   1      40.646  29.920  30.074  1.00  0.00     0.074 A 
ATOM     37  C   UNL A   1      40.331  27.698  29.033  1.00  0.00     0.049 A 
ATOM     38  N   UNL A   1      41.886  29.830  30.483  1.00  0.00    -0.248 NA
ATOM     39  C   UNL A   1      40.015  31.219  30.361  1.00  0.00     0.031 C 
ATOM     40  C   UNL A   1      39.648  26.652  28.268  1.00  0.00     0.029 A 
ATOM     41  N   UNL A   1      41.569  27.162  29.292  1.00  0.00    -0.354 N 
ATOM     42  C   UNL A   1      42.192  31.065  31.044  1.00  0.00     0.074 A 
ATOM     43  C   UNL A   1      41.019  31.899  30.896  1.00  0.00     0.031 C 
ATOM     44  C   UNL A   1      40.477  25.607  28.111  1.00  0.00     0.029 A 
ATOM     45  C   UNL A   1      41.756  25.913  28.744  1.00  0.00     0.049 A 
ATOM     46  H   UNL A   1      42.258  27.627  29.819  1.00  0.00     0.167 HD
ATOM     47  C   UNL A   1      43.335  31.460  31.656  1.00  0.00     0.034 A 
ATOM     48  C   UNL A   1      42.838  25.110  28.746  1.00  0.00     0.034 A 
ATOM     49  C   UNL A   1      44.482  30.613  31.844  1.00  0.00     0.049 A 
ATOM     50  C   UNL A   1      44.076  25.555  29.480  1.00  0.00     0.074 A 
ATOM     51  C   UNL A   1      45.663  30.897  32.508  1.00  0.00     0.029 A 
ATOM     52  N   UNL A   1      44.590  29.313  31.374  1.00  0.00    -0.354 N 
ATOM     53  N   UNL A   1      44.293  26.672  30.131  1.00  0.00    -0.248 NA
ATOM     54  C   UNL A   1      45.203  24.611  29.518  1.00  0.00     0.031 C 
ATOM     55  C   UNL A   1      46.488  29.770  32.434  1.00  0.00     0.029 A 
ATOM     56  C   UNL A   1      45.814  28.780  31.739  1.00  0.00     0.049 A 
ATOM     57  H   UNL A   1      43.898  28.840  30.858  1.00  0.00     0.167 HD
ATOM     58  C   UNL A   1      45.561  26.550  30.687  1.00  0.00     0.074 A 
ATOM     59  C   UNL A   1      46.056  25.241  30.316  1.00  0.00     0.031 C 
ATOM     60  C   UNL A   1      46.262  27.448  31.422  1.00  0.00     0.034 A 
BRANCH  47  61
ATOM     61  C   UNL A   1      43.378  32.850  32.238  1.00  0.00     0.023 A 
ATOM     62  C   UNL A   1      43.785  33.924  31.421  1.00  0.00     0.012 A 
ATOM     63  C   UNL A   1      42.945  33.108  33.554  1.00  0.00     0.148 A 
ATOM     64  C   UNL A   1      43.790  35.229  31.911  1.00  0.00     0.002 A 
ATOM     65  C   UNL A   1      42.914  34.418  34.022  1.00  0.00     0.091 A 
ATOM     66  F   UNL A   1      42.574  32.073  34.320  1.00  0.00    -0.205 F 
ATOM     67  C   UNL A   1      43.345  35.477  33.206  1.00  0.00     0.022 A 
BRANCH  65  68
ATOM     68  S   UNL A   1      42.288  34.857  35.648  1.00  0.00     0.127 S 
ATOM     69  O   UNL A   1      42.740  36.243  35.774  1.00  0.00    -0.237 OA
ATOM     70  O   UNL A   1      40.844  34.702  35.475  1.00  0.00    -0.237 OA
ATOM     71  O   UNL A   1      42.895  33.919  36.582  1.00  0.00    -0.744 OA
ENDBRANCH  65  68
ENDBRANCH  47  61
BRANCH  48  72
ATOM     72  C   UNL A   1      42.781  23.772  28.089  1.00  0.00     0.023 A 
ATOM     73  C   UNL A   1      41.923  22.783  28.609  1.00  0.00     0.012 A 
ATOM     74  C   UNL A   1      43.557  23.476  26.952  1.00  0.00     0.148 A 
ATOM     75  C   UNL A   1      41.869  21.512  28.034  1.00  0.00     0.002 A 
ATOM     76  C   UNL A   1      43.458  22.225  26.351  1.00  0.00     0.091 A 
ATOM     77  F   UNL A   1      44.380  24.421  26.477  1.00  0.00    -0.205 F 
ATOM     78  C   UNL A   1      42.628  21.236  26.901  1.00  0.00     0.022 A 
BRANCH  76  79
ATOM     79  S   UNL A   1      44.303  21.833  24.815  1.00  0.00     0.127 S 
ATOM     80  O   UNL A   1      43.963  20.427  24.634  1.00  0.00    -0.237 OA
ATOM     81  O   UNL A   1      43.667  22.749  23.869  1.00  0.00    -0.237 OA
ATOM     82  O   UNL A   1      45.712  22.124  25.068  1.00  0.00    -0.744 OA
ENDBRANCH  76  79
ENDBRANCH  48  72
BRANCH  60  83
ATOM     83  C   UNL A   1      47.623  27.037  31.917  1.00  0.00     0.023 A 
ATOM     84  C   UNL A   1      48.750  27.216  31.091  1.00  0.00     0.012 A 
ATOM     85  C   UNL A   1      47.793  26.549  33.227  1.00  0.00     0.148 A 
ATOM     86  C   UNL A   1      50.024  26.887  31.552  1.00  0.00     0.002 A 
ATOM     87  C   UNL A   1      49.070  26.267  33.695  1.00  0.00     0.091 A 
ATOM     88  F   UNL A   1      46.705  26.368  33.990  1.00  0.00    -0.205 F 
ATOM     89  C   UNL A   1      50.185  26.425  32.856  1.00  0.00     0.022 A 
BRANCH  87  90
ATOM     90  S   UNL A   1      49.381  25.759  35.390  1.00  0.00     0.127 S 
ATOM     91  O   UNL A   1      48.944  24.364  35.368  1.00  0.00    -0.237 OA
ATOM     92  O   UNL A   1      50.827  25.944  35.511  1.00  0.00    -0.237 OA
ATOM     93  O   UNL A   1      48.588  26.651  36.227  1.00  0.00    -0.744 OA
ENDBRANCH  87  90
ENDBRANCH  60  83
ENDBRANCH  34  35
ENDBRANCH  26  29
ENDBRANCH  24  25
ENDBRANCH  23  24
ENDBRANCH  22  23
ENDBRANCH   1  22
TORSDOF 20
ENDMDL
MODEL 2
REMARK VINA RESULT:      -8.6      0.618      7.827
REMARK SMILES C[C@@H](CCC(=O)Nc1ccccn1)C(=O)NCCCCCCNC(=O)c1ccc(-c2c3nc(c(-c4cccc(S(=O)(=O)[O-])c4F)c4ccc([nH]4)c(-c4cccc(S(=O)(=O)[O-])c4F)c4nc(c(-c5cccc(S(=O)(=O)[O-])c5F)c5ccc2[nH]5)C=C4)C=C3)cc1
REMARK SMILES IDX 19 1 18 2 17 3 16 4 14 5 15 6 2 8 1 9 3 10 4 11 5 12 6 13
REMARK SMILES IDX 7 14 8 16 9 17 13 18 10 19 12 20 11 21 20 22 21 23 22 24
REMARK SMILES IDX 23 25 24 26 25 28 26 29 27 30 88 31 28 32 87 33 29 34 30 35
REMARK SMILES IDX 31 36 81 37 32 38 86 39 80 40 82 41 33 42 85 43 79 44 78 45
REMARK SMILES IDX 34 47 66 48 46 49 65 50 47 51 50 52 64 53 83 54 48 55 49 56
REMARK SMILES IDX 63 58 84 59 51 60 35 61 36 62 44 63 37 64 39 65 45 66 38 67
REMARK SMILES IDX 40 68 41 69 42 70 43 71 67 72 68 73 76 74 69 75 71 76 77 77
REMARK SMILES IDX 70 78 72 79 73 80 74 81 75 82 52 83 53 84 61 85 54 86 56 87
REMARK SMILES IDX 62 88 55 89 57 90 58 91 59 92 60 93
REMARK H PARENT 16 7 7 15 23 27 82 46 50 57
REMARK Flexibility Score: inf
ROOT
ATOM      1  C   UNL A   1      35.025  32.431  30.981  1.00  0.00     0.002 C 
ENDROOT
BRANCH   1   2
ATOM      2  C   UNL A   1      36.526  32.472  31.315  1.00  0.00     0.021 C 
BRANCH   2   3
ATOM      3  C   UNL A   1      36.954  31.979  32.719  1.00  0.00     0.116 C 
BRANCH   3   4
ATOM      4  N   UNL A   1      37.109  30.518  32.759  1.00  0.00    -0.356 N 
ATOM      5  C   UNL A   1      37.983  29.587  33.199  1.00  0.00     0.222 C 
ATOM      6  O   UNL A   1      37.498  28.443  33.247  1.00  0.00    -0.275 OA
ATOM      7  H   UNL A   1      36.335  30.083  32.334  1.00  0.00     0.163 HD
BRANCH   5   8
ATOM      8  C   UNL A   1      39.469  29.732  33.586  1.00  0.00     0.076 C 
ATOM      9  C   UNL A   1      39.664  30.517  34.912  1.00  0.00     0.018 C 
BRANCH   8  10
ATOM     10  C   UNL A   1      40.440  28.567  33.478  1.00  0.00     0.023 C 
BRANCH  10  11
ATOM     11  C   UNL A   1      41.637  28.567  34.430  1.00  0.00     0.101 C 
BRANCH  11  12
ATOM     12  C   UNL A   1      41.616  27.550  35.538  1.00  0.00     0.225 C 
ATOM     13  O   UNL A   1      41.137  27.899  36.627  1.00  0.00    -0.275 OA
ATOM     14  N   UNL A   1      41.993  26.259  35.457  1.00  0.00    -0.311 N 
ATOM     15  H   UNL A   1      41.531  25.761  36.171  1.00  0.00     0.171 HD
BRANCH  14  16
ATOM     16  C   UNL A   1      42.787  25.365  34.750  1.00  0.00     0.132 A 
ATOM     17  C   UNL A   1      43.763  25.634  33.814  1.00  0.00     0.047 A 
ATOM     18  N   UNL A   1      42.621  24.110  35.215  1.00  0.00    -0.239 NA
ATOM     19  C   UNL A   1      44.572  24.601  33.320  1.00  0.00     0.005 A 
ATOM     20  C   UNL A   1      43.398  23.119  34.723  1.00  0.00     0.113 A 
ATOM     21  C   UNL A   1      44.382  23.311  33.778  1.00  0.00     0.020 A 
ENDBRANCH  14  16
ENDBRANCH  11  12
ENDBRANCH  10  11
ENDBRANCH   8  10
ENDBRANCH   5   8
ENDBRANCH   3   4
ENDBRANCH   2   3
ENDBRANCH   1   2
BRANCH   1  22
ATOM     22  C   UNL A   1      34.407  33.669  30.330  1.00  0.00     0.002 C 
BRANCH  22  23
ATOM     23  C   UNL A   1      33.822  33.488  28.927  1.00  0.00     0.021 C 
BRANCH  23  24
ATOM     24  C   UNL A   1      34.637  32.640  27.948  1.00  0.00     0.116 C 
BRANCH  24  25
ATOM     25  N   UNL A   1      34.048  31.333  27.692  1.00  0.00    -0.352 N 
ATOM     26  C   UNL A   1      34.607  30.078  27.672  1.00  0.00     0.251 C 
ATOM     27  H   UNL A   1      33.082  31.351  27.501  1.00  0.00     0.163 HD
ATOM     28  O   UNL A   1      33.933  29.130  27.271  1.00  0.00    -0.269 OA
BRANCH  26  29
ATOM     29  C   UNL A   1      35.999  29.840  28.121  1.00  0.00     0.039 A 
ATOM     30  C   UNL A   1      37.046  30.083  27.223  1.00  0.00     0.014 A 
ATOM     31  C   UNL A   1      36.282  29.309  29.381  1.00  0.00     0.014 A 
ATOM     32  C   UNL A   1      38.370  29.840  27.605  1.00  0.00     0.010 A 
ATOM     33  C   UNL A   1      37.606  29.123  29.782  1.00  0.00     0.010 A 
ATOM     34  C   UNL A   1      38.664  29.376  28.896  1.00  0.00    -0.014 A 
BRANCH  34  35
ATOM     35  C   UNL A   1      40.065  29.135  29.330  1.00  0.00     0.031 A 
ATOM     36  C   UNL A   1      40.740  27.824  29.021  1.00  0.00     0.074 A 
ATOM     37  C   UNL A   1      40.703  30.063  30.071  1.00  0.00     0.049 A 
ATOM     38  N   UNL A   1      41.926  27.400  29.376  1.00  0.00    -0.248 NA
ATOM     39  C   UNL A   1      39.972  26.850  28.226  1.00  0.00     0.031 C 
ATOM     40  C   UNL A   1      40.133  31.342  30.500  1.00  0.00     0.029 A 
ATOM     41  N   UNL A   1      41.962  30.063  30.622  1.00  0.00    -0.354 N 
ATOM     42  C   UNL A   1      42.034  26.106  28.878  1.00  0.00     0.074 A 
ATOM     43  C   UNL A   1      40.781  25.800  28.223  1.00  0.00     0.031 C 
ATOM     44  C   UNL A   1      41.032  31.996  31.253  1.00  0.00     0.029 A 
ATOM     45  C   UNL A   1      42.234  31.178  31.380  1.00  0.00     0.049 A 
ATOM     46  H   UNL A   1      42.608  29.332  30.488  1.00  0.00     0.167 HD
ATOM     47  C   UNL A   1      43.091  25.261  28.933  1.00  0.00     0.034 A 
ATOM     48  C   UNL A   1      43.326  31.502  32.102  1.00  0.00     0.034 A 
ATOM     49  C   UNL A   1      44.352  25.586  29.544  1.00  0.00     0.049 A 
ATOM     50  C   UNL A   1      44.505  30.565  32.100  1.00  0.00     0.074 A 
ATOM     51  C   UNL A   1      45.507  24.824  29.596  1.00  0.00     0.029 A 
ATOM     52  N   UNL A   1      44.627  26.774  30.203  1.00  0.00    -0.354 N 
ATOM     53  N   UNL A   1      44.638  29.407  31.499  1.00  0.00    -0.248 NA
ATOM     54  C   UNL A   1      45.700  30.997  32.838  1.00  0.00     0.031 C 
ATOM     55  C   UNL A   1      46.478  25.549  30.292  1.00  0.00     0.029 A 
ATOM     56  C   UNL A   1      45.934  26.769  30.659  1.00  0.00     0.049 A 
ATOM     57  H   UNL A   1      43.988  27.512  30.329  1.00  0.00     0.167 HD
ATOM     58  C   UNL A   1      45.941  28.993  31.754  1.00  0.00     0.074 A 
ATOM     59  C   UNL A   1      46.563  30.034  32.544  1.00  0.00     0.031 C 
ATOM     60  C   UNL A   1      46.560  27.845  31.383  1.00  0.00     0.034 A 
BRANCH  47  61
ATOM     61  C   UNL A   1      42.960  23.924  28.249  1.00  0.00     0.023 A 
ATOM     62  C   UNL A   1      42.059  22.972  28.768  1.00  0.00     0.012 A 
ATOM     63  C   UNL A   1      43.659  23.637  27.059  1.00  0.00     0.148 A 
ATOM     64  C   UNL A   1      41.875  21.745  28.134  1.00  0.00     0.002 A 
ATOM     65  C   UNL A   1      43.439  22.426  26.409  1.00  0.00     0.091 A 
ATOM     66  F   UNL A   1      44.521  24.547  26.588  1.00  0.00    -0.205 F 
ATOM     67  C   UNL A   1      42.556  21.476  26.950  1.00  0.00     0.022 A 
BRANCH  65  68
ATOM     68  S   UNL A   1      44.209  22.009  24.840  1.00  0.00     0.127 S 
ATOM     69  O   UNL A   1      45.628  22.175  25.153  1.00  0.00    -0.237 OA
ATOM     70  O   UNL A   1      43.786  20.622  24.648  1.00  0.00    -0.237 OA
ATOM     71  O   UNL A   1      43.674  22.950  23.865  1.00  0.00    -0.744 OA
ENDBRANCH  65  68
ENDBRANCH  47  61
BRANCH  48  72
ATOM     72  C   UNL A   1      43.385  32.801  32.831  1.00  0.00     0.023 A 
ATOM     73  C   UNL A   1      43.829  33.954  32.153  1.00  0.00     0.012 A 
ATOM     74  C   UNL A   1      42.998  32.906  34.181  1.00  0.00     0.148 A 
ATOM     75  C   UNL A   1      43.924  35.178  32.817  1.00  0.00     0.002 A 
ATOM     76  C   UNL A   1      43.044  34.142  34.820  1.00  0.00     0.091 A 
ATOM     77  F   UNL A   1      42.593  31.799  34.817  1.00  0.00    -0.205 F 
ATOM     78  C   UNL A   1      43.522  35.275  34.146  1.00  0.00     0.022 A 
BRANCH  76  79
ATOM     79  S   UNL A   1      42.424  34.375  36.490  1.00  0.00     0.127 S 
ATOM     80  O   UNL A   1      41.043  33.923  36.365  1.00  0.00    -0.237 OA
ATOM     81  O   UNL A   1      43.293  33.495  37.270  1.00  0.00    -0.237 OA
ATOM     82  O   UNL A   1      42.609  35.796  36.773  1.00  0.00    -0.744 OA
ENDBRANCH  76  79
ENDBRANCH  48  72
BRANCH  60  83
ATOM     83  C   UNL A   1      48.000  27.665  31.787  1.00  0.00     0.023 A 
ATOM     84  C   UNL A   1      49.023  28.199  30.980  1.00  0.00     0.012 A 
ATOM     85  C   UNL A   1      48.331  27.039  33.004  1.00  0.00     0.148 A 
ATOM     86  C   UNL A   1      50.359  28.084  31.364  1.00  0.00     0.002 A 
ATOM     87  C   UNL A   1      49.659  26.969  33.403  1.00  0.00     0.091 A 
ATOM     88  F   UNL A   1      47.342  26.521  33.748  1.00  0.00    -0.205 F 
ATOM     89  C   UNL A   1      50.675  27.481  32.580  1.00  0.00     0.022 A 
BRANCH  87  90
ATOM     90  S   UNL A   1      50.151  26.297  34.995  1.00  0.00     0.127 S 
ATOM     91  O   UNL A   1      49.615  24.938  34.923  1.00  0.00    -0.237 OA
ATOM     92  O   UNL A   1      51.610  26.380  34.932  1.00  0.00    -0.237 OA
ATOM     93  O   UNL A   1      49.542  27.160  35.998  1.00  0.00    -0.744 OA
ENDBRANCH  87  90
ENDBRANCH  60  83
ENDBRANCH  34  35
ENDBRANCH  26  29
ENDBRANCH  24  25
ENDBRANCH  23  24
ENDBRANCH  22  23
ENDBRANCH   1  22
TORSDOF 20
ENDMDL
MODEL 3
REMARK VINA RESULT:      -8.3      2.717      4.229
REMARK SMILES C[C@@H](CCC(=O)Nc1ccccn1)C(=O)NCCCCCCNC(=O)c1ccc(-c2c3nc(c(-c4cccc(S(=O)(=O)[O-])c4F)c4ccc([nH]4)c(-c4cccc(S(=O)(=O)[O-])c4F)c4nc(c(-c5cccc(S(=O)(=O)[O-])c5F)c5ccc2[nH]5)C=C4)C=C3)cc1
REMARK SMILES IDX 19 1 18 2 17 3 16 4 14 5 15 6 2 8 1 9 3 10 4 11 5 12 6 13
REMARK SMILES IDX 7 14 8 16 9 17 13 18 10 19 12 20 11 21 20 22 21 23 22 24
REMARK SMILES IDX 23 25 24 26 25 28 26 29 27 30 88 31 28 32 87 33 29 34 30 35
REMARK SMILES IDX 31 36 81 37 32 38 86 39 80 40 82 41 33 42 85 43 79 44 78 45
REMARK SMILES IDX 34 47 66 48 46 49 65 50 47 51 50 52 64 53 83 54 48 55 49 56
REMARK SMILES IDX 63 58 84 59 51 60 35 61 36 62 44 63 37 64 39 65 45 66 38 67
REMARK SMILES IDX 40 68 41 69 42 70 43 71 67 72 68 73 76 74 69 75 71 76 77 77
REMARK SMILES IDX 70 78 72 79 73 80 74 81 75 82 52 83 53 84 61 85 54 86 56 87
REMARK SMILES IDX 62 88 55 89 57 90 58 91 59 92 60 93
REMARK H PARENT 16 7 7 15 23 27 82 46 50 57
REMARK Flexibility Score: inf
ROOT
ATOM      1  C   UNL A   1      35.209  32.626  31.119  1.00  0.00     0.002 C 
ENDROOT
BRANCH   1   2
ATOM      2  C   UNL A   1      36.741  32.761  31.164  1.00  0.00     0.021 C 
BRANCH   2   3
ATOM      3  C   UNL A   1      37.344  34.129  30.762  1.00  0.00     0.116 C 
BRANCH   3   4
ATOM      4  N   UNL A   1      38.626  34.378  31.436  1.00  0.00    -0.356 N 
ATOM      5  C   UNL A   1      39.191  34.245  32.656  1.00  0.00     0.222 C 
ATOM      6  O   UNL A   1      40.431  34.338  32.635  1.00  0.00    -0.275 OA
ATOM      7  H   UNL A   1      39.274  34.761  30.802  1.00  0.00     0.163 HD
BRANCH   5   8
ATOM      8  C   UNL A   1      38.528  34.053  34.035  1.00  0.00     0.076 C 
ATOM      9  C   UNL A   1      37.102  34.664  34.100  1.00  0.00     0.018 C 
BRANCH   8  10
ATOM     10  C   UNL A   1      38.604  32.729  34.780  1.00  0.00     0.023 C 
BRANCH  10  11
ATOM     11  C   UNL A   1      37.675  32.552  35.983  1.00  0.00     0.101 C 
BRANCH  11  12
ATOM     12  C   UNL A   1      37.905  31.336  36.837  1.00  0.00     0.225 C 
ATOM     13  O   UNL A   1      38.301  30.306  36.272  1.00  0.00    -0.275 OA
ATOM     14  N   UNL A   1      37.805  31.259  38.178  1.00  0.00    -0.311 N 
ATOM     15  H   UNL A   1      38.359  30.505  38.484  1.00  0.00     0.171 HD
BRANCH  14  16
ATOM     16  C   UNL A   1      37.214  31.841  39.293  1.00  0.00     0.132 A 
ATOM     17  C   UNL A   1      37.685  32.872  40.078  1.00  0.00     0.047 A 
ATOM     18  N   UNL A   1      35.958  31.381  39.461  1.00  0.00    -0.239 NA
ATOM     19  C   UNL A   1      36.872  33.432  41.073  1.00  0.00     0.005 A 
ATOM     20  C   UNL A   1      35.185  31.918  40.431  1.00  0.00     0.113 A 
ATOM     21  C   UNL A   1      35.593  32.940  41.262  1.00  0.00     0.020 A 
ENDBRANCH  14  16
ENDBRANCH  11  12
ENDBRANCH  10  11
ENDBRANCH   8  10
ENDBRANCH   5   8
ENDBRANCH   3   4
ENDBRANCH   2   3
ENDBRANCH   1   2
BRANCH   1  22
ATOM     22  C   UNL A   1      34.397  33.860  30.723  1.00  0.00     0.002 C 
BRANCH  22  23
ATOM     23  C   UNL A   1      34.073  34.022  29.237  1.00  0.00     0.021 C 
BRANCH  23  24
ATOM     24  C   UNL A   1      34.877  33.159  28.261  1.00  0.00     0.116 C 
BRANCH  24  25
ATOM     25  N   UNL A   1      34.122  32.029  27.736  1.00  0.00    -0.352 N 
ATOM     26  C   UNL A   1      34.476  30.715  27.546  1.00  0.00     0.251 C 
ATOM     27  H   UNL A   1      33.198  32.244  27.473  1.00  0.00     0.163 HD
ATOM     28  O   UNL A   1      33.710  29.973  26.934  1.00  0.00    -0.269 OA
BRANCH  26  29
ATOM     29  C   UNL A   1      35.756  30.174  28.060  1.00  0.00     0.039 A 
ATOM     30  C   UNL A   1      35.782  29.615  29.344  1.00  0.00     0.014 A 
ATOM     31  C   UNL A   1      36.941  30.280  27.331  1.00  0.00     0.014 A 
ATOM     32  C   UNL A   1      36.982  29.123  29.872  1.00  0.00     0.010 A 
ATOM     33  C   UNL A   1      38.125  29.736  27.833  1.00  0.00     0.010 A 
ATOM     34  C   UNL A   1      38.161  29.161  29.112  1.00  0.00    -0.014 A 
BRANCH  34  35
ATOM     35  C   UNL A   1      39.440  28.621  29.643  1.00  0.00     0.031 A 
ATOM     36  C   UNL A   1      40.114  29.284  30.817  1.00  0.00     0.074 A 
ATOM     37  C   UNL A   1      40.036  27.583  29.022  1.00  0.00     0.049 A 
ATOM     38  N   UNL A   1      41.264  29.006  31.376  1.00  0.00    -0.248 NA
ATOM     39  C   UNL A   1      39.414  30.426  31.429  1.00  0.00     0.031 C 
ATOM     40  C   UNL A   1      39.522  26.901  27.833  1.00  0.00     0.029 A 
ATOM     41  N   UNL A   1      41.220  26.939  29.286  1.00  0.00    -0.354 N 
ATOM     42  C   UNL A   1      41.440  29.952  32.379  1.00  0.00     0.074 A 
ATOM     43  C   UNL A   1      40.293  30.833  32.334  1.00  0.00     0.031 C 
ATOM     44  C   UNL A   1      40.388  25.944  27.464  1.00  0.00     0.029 A 
ATOM     45  C   UNL A   1      41.528  25.955  28.375  1.00  0.00     0.049 A 
ATOM     46  H   UNL A   1      41.795  27.161  30.054  1.00  0.00     0.167 HD
ATOM     47  C   UNL A   1      42.447  30.059  33.279  1.00  0.00     0.034 A 
ATOM     48  C   UNL A   1      42.610  25.156  28.280  1.00  0.00     0.034 A 
ATOM     49  C   UNL A   1      43.561  29.152  33.352  1.00  0.00     0.049 A 
ATOM     50  C   UNL A   1      43.689  25.264  29.326  1.00  0.00     0.074 A 
ATOM     51  C   UNL A   1      44.601  29.136  34.266  1.00  0.00     0.029 A 
ATOM     52  N   UNL A   1      43.779  28.096  32.480  1.00  0.00    -0.354 N 
ATOM     53  N   UNL A   1      43.763  26.072  30.355  1.00  0.00    -0.248 NA
ATOM     54  C   UNL A   1      44.812  24.320  29.224  1.00  0.00     0.031 C 
ATOM     55  C   UNL A   1      45.450  28.073  33.944  1.00  0.00     0.029 A 
ATOM     56  C   UNL A   1      44.930  27.417  32.840  1.00  0.00     0.049 A 
ATOM     57  H   UNL A   1      43.200  27.863  31.719  1.00  0.00     0.167 HD
ATOM     58  C   UNL A   1      44.916  25.710  31.043  1.00  0.00     0.074 A 
ATOM     59  C   UNL A   1      45.497  24.594  30.327  1.00  0.00     0.031 C 
ATOM     60  C   UNL A   1      45.456  26.264  32.156  1.00  0.00     0.034 A 
BRANCH  47  61
ATOM     61  C   UNL A   1      42.357  31.154  34.310  1.00  0.00     0.023 A 
ATOM     62  C   UNL A   1      41.718  30.890  35.539  1.00  0.00     0.012 A 
ATOM     63  C   UNL A   1      42.965  32.408  34.103  1.00  0.00     0.148 A 
ATOM     64  C   UNL A   1      41.659  31.863  36.535  1.00  0.00     0.002 A 
ATOM     65  C   UNL A   1      42.937  33.360  35.118  1.00  0.00     0.091 A 
ATOM     66  F   UNL A   1      43.555  32.647  32.924  1.00  0.00    -0.205 F 
ATOM     67  C   UNL A   1      42.277  33.093  36.329  1.00  0.00     0.022 A 
BRANCH  65  68
ATOM     68  S   UNL A   1      43.765  34.950  34.985  1.00  0.00     0.127 S 
ATOM     69  O   UNL A   1      43.343  35.393  33.656  1.00  0.00    -0.237 OA
ATOM     70  O   UNL A   1      43.172  35.699  36.093  1.00  0.00    -0.237 OA
ATOM     71  O   UNL A   1      45.188  34.677  35.126  1.00  0.00    -0.744 OA
ENDBRANCH  65  68
ENDBRANCH  47  61
BRANCH  48  72
ATOM     72  C   UNL A   1      42.700  24.137  27.195  1.00  0.00     0.023 A 
ATOM     73  C   UNL A   1      43.406  24.445  26.015  1.00  0.00     0.012 A 
ATOM     74  C   UNL A   1      42.103  22.869  27.325  1.00  0.00     0.148 A 
ATOM     75  C   UNL A   1      43.482  23.524  24.969  1.00  0.00     0.002 A 
ATOM     76  C   UNL A   1      42.230  21.935  26.301  1.00  0.00     0.091 A 
ATOM     77  F   UNL A   1      41.422  22.596  28.446  1.00  0.00    -0.205 F 
ATOM     78  C   UNL A   1      42.904  22.267  25.116  1.00  0.00     0.022 A 
BRANCH  76  79
ATOM     79  S   UNL A   1      41.625  20.252  26.464  1.00  0.00     0.127 S 
ATOM     80  O   UNL A   1      40.182  20.440  26.373  1.00  0.00    -0.237 OA
ATOM     81  O   UNL A   1      42.235  19.590  25.311  1.00  0.00    -0.237 OA
ATOM     82  O   UNL A   1      42.130  19.785  27.752  1.00  0.00    -0.744 OA
ENDBRANCH  76  79
ENDBRANCH  48  72
BRANCH  60  83
ATOM     83  C   UNL A   1      46.717  25.648  32.702  1.00  0.00     0.023 A 
ATOM     84  C   UNL A   1      47.971  26.132  32.279  1.00  0.00     0.012 A 
ATOM     85  C   UNL A   1      46.658  24.648  33.692  1.00  0.00     0.148 A 
ATOM     86  C   UNL A   1      49.148  25.607  32.811  1.00  0.00     0.002 A 
ATOM     87  C   UNL A   1      47.833  24.163  34.251  1.00  0.00     0.091 A 
ATOM     88  F   UNL A   1      45.455  24.188  34.066  1.00  0.00    -0.205 F 
ATOM     89  C   UNL A   1      49.079  24.633  33.804  1.00  0.00     0.022 A 
BRANCH  87  90
ATOM     90  S   UNL A   1      47.838  22.978  35.601  1.00  0.00     0.127 S 
ATOM     91  O   UNL A   1      49.258  22.643  35.699  1.00  0.00    -0.237 OA
ATOM     92  O   UNL A   1      47.319  23.771  36.715  1.00  0.00    -0.237 OA
ATOM     93  O   UNL A   1      46.965  21.889  35.180  1.00  0.00    -0.744 OA
ENDBRANCH  87  90
ENDBRANCH  60  83
ENDBRANCH  34  35
ENDBRANCH  26  29
ENDBRANCH  24  25
ENDBRANCH  23  24
ENDBRANCH  22  23
ENDBRANCH   1  22
TORSDOF 20
ENDMDL
