MODEL 1
REMARK VINA RESULT:     -10.9      0.000      0.000
REMARK SMILES COCCCNC(=O)C[N@H+]1CC[C@H](C(=O)NCCCCCCNC(=O)c2ccc(-c3c4nc(c(-c5cccc(S(=O)(=O)[O-])c5F)c5ccc([nH]5)c(-c5cccc(S(=O)(=O)[O-])c5F)c5nc(c(-c6cccc(S(=O)(=O)[O-])c6F)c6ccc3[nH]6)C=C5)C=C4)cc2)[C@@H]1C
REMARK SMILES IDX 18 1 17 2 16 3 14 4 15 5 13 7 10 8 11 9 89 10 12 12 90 13
REMARK SMILES IDX 9 14 7 15 6 16 8 18 5 19 4 20 3 21 2 22 1 23 19 24 20 25
REMARK SMILES IDX 21 26 22 27 23 28 24 29 25 31 26 32 27 33 88 34 28 35 87 36
REMARK SMILES IDX 29 37 30 38 31 39 81 40 32 41 86 42 80 43 82 44 33 45 85 46
REMARK SMILES IDX 79 47 78 48 34 50 66 51 46 52 65 53 47 54 50 55 64 56 83 57
REMARK SMILES IDX 48 58 49 59 63 61 84 62 51 63 35 64 36 65 44 66 37 67 39 68
REMARK SMILES IDX 45 69 38 70 40 71 41 72 42 73 43 74 67 75 68 76 76 77 69 78
REMARK SMILES IDX 71 79 77 80 70 81 72 82 73 83 74 84 75 85 52 86 53 87 61 88
REMARK SMILES IDX 54 89 56 90 62 91 55 92 57 93 58 94 59 95 60 96
REMARK H PARENT 16 6 10 11 6 17 23 30 82 49 50 60
REMARK Flexibility Score: inf
ROOT
ATOM      1  C   UNL A   1      29.816  27.960  23.127  1.00  0.00     0.021 C 
ENDROOT
BRANCH   1   2
ATOM      2  C   UNL A   1      30.443  26.564  23.097  1.00  0.00     0.116 C 
BRANCH   2   3
ATOM      3  N   UNL A   1      31.475  26.468  22.075  1.00  0.00    -0.356 N 
ATOM      4  C   UNL A   1      32.485  25.572  21.897  1.00  0.00     0.229 C 
ATOM      5  O   UNL A   1      33.249  25.743  20.947  1.00  0.00    -0.275 OA
ATOM      6  H   UNL A   1      31.436  27.175  21.392  1.00  0.00     0.163 HD
BRANCH   4   7
ATOM      7  C   UNL A   1      32.626  24.402  22.849  1.00  0.00     0.142 C 
ATOM      8  N   UNL A   1      34.015  23.577  24.605  1.00  0.00    -0.324 N 
ATOM      9  C   UNL A   1      34.605  23.095  23.355  1.00  0.00     0.263 C 
ATOM     10  C   UNL A   1      33.162  24.723  24.246  1.00  0.00     0.194 C 
ATOM     11  H   UNL A   1      34.765  23.871  25.231  1.00  0.00     0.348 HD
ATOM     12  C   UNL A   1      33.538  23.304  22.295  1.00  0.00     0.081 C 
ATOM     13  C   UNL A   1      34.006  25.998  24.347  1.00  0.00     0.076 C 
BRANCH   8  14
ATOM     14  C   UNL A   1      33.397  22.570  25.490  1.00  0.00     0.363 C 
BRANCH  14  15
ATOM     15  C   UNL A   1      34.228  21.328  25.821  1.00  0.00     0.275 C 
ATOM     16  N   UNL A   1      33.890  20.093  25.353  1.00  0.00    -0.351 N 
ATOM     17  H   UNL A   1      34.519  19.377  25.595  1.00  0.00     0.163 HD
ATOM     18  O   UNL A   1      35.229  21.397  26.542  1.00  0.00    -0.269 OA
BRANCH  16  19
ATOM     19  C   UNL A   1      32.758  19.661  24.558  1.00  0.00     0.118 C 
BRANCH  19  20
ATOM     20  C   UNL A   1      33.007  18.313  23.867  1.00  0.00     0.050 C 
BRANCH  20  21
ATOM     21  C   UNL A   1      34.302  17.604  24.253  1.00  0.00     0.161 C 
BRANCH  21  22
ATOM     22  O   UNL A   1      34.104  16.273  24.709  1.00  0.00    -0.385 OA
ATOM     23  C   UNL A   1      33.016  16.109  25.601  1.00  0.00     0.194 C 
ENDBRANCH  21  22
ENDBRANCH  20  21
ENDBRANCH  19  20
ENDBRANCH  16  19
ENDBRANCH  14  15
ENDBRANCH   8  14
ENDBRANCH   4   7
ENDBRANCH   2   3
ENDBRANCH   1   2
BRANCH   1  24
ATOM     24  C   UNL A   1      30.816  29.118  23.227  1.00  0.00     0.002 C 
BRANCH  24  25
ATOM     25  C   UNL A   1      31.002  29.704  24.629  1.00  0.00     0.002 C 
BRANCH  25  26
ATOM     26  C   UNL A   1      32.346  29.390  25.289  1.00  0.00     0.021 C 
BRANCH  26  27
ATOM     27  C   UNL A   1      32.490  29.886  26.725  1.00  0.00     0.116 C 
BRANCH  27  28
ATOM     28  N   UNL A   1      32.518  31.338  26.817  1.00  0.00    -0.352 N 
ATOM     29  C   UNL A   1      33.437  32.150  27.433  1.00  0.00     0.251 C 
ATOM     30  H   UNL A   1      31.772  31.804  26.375  1.00  0.00     0.163 HD
ATOM     31  O   UNL A   1      33.213  33.355  27.551  1.00  0.00    -0.269 OA
BRANCH  29  32
ATOM     32  C   UNL A   1      34.685  31.573  27.974  1.00  0.00     0.039 A 
ATOM     33  C   UNL A   1      35.812  32.389  28.104  1.00  0.00     0.014 A 
ATOM     34  C   UNL A   1      34.741  30.231  28.363  1.00  0.00     0.014 A 
ATOM     35  C   UNL A   1      36.976  31.875  28.681  1.00  0.00     0.010 A 
ATOM     36  C   UNL A   1      35.875  29.745  29.008  1.00  0.00     0.010 A 
ATOM     37  C   UNL A   1      37.006  30.559  29.169  1.00  0.00    -0.014 A 
BRANCH  37  38
ATOM     38  C   UNL A   1      38.205  30.017  29.858  1.00  0.00     0.031 A 
ATOM     39  C   UNL A   1      38.561  30.485  31.244  1.00  0.00     0.074 A 
ATOM     40  C   UNL A   1      39.025  29.171  29.203  1.00  0.00     0.049 A 
ATOM     41  N   UNL A   1      39.588  30.159  31.986  1.00  0.00    -0.248 NA
ATOM     42  C   UNL A   1      37.661  31.469  31.865  1.00  0.00     0.031 C 
ATOM     43  C   UNL A   1      38.830  28.696  27.832  1.00  0.00     0.029 A 
ATOM     44  N   UNL A   1      40.197  28.576  29.597  1.00  0.00    -0.354 N 
ATOM     45  C   UNL A   1      39.479  30.924  33.141  1.00  0.00     0.074 A 
ATOM     46  C   UNL A   1      38.307  31.759  32.984  1.00  0.00     0.031 C 
ATOM     47  C   UNL A   1      39.834  27.866  27.506  1.00  0.00     0.029 A 
ATOM     48  C   UNL A   1      40.763  27.779  28.629  1.00  0.00     0.049 A 
ATOM     49  H   UNL A   1      40.596  28.707  30.487  1.00  0.00     0.167 HD
ATOM     50  C   UNL A   1      40.266  30.917  34.244  1.00  0.00     0.034 A 
ATOM     51  C   UNL A   1      41.903  27.060  28.643  1.00  0.00     0.034 A 
ATOM     52  C   UNL A   1      41.410  30.060  34.410  1.00  0.00     0.049 A 
ATOM     53  C   UNL A   1      42.751  27.056  29.885  1.00  0.00     0.074 A 
ATOM     54  C   UNL A   1      42.215  29.906  35.524  1.00  0.00     0.029 A 
ATOM     55  N   UNL A   1      41.923  29.227  33.428  1.00  0.00    -0.354 N 
ATOM     56  N   UNL A   1      42.545  27.663  31.028  1.00  0.00    -0.248 NA
ATOM     57  C   UNL A   1      43.975  26.242  29.849  1.00  0.00     0.031 C 
ATOM     58  C   UNL A   1      43.238  29.008  35.202  1.00  0.00     0.029 A 
ATOM     59  C   UNL A   1      43.047  28.571  33.901  1.00  0.00     0.049 A 
ATOM     60  H   UNL A   1      41.543  29.116  32.526  1.00  0.00     0.167 HD
ATOM     61  C   UNL A   1      43.588  27.271  31.861  1.00  0.00     0.074 A 
ATOM     62  C   UNL A   1      44.415  26.364  31.093  1.00  0.00     0.031 C 
ATOM     63  C   UNL A   1      43.838  27.636  33.143  1.00  0.00     0.034 A 
BRANCH  50  64
ATOM     64  C   UNL A   1      39.892  31.847  35.371  1.00  0.00     0.023 A 
ATOM     65  C   UNL A   1      40.475  33.130  35.446  1.00  0.00     0.012 A 
ATOM     66  C   UNL A   1      38.945  31.464  36.342  1.00  0.00     0.148 A 
ATOM     67  C   UNL A   1      40.163  33.994  36.496  1.00  0.00     0.002 A 
ATOM     68  C   UNL A   1      38.602  32.351  37.357  1.00  0.00     0.091 A 
ATOM     69  F   UNL A   1      38.415  30.235  36.270  1.00  0.00    -0.205 F 
ATOM     70  C   UNL A   1      39.222  33.608  37.444  1.00  0.00     0.022 A 
BRANCH  68  71
ATOM     71  S   UNL A   1      37.339  31.976  38.577  1.00  0.00     0.127 S 
ATOM     72  O   UNL A   1      38.012  32.347  39.821  1.00  0.00    -0.237 OA
ATOM     73  O   UNL A   1      36.252  32.873  38.182  1.00  0.00    -0.237 OA
ATOM     74  O   UNL A   1      37.042  30.560  38.423  1.00  0.00    -0.744 OA
ENDBRANCH  68  71
ENDBRANCH  50  64
BRANCH  51  75
ATOM     75  C   UNL A   1      42.263  26.214  27.469  1.00  0.00     0.023 A 
ATOM     76  C   UNL A   1      42.995  26.788  26.411  1.00  0.00     0.012 A 
ATOM     77  C   UNL A   1      41.917  24.851  27.406  1.00  0.00     0.148 A 
ATOM     78  C   UNL A   1      43.352  26.027  25.298  1.00  0.00     0.002 A 
ATOM     79  C   UNL A   1      42.322  24.085  26.319  1.00  0.00     0.091 A 
ATOM     80  F   UNL A   1      41.216  24.327  28.422  1.00  0.00    -0.205 F 
ATOM     81  C   UNL A   1      43.025  24.675  25.256  1.00  0.00     0.022 A 
BRANCH  79  82
ATOM     82  S   UNL A   1      42.054  22.311  26.232  1.00  0.00     0.127 S 
ATOM     83  O   UNL A   1      42.675  21.854  27.473  1.00  0.00    -0.237 OA
ATOM     84  O   UNL A   1      40.593  22.231  26.206  1.00  0.00    -0.237 OA
ATOM     85  O   UNL A   1      42.704  21.872  25.005  1.00  0.00    -0.744 OA
ENDBRANCH  79  82
ENDBRANCH  51  75
BRANCH  63  86
ATOM     86  C   UNL A   1      45.038  27.024  33.822  1.00  0.00     0.023 A 
ATOM     87  C   UNL A   1      46.326  27.547  33.591  1.00  0.00     0.012 A 
ATOM     88  C   UNL A   1      44.877  25.971  34.746  1.00  0.00     0.148 A 
ATOM     89  C   UNL A   1      47.436  27.012  34.241  1.00  0.00     0.002 A 
ATOM     90  C   UNL A   1      45.981  25.478  35.430  1.00  0.00     0.091 A 
ATOM     91  F   UNL A   1      43.647  25.473  34.939  1.00  0.00    -0.205 F 
ATOM     92  C   UNL A   1      47.263  25.987  35.169  1.00  0.00     0.022 A 
BRANCH  90  93
ATOM     93  S   UNL A   1      45.841  24.230  36.714  1.00  0.00     0.127 S 
ATOM     94  O   UNL A   1      47.241  24.009  37.069  1.00  0.00    -0.237 OA
ATOM     95  O   UNL A   1      45.056  24.924  37.735  1.00  0.00    -0.237 OA
ATOM     96  O   UNL A   1      45.165  23.094  36.100  1.00  0.00    -0.744 OA
ENDBRANCH  90  93
ENDBRANCH  63  86
ENDBRANCH  37  38
ENDBRANCH  29  32
ENDBRANCH  27  28
ENDBRANCH  26  27
ENDBRANCH  25  26
ENDBRANCH  24  25
ENDBRANCH   1  24
TORSDOF 22
ENDMDL
MODEL 2
REMARK VINA RESULT:     -10.4      2.331      2.772
REMARK SMILES COCCCNC(=O)C[N@H+]1CC[C@H](C(=O)NCCCCCCNC(=O)c2ccc(-c3c4nc(c(-c5cccc(S(=O)(=O)[O-])c5F)c5ccc([nH]5)c(-c5cccc(S(=O)(=O)[O-])c5F)c5nc(c(-c6cccc(S(=O)(=O)[O-])c6F)c6ccc3[nH]6)C=C5)C=C4)cc2)[C@@H]1C
REMARK SMILES IDX 18 1 17 2 16 3 14 4 15 5 13 7 10 8 11 9 89 10 12 12 90 13
REMARK SMILES IDX 9 14 7 15 6 16 8 18 5 19 4 20 3 21 2 22 1 23 19 24 20 25
REMARK SMILES IDX 21 26 22 27 23 28 24 29 25 31 26 32 27 33 88 34 28 35 87 36
REMARK SMILES IDX 29 37 30 38 31 39 81 40 32 41 86 42 80 43 82 44 33 45 85 46
REMARK SMILES IDX 79 47 78 48 34 50 66 51 46 52 65 53 47 54 50 55 64 56 83 57
REMARK SMILES IDX 48 58 49 59 63 61 84 62 51 63 35 64 36 65 44 66 37 67 39 68
REMARK SMILES IDX 45 69 38 70 40 71 41 72 42 73 43 74 67 75 68 76 76 77 69 78
REMARK SMILES IDX 71 79 77 80 70 81 72 82 73 83 74 84 75 85 52 86 53 87 61 88
REMARK SMILES IDX 54 89 56 90 62 91 55 92 57 93 58 94 59 95 60 96
REMARK H PARENT 16 6 10 11 6 17 23 30 82 49 50 60
REMARK Flexibility Score: inf
ROOT
ATOM      1  C   UNL A   1      29.975  28.165  23.452  1.00  0.00     0.021 C 
ENDROOT
BRANCH   1   2
ATOM      2  C   UNL A   1      30.361  26.776  22.940  1.00  0.00     0.116 C 
BRANCH   2   3
ATOM      3  N   UNL A   1      31.529  26.836  22.073  1.00  0.00    -0.356 N 
ATOM      4  C   UNL A   1      32.580  25.984  21.917  1.00  0.00     0.229 C 
ATOM      5  O   UNL A   1      33.464  26.296  21.120  1.00  0.00    -0.275 OA
ATOM      6  H   UNL A   1      31.566  27.634  21.497  1.00  0.00     0.163 HD
BRANCH   4   7
ATOM      7  C   UNL A   1      32.619  24.691  22.706  1.00  0.00     0.142 C 
ATOM      8  N   UNL A   1      33.931  23.528  24.325  1.00  0.00    -0.324 N 
ATOM      9  C   UNL A   1      34.480  23.167  23.018  1.00  0.00     0.263 C 
ATOM     10  C   UNL A   1      33.178  24.779  24.128  1.00  0.00     0.194 C 
ATOM     11  H   UNL A   1      34.701  23.673  24.978  1.00  0.00     0.348 HD
ATOM     12  C   UNL A   1      33.437  23.603  22.004  1.00  0.00     0.081 C 
ATOM     13  C   UNL A   1      34.126  25.954  24.388  1.00  0.00     0.076 C 
BRANCH   8  14
ATOM     14  C   UNL A   1      33.227  22.468  25.076  1.00  0.00     0.363 C 
BRANCH  14  15
ATOM     15  C   UNL A   1      34.040  21.229  25.460  1.00  0.00     0.275 C 
ATOM     16  N   UNL A   1      33.775  20.004  24.924  1.00  0.00    -0.351 N 
ATOM     17  H   UNL A   1      34.387  19.290  25.212  1.00  0.00     0.163 HD
ATOM     18  O   UNL A   1      34.957  21.291  26.286  1.00  0.00    -0.269 OA
BRANCH  16  19
ATOM     19  C   UNL A   1      32.742  19.580  23.999  1.00  0.00     0.118 C 
BRANCH  19  20
ATOM     20  C   UNL A   1      32.252  18.153  24.283  1.00  0.00     0.050 C 
BRANCH  20  21
ATOM     21  C   UNL A   1      33.180  17.294  25.137  1.00  0.00     0.161 C 
BRANCH  21  22
ATOM     22  O   UNL A   1      32.504  16.273  25.856  1.00  0.00    -0.385 OA
ATOM     23  C   UNL A   1      32.886  14.953  25.510  1.00  0.00     0.194 C 
ENDBRANCH  21  22
ENDBRANCH  20  21
ENDBRANCH  19  20
ENDBRANCH  16  19
ENDBRANCH  14  15
ENDBRANCH   8  14
ENDBRANCH   4   7
ENDBRANCH   2   3
ENDBRANCH   1   2
BRANCH   1  24
ATOM     24  C   UNL A   1      31.155  29.076  23.810  1.00  0.00     0.002 C 
BRANCH  24  25
ATOM     25  C   UNL A   1      31.825  28.782  25.156  1.00  0.00     0.002 C 
BRANCH  25  26
ATOM     26  C   UNL A   1      33.203  29.420  25.346  1.00  0.00     0.021 C 
BRANCH  26  27
ATOM     27  C   UNL A   1      33.677  29.509  26.794  1.00  0.00     0.116 C 
BRANCH  27  28
ATOM     28  N   UNL A   1      33.606  30.862  27.325  1.00  0.00    -0.352 N 
ATOM     29  C   UNL A   1      34.477  31.509  28.167  1.00  0.00     0.251 C 
ATOM     30  H   UNL A   1      32.824  31.387  27.042  1.00  0.00     0.163 HD
ATOM     31  O   UNL A   1      34.173  32.601  28.645  1.00  0.00    -0.269 OA
BRANCH  29  32
ATOM     32  C   UNL A   1      35.769  30.882  28.514  1.00  0.00     0.039 A 
ATOM     33  C   UNL A   1      36.955  31.493  28.099  1.00  0.00     0.014 A 
ATOM     34  C   UNL A   1      35.812  29.699  29.258  1.00  0.00     0.014 A 
ATOM     35  C   UNL A   1      38.184  30.951  28.482  1.00  0.00     0.010 A 
ATOM     36  C   UNL A   1      37.035  29.206  29.704  1.00  0.00     0.010 A 
ATOM     37  C   UNL A   1      38.234  29.822  29.316  1.00  0.00    -0.014 A 
BRANCH  37  38
ATOM     38  C   UNL A   1      39.527  29.277  29.802  1.00  0.00     0.031 A 
ATOM     39  C   UNL A   1      40.242  29.929  30.955  1.00  0.00     0.074 A 
ATOM     40  C   UNL A   1      40.104  28.248  29.149  1.00  0.00     0.049 A 
ATOM     41  N   UNL A   1      41.395  29.622  31.491  1.00  0.00    -0.248 NA
ATOM     42  C   UNL A   1      39.588  31.096  31.568  1.00  0.00     0.031 C 
ATOM     43  C   UNL A   1      39.548  27.573  27.975  1.00  0.00     0.029 A 
ATOM     44  N   UNL A   1      41.296  27.603  29.369  1.00  0.00    -0.354 N 
ATOM     45  C   UNL A   1      41.623  30.577  32.474  1.00  0.00     0.074 A 
ATOM     46  C   UNL A   1      40.507  31.497  32.434  1.00  0.00     0.031 C 
ATOM     47  C   UNL A   1      40.385  26.596  27.590  1.00  0.00     0.029 A 
ATOM     48  C   UNL A   1      41.553  26.598  28.466  1.00  0.00     0.049 A 
ATOM     49  H   UNL A   1      41.909  27.837  30.103  1.00  0.00     0.167 HD
ATOM     50  C   UNL A   1      42.654  30.670  33.348  1.00  0.00     0.034 A 
ATOM     51  C   UNL A   1      42.612  25.771  28.354  1.00  0.00     0.034 A 
ATOM     52  C   UNL A   1      43.745  29.734  33.406  1.00  0.00     0.049 A 
ATOM     53  C   UNL A   1      43.737  25.883  29.347  1.00  0.00     0.074 A 
ATOM     54  C   UNL A   1      44.788  29.682  34.315  1.00  0.00     0.029 A 
ATOM     55  N   UNL A   1      43.947  28.696  32.509  1.00  0.00    -0.354 N 
ATOM     56  N   UNL A   1      43.857  26.693  30.370  1.00  0.00    -0.248 NA
ATOM     57  C   UNL A   1      44.858  24.947  29.186  1.00  0.00     0.031 C 
ATOM     58  C   UNL A   1      45.639  28.637  33.943  1.00  0.00     0.029 A 
ATOM     59  C   UNL A   1      45.106  28.010  32.827  1.00  0.00     0.049 A 
ATOM     60  H   UNL A   1      43.351  28.478  31.756  1.00  0.00     0.167 HD
ATOM     61  C   UNL A   1      45.044  26.335  31.002  1.00  0.00     0.074 A 
ATOM     62  C   UNL A   1      45.597  25.227  30.250  1.00  0.00     0.031 C 
ATOM     63  C   UNL A   1      45.625  26.881  32.099  1.00  0.00     0.034 A 
BRANCH  50  64
ATOM     64  C   UNL A   1      42.630  31.811  34.334  1.00  0.00     0.023 A 
ATOM     65  C   UNL A   1      43.203  33.053  33.985  1.00  0.00     0.012 A 
ATOM     66  C   UNL A   1      42.019  31.666  35.595  1.00  0.00     0.148 A 
ATOM     67  C   UNL A   1      43.215  34.111  34.893  1.00  0.00     0.002 A 
ATOM     68  C   UNL A   1      41.991  32.742  36.475  1.00  0.00     0.091 A 
ATOM     69  F   UNL A   1      41.498  30.475  35.920  1.00  0.00    -0.205 F 
ATOM     70  C   UNL A   1      42.603  33.959  36.132  1.00  0.00     0.022 A 
BRANCH  68  71
ATOM     71  S   UNL A   1      41.152  32.668  38.061  1.00  0.00     0.127 S 
ATOM     72  O   UNL A   1      41.174  34.071  38.472  1.00  0.00    -0.237 OA
ATOM     73  O   UNL A   1      39.830  32.164  37.688  1.00  0.00    -0.237 OA
ATOM     74  O   UNL A   1      41.936  31.760  38.885  1.00  0.00    -0.744 OA
ENDBRANCH  68  71
ENDBRANCH  50  64
BRANCH  51  75
ATOM     75  C   UNL A   1      42.617  24.707  27.311  1.00  0.00     0.023 A 
ATOM     76  C   UNL A   1      43.259  24.956  26.082  1.00  0.00     0.012 A 
ATOM     77  C   UNL A   1      42.024  23.450  27.535  1.00  0.00     0.148 A 
ATOM     78  C   UNL A   1      43.286  23.982  25.084  1.00  0.00     0.002 A 
ATOM     79  C   UNL A   1      42.101  22.465  26.556  1.00  0.00     0.091 A 
ATOM     80  F   UNL A   1      41.414  23.236  28.710  1.00  0.00    -0.205 F 
ATOM     81  C   UNL A   1      42.717  22.735  25.323  1.00  0.00     0.022 A 
BRANCH  79  82
ATOM     82  S   UNL A   1      41.505  20.791  26.819  1.00  0.00     0.127 S 
ATOM     83  O   UNL A   1      41.776  20.171  25.523  1.00  0.00    -0.237 OA
ATOM     84  O   UNL A   1      42.365  20.336  27.911  1.00  0.00    -0.237 OA
ATOM     85  O   UNL A   1      40.099  20.922  27.171  1.00  0.00    -0.744 OA
ENDBRANCH  79  82
ENDBRANCH  51  75
BRANCH  63  86
ATOM     86  C   UNL A   1      46.912  26.264  32.588  1.00  0.00     0.023 A 
ATOM     87  C   UNL A   1      46.882  25.226  33.540  1.00  0.00     0.012 A 
ATOM     88  C   UNL A   1      48.149  26.670  32.048  1.00  0.00     0.148 A 
ATOM     89  C   UNL A   1      48.064  24.625  33.972  1.00  0.00     0.002 A 
ATOM     90  C   UNL A   1      49.318  26.031  32.443  1.00  0.00     0.091 A 
ATOM     91  F   UNL A   1      48.160  27.672  31.158  1.00  0.00    -0.205 F 
ATOM     92  C   UNL A   1      49.278  25.018  33.415  1.00  0.00     0.022 A 
BRANCH  90  93
ATOM     93  S   UNL A   1      50.914  26.400  31.708  1.00  0.00     0.127 S 
ATOM     94  O   UNL A   1      50.684  26.059  30.306  1.00  0.00    -0.237 OA
ATOM     95  O   UNL A   1      51.053  27.832  31.973  1.00  0.00    -0.237 OA
ATOM     96  O   UNL A   1      51.882  25.560  32.404  1.00  0.00    -0.744 OA
ENDBRANCH  90  93
ENDBRANCH  63  86
ENDBRANCH  37  38
ENDBRANCH  29  32
ENDBRANCH  27  28
ENDBRANCH  26  27
ENDBRANCH  25  26
ENDBRANCH  24  25
ENDBRANCH   1  24
TORSDOF 22
ENDMDL
MODEL 3
REMARK VINA RESULT:     -10.1      2.958      4.115
REMARK SMILES COCCCNC(=O)C[N@H+]1CC[C@H](C(=O)NCCCCCCNC(=O)c2ccc(-c3c4nc(c(-c5cccc(S(=O)(=O)[O-])c5F)c5ccc([nH]5)c(-c5cccc(S(=O)(=O)[O-])c5F)c5nc(c(-c6cccc(S(=O)(=O)[O-])c6F)c6ccc3[nH]6)C=C5)C=C4)cc2)[C@@H]1C
REMARK SMILES IDX 18 1 17 2 16 3 14 4 15 5 13 7 10 8 11 9 89 10 12 12 90 13
REMARK SMILES IDX 9 14 7 15 6 16 8 18 5 19 4 20 3 21 2 22 1 23 19 24 20 25
REMARK SMILES IDX 21 26 22 27 23 28 24 29 25 31 26 32 27 33 88 34 28 35 87 36
REMARK SMILES IDX 29 37 30 38 31 39 81 40 32 41 86 42 80 43 82 44 33 45 85 46
REMARK SMILES IDX 79 47 78 48 34 50 66 51 46 52 65 53 47 54 50 55 64 56 83 57
REMARK SMILES IDX 48 58 49 59 63 61 84 62 51 63 35 64 36 65 44 66 37 67 39 68
REMARK SMILES IDX 45 69 38 70 40 71 41 72 42 73 43 74 67 75 68 76 76 77 69 78
REMARK SMILES IDX 71 79 77 80 70 81 72 82 73 83 74 84 75 85 52 86 53 87 61 88
REMARK SMILES IDX 54 89 56 90 62 91 55 92 57 93 58 94 59 95 60 96
REMARK H PARENT 16 6 10 11 6 17 23 30 82 49 50 60
REMARK Flexibility Score: inf
ROOT
ATOM      1  C   UNL A   1      34.387  30.814  27.200  1.00  0.00     0.021 C 
ENDROOT
BRANCH   1   2
ATOM      2  C   UNL A   1      33.121  30.011  27.503  1.00  0.00     0.116 C 
BRANCH   2   3
ATOM      3  N   UNL A   1      32.239  29.955  26.346  1.00  0.00    -0.356 N 
ATOM      4  C   UNL A   1      31.827  28.909  25.578  1.00  0.00     0.229 C 
ATOM      5  O   UNL A   1      31.088  29.149  24.623  1.00  0.00    -0.275 OA
ATOM      6  H   UNL A   1      31.875  30.827  26.071  1.00  0.00     0.163 HD
BRANCH   4   7
ATOM      7  C   UNL A   1      32.272  27.503  25.925  1.00  0.00     0.142 C 
ATOM      8  N   UNL A   1      33.219  25.546  24.943  1.00  0.00    -0.324 N 
ATOM      9  C   UNL A   1      31.771  25.431  24.768  1.00  0.00     0.263 C 
ATOM     10  C   UNL A   1      33.497  26.974  25.177  1.00  0.00     0.194 C 
ATOM     11  H   UNL A   1      33.680  25.226  24.091  1.00  0.00     0.348 HD
ATOM     12  C   UNL A   1      31.166  26.468  25.698  1.00  0.00     0.081 C 
ATOM     13  C   UNL A   1      33.775  27.635  23.823  1.00  0.00     0.076 C 
BRANCH   8  14
ATOM     14  C   UNL A   1      33.861  24.605  25.883  1.00  0.00     0.363 C 
BRANCH  14  15
ATOM     15  C   UNL A   1      33.813  23.118  25.524  1.00  0.00     0.275 C 
ATOM     16  N   UNL A   1      34.454  22.625  24.427  1.00  0.00    -0.351 N 
ATOM     17  H   UNL A   1      34.389  21.649  24.318  1.00  0.00     0.163 HD
ATOM     18  O   UNL A   1      33.175  22.311  26.208  1.00  0.00    -0.269 OA
BRANCH  16  19
ATOM     19  C   UNL A   1      35.216  23.299  23.394  1.00  0.00     0.118 C 
BRANCH  19  20
ATOM     20  C   UNL A   1      36.665  22.798  23.313  1.00  0.00     0.050 C 
BRANCH  20  21
ATOM     21  C   UNL A   1      37.057  21.746  24.347  1.00  0.00     0.161 C 
BRANCH  21  22
ATOM     22  O   UNL A   1      37.340  22.290  25.628  1.00  0.00    -0.385 OA
ATOM     23  C   UNL A   1      38.690  22.165  26.040  1.00  0.00     0.194 C 
ENDBRANCH  21  22
ENDBRANCH  20  21
ENDBRANCH  19  20
ENDBRANCH  16  19
ENDBRANCH  14  15
ENDBRANCH   8  14
ENDBRANCH   4   7
ENDBRANCH   2   3
ENDBRANCH   1   2
BRANCH   1  24
ATOM     24  C   UNL A   1      34.834  31.767  28.315  1.00  0.00     0.002 C 
BRANCH  24  25
ATOM     25  C   UNL A   1      35.446  33.089  27.842  1.00  0.00     0.002 C 
BRANCH  25  26
ATOM     26  C   UNL A   1      34.510  34.297  27.913  1.00  0.00     0.021 C 
BRANCH  26  27
ATOM     27  C   UNL A   1      33.179  34.041  28.612  1.00  0.00     0.116 C 
BRANCH  27  28
ATOM     28  N   UNL A   1      32.929  34.971  29.703  1.00  0.00    -0.352 N 
ATOM     29  C   UNL A   1      33.535  35.046  30.933  1.00  0.00     0.251 C 
ATOM     30  H   UNL A   1      32.228  35.641  29.536  1.00  0.00     0.163 HD
ATOM     31  O   UNL A   1      33.082  35.797  31.796  1.00  0.00    -0.269 OA
BRANCH  29  32
ATOM     32  C   UNL A   1      34.717  34.208  31.225  1.00  0.00     0.039 A 
ATOM     33  C   UNL A   1      35.992  34.722  30.979  1.00  0.00     0.014 A 
ATOM     34  C   UNL A   1      34.567  32.922  31.752  1.00  0.00     0.014 A 
ATOM     35  C   UNL A   1      37.119  33.969  31.318  1.00  0.00     0.010 A 
ATOM     36  C   UNL A   1      35.690  32.208  32.162  1.00  0.00     0.010 A 
ATOM     37  C   UNL A   1      36.977  32.719  31.943  1.00  0.00    -0.014 A 
BRANCH  37  38
ATOM     38  C   UNL A   1      38.160  31.938  32.387  1.00  0.00     0.031 A 
ATOM     39  C   UNL A   1      38.819  32.239  33.706  1.00  0.00     0.074 A 
ATOM     40  C   UNL A   1      38.697  31.018  31.561  1.00  0.00     0.049 A 
ATOM     41  N   UNL A   1      39.881  31.694  34.241  1.00  0.00    -0.248 NA
ATOM     42  C   UNL A   1      38.222  33.311  34.518  1.00  0.00     0.031 C 
ATOM     43  C   UNL A   1      38.195  30.681  30.228  1.00  0.00     0.029 A 
ATOM     44  N   UNL A   1      39.795  30.209  31.716  1.00  0.00    -0.354 N 
ATOM     45  C   UNL A   1      40.102  32.380  35.428  1.00  0.00     0.074 A 
ATOM     46  C   UNL A   1      39.087  33.408  35.516  1.00  0.00     0.031 C 
ATOM     47  C   UNL A   1      38.969  29.723  29.694  1.00  0.00     0.029 A 
ATOM     48  C   UNL A   1      40.042  29.401  30.630  1.00  0.00     0.049 A 
ATOM     49  H   UNL A   1      40.354  30.207  32.527  1.00  0.00     0.167 HD
ATOM     50  C   UNL A   1      41.049  32.163  36.373  1.00  0.00     0.034 A 
ATOM     51  C   UNL A   1      41.024  28.504  30.412  1.00  0.00     0.034 A 
ATOM     52  C   UNL A   1      42.035  31.119  36.298  1.00  0.00     0.049 A 
ATOM     53  C   UNL A   1      42.053  28.269  31.483  1.00  0.00     0.074 A 
ATOM     54  C   UNL A   1      42.976  30.753  37.245  1.00  0.00     0.029 A 
ATOM     55  N   UNL A   1      42.223  30.285  35.206  1.00  0.00    -0.354 N 
ATOM     56  N   UNL A   1      42.151  28.818  32.669  1.00  0.00    -0.248 NA
ATOM     57  C   UNL A   1      43.091  27.268  31.196  1.00  0.00     0.031 C 
ATOM     58  C   UNL A   1      43.756  29.723  36.709  1.00  0.00     0.029 A 
ATOM     59  C   UNL A   1      43.277  29.419  35.445  1.00  0.00     0.049 A 
ATOM     60  H   UNL A   1      41.685  30.304  34.382  1.00  0.00     0.167 HD
ATOM     61  C   UNL A   1      43.232  28.198  33.288  1.00  0.00     0.074 A 
ATOM     62  C   UNL A   1      43.747  27.224  32.348  1.00  0.00     0.031 C 
ATOM     63  C   UNL A   1      43.754  28.423  34.520  1.00  0.00     0.034 A 
BRANCH  50  64
ATOM     64  C   UNL A   1      41.038  33.058  37.587  1.00  0.00     0.023 A 
ATOM     65  C   UNL A   1      40.188  32.759  38.673  1.00  0.00     0.012 A 
ATOM     66  C   UNL A   1      41.886  34.181  37.667  1.00  0.00     0.148 A 
ATOM     67  C   UNL A   1      40.143  33.590  39.792  1.00  0.00     0.002 A 
ATOM     68  C   UNL A   1      41.872  34.975  38.809  1.00  0.00     0.091 A 
ATOM     69  F   UNL A   1      42.673  34.464  36.620  1.00  0.00    -0.205 F 
ATOM     70  C   UNL A   1      40.990  34.690  39.864  1.00  0.00     0.022 A 
BRANCH  68  71
ATOM     71  S   UNL A   1      42.987  36.366  39.028  1.00  0.00     0.127 S 
ATOM     72  O   UNL A   1      42.604  36.843  40.356  1.00  0.00    -0.237 OA
ATOM     73  O   UNL A   1      44.300  35.722  38.967  1.00  0.00    -0.237 OA
ATOM     74  O   UNL A   1      42.709  37.278  37.928  1.00  0.00    -0.744 OA
ENDBRANCH  68  71
ENDBRANCH  50  64
BRANCH  51  75
ATOM     75  C   UNL A   1      41.029  27.698  29.158  1.00  0.00     0.023 A 
ATOM     76  C   UNL A   1      40.152  26.602  29.045  1.00  0.00     0.012 A 
ATOM     77  C   UNL A   1      41.866  28.023  28.074  1.00  0.00     0.148 A 
ATOM     78  C   UNL A   1      40.128  25.826  27.886  1.00  0.00     0.002 A 
ATOM     79  C   UNL A   1      41.799  27.278  26.901  1.00  0.00     0.091 A 
ATOM     80  F   UNL A   1      42.697  29.067  28.205  1.00  0.00    -0.205 F 
ATOM     81  C   UNL A   1      40.943  26.169  26.811  1.00  0.00     0.022 A 
BRANCH  79  82
ATOM     82  S   UNL A   1      42.720  27.716  25.423  1.00  0.00     0.127 S 
ATOM     83  O   UNL A   1      42.529  26.531  24.589  1.00  0.00    -0.237 OA
ATOM     84  O   UNL A   1      42.007  28.911  24.970  1.00  0.00    -0.237 OA
ATOM     85  O   UNL A   1      44.086  27.960  25.865  1.00  0.00    -0.744 OA
ENDBRANCH  79  82
ENDBRANCH  51  75
BRANCH  63  86
ATOM     86  C   UNL A   1      44.923  27.573  34.949  1.00  0.00     0.023 A 
ATOM     87  C   UNL A   1      46.240  28.046  34.786  1.00  0.00     0.012 A 
ATOM     88  C   UNL A   1      44.710  26.330  35.580  1.00  0.00     0.148 A 
ATOM     89  C   UNL A   1      47.326  27.283  35.212  1.00  0.00     0.002 A 
ATOM     90  C   UNL A   1      45.794  25.600  36.051  1.00  0.00     0.091 A 
ATOM     91  F   UNL A   1      43.451  25.887  35.710  1.00  0.00    -0.205 F 
ATOM     92  C   UNL A   1      47.103  26.068  35.855  1.00  0.00     0.022 A 
BRANCH  90  93
ATOM     93  S   UNL A   1      45.599  24.075  36.979  1.00  0.00     0.127 S 
ATOM     94  O   UNL A   1      46.979  23.602  37.071  1.00  0.00    -0.237 OA
ATOM     95  O   UNL A   1      45.032  24.551  38.240  1.00  0.00    -0.237 OA
ATOM     96  O   UNL A   1      44.704  23.236  36.192  1.00  0.00    -0.744 OA
ENDBRANCH  90  93
ENDBRANCH  63  86
ENDBRANCH  37  38
ENDBRANCH  29  32
ENDBRANCH  27  28
ENDBRANCH  26  27
ENDBRANCH  25  26
ENDBRANCH  24  25
ENDBRANCH   1  24
TORSDOF 22
ENDMDL
