MODEL 1
REMARK VINA RESULT:     -10.0      0.000      0.000
REMARK SMILES CCN(CCC#N)C(=O)c1ccncc1/C=C/C(=O)NCCCCCCNC(=O)c1ccc(-c2c3nc(c(-c4cccc(S(=O)(=O)[O-])c4F)c4ccc([nH]4)c(-c4cccc(S(=O)(=O)[O-])c4F)c4nc(c(-c5cccc(S(=O)(=O)[O-])c5F)c5ccc2[nH]5)C=C4)C=C3)cc1
REMARK SMILES IDX 22 1 21 2 20 3 18 4 19 5 17 7 16 8 15 9 10 10 11 11 12 12
REMARK SMILES IDX 14 13 13 14 8 15 9 16 3 17 2 18 1 19 4 20 5 21 6 22 7 23
REMARK SMILES IDX 23 24 24 25 25 26 26 27 27 28 28 29 29 31 30 32 31 33 92 34
REMARK SMILES IDX 32 35 91 36 33 37 34 38 35 39 85 40 36 41 90 42 84 43 86 44
REMARK SMILES IDX 37 45 89 46 83 47 82 48 38 50 70 51 50 52 69 53 51 54 54 55
REMARK SMILES IDX 68 56 87 57 52 58 53 59 67 61 88 62 55 63 39 64 40 65 48 66
REMARK SMILES IDX 41 67 43 68 49 69 42 70 44 71 45 72 46 73 47 74 71 75 72 76
REMARK SMILES IDX 80 77 73 78 75 79 81 80 74 81 76 82 77 83 78 84 79 85 56 86
REMARK SMILES IDX 57 87 65 88 58 89 60 90 66 91 59 92 61 93 62 94 63 95 64 96
REMARK H PARENT 20 6 27 30 86 49 54 60
REMARK Flexibility Score: inf
ROOT
ATOM      1  C   UNL A   1      34.720  21.417  24.894  1.00  0.00     0.021 C 
ENDROOT
BRANCH   1   2
ATOM      2  C   UNL A   1      33.538  20.591  25.395  1.00  0.00     0.116 C 
BRANCH   2   3
ATOM      3  N   UNL A   1      32.914  21.277  26.510  1.00  0.00    -0.353 N 
ATOM      4  C   UNL A   1      32.471  22.553  26.621  1.00  0.00     0.244 C 
ATOM      5  O   UNL A   1      31.987  22.940  27.683  1.00  0.00    -0.270 OA
ATOM      6  H   UNL A   1      32.795  20.726  27.318  1.00  0.00     0.163 HD
BRANCH   4   7
ATOM      7  C   UNL A   1      32.427  23.448  25.441  1.00  0.00     0.072 C 
ATOM      8  C   UNL A   1      33.116  24.585  25.240  1.00  0.00     0.016 C 
BRANCH   8   9
ATOM      9  C   UNL A   1      33.084  25.276  23.938  1.00  0.00     0.006 A 
ATOM     10  C   UNL A   1      33.299  26.655  23.781  1.00  0.00     0.050 A 
ATOM     11  C   UNL A   1      33.486  27.190  22.508  1.00  0.00     0.034 A 
ATOM     12  C   UNL A   1      33.272  26.379  21.412  1.00  0.00     0.112 A 
ATOM     13  C   UNL A   1      32.882  24.557  22.760  1.00  0.00     0.119 A 
ATOM     14  N   UNL A   1      32.940  25.078  21.511  1.00  0.00    -0.264 NA
BRANCH  10  15
ATOM     15  C   UNL A   1      33.423  27.586  24.927  1.00  0.00     0.254 C 
ATOM     16  O   UNL A   1      34.527  27.681  25.456  1.00  0.00    -0.269 OA
BRANCH  15  17
ATOM     17  N   UNL A   1      32.295  28.303  25.361  1.00  0.00    -0.338 N 
BRANCH  17  18
ATOM     18  C   UNL A   1      31.396  27.640  26.320  1.00  0.00     0.116 C 
ATOM     19  C   UNL A   1      31.492  28.213  27.726  1.00  0.00     0.027 C 
ENDBRANCH  17  18
BRANCH  17  20
ATOM     20  C   UNL A   1      31.874  29.639  24.887  1.00  0.00     0.135 C 
BRANCH  20  21
ATOM     21  C   UNL A   1      30.448  29.690  24.306  1.00  0.00     0.141 C 
BRANCH  21  22
ATOM     22  C   UNL A   1      30.312  28.917  23.064  1.00  0.00     0.064 C 
ATOM     23  N   UNL A   1      30.183  28.317  22.082  1.00  0.00    -0.198 NA
ENDBRANCH  21  22
ENDBRANCH  20  21
ENDBRANCH  17  20
ENDBRANCH  15  17
ENDBRANCH  10  15
ENDBRANCH   8   9
ENDBRANCH   4   7
ENDBRANCH   2   3
ENDBRANCH   1   2
BRANCH   1  24
ATOM     24  C   UNL A   1      36.055  20.992  25.516  1.00  0.00     0.002 C 
BRANCH  24  25
ATOM     25  C   UNL A   1      37.096  20.503  24.501  1.00  0.00     0.002 C 
BRANCH  25  26
ATOM     26  C   UNL A   1      38.183  19.598  25.089  1.00  0.00     0.021 C 
BRANCH  26  27
ATOM     27  C   UNL A   1      39.274  20.355  25.836  1.00  0.00     0.116 C 
BRANCH  27  28
ATOM     28  N   UNL A   1      40.399  19.485  26.149  1.00  0.00    -0.352 N 
ATOM     29  C   UNL A   1      41.705  19.816  26.398  1.00  0.00     0.251 C 
ATOM     30  H   UNL A   1      40.192  18.523  26.186  1.00  0.00     0.163 HD
ATOM     31  O   UNL A   1      42.576  18.953  26.363  1.00  0.00    -0.269 OA
BRANCH  29  32
ATOM     32  C   UNL A   1      42.051  21.215  26.718  1.00  0.00     0.039 A 
ATOM     33  C   UNL A   1      42.200  22.134  25.678  1.00  0.00     0.014 A 
ATOM     34  C   UNL A   1      42.246  21.610  28.044  1.00  0.00     0.014 A 
ATOM     35  C   UNL A   1      42.510  23.463  25.975  1.00  0.00     0.010 A 
ATOM     36  C   UNL A   1      42.467  22.948  28.342  1.00  0.00     0.010 A 
ATOM     37  C   UNL A   1      42.624  23.885  27.310  1.00  0.00    -0.014 A 
BRANCH  37  38
ATOM     38  C   UNL A   1      42.928  25.298  27.647  1.00  0.00     0.031 A 
ATOM     39  C   UNL A   1      44.334  25.818  27.504  1.00  0.00     0.074 A 
ATOM     40  C   UNL A   1      41.957  26.092  28.138  1.00  0.00     0.049 A 
ATOM     41  N   UNL A   1      44.807  27.001  27.798  1.00  0.00    -0.248 NA
ATOM     42  C   UNL A   1      45.348  24.881  26.990  1.00  0.00     0.031 C 
ATOM     43  C   UNL A   1      40.571  25.684  28.378  1.00  0.00     0.029 A 
ATOM     44  N   UNL A   1      41.992  27.402  28.541  1.00  0.00    -0.354 N 
ATOM     45  C   UNL A   1      46.170  26.943  27.531  1.00  0.00     0.074 A 
ATOM     46  C   UNL A   1      46.459  25.594  27.098  1.00  0.00     0.031 C 
ATOM     47  C   UNL A   1      39.885  26.727  28.873  1.00  0.00     0.029 A 
ATOM     48  C   UNL A   1      40.788  27.861  29.024  1.00  0.00     0.049 A 
ATOM     49  H   UNL A   1      42.800  27.961  28.490  1.00  0.00     0.167 HD
ATOM     50  C   UNL A   1      47.093  27.930  27.607  1.00  0.00     0.034 A 
ATOM     51  C   UNL A   1      40.456  29.059  29.543  1.00  0.00     0.034 A 
ATOM     52  C   UNL A   1      46.796  29.276  28.013  1.00  0.00     0.049 A 
ATOM     53  C   UNL A   1      41.503  30.136  29.621  1.00  0.00     0.074 A 
ATOM     54  C   UNL A   1      47.648  30.365  28.067  1.00  0.00     0.029 A 
ATOM     55  N   UNL A   1      45.556  29.718  28.444  1.00  0.00    -0.354 N 
ATOM     56  N   UNL A   1      42.760  30.097  29.248  1.00  0.00    -0.248 NA
ATOM     57  C   UNL A   1      41.079  31.436  30.162  1.00  0.00     0.031 C 
ATOM     58  C   UNL A   1      46.932  31.455  28.571  1.00  0.00     0.029 A 
ATOM     59  C   UNL A   1      45.621  31.060  28.778  1.00  0.00     0.049 A 
ATOM     60  H   UNL A   1      44.746  29.160  28.504  1.00  0.00     0.167 HD
ATOM     61  C   UNL A   1      43.260  31.376  29.459  1.00  0.00     0.074 A 
ATOM     62  C   UNL A   1      42.168  32.171  29.981  1.00  0.00     0.031 C 
ATOM     63  C   UNL A   1      44.512  31.850  29.247  1.00  0.00     0.034 A 
BRANCH  50  64
ATOM     64  C   UNL A   1      48.509  27.598  27.209  1.00  0.00     0.023 A 
ATOM     65  C   UNL A   1      49.401  27.074  28.166  1.00  0.00     0.012 A 
ATOM     66  C   UNL A   1      48.938  27.750  25.877  1.00  0.00     0.148 A 
ATOM     67  C   UNL A   1      50.709  26.742  27.814  1.00  0.00     0.002 A 
ATOM     68  C   UNL A   1      50.227  27.369  25.521  1.00  0.00     0.091 A 
ATOM     69  F   UNL A   1      48.082  28.267  24.983  1.00  0.00    -0.205 F 
ATOM     70  C   UNL A   1      51.117  26.879  26.490  1.00  0.00     0.022 A 
BRANCH  68  71
ATOM     71  S   UNL A   1      50.825  27.431  23.829  1.00  0.00     0.127 S 
ATOM     72  O   UNL A   1      52.091  26.708  23.938  1.00  0.00    -0.237 OA
ATOM     73  O   UNL A   1      49.773  26.718  23.107  1.00  0.00    -0.237 OA
ATOM     74  O   UNL A   1      50.947  28.844  23.495  1.00  0.00    -0.744 OA
ENDBRANCH  68  71
ENDBRANCH  50  64
BRANCH  51  75
ATOM     75  C   UNL A   1      39.060  29.324  29.995  1.00  0.00     0.023 A 
ATOM     76  C   UNL A   1      38.680  28.995  31.311  1.00  0.00     0.012 A 
ATOM     77  C   UNL A   1      38.108  29.889  29.126  1.00  0.00     0.148 A 
ATOM     78  C   UNL A   1      37.364  29.178  31.738  1.00  0.00     0.002 A 
ATOM     79  C   UNL A   1      36.814  30.123  29.576  1.00  0.00     0.091 A 
ATOM     80  F   UNL A   1      38.488  30.190  27.877  1.00  0.00    -0.205 F 
ATOM     81  C   UNL A   1      36.434  29.748  30.874  1.00  0.00     0.022 A 
BRANCH  79  82
ATOM     82  S   UNL A   1      35.584  30.962  28.573  1.00  0.00     0.127 S 
ATOM     83  O   UNL A   1      34.941  29.842  27.891  1.00  0.00    -0.237 OA
ATOM     84  O   UNL A   1      34.764  31.618  29.591  1.00  0.00    -0.237 OA
ATOM     85  O   UNL A   1      36.330  31.876  27.717  1.00  0.00    -0.744 OA
ENDBRANCH  79  82
ENDBRANCH  51  75
BRANCH  63  86
ATOM     86  C   UNL A   1      44.762  33.312  29.510  1.00  0.00     0.023 A 
ATOM     87  C   UNL A   1      45.245  33.740  30.762  1.00  0.00     0.012 A 
ATOM     88  C   UNL A   1      44.577  34.257  28.481  1.00  0.00     0.148 A 
ATOM     89  C   UNL A   1      45.501  35.091  30.998  1.00  0.00     0.002 A 
ATOM     90  C   UNL A   1      44.889  35.591  28.704  1.00  0.00     0.091 A 
ATOM     91  F   UNL A   1      44.101  33.833  27.301  1.00  0.00    -0.205 F 
ATOM     92  C   UNL A   1      45.336  36.013  29.967  1.00  0.00     0.022 A 
BRANCH  90  93
ATOM     93  S   UNL A   1      44.806  36.831  27.408  1.00  0.00     0.127 S 
ATOM     94  O   UNL A   1      45.229  38.035  28.121  1.00  0.00    -0.237 OA
ATOM     95  O   UNL A   1      45.778  36.324  26.438  1.00  0.00    -0.237 OA
ATOM     96  O   UNL A   1      43.428  36.836  26.939  1.00  0.00    -0.744 OA
ENDBRANCH  90  93
ENDBRANCH  63  86
ENDBRANCH  37  38
ENDBRANCH  29  32
ENDBRANCH  27  28
ENDBRANCH  26  27
ENDBRANCH  25  26
ENDBRANCH  24  25
ENDBRANCH   1  24
TORSDOF 23
ENDMDL
MODEL 2
REMARK VINA RESULT:     -10.0      1.781      7.735
REMARK SMILES CCN(CCC#N)C(=O)c1ccncc1/C=C/C(=O)NCCCCCCNC(=O)c1ccc(-c2c3nc(c(-c4cccc(S(=O)(=O)[O-])c4F)c4ccc([nH]4)c(-c4cccc(S(=O)(=O)[O-])c4F)c4nc(c(-c5cccc(S(=O)(=O)[O-])c5F)c5ccc2[nH]5)C=C4)C=C3)cc1
REMARK SMILES IDX 22 1 21 2 20 3 18 4 19 5 17 7 16 8 15 9 10 10 11 11 12 12
REMARK SMILES IDX 14 13 13 14 8 15 9 16 3 17 2 18 1 19 4 20 5 21 6 22 7 23
REMARK SMILES IDX 23 24 24 25 25 26 26 27 27 28 28 29 29 31 30 32 31 33 92 34
REMARK SMILES IDX 32 35 91 36 33 37 34 38 35 39 85 40 36 41 90 42 84 43 86 44
REMARK SMILES IDX 37 45 89 46 83 47 82 48 38 50 70 51 50 52 69 53 51 54 54 55
REMARK SMILES IDX 68 56 87 57 52 58 53 59 67 61 88 62 55 63 39 64 40 65 48 66
REMARK SMILES IDX 41 67 43 68 49 69 42 70 44 71 45 72 46 73 47 74 71 75 72 76
REMARK SMILES IDX 80 77 73 78 75 79 81 80 74 81 76 82 77 83 78 84 79 85 56 86
REMARK SMILES IDX 57 87 65 88 58 89 60 90 66 91 59 92 61 93 62 94 63 95 64 96
REMARK H PARENT 20 6 27 30 86 49 54 60
REMARK Flexibility Score: inf
ROOT
ATOM      1  C   UNL A   1      34.218  20.679  24.624  1.00  0.00     0.021 C 
ENDROOT
BRANCH   1   2
ATOM      2  C   UNL A   1      32.999  20.223  25.423  1.00  0.00     0.116 C 
BRANCH   2   3
ATOM      3  N   UNL A   1      32.749  21.165  26.496  1.00  0.00    -0.353 N 
ATOM      4  C   UNL A   1      32.490  22.496  26.454  1.00  0.00     0.244 C 
ATOM      5  O   UNL A   1      32.328  23.117  27.503  1.00  0.00    -0.270 OA
ATOM      6  H   UNL A   1      32.773  20.777  27.400  1.00  0.00     0.163 HD
BRANCH   4   7
ATOM      7  C   UNL A   1      32.254  23.184  25.164  1.00  0.00     0.072 C 
ATOM      8  C   UNL A   1      32.889  24.264  24.676  1.00  0.00     0.016 C 
BRANCH   8   9
ATOM      9  C   UNL A   1      32.649  24.732  23.299  1.00  0.00     0.006 A 
ATOM     10  C   UNL A   1      31.871  25.858  22.981  1.00  0.00     0.050 A 
ATOM     11  C   UNL A   1      31.885  26.372  21.685  1.00  0.00     0.034 A 
ATOM     12  C   UNL A   1      32.521  25.651  20.695  1.00  0.00     0.112 A 
ATOM     13  C   UNL A   1      33.246  24.085  22.216  1.00  0.00     0.119 A 
ATOM     14  N   UNL A   1      33.177  24.498  20.928  1.00  0.00    -0.264 NA
BRANCH  10  15
ATOM     15  C   UNL A   1      31.079  26.599  23.990  1.00  0.00     0.254 C 
ATOM     16  O   UNL A   1      30.126  26.013  24.497  1.00  0.00    -0.269 OA
BRANCH  15  17
ATOM     17  N   UNL A   1      31.434  27.919  24.316  1.00  0.00    -0.338 N 
BRANCH  17  18
ATOM     18  C   UNL A   1      30.423  28.967  24.104  1.00  0.00     0.116 C 
ATOM     19  C   UNL A   1      30.268  29.364  22.643  1.00  0.00     0.027 C 
ENDBRANCH  17  18
BRANCH  17  20
ATOM     20  C   UNL A   1      32.762  28.376  24.781  1.00  0.00     0.135 C 
BRANCH  20  21
ATOM     21  C   UNL A   1      32.760  29.020  26.180  1.00  0.00     0.141 C 
BRANCH  21  22
ATOM     22  C   UNL A   1      31.939  28.279  27.147  1.00  0.00     0.064 C 
ATOM     23  N   UNL A   1      31.273  27.708  27.904  1.00  0.00    -0.198 NA
ENDBRANCH  21  22
ENDBRANCH  20  21
ENDBRANCH  17  20
ENDBRANCH  15  17
ENDBRANCH  10  15
ENDBRANCH   8   9
ENDBRANCH   4   7
ENDBRANCH   2   3
ENDBRANCH   1   2
BRANCH   1  24
ATOM     24  C   UNL A   1      35.502  20.722  25.460  1.00  0.00     0.002 C 
BRANCH  24  25
ATOM     25  C   UNL A   1      36.790  20.801  24.631  1.00  0.00     0.002 C 
BRANCH  25  26
ATOM     26  C   UNL A   1      37.863  19.780  25.021  1.00  0.00     0.021 C 
BRANCH  26  27
ATOM     27  C   UNL A   1      39.030  20.381  25.795  1.00  0.00     0.116 C 
BRANCH  27  28
ATOM     28  N   UNL A   1      40.088  19.402  25.997  1.00  0.00    -0.352 N 
ATOM     29  C   UNL A   1      41.437  19.601  26.126  1.00  0.00     0.251 C 
ATOM     30  H   UNL A   1      39.792  18.464  26.047  1.00  0.00     0.163 HD
ATOM     31  O   UNL A   1      42.213  18.658  26.005  1.00  0.00    -0.269 OA
BRANCH  29  32
ATOM     32  C   UNL A   1      41.946  20.955  26.421  1.00  0.00     0.039 A 
ATOM     33  C   UNL A   1      42.223  21.306  27.743  1.00  0.00     0.014 A 
ATOM     34  C   UNL A   1      42.131  21.881  25.390  1.00  0.00     0.014 A 
ATOM     35  C   UNL A   1      42.720  22.579  28.026  1.00  0.00     0.010 A 
ATOM     36  C   UNL A   1      42.708  23.114  25.663  1.00  0.00     0.010 A 
ATOM     37  C   UNL A   1      42.988  23.485  26.986  1.00  0.00    -0.014 A 
BRANCH  37  38
ATOM     38  C   UNL A   1      43.541  24.834  27.265  1.00  0.00     0.031 A 
ATOM     39  C   UNL A   1      42.641  25.921  27.791  1.00  0.00     0.074 A 
ATOM     40  C   UNL A   1      44.833  25.097  26.986  1.00  0.00     0.049 A 
ATOM     41  N   UNL A   1      42.924  27.172  28.044  1.00  0.00    -0.248 NA
ATOM     42  C   UNL A   1      41.233  25.564  28.041  1.00  0.00     0.031 C 
ATOM     43  C   UNL A   1      45.787  24.143  26.418  1.00  0.00     0.029 A 
ATOM     44  N   UNL A   1      45.560  26.251  27.127  1.00  0.00    -0.354 N 
ATOM     45  C   UNL A   1      41.731  27.756  28.455  1.00  0.00     0.074 A 
ATOM     46  C   UNL A   1      40.710  26.736  28.371  1.00  0.00     0.031 C 
ATOM     47  C   UNL A   1      46.978  24.746  26.272  1.00  0.00     0.029 A 
ATOM     48  C   UNL A   1      46.861  26.137  26.696  1.00  0.00     0.049 A 
ATOM     49  H   UNL A   1      45.188  27.081  27.501  1.00  0.00     0.167 HD
ATOM     50  C   UNL A   1      41.510  29.017  28.893  1.00  0.00     0.034 A 
ATOM     51  C   UNL A   1      47.845  27.056  26.637  1.00  0.00     0.034 A 
ATOM     52  C   UNL A   1      42.533  30.021  28.999  1.00  0.00     0.049 A 
ATOM     53  C   UNL A   1      47.570  28.451  27.125  1.00  0.00     0.074 A 
ATOM     54  C   UNL A   1      42.425  31.311  29.487  1.00  0.00     0.029 A 
ATOM     55  N   UNL A   1      43.850  29.853  28.602  1.00  0.00    -0.354 N 
ATOM     56  N   UNL A   1      46.465  28.950  27.626  1.00  0.00    -0.248 NA
ATOM     57  C   UNL A   1      48.688  29.405  27.073  1.00  0.00     0.031 C 
ATOM     58  C   UNL A   1      43.667  31.936  29.347  1.00  0.00     0.029 A 
ATOM     59  C   UNL A   1      44.563  31.019  28.823  1.00  0.00     0.049 A 
ATOM     60  H   UNL A   1      44.225  29.026  28.221  1.00  0.00     0.167 HD
ATOM     61  C   UNL A   1      46.769  30.255  27.995  1.00  0.00     0.074 A 
ATOM     62  C   UNL A   1      48.165  30.466  27.672  1.00  0.00     0.031 C 
ATOM     63  C   UNL A   1      45.965  31.197  28.545  1.00  0.00     0.034 A 
BRANCH  50  64
ATOM     64  C   UNL A   1      40.111  29.374  29.326  1.00  0.00     0.023 A 
ATOM     65  C   UNL A   1      39.166  29.792  28.367  1.00  0.00     0.012 A 
ATOM     66  C   UNL A   1      39.715  29.239  30.671  1.00  0.00     0.148 A 
ATOM     67  C   UNL A   1      37.861  30.108  28.744  1.00  0.00     0.002 A 
ATOM     68  C   UNL A   1      38.399  29.506  31.031  1.00  0.00     0.091 A 
ATOM     69  F   UNL A   1      40.631  28.858  31.572  1.00  0.00    -0.205 F 
ATOM     70  C   UNL A   1      37.475  29.954  30.072  1.00  0.00     0.022 A 
BRANCH  68  71
ATOM     71  S   UNL A   1      37.781  29.263  32.699  1.00  0.00     0.127 S 
ATOM     72  O   UNL A   1      38.797  29.953  33.492  1.00  0.00    -0.237 OA
ATOM     73  O   UNL A   1      36.485  29.937  32.645  1.00  0.00    -0.237 OA
ATOM     74  O   UNL A   1      37.713  27.821  32.899  1.00  0.00    -0.744 OA
ENDBRANCH  68  71
ENDBRANCH  50  64
BRANCH  51  75
ATOM     75  C   UNL A   1      49.197  26.681  26.132  1.00  0.00     0.023 A 
ATOM     76  C   UNL A   1      50.047  25.894  26.935  1.00  0.00     0.012 A 
ATOM     77  C   UNL A   1      49.647  27.107  24.868  1.00  0.00     0.148 A 
ATOM     78  C   UNL A   1      51.339  25.582  26.510  1.00  0.00     0.002 A 
ATOM     79  C   UNL A   1      50.913  26.742  24.426  1.00  0.00     0.091 A 
ATOM     80  F   UNL A   1      48.825  27.858  24.122  1.00  0.00    -0.205 F 
ATOM     81  C   UNL A   1      51.769  25.999  25.254  1.00  0.00     0.022 A 
BRANCH  79  82
ATOM     82  S   UNL A   1      51.505  27.133  22.777  1.00  0.00     0.127 S 
ATOM     83  O   UNL A   1      51.633  28.585  22.842  1.00  0.00    -0.237 OA
ATOM     84  O   UNL A   1      52.771  26.402  22.733  1.00  0.00    -0.237 OA
ATOM     85  O   UNL A   1      50.487  26.630  21.863  1.00  0.00    -0.744 OA
ENDBRANCH  79  82
ENDBRANCH  51  75
BRANCH  63  86
ATOM     86  C   UNL A   1      46.582  32.524  28.901  1.00  0.00     0.023 A 
ATOM     87  C   UNL A   1      47.178  32.719  30.163  1.00  0.00     0.012 A 
ATOM     88  C   UNL A   1      46.627  33.561  27.948  1.00  0.00     0.148 A 
ATOM     89  C   UNL A   1      47.773  33.939  30.483  1.00  0.00     0.002 A 
ATOM     90  C   UNL A   1      47.272  34.752  28.254  1.00  0.00     0.091 A 
ATOM     91  F   UNL A   1      46.041  33.362  26.758  1.00  0.00    -0.205 F 
ATOM     92  C   UNL A   1      47.831  34.950  29.527  1.00  0.00     0.022 A 
BRANCH  90  93
ATOM     93  S   UNL A   1      47.487  36.068  27.051  1.00  0.00     0.127 S 
ATOM     94  O   UNL A   1      48.152  35.363  25.956  1.00  0.00    -0.237 OA
ATOM     95  O   UNL A   1      46.104  36.458  26.773  1.00  0.00    -0.237 OA
ATOM     96  O   UNL A   1      48.286  37.092  27.708  1.00  0.00    -0.744 OA
ENDBRANCH  90  93
ENDBRANCH  63  86
ENDBRANCH  37  38
ENDBRANCH  29  32
ENDBRANCH  27  28
ENDBRANCH  26  27
ENDBRANCH  25  26
ENDBRANCH  24  25
ENDBRANCH   1  24
TORSDOF 23
ENDMDL
MODEL 3
REMARK VINA RESULT:      -9.9      1.947      2.959
REMARK SMILES CCN(CCC#N)C(=O)c1ccncc1/C=C/C(=O)NCCCCCCNC(=O)c1ccc(-c2c3nc(c(-c4cccc(S(=O)(=O)[O-])c4F)c4ccc([nH]4)c(-c4cccc(S(=O)(=O)[O-])c4F)c4nc(c(-c5cccc(S(=O)(=O)[O-])c5F)c5ccc2[nH]5)C=C4)C=C3)cc1
REMARK SMILES IDX 22 1 21 2 20 3 18 4 19 5 17 7 16 8 15 9 10 10 11 11 12 12
REMARK SMILES IDX 14 13 13 14 8 15 9 16 3 17 2 18 1 19 4 20 5 21 6 22 7 23
REMARK SMILES IDX 23 24 24 25 25 26 26 27 27 28 28 29 29 31 30 32 31 33 92 34
REMARK SMILES IDX 32 35 91 36 33 37 34 38 35 39 85 40 36 41 90 42 84 43 86 44
REMARK SMILES IDX 37 45 89 46 83 47 82 48 38 50 70 51 50 52 69 53 51 54 54 55
REMARK SMILES IDX 68 56 87 57 52 58 53 59 67 61 88 62 55 63 39 64 40 65 48 66
REMARK SMILES IDX 41 67 43 68 49 69 42 70 44 71 45 72 46 73 47 74 71 75 72 76
REMARK SMILES IDX 80 77 73 78 75 79 81 80 74 81 76 82 77 83 78 84 79 85 56 86
REMARK SMILES IDX 57 87 65 88 58 89 60 90 66 91 59 92 61 93 62 94 63 95 64 96
REMARK H PARENT 20 6 27 30 86 49 54 60
REMARK Flexibility Score: inf
ROOT
ATOM      1  C   UNL A   1      32.788  21.624  23.628  1.00  0.00     0.021 C 
ENDROOT
BRANCH   1   2
ATOM      2  C   UNL A   1      31.524  22.432  23.913  1.00  0.00     0.116 C 
BRANCH   2   3
ATOM      3  N   UNL A   1      31.540  22.874  25.293  1.00  0.00    -0.353 N 
ATOM      4  C   UNL A   1      31.269  24.090  25.830  1.00  0.00     0.244 C 
ATOM      5  O   UNL A   1      31.367  24.254  27.044  1.00  0.00    -0.270 OA
ATOM      6  H   UNL A   1      31.789  22.180  25.946  1.00  0.00     0.163 HD
BRANCH   4   7
ATOM      7  C   UNL A   1      30.718  25.183  24.996  1.00  0.00     0.072 C 
ATOM      8  C   UNL A   1      30.474  26.455  25.358  1.00  0.00     0.016 C 
BRANCH   8   9
ATOM      9  C   UNL A   1      30.077  27.468  24.363  1.00  0.00     0.006 A 
ATOM     10  C   UNL A   1      30.870  28.574  24.015  1.00  0.00     0.050 A 
ATOM     11  C   UNL A   1      30.536  29.349  22.906  1.00  0.00     0.034 A 
ATOM     12  C   UNL A   1      29.326  29.123  22.281  1.00  0.00     0.112 A 
ATOM     13  C   UNL A   1      28.877  27.340  23.662  1.00  0.00     0.119 A 
ATOM     14  N   UNL A   1      28.472  28.152  22.657  1.00  0.00    -0.264 NA
BRANCH  10  15
ATOM     15  C   UNL A   1      32.119  28.925  24.730  1.00  0.00     0.254 C 
ATOM     16  O   UNL A   1      32.196  30.055  25.204  1.00  0.00    -0.269 OA
BRANCH  15  17
ATOM     17  N   UNL A   1      33.150  27.975  24.828  1.00  0.00    -0.338 N 
BRANCH  17  18
ATOM     18  C   UNL A   1      33.781  27.525  23.577  1.00  0.00     0.116 C 
ATOM     19  C   UNL A   1      34.213  28.673  22.676  1.00  0.00     0.027 C 
ENDBRANCH  17  18
BRANCH  17  20
ATOM     20  C   UNL A   1      33.617  27.320  26.069  1.00  0.00     0.135 C 
BRANCH  20  21
ATOM     21  C   UNL A   1      33.691  28.251  27.293  1.00  0.00     0.141 C 
BRANCH  21  22
ATOM     22  C   UNL A   1      34.866  29.132  27.268  1.00  0.00     0.064 C 
ATOM     23  N   UNL A   1      35.807  29.808  27.245  1.00  0.00    -0.198 NA
ENDBRANCH  21  22
ENDBRANCH  20  21
ENDBRANCH  17  20
ENDBRANCH  15  17
ENDBRANCH  10  15
ENDBRANCH   8   9
ENDBRANCH   4   7
ENDBRANCH   2   3
ENDBRANCH   1   2
BRANCH   1  24
ATOM     24  C   UNL A   1      33.058  20.541  24.679  1.00  0.00     0.002 C 
BRANCH  24  25
ATOM     25  C   UNL A   1      34.453  20.613  25.312  1.00  0.00     0.002 C 
BRANCH  25  26
ATOM     26  C   UNL A   1      34.745  21.914  26.066  1.00  0.00     0.021 C 
BRANCH  26  27
ATOM     27  C   UNL A   1      36.158  22.444  25.851  1.00  0.00     0.116 C 
BRANCH  27  28
ATOM     28  N   UNL A   1      37.136  21.366  25.888  1.00  0.00    -0.352 N 
ATOM     29  C   UNL A   1      38.501  21.441  25.983  1.00  0.00     0.251 C 
ATOM     30  H   UNL A   1      36.764  20.456  25.837  1.00  0.00     0.163 HD
ATOM     31  O   UNL A   1      39.191  20.462  25.716  1.00  0.00    -0.269 OA
BRANCH  29  32
ATOM     32  C   UNL A   1      39.131  22.703  26.418  1.00  0.00     0.039 A 
ATOM     33  C   UNL A   1      40.169  22.660  27.351  1.00  0.00     0.014 A 
ATOM     34  C   UNL A   1      38.680  23.927  25.917  1.00  0.00     0.014 A 
ATOM     35  C   UNL A   1      40.780  23.849  27.753  1.00  0.00     0.010 A 
ATOM     36  C   UNL A   1      39.347  25.099  26.251  1.00  0.00     0.010 A 
ATOM     37  C   UNL A   1      40.389  25.075  27.189  1.00  0.00    -0.014 A 
BRANCH  37  38
ATOM     38  C   UNL A   1      41.043  26.347  27.585  1.00  0.00     0.031 A 
ATOM     39  C   UNL A   1      42.482  26.599  27.216  1.00  0.00     0.074 A 
ATOM     40  C   UNL A   1      40.366  27.244  28.328  1.00  0.00     0.049 A 
ATOM     41  N   UNL A   1      43.242  27.619  27.516  1.00  0.00    -0.248 NA
ATOM     42  C   UNL A   1      43.165  25.556  26.430  1.00  0.00     0.031 C 
ATOM     43  C   UNL A   1      38.988  27.086  28.798  1.00  0.00     0.029 A 
ATOM     44  N   UNL A   1      40.752  28.460  28.832  1.00  0.00    -0.354 N 
ATOM     45  C   UNL A   1      44.492  27.332  26.982  1.00  0.00     0.074 A 
ATOM     46  C   UNL A   1      44.405  26.020  26.382  1.00  0.00     0.031 C 
ATOM     47  C   UNL A   1      38.639  28.169  29.510  1.00  0.00     0.029 A 
ATOM     48  C   UNL A   1      39.778  29.078  29.582  1.00  0.00     0.049 A 
ATOM     49  H   UNL A   1      41.639  28.853  28.674  1.00  0.00     0.167 HD
ATOM     50  C   UNL A   1      45.605  28.103  26.964  1.00  0.00     0.034 A 
ATOM     51  C   UNL A   1      39.806  30.241  30.262  1.00  0.00     0.034 A 
ATOM     52  C   UNL A   1      45.680  29.418  27.540  1.00  0.00     0.049 A 
ATOM     53  C   UNL A   1      41.058  31.074  30.229  1.00  0.00     0.074 A 
ATOM     54  C   UNL A   1      46.742  30.304  27.523  1.00  0.00     0.029 A 
ATOM     55  N   UNL A   1      44.657  30.032  28.245  1.00  0.00    -0.354 N 
ATOM     56  N   UNL A   1      42.192  30.840  29.614  1.00  0.00    -0.248 NA
ATOM     57  C   UNL A   1      41.024  32.351  30.958  1.00  0.00     0.031 C 
ATOM     58  C   UNL A   1      46.376  31.438  28.254  1.00  0.00     0.029 A 
ATOM     59  C   UNL A   1      45.067  31.281  28.679  1.00  0.00     0.049 A 
ATOM     60  H   UNL A   1      43.770  29.639  28.412  1.00  0.00     0.167 HD
ATOM     61  C   UNL A   1      42.985  31.960  29.837  1.00  0.00     0.074 A 
ATOM     62  C   UNL A   1      42.196  32.878  30.633  1.00  0.00     0.031 C 
ATOM     63  C   UNL A   1      44.252  32.205  29.426  1.00  0.00     0.034 A 
BRANCH  50  64
ATOM     64  C   UNL A   1      46.825  27.557  26.267  1.00  0.00     0.023 A 
ATOM     65  C   UNL A   1      47.024  27.820  24.896  1.00  0.00     0.012 A 
ATOM     66  C   UNL A   1      47.801  26.835  26.980  1.00  0.00     0.148 A 
ATOM     67  C   UNL A   1      48.156  27.340  24.237  1.00  0.00     0.002 A 
ATOM     68  C   UNL A   1      48.951  26.405  26.328  1.00  0.00     0.091 A 
ATOM     69  F   UNL A   1      47.586  26.580  28.278  1.00  0.00    -0.205 F 
ATOM     70  C   UNL A   1      49.124  26.644  24.955  1.00  0.00     0.022 A 
BRANCH  68  71
ATOM     71  S   UNL A   1      50.293  25.569  27.180  1.00  0.00     0.127 S 
ATOM     72  O   UNL A   1      49.640  24.338  27.622  1.00  0.00    -0.237 OA
ATOM     73  O   UNL A   1      51.271  25.391  26.107  1.00  0.00    -0.237 OA
ATOM     74  O   UNL A   1      50.714  26.465  28.249  1.00  0.00    -0.744 OA
ENDBRANCH  68  71
ENDBRANCH  50  64
BRANCH  51  75
ATOM     75  C   UNL A   1      38.600  30.711  31.002  1.00  0.00     0.023 A 
ATOM     76  C   UNL A   1      38.470  30.426  32.376  1.00  0.00     0.012 A 
ATOM     77  C   UNL A   1      37.579  31.428  30.350  1.00  0.00     0.148 A 
ATOM     78  C   UNL A   1      37.324  30.803  33.075  1.00  0.00     0.002 A 
ATOM     79  C   UNL A   1      36.467  31.853  31.066  1.00  0.00     0.091 A 
ATOM     80  F   UNL A   1      37.720  31.685  29.042  1.00  0.00    -0.205 F 
ATOM     81  C   UNL A   1      36.326  31.522  32.423  1.00  0.00     0.022 A 
BRANCH  79  82
ATOM     82  S   UNL A   1      35.191  32.885  30.339  1.00  0.00     0.127 S 
ATOM     83  O   UNL A   1      34.372  33.212  31.503  1.00  0.00    -0.237 OA
ATOM     84  O   UNL A   1      35.975  33.998  29.804  1.00  0.00    -0.237 OA
ATOM     85  O   UNL A   1      34.546  32.060  29.326  1.00  0.00    -0.744 OA
ENDBRANCH  79  82
ENDBRANCH  51  75
BRANCH  63  86
ATOM     86  C   UNL A   1      44.853  33.544  29.766  1.00  0.00     0.023 A 
ATOM     87  C   UNL A   1      45.626  33.706  30.933  1.00  0.00     0.012 A 
ATOM     88  C   UNL A   1      44.700  34.631  28.882  1.00  0.00     0.148 A 
ATOM     89  C   UNL A   1      46.203  34.939  31.234  1.00  0.00     0.002 A 
ATOM     90  C   UNL A   1      45.326  35.839  29.159  1.00  0.00     0.091 A 
ATOM     91  F   UNL A   1      43.948  34.463  27.785  1.00  0.00    -0.205 F 
ATOM     92  C   UNL A   1      46.064  36.001  30.343  1.00  0.00     0.022 A 
BRANCH  90  93
ATOM     93  S   UNL A   1      45.289  37.227  28.020  1.00  0.00     0.127 S 
ATOM     94  O   UNL A   1      46.087  38.221  28.738  1.00  0.00    -0.237 OA
ATOM     95  O   UNL A   1      45.938  36.667  26.834  1.00  0.00    -0.237 OA
ATOM     96  O   UNL A   1      43.886  37.567  27.840  1.00  0.00    -0.744 OA
ENDBRANCH  90  93
ENDBRANCH  63  86
ENDBRANCH  37  38
ENDBRANCH  29  32
ENDBRANCH  27  28
ENDBRANCH  26  27
ENDBRANCH  25  26
ENDBRANCH  24  25
ENDBRANCH   1  24
TORSDOF 23
ENDMDL
