MODEL 1
REMARK VINA RESULT:     -12.1      0.000      0.000
REMARK SMILES O=C(NCCCCCCNC(=O)c1ccccc1[C@H](O)c1ccc(F)c(F)c1)c1ccc(-c2c3nc(c(-c4cccc(S(=O)(=O)[O-])c4F)c4ccc([nH]4)c(-c4cccc(S(=O)(=O)[O-])c4F)c4nc(c(-c5cccc(S(=O)(=O)[O-])c5F)c5ccc2[nH]5)C=C4)C=C3)cc1
REMARK SMILES IDX 6 1 5 2 4 3 3 4 1 5 2 6 29 8 30 9 91 10 31 11 90 12 32 13
REMARK SMILES IDX 33 14 34 15 84 16 35 17 89 18 83 19 85 20 36 21 88 22 82 23
REMARK SMILES IDX 81 24 37 26 69 27 49 28 68 29 50 30 53 31 67 32 86 33 51 34
REMARK SMILES IDX 52 35 66 37 87 38 54 39 38 40 39 41 47 42 40 43 42 44 48 45
REMARK SMILES IDX 41 46 43 47 44 48 45 49 46 50 70 51 71 52 79 53 72 54 74 55
REMARK SMILES IDX 80 56 73 57 75 58 76 59 77 60 78 61 55 62 56 63 64 64 57 65
REMARK SMILES IDX 59 66 65 67 58 68 60 69 61 70 62 71 63 72 7 73 8 74 9 75
REMARK SMILES IDX 10 76 11 77 12 79 13 80 14 81 18 82 15 83 17 84 16 85 19 86
REMARK SMILES IDX 21 87 22 88 28 89 23 90 26 91 24 92 27 93 25 94 20 95
REMARK H PARENT 3 7 85 25 53 36 10 78 20 96
REMARK Flexibility Score: inf
ROOT
ATOM      1  C   UNL A   1      32.143  27.911  27.050  1.00  0.00     0.002 C 
ENDROOT
BRANCH   1   2
ATOM      2  C   UNL A   1      33.215  27.814  25.964  1.00  0.00     0.021 C 
BRANCH   2   3
ATOM      3  C   UNL A   1      34.357  28.815  26.086  1.00  0.00     0.116 C 
BRANCH   3   4
ATOM      4  N   UNL A   1      33.957  30.056  26.723  1.00  0.00    -0.352 N 
ATOM      5  O   UNL A   1      34.045  31.724  28.234  1.00  0.00    -0.269 OA
ATOM      6  C   UNL A   1      34.590  30.756  27.726  1.00  0.00     0.251 C 
ATOM      7  H   UNL A   1      33.118  30.453  26.394  1.00  0.00     0.163 HD
BRANCH   6   8
ATOM      8  C   UNL A   1      35.921  30.305  28.197  1.00  0.00     0.039 A 
ATOM      9  C   UNL A   1      37.076  30.596  27.467  1.00  0.00     0.014 A 
ATOM     10  C   UNL A   1      36.007  29.580  29.389  1.00  0.00     0.014 A 
ATOM     11  C   UNL A   1      38.296  30.057  27.859  1.00  0.00     0.010 A 
ATOM     12  C   UNL A   1      37.247  29.104  29.823  1.00  0.00     0.010 A 
ATOM     13  C   UNL A   1      38.398  29.317  29.048  1.00  0.00    -0.014 A 
BRANCH  13  14
ATOM     14  C   UNL A   1      39.731  28.850  29.509  1.00  0.00     0.031 A 
ATOM     15  C   UNL A   1      40.455  29.536  30.633  1.00  0.00     0.074 A 
ATOM     16  C   UNL A   1      40.292  27.798  28.881  1.00  0.00     0.049 A 
ATOM     17  N   UNL A   1      41.620  29.247  31.154  1.00  0.00    -0.248 NA
ATOM     18  C   UNL A   1      39.796  30.699  31.249  1.00  0.00     0.031 C 
ATOM     19  C   UNL A   1      39.701  27.083  27.747  1.00  0.00     0.029 A 
ATOM     20  N   UNL A   1      41.482  27.151  29.098  1.00  0.00    -0.354 N 
ATOM     21  C   UNL A   1      41.853  30.207  32.131  1.00  0.00     0.074 A 
ATOM     22  C   UNL A   1      40.709  31.094  32.127  1.00  0.00     0.031 C 
ATOM     23  C   UNL A   1      40.520  26.088  27.378  1.00  0.00     0.029 A 
ATOM     24  C   UNL A   1      41.713  26.123  28.214  1.00  0.00     0.049 A 
ATOM     25  H   UNL A   1      42.108  27.397  29.817  1.00  0.00     0.167 HD
ATOM     26  C   UNL A   1      42.915  30.328  32.963  1.00  0.00     0.034 A 
ATOM     27  C   UNL A   1      42.777  25.309  28.076  1.00  0.00     0.034 A 
ATOM     28  C   UNL A   1      44.034  29.421  32.983  1.00  0.00     0.049 A 
ATOM     29  C   UNL A   1      43.931  25.456  29.025  1.00  0.00     0.074 A 
ATOM     30  C   UNL A   1      45.124  29.417  33.836  1.00  0.00     0.029 A 
ATOM     31  N   UNL A   1      44.212  28.363  32.104  1.00  0.00    -0.354 N 
ATOM     32  N   UNL A   1      44.068  26.284  30.031  1.00  0.00    -0.248 NA
ATOM     33  C   UNL A   1      45.064  24.540  28.837  1.00  0.00     0.031 C 
ATOM     34  C   UNL A   1      45.970  28.368  33.460  1.00  0.00     0.029 A 
ATOM     35  C   UNL A   1      45.400  27.707  32.386  1.00  0.00     0.049 A 
ATOM     36  H   UNL A   1      43.588  28.115  31.385  1.00  0.00     0.167 HD
ATOM     37  C   UNL A   1      45.292  25.978  30.612  1.00  0.00     0.074 A 
ATOM     38  C   UNL A   1      45.843  24.867  29.861  1.00  0.00     0.031 C 
ATOM     39  C   UNL A   1      45.913  26.574  31.658  1.00  0.00     0.034 A 
BRANCH  26  40
ATOM     40  C   UNL A   1      42.906  31.458  33.960  1.00  0.00     0.023 A 
ATOM     41  C   UNL A   1      43.537  32.675  33.635  1.00  0.00     0.012 A 
ATOM     42  C   UNL A   1      42.209  31.346  35.180  1.00  0.00     0.148 A 
ATOM     43  C   UNL A   1      43.497  33.755  34.517  1.00  0.00     0.002 A 
ATOM     44  C   UNL A   1      42.142  32.440  36.037  1.00  0.00     0.091 A 
ATOM     45  F   UNL A   1      41.631  30.176  35.483  1.00  0.00    -0.205 F 
ATOM     46  C   UNL A   1      42.792  33.641  35.712  1.00  0.00     0.022 A 
BRANCH  44  47
ATOM     47  S   UNL A   1      41.193  32.417  37.564  1.00  0.00     0.127 S 
ATOM     48  O   UNL A   1      42.065  31.638  38.441  1.00  0.00    -0.237 OA
ATOM     49  O   UNL A   1      41.106  33.839  37.898  1.00  0.00    -0.237 OA
ATOM     50  O   UNL A   1      39.918  31.795  37.233  1.00  0.00    -0.744 OA
ENDBRANCH  44  47
ENDBRANCH  26  40
BRANCH  27  51
ATOM     51  C   UNL A   1      42.766  24.255  27.024  1.00  0.00     0.023 A 
ATOM     52  C   UNL A   1      43.477  24.465  25.827  1.00  0.00     0.012 A 
ATOM     53  C   UNL A   1      42.109  23.026  27.228  1.00  0.00     0.148 A 
ATOM     54  C   UNL A   1      43.516  23.477  24.843  1.00  0.00     0.002 A 
ATOM     55  C   UNL A   1      42.203  22.024  26.270  1.00  0.00     0.091 A 
ATOM     56  F   UNL A   1      41.424  22.852  28.367  1.00  0.00    -0.205 F 
ATOM     57  C   UNL A   1      42.892  22.253  25.070  1.00  0.00     0.022 A 
BRANCH  55  58
ATOM     58  S   UNL A   1      41.555  20.372  26.549  1.00  0.00     0.127 S 
ATOM     59  O   UNL A   1      42.090  19.644  25.402  1.00  0.00    -0.237 OA
ATOM     60  O   UNL A   1      42.156  20.022  27.837  1.00  0.00    -0.237 OA
ATOM     61  O   UNL A   1      40.107  20.525  26.589  1.00  0.00    -0.744 OA
ENDBRANCH  55  58
ENDBRANCH  27  51
BRANCH  39  62
ATOM     62  C   UNL A   1      47.254  26.028  32.069  1.00  0.00     0.023 A 
ATOM     63  C   UNL A   1      48.417  26.470  31.408  1.00  0.00     0.012 A 
ATOM     64  C   UNL A   1      47.369  25.132  33.149  1.00  0.00     0.148 A 
ATOM     65  C   UNL A   1      49.673  26.006  31.796  1.00  0.00     0.002 A 
ATOM     66  C   UNL A   1      48.628  24.707  33.559  1.00  0.00     0.091 A 
ATOM     67  F   UNL A   1      46.248  24.707  33.750  1.00  0.00    -0.205 F 
ATOM     68  C   UNL A   1      49.779  25.135  32.878  1.00  0.00     0.022 A 
BRANCH  66  69
ATOM     69  S   UNL A   1      48.865  23.657  34.996  1.00  0.00     0.127 S 
ATOM     70  O   UNL A   1      50.319  23.680  35.146  1.00  0.00    -0.237 OA
ATOM     71  O   UNL A   1      48.133  24.381  36.036  1.00  0.00    -0.237 OA
ATOM     72  O   UNL A   1      48.292  22.363  34.646  1.00  0.00    -0.744 OA
ENDBRANCH  66  69
ENDBRANCH  39  62
ENDBRANCH  13  14
ENDBRANCH   6   8
ENDBRANCH   3   4
ENDBRANCH   2   3
ENDBRANCH   1   2
BRANCH   1  73
ATOM     73  C   UNL A   1      31.046  26.844  27.000  1.00  0.00     0.002 C 
BRANCH  73  74
ATOM     74  C   UNL A   1      30.686  26.317  25.604  1.00  0.00     0.021 C 
BRANCH  74  75
ATOM     75  C   UNL A   1      30.705  24.797  25.462  1.00  0.00     0.116 C 
BRANCH  75  76
ATOM     76  N   UNL A   1      31.110  24.132  26.686  1.00  0.00    -0.352 N 
ATOM     77  C   UNL A   1      32.237  23.389  26.923  1.00  0.00     0.251 C 
ATOM     78  H   UNL A   1      30.492  24.228  27.446  1.00  0.00     0.163 HD
ATOM     79  O   UNL A   1      32.345  22.746  27.962  1.00  0.00    -0.269 OA
BRANCH  77  80
ATOM     80  C   UNL A   1      33.296  23.319  25.896  1.00  0.00     0.045 A 
ATOM     81  C   UNL A   1      34.223  24.375  25.936  1.00  0.00     0.014 A 
ATOM     82  C   UNL A   1      33.365  22.329  24.893  1.00  0.00    -0.002 A 
ATOM     83  C   UNL A   1      35.258  24.444  25.008  1.00  0.00     0.001 A 
ATOM     84  C   UNL A   1      34.425  22.432  23.962  1.00  0.00     0.007 A 
ATOM     85  C   UNL A   1      35.364  23.466  24.026  1.00  0.00     0.000 A 
BRANCH  82  86
ATOM     86  C   UNL A   1      32.356  21.206  24.685  1.00  0.00     0.175 C 
BRANCH  86  87
ATOM     87  C   UNL A   1      32.857  19.880  24.109  1.00  0.00    -0.012 A 
ATOM     88  C   UNL A   1      32.226  19.201  23.048  1.00  0.00     0.010 A 
ATOM     89  C   UNL A   1      33.953  19.243  24.731  1.00  0.00     0.049 A 
ATOM     90  C   UNL A   1      32.677  17.944  22.624  1.00  0.00     0.043 A 
ATOM     91  C   UNL A   1      34.400  17.997  24.298  1.00  0.00     0.159 A 
ATOM     92  C   UNL A   1      33.764  17.349  23.253  1.00  0.00     0.158 A 
ATOM     93  F   UNL A   1      35.447  17.428  24.912  1.00  0.00    -0.204 F 
ATOM     94  F   UNL A   1      34.183  16.144  22.846  1.00  0.00    -0.204 F 
ENDBRANCH  86  87
BRANCH  86  95
ATOM     95  O   UNL A   1      31.593  20.972  25.865  1.00  0.00    -0.384 OA
ATOM     96  H   UNL A   1      32.191  20.854  26.619  1.00  0.00     0.211 HD
ENDBRANCH  86  95
ENDBRANCH  82  86
ENDBRANCH  77  80
ENDBRANCH  75  76
ENDBRANCH  74  75
ENDBRANCH  73  74
ENDBRANCH   1  73
TORSDOF 19
ENDMDL
MODEL 2
REMARK VINA RESULT:     -12.0      3.964      5.760
REMARK SMILES O=C(NCCCCCCNC(=O)c1ccccc1[C@H](O)c1ccc(F)c(F)c1)c1ccc(-c2c3nc(c(-c4cccc(S(=O)(=O)[O-])c4F)c4ccc([nH]4)c(-c4cccc(S(=O)(=O)[O-])c4F)c4nc(c(-c5cccc(S(=O)(=O)[O-])c5F)c5ccc2[nH]5)C=C4)C=C3)cc1
REMARK SMILES IDX 6 1 5 2 4 3 3 4 1 5 2 6 29 8 30 9 91 10 31 11 90 12 32 13
REMARK SMILES IDX 33 14 34 15 84 16 35 17 89 18 83 19 85 20 36 21 88 22 82 23
REMARK SMILES IDX 81 24 37 26 69 27 49 28 68 29 50 30 53 31 67 32 86 33 51 34
REMARK SMILES IDX 52 35 66 37 87 38 54 39 38 40 39 41 47 42 40 43 42 44 48 45
REMARK SMILES IDX 41 46 43 47 44 48 45 49 46 50 70 51 71 52 79 53 72 54 74 55
REMARK SMILES IDX 80 56 73 57 75 58 76 59 77 60 78 61 55 62 56 63 64 64 57 65
REMARK SMILES IDX 59 66 65 67 58 68 60 69 61 70 62 71 63 72 7 73 8 74 9 75
REMARK SMILES IDX 10 76 11 77 12 79 13 80 14 81 18 82 15 83 17 84 16 85 19 86
REMARK SMILES IDX 21 87 22 88 28 89 23 90 26 91 24 92 27 93 25 94 20 95
REMARK H PARENT 3 7 85 25 53 36 10 78 20 96
REMARK Flexibility Score: inf
ROOT
ATOM      1  C   UNL A   1      31.983  29.807  27.030  1.00  0.00     0.002 C 
ENDROOT
BRANCH   1   2
ATOM      2  C   UNL A   1      31.594  31.281  26.906  1.00  0.00     0.021 C 
BRANCH   2   3
ATOM      3  C   UNL A   1      32.751  32.240  26.657  1.00  0.00     0.116 C 
BRANCH   3   4
ATOM      4  N   UNL A   1      32.526  33.559  27.221  1.00  0.00    -0.352 N 
ATOM      5  O   UNL A   1      32.767  35.242  28.697  1.00  0.00    -0.269 OA
ATOM      6  C   UNL A   1      33.172  34.171  28.271  1.00  0.00     0.251 C 
ATOM      7  H   UNL A   1      31.814  34.088  26.794  1.00  0.00     0.163 HD
BRANCH   6   8
ATOM      8  C   UNL A   1      34.340  33.503  28.893  1.00  0.00     0.039 A 
ATOM      9  C   UNL A   1      34.230  32.217  29.426  1.00  0.00     0.014 A 
ATOM     10  C   UNL A   1      35.561  34.181  28.941  1.00  0.00     0.014 A 
ATOM     11  C   UNL A   1      35.301  31.659  30.116  1.00  0.00     0.010 A 
ATOM     12  C   UNL A   1      36.659  33.587  29.568  1.00  0.00     0.010 A 
ATOM     13  C   UNL A   1      36.531  32.332  30.184  1.00  0.00    -0.014 A 
BRANCH  13  14
ATOM     14  C   UNL A   1      37.695  31.669  30.824  1.00  0.00     0.031 A 
ATOM     15  C   UNL A   1      38.082  31.966  32.246  1.00  0.00     0.074 A 
ATOM     16  C   UNL A   1      38.416  30.796  30.093  1.00  0.00     0.049 A 
ATOM     17  N   UNL A   1      39.066  31.467  32.948  1.00  0.00    -0.248 NA
ATOM     18  C   UNL A   1      37.269  32.954  32.972  1.00  0.00     0.031 C 
ATOM     19  C   UNL A   1      38.161  30.465  28.688  1.00  0.00     0.029 A 
ATOM     20  N   UNL A   1      39.510  30.036  30.419  1.00  0.00    -0.354 N 
ATOM     21  C   UNL A   1      39.017  32.102  34.184  1.00  0.00     0.074 A 
ATOM     22  C   UNL A   1      37.907  33.029  34.134  1.00  0.00     0.031 C 
ATOM     23  C   UNL A   1      39.059  29.559  28.279  1.00  0.00     0.029 A 
ATOM     24  C   UNL A   1      39.983  29.280  29.372  1.00  0.00     0.049 A 
ATOM     25  H   UNL A   1      39.916  30.031  31.316  1.00  0.00     0.167 HD
ATOM     26  C   UNL A   1      39.814  31.916  35.263  1.00  0.00     0.034 A 
ATOM     27  C   UNL A   1      41.053  28.467  29.291  1.00  0.00     0.034 A 
ATOM     28  C   UNL A   1      40.896  30.966  35.315  1.00  0.00     0.049 A 
ATOM     29  C   UNL A   1      41.907  28.268  30.510  1.00  0.00     0.074 A 
ATOM     30  C   UNL A   1      41.715  30.653  36.386  1.00  0.00     0.029 A 
ATOM     31  N   UNL A   1      41.316  30.183  34.251  1.00  0.00    -0.354 N 
ATOM     32  N   UNL A   1      41.758  28.774  31.709  1.00  0.00    -0.248 NA
ATOM     33  C   UNL A   1      43.058  27.367  30.372  1.00  0.00     0.031 C 
ATOM     34  C   UNL A   1      42.643  29.695  35.963  1.00  0.00     0.029 A 
ATOM     35  C   UNL A   1      42.390  29.397  34.634  1.00  0.00     0.049 A 
ATOM     36  H   UNL A   1      40.911  30.186  33.353  1.00  0.00     0.167 HD
ATOM     37  C   UNL A   1      42.784  28.238  32.478  1.00  0.00     0.074 A 
ATOM     38  C   UNL A   1      43.529  27.344  31.613  1.00  0.00     0.031 C 
ATOM     39  C   UNL A   1      43.093  28.478  33.775  1.00  0.00     0.034 A 
BRANCH  26  40
ATOM     40  C   UNL A   1      39.525  32.723  36.502  1.00  0.00     0.023 A 
ATOM     41  C   UNL A   1      40.131  33.985  36.665  1.00  0.00     0.012 A 
ATOM     42  C   UNL A   1      38.596  32.274  37.463  1.00  0.00     0.148 A 
ATOM     43  C   UNL A   1      39.838  34.776  37.777  1.00  0.00     0.002 A 
ATOM     44  C   UNL A   1      38.281  33.086  38.548  1.00  0.00     0.091 A 
ATOM     45  F   UNL A   1      38.043  31.064  37.303  1.00  0.00    -0.205 F 
ATOM     46  C   UNL A   1      38.907  34.332  38.711  1.00  0.00     0.022 A 
BRANCH  44  47
ATOM     47  S   UNL A   1      37.037  32.636  39.765  1.00  0.00     0.127 S 
ATOM     48  O   UNL A   1      37.130  33.749  40.708  1.00  0.00    -0.237 OA
ATOM     49  O   UNL A   1      35.812  32.617  38.964  1.00  0.00    -0.237 OA
ATOM     50  O   UNL A   1      37.439  31.337  40.285  1.00  0.00    -0.744 OA
ENDBRANCH  44  47
ENDBRANCH  26  40
BRANCH  27  51
ATOM     51  C   UNL A   1      41.337  27.749  28.017  1.00  0.00     0.023 A 
ATOM     52  C   UNL A   1      41.894  28.456  26.935  1.00  0.00     0.012 A 
ATOM     53  C   UNL A   1      41.118  26.363  27.896  1.00  0.00     0.148 A 
ATOM     54  C   UNL A   1      42.208  27.799  25.745  1.00  0.00     0.002 A 
ATOM     55  C   UNL A   1      41.489  25.704  26.730  1.00  0.00     0.091 A 
ATOM     56  F   UNL A   1      40.572  25.712  28.932  1.00  0.00    -0.205 F 
ATOM     57  C   UNL A   1      42.019  26.422  25.648  1.00  0.00     0.022 A 
BRANCH  55  58
ATOM     58  S   UNL A   1      41.417  23.915  26.580  1.00  0.00     0.127 S 
ATOM     59  O   UNL A   1      41.960  23.486  27.866  1.00  0.00    -0.237 OA
ATOM     60  O   UNL A   1      39.982  23.682  26.409  1.00  0.00    -0.237 OA
ATOM     61  O   UNL A   1      42.218  23.592  25.409  1.00  0.00    -0.744 OA
ENDBRANCH  55  58
ENDBRANCH  27  51
BRANCH  39  62
ATOM     62  C   UNL A   1      44.279  27.751  34.349  1.00  0.00     0.023 A 
ATOM     63  C   UNL A   1      45.550  28.359  34.315  1.00  0.00     0.012 A 
ATOM     64  C   UNL A   1      44.125  26.502  34.979  1.00  0.00     0.148 A 
ATOM     65  C   UNL A   1      46.656  27.720  34.873  1.00  0.00     0.002 A 
ATOM     66  C   UNL A   1      45.224  25.891  35.573  1.00  0.00     0.091 A 
ATOM     67  F   UNL A   1      42.911  25.931  34.982  1.00  0.00    -0.205 F 
ATOM     68  C   UNL A   1      46.490  26.493  35.513  1.00  0.00     0.022 A 
BRANCH  66  69
ATOM     69  S   UNL A   1      45.086  24.355  36.493  1.00  0.00     0.127 S 
ATOM     70  O   UNL A   1      46.490  24.024  36.734  1.00  0.00    -0.237 OA
ATOM     71  O   UNL A   1      44.344  24.770  37.684  1.00  0.00    -0.237 OA
ATOM     72  O   UNL A   1      44.366  23.431  35.626  1.00  0.00    -0.744 OA
ENDBRANCH  66  69
ENDBRANCH  39  62
ENDBRANCH  13  14
ENDBRANCH   6   8
ENDBRANCH   3   4
ENDBRANCH   2   3
ENDBRANCH   1   2
BRANCH   1  73
ATOM     73  C   UNL A   1      33.486  29.515  27.040  1.00  0.00     0.002 C 
BRANCH  73  74
ATOM     74  C   UNL A   1      34.013  28.672  25.871  1.00  0.00     0.021 C 
BRANCH  74  75
ATOM     75  C   UNL A   1      33.418  29.013  24.507  1.00  0.00     0.116 C 
BRANCH  75  76
ATOM     76  N   UNL A   1      33.726  28.013  23.503  1.00  0.00    -0.352 N 
ATOM     77  C   UNL A   1      33.222  26.744  23.377  1.00  0.00     0.251 C 
ATOM     78  H   UNL A   1      34.384  28.282  22.822  1.00  0.00     0.163 HD
ATOM     79  O   UNL A   1      33.717  25.960  22.575  1.00  0.00    -0.269 OA
BRANCH  77  80
ATOM     80  C   UNL A   1      32.118  26.305  24.255  1.00  0.00     0.045 A 
ATOM     81  C   UNL A   1      32.514  25.498  25.336  1.00  0.00     0.014 A 
ATOM     82  C   UNL A   1      30.756  26.589  24.022  1.00  0.00    -0.002 A 
ATOM     83  C   UNL A   1      31.570  24.994  26.226  1.00  0.00     0.001 A 
ATOM     84  C   UNL A   1      29.823  26.058  24.942  1.00  0.00     0.007 A 
ATOM     85  C   UNL A   1      30.224  25.283  26.034  1.00  0.00     0.000 A 
BRANCH  82  86
ATOM     86  C   UNL A   1      30.203  27.357  22.826  1.00  0.00     0.175 C 
BRANCH  86  87
ATOM     87  C   UNL A   1      29.310  28.569  23.094  1.00  0.00    -0.012 A 
ATOM     88  C   UNL A   1      27.939  28.616  22.773  1.00  0.00     0.010 A 
ATOM     89  C   UNL A   1      29.901  29.747  23.599  1.00  0.00     0.049 A 
ATOM     90  C   UNL A   1      27.192  29.787  22.958  1.00  0.00     0.043 A 
ATOM     91  C   UNL A   1      29.151  30.906  23.787  1.00  0.00     0.159 A 
ATOM     92  C   UNL A   1      27.804  30.927  23.465  1.00  0.00     0.158 A 
ATOM     93  F   UNL A   1      29.749  32.001  24.273  1.00  0.00    -0.204 F 
ATOM     94  F   UNL A   1      27.085  32.044  23.630  1.00  0.00    -0.204 F 
ENDBRANCH  86  87
BRANCH  86  95
ATOM     95  O   UNL A   1      31.238  27.701  21.910  1.00  0.00    -0.384 OA
ATOM     96  H   UNL A   1      32.100  27.505  22.307  1.00  0.00     0.211 HD
ENDBRANCH  86  95
ENDBRANCH  82  86
ENDBRANCH  77  80
ENDBRANCH  75  76
ENDBRANCH  74  75
ENDBRANCH  73  74
ENDBRANCH   1  73
TORSDOF 19
ENDMDL
MODEL 3
REMARK VINA RESULT:     -11.8      5.091      9.923
REMARK SMILES O=C(NCCCCCCNC(=O)c1ccccc1[C@H](O)c1ccc(F)c(F)c1)c1ccc(-c2c3nc(c(-c4cccc(S(=O)(=O)[O-])c4F)c4ccc([nH]4)c(-c4cccc(S(=O)(=O)[O-])c4F)c4nc(c(-c5cccc(S(=O)(=O)[O-])c5F)c5ccc2[nH]5)C=C4)C=C3)cc1
REMARK SMILES IDX 6 1 5 2 4 3 3 4 1 5 2 6 29 8 30 9 91 10 31 11 90 12 32 13
REMARK SMILES IDX 33 14 34 15 84 16 35 17 89 18 83 19 85 20 36 21 88 22 82 23
REMARK SMILES IDX 81 24 37 26 69 27 49 28 68 29 50 30 53 31 67 32 86 33 51 34
REMARK SMILES IDX 52 35 66 37 87 38 54 39 38 40 39 41 47 42 40 43 42 44 48 45
REMARK SMILES IDX 41 46 43 47 44 48 45 49 46 50 70 51 71 52 79 53 72 54 74 55
REMARK SMILES IDX 80 56 73 57 75 58 76 59 77 60 78 61 55 62 56 63 64 64 57 65
REMARK SMILES IDX 59 66 65 67 58 68 60 69 61 70 62 71 63 72 7 73 8 74 9 75
REMARK SMILES IDX 10 76 11 77 12 79 13 80 14 81 18 82 15 83 17 84 16 85 19 86
REMARK SMILES IDX 21 87 22 88 28 89 23 90 26 91 24 92 27 93 25 94 20 95
REMARK H PARENT 3 7 85 25 53 36 10 78 20 96
REMARK Flexibility Score: inf
ROOT
ATOM      1  C   UNL A   1      34.672  24.202  24.011  1.00  0.00     0.002 C 
ENDROOT
BRANCH   1   2
ATOM      2  C   UNL A   1      36.075  23.613  24.166  1.00  0.00     0.021 C 
BRANCH   2   3
ATOM      3  C   UNL A   1      36.653  23.672  25.575  1.00  0.00     0.116 C 
BRANCH   3   4
ATOM      4  N   UNL A   1      37.601  22.606  25.844  1.00  0.00    -0.352 N 
ATOM      5  O   UNL A   1      39.581  21.700  26.415  1.00  0.00    -0.269 OA
ATOM      6  C   UNL A   1      38.869  22.692  26.373  1.00  0.00     0.251 C 
ATOM      7  H   UNL A   1      37.295  21.698  25.618  1.00  0.00     0.163 HD
BRANCH   6   8
ATOM      8  C   UNL A   1      39.365  24.000  26.861  1.00  0.00     0.039 A 
ATOM      9  C   UNL A   1      39.207  24.373  28.198  1.00  0.00     0.014 A 
ATOM     10  C   UNL A   1      39.999  24.862  25.961  1.00  0.00     0.014 A 
ATOM     11  C   UNL A   1      39.566  25.652  28.607  1.00  0.00     0.010 A 
ATOM     12  C   UNL A   1      40.429  26.119  26.393  1.00  0.00     0.010 A 
ATOM     13  C   UNL A   1      40.193  26.535  27.712  1.00  0.00    -0.014 A 
BRANCH  13  14
ATOM     14  C   UNL A   1      40.674  27.853  28.200  1.00  0.00     0.031 A 
ATOM     15  C   UNL A   1      42.136  28.199  28.209  1.00  0.00     0.074 A 
ATOM     16  C   UNL A   1      39.764  28.738  28.654  1.00  0.00     0.049 A 
ATOM     17  N   UNL A   1      42.714  29.306  28.598  1.00  0.00    -0.248 NA
ATOM     18  C   UNL A   1      43.074  27.171  27.729  1.00  0.00     0.031 C 
ATOM     19  C   UNL A   1      38.321  28.492  28.735  1.00  0.00     0.029 A 
ATOM     20  N   UNL A   1      39.911  30.012  29.139  1.00  0.00    -0.354 N 
ATOM     21  C   UNL A   1      44.080  29.101  28.447  1.00  0.00     0.074 A 
ATOM     22  C   UNL A   1      44.247  27.758  27.935  1.00  0.00     0.031 C 
ATOM     23  C   UNL A   1      37.715  29.584  29.222  1.00  0.00     0.029 A 
ATOM     24  C   UNL A   1      38.726  30.587  29.534  1.00  0.00     0.049 A 
ATOM     25  H   UNL A   1      40.781  30.471  29.197  1.00  0.00     0.167 HD
ATOM     26  C   UNL A   1      45.097  29.960  28.697  1.00  0.00     0.034 A 
ATOM     27  C   UNL A   1      38.479  31.782  30.104  1.00  0.00     0.034 A 
ATOM     28  C   UNL A   1      44.919  31.307  29.174  1.00  0.00     0.049 A 
ATOM     29  C   UNL A   1      39.626  32.718  30.353  1.00  0.00     0.074 A 
ATOM     30  C   UNL A   1      45.882  32.278  29.390  1.00  0.00     0.029 A 
ATOM     31  N   UNL A   1      43.701  31.872  29.519  1.00  0.00    -0.354 N 
ATOM     32  N   UNL A   1      40.896  32.555  30.072  1.00  0.00    -0.248 NA
ATOM     33  C   UNL A   1      39.304  34.012  30.969  1.00  0.00     0.031 C 
ATOM     34  C   UNL A   1      45.248  33.423  29.885  1.00  0.00     0.029 A 
ATOM     35  C   UNL A   1      43.888  33.173  29.959  1.00  0.00     0.049 A 
ATOM     36  H   UNL A   1      42.830  31.416  29.462  1.00  0.00     0.167 HD
ATOM     37  C   UNL A   1      41.524  33.733  30.459  1.00  0.00     0.074 A 
ATOM     38  C   UNL A   1      40.488  34.611  30.966  1.00  0.00     0.031 C 
ATOM     39  C   UNL A   1      42.841  34.051  30.417  1.00  0.00     0.034 A 
BRANCH  26  40
ATOM     40  C   UNL A   1      46.502  29.491  28.418  1.00  0.00     0.023 A 
ATOM     41  C   UNL A   1      47.121  29.839  27.200  1.00  0.00     0.012 A 
ATOM     42  C   UNL A   1      47.237  28.778  29.387  1.00  0.00     0.148 A 
ATOM     43  C   UNL A   1      48.439  29.462  26.940  1.00  0.00     0.002 A 
ATOM     44  C   UNL A   1      48.563  28.441  29.134  1.00  0.00     0.091 A 
ATOM     45  F   UNL A   1      46.628  28.439  30.531  1.00  0.00    -0.205 F 
ATOM     46  C   UNL A   1      49.162  28.774  27.909  1.00  0.00     0.022 A 
BRANCH  44  47
ATOM     47  S   UNL A   1      49.601  27.620  30.351  1.00  0.00     0.127 S 
ATOM     48  O   UNL A   1      49.478  28.518  31.498  1.00  0.00    -0.237 OA
ATOM     49  O   UNL A   1      48.930  26.330  30.513  1.00  0.00    -0.237 OA
ATOM     50  O   UNL A   1      50.928  27.541  29.756  1.00  0.00    -0.744 OA
ENDBRANCH  44  47
ENDBRANCH  26  40
BRANCH  27  51
ATOM     51  C   UNL A   1      37.078  32.166  30.428  1.00  0.00     0.023 A 
ATOM     52  C   UNL A   1      36.592  31.970  31.735  1.00  0.00     0.012 A 
ATOM     53  C   UNL A   1      36.249  32.781  29.469  1.00  0.00     0.148 A 
ATOM     54  C   UNL A   1      35.296  32.360  32.075  1.00  0.00     0.002 A 
ATOM     55  C   UNL A   1      34.982  33.221  29.832  1.00  0.00     0.091 A 
ATOM     56  F   UNL A   1      36.724  32.944  28.227  1.00  0.00    -0.205 F 
ATOM     57  C   UNL A   1      34.497  32.998  31.130  1.00  0.00     0.022 A 
BRANCH  55  58
ATOM     58  S   UNL A   1      33.949  34.181  28.718  1.00  0.00     0.127 S 
ATOM     59  O   UNL A   1      33.576  33.182  27.721  1.00  0.00    -0.237 OA
ATOM     60  O   UNL A   1      32.863  34.608  29.601  1.00  0.00    -0.237 OA
ATOM     61  O   UNL A   1      34.795  35.268  28.245  1.00  0.00    -0.744 OA
ENDBRANCH  55  58
ENDBRANCH  27  51
BRANCH  39  62
ATOM     62  C   UNL A   1      43.239  35.414  30.917  1.00  0.00     0.023 A 
ATOM     63  C   UNL A   1      43.569  35.587  32.275  1.00  0.00     0.012 A 
ATOM     64  C   UNL A   1      43.352  36.503  30.032  1.00  0.00     0.148 A 
ATOM     65  C   UNL A   1      43.976  36.832  32.753  1.00  0.00     0.002 A 
ATOM     66  C   UNL A   1      43.801  37.730  30.506  1.00  0.00     0.091 A 
ATOM     67  F   UNL A   1      43.013  36.321  28.747  1.00  0.00    -0.205 F 
ATOM     68  C   UNL A   1      44.104  37.899  31.866  1.00  0.00     0.022 A 
BRANCH  66  69
ATOM     69  S   UNL A   1      44.080  39.134  29.421  1.00  0.00     0.127 S 
ATOM     70  O   UNL A   1      45.234  38.686  28.643  1.00  0.00    -0.237 OA
ATOM     71  O   UNL A   1      42.826  39.200  28.669  1.00  0.00    -0.237 OA
ATOM     72  O   UNL A   1      44.319  40.275  30.295  1.00  0.00    -0.744 OA
ENDBRANCH  66  69
ENDBRANCH  39  62
ENDBRANCH  13  14
ENDBRANCH   6   8
ENDBRANCH   3   4
ENDBRANCH   2   3
ENDBRANCH   1   2
BRANCH   1  73
ATOM     73  C   UNL A   1      33.763  23.495  23.002  1.00  0.00     0.002 C 
BRANCH  73  74
ATOM     74  C   UNL A   1      32.265  23.488  23.338  1.00  0.00     0.021 C 
BRANCH  74  75
ATOM     75  C   UNL A   1      31.937  23.351  24.822  1.00  0.00     0.116 C 
BRANCH  75  76
ATOM     76  N   UNL A   1      30.718  24.049  25.186  1.00  0.00    -0.352 N 
ATOM     77  C   UNL A   1      30.537  25.387  25.422  1.00  0.00     0.251 C 
ATOM     78  H   UNL A   1      29.915  23.486  25.274  1.00  0.00     0.163 HD
ATOM     79  O   UNL A   1      29.480  25.793  25.893  1.00  0.00    -0.269 OA
BRANCH  77  80
ATOM     80  C   UNL A   1      31.643  26.332  25.164  1.00  0.00     0.045 A 
ATOM     81  C   UNL A   1      32.655  26.331  26.139  1.00  0.00     0.014 A 
ATOM     82  C   UNL A   1      31.681  27.232  24.078  1.00  0.00    -0.002 A 
ATOM     83  C   UNL A   1      33.743  27.192  26.031  1.00  0.00     0.001 A 
ATOM     84  C   UNL A   1      32.798  28.097  24.000  1.00  0.00     0.007 A 
ATOM     85  C   UNL A   1      33.819  28.069  24.955  1.00  0.00     0.000 A 
BRANCH  82  86
ATOM     86  C   UNL A   1      30.591  27.399  23.026  1.00  0.00     0.175 C 
BRANCH  86  87
ATOM     87  C   UNL A   1      29.570  28.523  23.213  1.00  0.00    -0.012 A 
ATOM     88  C   UNL A   1      28.206  28.402  22.883  1.00  0.00     0.010 A 
ATOM     89  C   UNL A   1      30.027  29.786  23.646  1.00  0.00     0.049 A 
ATOM     90  C   UNL A   1      27.336  29.496  22.990  1.00  0.00     0.043 A 
ATOM     91  C   UNL A   1      29.155  30.867  23.757  1.00  0.00     0.159 A 
ATOM     92  C   UNL A   1      27.817  30.723  23.428  1.00  0.00     0.158 A 
ATOM     93  F   UNL A   1      29.627  32.048  24.177  1.00  0.00    -0.204 F 
ATOM     94  F   UNL A   1      26.981  31.765  23.520  1.00  0.00    -0.204 F 
ENDBRANCH  86  87
BRANCH  86  95
ATOM     95  O   UNL A   1      31.143  27.449  21.713  1.00  0.00    -0.384 OA
ATOM     96  H   UNL A   1      31.190  28.371  21.417  1.00  0.00     0.211 HD
ENDBRANCH  86  95
ENDBRANCH  82  86
ENDBRANCH  77  80
ENDBRANCH  75  76
ENDBRANCH  74  75
ENDBRANCH  73  74
ENDBRANCH   1  73
TORSDOF 19
ENDMDL
