MODEL 1
REMARK VINA RESULT:     -11.7      0.000      0.000
REMARK SMILES Cc1cc(C)cc(C(=O)N2CC[C@H](C(=O)NCCCCCCNC(=O)c3ccc(-c4c5nc(c(-c6cccc(S(=O)(=O)[O-])c6F)c6ccc([nH]6)c(-c6cccc(S(=O)(=O)[O-])c6F)c6nc(c(-c7cccc(S(=O)(=O)[O-])c7F)c7ccc4[nH]7)C=C6)C=C5)cc3)[C@@H]2C)c1
REMARK SMILES IDX 20 1 19 2 18 3 17 4 16 5 14 6 15 7 13 9 10 10 11 11 89 12
REMARK SMILES IDX 12 13 90 14 8 15 9 16 7 17 1 18 2 19 3 20 91 21 4 22 5 23
REMARK SMILES IDX 6 24 21 25 22 26 23 27 24 28 25 30 26 31 27 32 88 33 28 34
REMARK SMILES IDX 87 35 29 36 30 37 31 38 81 39 32 40 86 41 80 42 82 43 33 44
REMARK SMILES IDX 85 45 79 46 78 47 34 49 66 50 46 51 65 52 47 53 50 54 64 55
REMARK SMILES IDX 83 56 48 57 49 58 63 60 84 61 51 62 35 63 36 64 44 65 37 66
REMARK SMILES IDX 39 67 45 68 38 69 40 70 41 71 42 72 43 73 67 74 68 75 76 76
REMARK SMILES IDX 69 77 71 78 77 79 70 80 72 81 73 82 74 83 75 84 52 85 53 86
REMARK SMILES IDX 61 87 54 88 56 89 62 90 55 91 57 92 58 93 59 94 60 95
REMARK H PARENT 16 8 23 29 82 48 50 59
REMARK Flexibility Score: inf
ROOT
ATOM      1  C   UNL A   1      35.366  22.311  26.363  1.00  0.00     0.002 C 
ENDROOT
BRANCH   1   2
ATOM      2  C   UNL A   1      34.067  21.769  26.966  1.00  0.00     0.002 C 
BRANCH   2   3
ATOM      3  C   UNL A   1      33.284  20.799  26.072  1.00  0.00     0.021 C 
BRANCH   3   4
ATOM      4  C   UNL A   1      32.074  21.411  25.368  1.00  0.00     0.116 C 
BRANCH   4   5
ATOM      5  N   UNL A   1      32.337  21.634  23.958  1.00  0.00    -0.356 N 
ATOM      6  C   UNL A   1      32.749  22.750  23.300  1.00  0.00     0.225 C 
ATOM      7  O   UNL A   1      32.902  22.678  22.079  1.00  0.00    -0.275 OA
ATOM      8  H   UNL A   1      32.192  20.847  23.383  1.00  0.00     0.163 HD
BRANCH   6   9
ATOM      9  C   UNL A   1      33.003  24.031  24.073  1.00  0.00     0.102 C 
ATOM     10  N   UNL A   1      32.290  26.211  23.424  1.00  0.00    -0.335 N 
ATOM     11  C   UNL A   1      33.398  25.861  22.566  1.00  0.00     0.121 C 
ATOM     12  C   UNL A   1      31.807  25.016  24.138  1.00  0.00     0.094 C 
ATOM     13  C   UNL A   1      34.132  24.830  23.397  1.00  0.00     0.037 C 
ATOM     14  C   UNL A   1      30.500  24.518  23.517  1.00  0.00     0.032 C 
BRANCH  10  15
ATOM     15  C   UNL A   1      31.786  27.497  23.379  1.00  0.00     0.254 C 
ATOM     16  O   UNL A   1      31.083  27.872  22.438  1.00  0.00    -0.269 OA
BRANCH  15  17
ATOM     17  C   UNL A   1      32.213  28.516  24.380  1.00  0.00     0.040 A 
ATOM     18  C   UNL A   1      30.914  31.654  26.118  1.00  0.00     0.044 C 
ATOM     19  C   UNL A   1      31.764  30.466  25.775  1.00  0.00    -0.050 A 
ATOM     20  C   UNL A   1      32.891  30.164  26.547  1.00  0.00     0.006 A 
ATOM     21  C   UNL A   1      31.411  29.613  24.719  1.00  0.00     0.017 A 
ATOM     22  C   UNL A   1      33.673  29.038  26.265  1.00  0.00    -0.050 A 
ATOM     23  C   UNL A   1      34.805  28.667  27.178  1.00  0.00     0.044 C 
ATOM     24  C   UNL A   1      33.342  28.235  25.165  1.00  0.00     0.017 A 
ENDBRANCH  15  17
ENDBRANCH  10  15
ENDBRANCH   6   9
ENDBRANCH   4   5
ENDBRANCH   3   4
ENDBRANCH   2   3
ENDBRANCH   1   2
BRANCH   1  25
ATOM     25  C   UNL A   1      35.824  21.617  25.079  1.00  0.00     0.021 C 
BRANCH  25  26
ATOM     26  C   UNL A   1      37.309  21.767  24.765  1.00  0.00     0.116 C 
BRANCH  26  27
ATOM     27  N   UNL A   1      38.112  20.718  25.373  1.00  0.00    -0.352 N 
ATOM     28  C   UNL A   1      39.261  20.829  26.117  1.00  0.00     0.251 C 
ATOM     29  H   UNL A   1      37.787  19.800  25.232  1.00  0.00     0.163 HD
ATOM     30  O   UNL A   1      39.908  19.823  26.402  1.00  0.00    -0.269 OA
BRANCH  28  31
ATOM     31  C   UNL A   1      39.730  22.161  26.554  1.00  0.00     0.039 A 
ATOM     32  C   UNL A   1      40.773  22.245  27.478  1.00  0.00     0.014 A 
ATOM     33  C   UNL A   1      39.148  23.325  26.043  1.00  0.00     0.014 A 
ATOM     34  C   UNL A   1      41.274  23.496  27.844  1.00  0.00     0.010 A 
ATOM     35  C   UNL A   1      39.701  24.565  26.345  1.00  0.00     0.010 A 
ATOM     36  C   UNL A   1      40.765  24.666  27.254  1.00  0.00    -0.014 A 
BRANCH  36  37
ATOM     37  C   UNL A   1      41.342  25.999  27.561  1.00  0.00     0.031 A 
ATOM     38  C   UNL A   1      42.744  26.341  27.134  1.00  0.00     0.074 A 
ATOM     39  C   UNL A   1      40.634  26.875  28.302  1.00  0.00     0.049 A 
ATOM     40  N   UNL A   1      43.426  27.437  27.343  1.00  0.00    -0.248 NA
ATOM     41  C   UNL A   1      43.487  25.303  26.402  1.00  0.00     0.031 C 
ATOM     42  C   UNL A   1      39.292  26.638  28.836  1.00  0.00     0.029 A 
ATOM     43  N   UNL A   1      40.953  28.133  28.751  1.00  0.00    -0.354 N 
ATOM     44  C   UNL A   1      44.687  27.208  26.807  1.00  0.00     0.074 A 
ATOM     45  C   UNL A   1      44.686  25.854  26.297  1.00  0.00     0.031 C 
ATOM     46  C   UNL A   1      38.893  27.722  29.520  1.00  0.00     0.029 A 
ATOM     47  C   UNL A   1      39.963  28.714  29.507  1.00  0.00     0.049 A 
ATOM     48  H   UNL A   1      41.809  28.575  28.550  1.00  0.00     0.167 HD
ATOM     49  C   UNL A   1      45.742  28.054  26.721  1.00  0.00     0.034 A 
ATOM     50  C   UNL A   1      39.921  29.913  30.122  1.00  0.00     0.034 A 
ATOM     51  C   UNL A   1      45.729  29.408  27.205  1.00  0.00     0.049 A 
ATOM     52  C   UNL A   1      41.099  30.839  30.004  1.00  0.00     0.074 A 
ATOM     53  C   UNL A   1      46.709  30.376  27.083  1.00  0.00     0.029 A 
ATOM     54  N   UNL A   1      44.690  29.981  27.924  1.00  0.00    -0.354 N 
ATOM     55  N   UNL A   1      42.224  30.666  29.353  1.00  0.00    -0.248 NA
ATOM     56  C   UNL A   1      40.989  32.141  30.679  1.00  0.00     0.031 C 
ATOM     57  C   UNL A   1      46.282  31.520  27.766  1.00  0.00     0.029 A 
ATOM     58  C   UNL A   1      45.015  31.281  28.276  1.00  0.00     0.049 A 
ATOM     59  H   UNL A   1      43.846  29.530  28.151  1.00  0.00     0.167 HD
ATOM     60  C   UNL A   1      42.939  31.849  29.506  1.00  0.00     0.074 A 
ATOM     61  C   UNL A   1      42.112  32.735  30.300  1.00  0.00     0.031 C 
ATOM     62  C   UNL A   1      44.170  32.168  29.035  1.00  0.00     0.034 A 
BRANCH  49  63
ATOM     63  C   UNL A   1      46.994  27.536  26.054  1.00  0.00     0.023 A 
ATOM     64  C   UNL A   1      47.200  27.758  24.676  1.00  0.00     0.012 A 
ATOM     65  C   UNL A   1      47.971  26.842  26.793  1.00  0.00     0.148 A 
ATOM     66  C   UNL A   1      48.328  27.248  24.034  1.00  0.00     0.002 A 
ATOM     67  C   UNL A   1      49.120  26.383  26.157  1.00  0.00     0.091 A 
ATOM     68  F   UNL A   1      47.753  26.621  28.098  1.00  0.00    -0.205 F 
ATOM     69  C   UNL A   1      49.291  26.570  24.776  1.00  0.00     0.022 A 
BRANCH  67  70
ATOM     70  S   UNL A   1      50.454  25.573  27.044  1.00  0.00     0.127 S 
ATOM     71  O   UNL A   1      51.412  25.321  25.968  1.00  0.00    -0.237 OA
ATOM     72  O   UNL A   1      50.864  26.605  27.996  1.00  0.00    -0.237 OA
ATOM     73  O   UNL A   1      49.866  24.388  27.653  1.00  0.00    -0.744 OA
ENDBRANCH  67  70
ENDBRANCH  49  63
BRANCH  50  74
ATOM     74  C   UNL A   1      38.682  30.333  30.835  1.00  0.00     0.023 A 
ATOM     75  C   UNL A   1      38.546  30.037  32.205  1.00  0.00     0.012 A 
ATOM     76  C   UNL A   1      37.667  31.061  30.185  1.00  0.00     0.148 A 
ATOM     77  C   UNL A   1      37.411  30.437  32.911  1.00  0.00     0.002 A 
ATOM     78  C   UNL A   1      36.564  31.503  30.905  1.00  0.00     0.091 A 
ATOM     79  F   UNL A   1      37.816  31.330  28.880  1.00  0.00    -0.205 F 
ATOM     80  C   UNL A   1      36.427  31.178  32.264  1.00  0.00     0.022 A 
BRANCH  78  81
ATOM     81  S   UNL A   1      35.306  32.568  30.194  1.00  0.00     0.127 S 
ATOM     82  O   UNL A   1      34.800  31.746  29.098  1.00  0.00    -0.237 OA
ATOM     83  O   UNL A   1      34.383  32.732  31.318  1.00  0.00    -0.237 OA
ATOM     84  O   UNL A   1      35.995  33.789  29.797  1.00  0.00    -0.744 OA
ENDBRANCH  78  81
ENDBRANCH  50  74
BRANCH  62  85
ATOM     85  C   UNL A   1      44.696  33.550  29.332  1.00  0.00     0.023 A 
ATOM     86  C   UNL A   1      45.404  33.796  30.526  1.00  0.00     0.012 A 
ATOM     87  C   UNL A   1      44.548  34.588  28.391  1.00  0.00     0.148 A 
ATOM     88  C   UNL A   1      45.926  35.063  30.791  1.00  0.00     0.002 A 
ATOM     89  C   UNL A   1      45.117  35.832  28.638  1.00  0.00     0.091 A 
ATOM     90  F   UNL A   1      43.856  34.340  27.269  1.00  0.00    -0.205 F 
ATOM     91  C   UNL A   1      45.793  36.075  29.844  1.00  0.00     0.022 A 
BRANCH  89  92
ATOM     92  S   UNL A   1      45.085  37.165  27.434  1.00  0.00     0.127 S 
ATOM     93  O   UNL A   1      43.694  37.128  26.987  1.00  0.00    -0.237 OA
ATOM     94  O   UNL A   1      45.432  38.327  28.252  1.00  0.00    -0.237 OA
ATOM     95  O   UNL A   1      46.075  36.820  26.423  1.00  0.00    -0.744 OA
ENDBRANCH  89  92
ENDBRANCH  62  85
ENDBRANCH  36  37
ENDBRANCH  28  31
ENDBRANCH  26  27
ENDBRANCH  25  26
ENDBRANCH   1  25
TORSDOF 18
ENDMDL
MODEL 2
REMARK VINA RESULT:     -11.6      4.922     10.252
REMARK SMILES Cc1cc(C)cc(C(=O)N2CC[C@H](C(=O)NCCCCCCNC(=O)c3ccc(-c4c5nc(c(-c6cccc(S(=O)(=O)[O-])c6F)c6ccc([nH]6)c(-c6cccc(S(=O)(=O)[O-])c6F)c6nc(c(-c7cccc(S(=O)(=O)[O-])c7F)c7ccc4[nH]7)C=C6)C=C5)cc3)[C@@H]2C)c1
REMARK SMILES IDX 20 1 19 2 18 3 17 4 16 5 14 6 15 7 13 9 10 10 11 11 89 12
REMARK SMILES IDX 12 13 90 14 8 15 9 16 7 17 1 18 2 19 3 20 91 21 4 22 5 23
REMARK SMILES IDX 6 24 21 25 22 26 23 27 24 28 25 30 26 31 27 32 88 33 28 34
REMARK SMILES IDX 87 35 29 36 30 37 31 38 81 39 32 40 86 41 80 42 82 43 33 44
REMARK SMILES IDX 85 45 79 46 78 47 34 49 66 50 46 51 65 52 47 53 50 54 64 55
REMARK SMILES IDX 83 56 48 57 49 58 63 60 84 61 51 62 35 63 36 64 44 65 37 66
REMARK SMILES IDX 39 67 45 68 38 69 40 70 41 71 42 72 43 73 67 74 68 75 76 76
REMARK SMILES IDX 69 77 71 78 77 79 70 80 72 81 73 82 74 83 75 84 52 85 53 86
REMARK SMILES IDX 61 87 54 88 56 89 62 90 55 91 57 92 58 93 59 94 60 95
REMARK H PARENT 16 8 23 29 82 48 50 59
REMARK Flexibility Score: inf
ROOT
ATOM      1  C   UNL A   1      31.384  30.016  24.944  1.00  0.00     0.002 C 
ENDROOT
BRANCH   1   2
ATOM      2  C   UNL A   1      30.547  29.351  23.847  1.00  0.00     0.002 C 
BRANCH   2   3
ATOM      3  C   UNL A   1      31.303  29.031  22.551  1.00  0.00     0.021 C 
BRANCH   3   4
ATOM      4  C   UNL A   1      32.804  28.809  22.723  1.00  0.00     0.116 C 
BRANCH   4   5
ATOM      5  N   UNL A   1      33.248  27.620  22.019  1.00  0.00    -0.356 N 
ATOM      6  C   UNL A   1      32.981  26.305  22.244  1.00  0.00     0.225 C 
ATOM      7  O   UNL A   1      33.489  25.475  21.489  1.00  0.00    -0.275 OA
ATOM      8  H   UNL A   1      33.842  27.793  21.252  1.00  0.00     0.163 HD
BRANCH   6   9
ATOM      9  C   UNL A   1      32.083  25.906  23.400  1.00  0.00     0.102 C 
ATOM     10  N   UNL A   1      32.252  23.889  24.660  1.00  0.00    -0.335 N 
ATOM     11  C   UNL A   1      31.686  23.535  23.379  1.00  0.00     0.121 C 
ATOM     12  C   UNL A   1      32.805  25.254  24.608  1.00  0.00     0.094 C 
ATOM     13  C   UNL A   1      31.073  24.844  22.929  1.00  0.00     0.037 C 
ATOM     14  C   UNL A   1      34.332  25.207  24.525  1.00  0.00     0.032 C 
BRANCH  10  15
ATOM     15  C   UNL A   1      32.308  22.934  25.656  1.00  0.00     0.254 C 
ATOM     16  O   UNL A   1      31.867  23.164  26.784  1.00  0.00    -0.269 OA
BRANCH  15  17
ATOM     17  C   UNL A   1      33.052  21.658  25.445  1.00  0.00     0.040 A 
ATOM     18  C   UNL A   1      32.483  18.096  24.203  1.00  0.00     0.044 C 
ATOM     19  C   UNL A   1      33.167  19.353  24.657  1.00  0.00    -0.050 A 
ATOM     20  C   UNL A   1      34.564  19.420  24.686  1.00  0.00     0.006 A 
ATOM     21  C   UNL A   1      32.421  20.490  24.999  1.00  0.00     0.017 A 
ATOM     22  C   UNL A   1      35.218  20.597  25.069  1.00  0.00    -0.050 A 
ATOM     23  C   UNL A   1      36.713  20.685  24.978  1.00  0.00     0.044 C 
ATOM     24  C   UNL A   1      34.454  21.702  25.470  1.00  0.00     0.017 A 
ENDBRANCH  15  17
ENDBRANCH  10  15
ENDBRANCH   6   9
ENDBRANCH   4   5
ENDBRANCH   3   4
ENDBRANCH   2   3
ENDBRANCH   1   2
BRANCH   1  25
ATOM     25  C   UNL A   1      31.636  29.152  26.181  1.00  0.00     0.021 C 
BRANCH  25  26
ATOM     26  C   UNL A   1      32.692  29.695  27.137  1.00  0.00     0.116 C 
BRANCH  26  27
ATOM     27  N   UNL A   1      32.760  31.148  27.120  1.00  0.00    -0.352 N 
ATOM     28  C   UNL A   1      33.726  31.976  27.636  1.00  0.00     0.251 C 
ATOM     29  H   UNL A   1      32.008  31.602  26.676  1.00  0.00     0.163 HD
ATOM     30  O   UNL A   1      33.532  33.189  27.689  1.00  0.00    -0.269 OA
BRANCH  28  31
ATOM     31  C   UNL A   1      34.989  31.402  28.149  1.00  0.00     0.039 A 
ATOM     32  C   UNL A   1      36.115  32.221  28.250  1.00  0.00     0.014 A 
ATOM     33  C   UNL A   1      35.057  30.062  28.540  1.00  0.00     0.014 A 
ATOM     34  C   UNL A   1      37.294  31.712  28.800  1.00  0.00     0.010 A 
ATOM     35  C   UNL A   1      36.205  29.581  29.162  1.00  0.00     0.010 A 
ATOM     36  C   UNL A   1      37.338  30.397  29.293  1.00  0.00    -0.014 A 
BRANCH  36  37
ATOM     37  C   UNL A   1      38.551  29.864  29.962  1.00  0.00     0.031 A 
ATOM     38  C   UNL A   1      38.941  30.346  31.334  1.00  0.00     0.074 A 
ATOM     39  C   UNL A   1      39.353  29.008  29.299  1.00  0.00     0.049 A 
ATOM     40  N   UNL A   1      39.980  30.023  32.057  1.00  0.00    -0.248 NA
ATOM     41  C   UNL A   1      38.062  31.345  31.961  1.00  0.00     0.031 C 
ATOM     42  C   UNL A   1      39.125  28.517  27.939  1.00  0.00     0.029 A 
ATOM     43  N   UNL A   1      40.534  28.414  29.672  1.00  0.00    -0.354 N 
ATOM     44  C   UNL A   1      39.904  30.804  33.203  1.00  0.00     0.074 A 
ATOM     45  C   UNL A   1      38.736  31.645  33.061  1.00  0.00     0.031 C 
ATOM     46  C   UNL A   1      40.119  27.681  27.601  1.00  0.00     0.029 A 
ATOM     47  C   UNL A   1      41.074  27.605  28.701  1.00  0.00     0.049 A 
ATOM     48  H   UNL A   1      40.953  28.554  30.552  1.00  0.00     0.167 HD
ATOM     49  C   UNL A   1      40.715  30.805  34.290  1.00  0.00     0.034 A 
ATOM     50  C   UNL A   1      42.212  26.883  28.696  1.00  0.00     0.034 A 
ATOM     51  C   UNL A   1      41.859  29.947  34.439  1.00  0.00     0.049 A 
ATOM     52  C   UNL A   1      43.091  26.890  29.916  1.00  0.00     0.074 A 
ATOM     53  C   UNL A   1      42.690  29.802  35.536  1.00  0.00     0.029 A 
ATOM     54  N   UNL A   1      42.350  29.103  33.453  1.00  0.00    -0.354 N 
ATOM     55  N   UNL A   1      42.915  27.513  31.056  1.00  0.00    -0.248 NA
ATOM     56  C   UNL A   1      44.308  26.068  29.861  1.00  0.00     0.031 C 
ATOM     57  C   UNL A   1      43.708  28.904  35.198  1.00  0.00     0.029 A 
ATOM     58  C   UNL A   1      43.487  28.454  33.905  1.00  0.00     0.049 A 
ATOM     59  H   UNL A   1      41.949  28.984  32.562  1.00  0.00     0.167 HD
ATOM     60  C   UNL A   1      43.978  27.130  31.868  1.00  0.00     0.074 A 
ATOM     61  C   UNL A   1      44.783  26.209  31.092  1.00  0.00     0.031 C 
ATOM     62  C   UNL A   1      44.262  27.511  33.138  1.00  0.00     0.034 A 
BRANCH  49  63
ATOM     63  C   UNL A   1      40.370  31.754  35.412  1.00  0.00     0.023 A 
ATOM     64  C   UNL A   1      41.130  32.928  35.598  1.00  0.00     0.012 A 
ATOM     65  C   UNL A   1      39.286  31.492  36.271  1.00  0.00     0.148 A 
ATOM     66  C   UNL A   1      40.854  33.794  36.656  1.00  0.00     0.002 A 
ATOM     67  C   UNL A   1      38.984  32.388  37.292  1.00  0.00     0.091 A 
ATOM     68  F   UNL A   1      38.585  30.363  36.095  1.00  0.00    -0.205 F 
ATOM     69  C   UNL A   1      39.776  33.529  37.496  1.00  0.00     0.022 A 
BRANCH  67  70
ATOM     70  S   UNL A   1      37.565  32.175  38.372  1.00  0.00     0.127 S 
ATOM     71  O   UNL A   1      38.089  32.664  39.647  1.00  0.00    -0.237 OA
ATOM     72  O   UNL A   1      36.568  33.045  37.748  1.00  0.00    -0.237 OA
ATOM     73  O   UNL A   1      37.241  30.756  38.329  1.00  0.00    -0.744 OA
ENDBRANCH  67  70
ENDBRANCH  49  63
BRANCH  50  74
ATOM     74  C   UNL A   1      42.537  26.026  27.521  1.00  0.00     0.023 A 
ATOM     75  C   UNL A   1      43.343  26.553  26.492  1.00  0.00     0.012 A 
ATOM     76  C   UNL A   1      42.101  24.690  27.438  1.00  0.00     0.148 A 
ATOM     77  C   UNL A   1      43.688  25.772  25.388  1.00  0.00     0.002 A 
ATOM     78  C   UNL A   1      42.493  23.902  26.363  1.00  0.00     0.091 A 
ATOM     79  F   UNL A   1      41.334  24.211  28.427  1.00  0.00    -0.205 F 
ATOM     80  C   UNL A   1      43.273  24.445  25.330  1.00  0.00     0.022 A 
BRANCH  78  81
ATOM     81  S   UNL A   1      42.114  22.149  26.258  1.00  0.00     0.127 S 
ATOM     82  O   UNL A   1      40.665  22.166  26.075  1.00  0.00    -0.237 OA
ATOM     83  O   UNL A   1      42.880  21.748  25.078  1.00  0.00    -0.237 OA
ATOM     84  O   UNL A   1      42.582  21.565  27.509  1.00  0.00    -0.744 OA
ENDBRANCH  78  81
ENDBRANCH  50  74
BRANCH  62  85
ATOM     85  C   UNL A   1      45.478  26.907  33.794  1.00  0.00     0.023 A 
ATOM     86  C   UNL A   1      46.739  27.519  33.644  1.00  0.00     0.012 A 
ATOM     87  C   UNL A   1      45.356  25.772  34.620  1.00  0.00     0.148 A 
ATOM     88  C   UNL A   1      47.863  26.989  34.278  1.00  0.00     0.002 A 
ATOM     89  C   UNL A   1      46.470  25.281  35.290  1.00  0.00     0.091 A 
ATOM     90  F   UNL A   1      44.152  25.193  34.736  1.00  0.00    -0.205 F 
ATOM     91  C   UNL A   1      47.727  25.880  35.109  1.00  0.00     0.022 A 
BRANCH  89  92
ATOM     92  S   UNL A   1      46.371  23.921  36.459  1.00  0.00     0.127 S 
ATOM     93  O   UNL A   1      47.776  23.733  36.817  1.00  0.00    -0.237 OA
ATOM     94  O   UNL A   1      45.541  24.489  37.523  1.00  0.00    -0.237 OA
ATOM     95  O   UNL A   1      45.758  22.814  35.739  1.00  0.00    -0.744 OA
ENDBRANCH  89  92
ENDBRANCH  62  85
ENDBRANCH  36  37
ENDBRANCH  28  31
ENDBRANCH  26  27
ENDBRANCH  25  26
ENDBRANCH   1  25
TORSDOF 18
ENDMDL
MODEL 3
REMARK VINA RESULT:     -11.5      4.613      9.648
REMARK SMILES Cc1cc(C)cc(C(=O)N2CC[C@H](C(=O)NCCCCCCNC(=O)c3ccc(-c4c5nc(c(-c6cccc(S(=O)(=O)[O-])c6F)c6ccc([nH]6)c(-c6cccc(S(=O)(=O)[O-])c6F)c6nc(c(-c7cccc(S(=O)(=O)[O-])c7F)c7ccc4[nH]7)C=C6)C=C5)cc3)[C@@H]2C)c1
REMARK SMILES IDX 20 1 19 2 18 3 17 4 16 5 14 6 15 7 13 9 10 10 11 11 89 12
REMARK SMILES IDX 12 13 90 14 8 15 9 16 7 17 1 18 2 19 3 20 91 21 4 22 5 23
REMARK SMILES IDX 6 24 21 25 22 26 23 27 24 28 25 30 26 31 27 32 88 33 28 34
REMARK SMILES IDX 87 35 29 36 30 37 31 38 81 39 32 40 86 41 80 42 82 43 33 44
REMARK SMILES IDX 85 45 79 46 78 47 34 49 66 50 46 51 65 52 47 53 50 54 64 55
REMARK SMILES IDX 83 56 48 57 49 58 63 60 84 61 51 62 35 63 36 64 44 65 37 66
REMARK SMILES IDX 39 67 45 68 38 69 40 70 41 71 42 72 43 73 67 74 68 75 76 76
REMARK SMILES IDX 69 77 71 78 77 79 70 80 72 81 73 82 74 83 75 84 52 85 53 86
REMARK SMILES IDX 61 87 54 88 56 89 62 90 55 91 57 92 58 93 59 94 60 95
REMARK H PARENT 16 8 23 29 82 48 50 59
REMARK Flexibility Score: inf
ROOT
ATOM      1  C   UNL A   1      31.766  28.531  26.246  1.00  0.00     0.002 C 
ENDROOT
BRANCH   1   2
ATOM      2  C   UNL A   1      31.048  28.070  24.974  1.00  0.00     0.002 C 
BRANCH   2   3
ATOM      3  C   UNL A   1      31.812  28.313  23.666  1.00  0.00     0.021 C 
BRANCH   3   4
ATOM      4  C   UNL A   1      31.132  27.759  22.416  1.00  0.00     0.116 C 
BRANCH   4   5
ATOM      5  N   UNL A   1      31.966  26.773  21.751  1.00  0.00    -0.356 N 
ATOM      6  C   UNL A   1      32.292  25.502  22.111  1.00  0.00     0.225 C 
ATOM      7  O   UNL A   1      33.028  24.860  21.360  1.00  0.00    -0.275 OA
ATOM      8  H   UNL A   1      32.361  27.074  20.901  1.00  0.00     0.163 HD
BRANCH   6   9
ATOM      9  C   UNL A   1      31.750  24.922  23.405  1.00  0.00     0.102 C 
ATOM     10  N   UNL A   1      32.852  23.315  24.777  1.00  0.00    -0.335 N 
ATOM     11  C   UNL A   1      32.366  22.608  23.614  1.00  0.00     0.121 C 
ATOM     12  C   UNL A   1      32.785  24.769  24.549  1.00  0.00     0.094 C 
ATOM     13  C   UNL A   1      31.229  23.495  23.155  1.00  0.00     0.037 C 
ATOM     14  C   UNL A   1      34.180  25.328  24.264  1.00  0.00     0.032 C 
BRANCH  10  15
ATOM     15  C   UNL A   1      33.390  22.593  25.825  1.00  0.00     0.254 C 
ATOM     16  O   UNL A   1      32.734  22.367  26.844  1.00  0.00    -0.269 OA
BRANCH  15  17
ATOM     17  C   UNL A   1      34.832  22.209  25.823  1.00  0.00     0.040 A 
ATOM     18  C   UNL A   1      37.114  19.365  24.705  1.00  0.00     0.044 C 
ATOM     19  C   UNL A   1      36.644  20.701  25.201  1.00  0.00    -0.050 A 
ATOM     20  C   UNL A   1      37.571  21.713  25.476  1.00  0.00     0.006 A 
ATOM     21  C   UNL A   1      35.275  20.973  25.339  1.00  0.00     0.017 A 
ATOM     22  C   UNL A   1      37.147  22.977  25.902  1.00  0.00    -0.050 A 
ATOM     23  C   UNL A   1      38.148  24.081  26.076  1.00  0.00     0.044 C 
ATOM     24  C   UNL A   1      35.778  23.208  26.097  1.00  0.00     0.017 A 
ENDBRANCH  15  17
ENDBRANCH  10  15
ENDBRANCH   6   9
ENDBRANCH   4   5
ENDBRANCH   3   4
ENDBRANCH   2   3
ENDBRANCH   1   2
BRANCH   1  25
ATOM     25  C   UNL A   1      33.145  27.910  26.474  1.00  0.00     0.021 C 
BRANCH  25  26
ATOM     26  C   UNL A   1      34.309  28.893  26.404  1.00  0.00     0.116 C 
BRANCH  26  27
ATOM     27  N   UNL A   1      33.944  30.218  26.878  1.00  0.00    -0.352 N 
ATOM     28  C   UNL A   1      34.548  30.991  27.840  1.00  0.00     0.251 C 
ATOM     29  H   UNL A   1      33.153  30.619  26.450  1.00  0.00     0.163 HD
ATOM     30  O   UNL A   1      33.998  32.014  28.241  1.00  0.00    -0.269 OA
BRANCH  28  31
ATOM     31  C   UNL A   1      35.848  30.575  28.407  1.00  0.00     0.039 A 
ATOM     32  C   UNL A   1      35.868  29.689  29.486  1.00  0.00     0.014 A 
ATOM     33  C   UNL A   1      37.047  31.051  27.867  1.00  0.00     0.014 A 
ATOM     34  C   UNL A   1      37.089  29.233  29.985  1.00  0.00     0.010 A 
ATOM     35  C   UNL A   1      38.259  30.532  28.310  1.00  0.00     0.010 A 
ATOM     36  C   UNL A   1      38.296  29.622  29.378  1.00  0.00    -0.014 A 
BRANCH  36  37
ATOM     37  C   UNL A   1      39.600  29.080  29.834  1.00  0.00     0.031 A 
ATOM     38  C   UNL A   1      40.348  29.738  30.962  1.00  0.00     0.074 A 
ATOM     39  C   UNL A   1      40.156  28.045  29.174  1.00  0.00     0.049 A 
ATOM     40  N   UNL A   1      41.511  29.429  31.472  1.00  0.00    -0.248 NA
ATOM     41  C   UNL A   1      39.717  30.916  31.579  1.00  0.00     0.031 C 
ATOM     42  C   UNL A   1      39.567  27.363  28.021  1.00  0.00     0.029 A 
ATOM     43  N   UNL A   1      41.352  27.398  29.367  1.00  0.00    -0.354 N 
ATOM     44  C   UNL A   1      41.771  30.393  32.438  1.00  0.00     0.074 A 
ATOM     45  C   UNL A   1      40.660  31.319  32.416  1.00  0.00     0.031 C 
ATOM     46  C   UNL A   1      40.390  26.381  27.623  1.00  0.00     0.029 A 
ATOM     47  C   UNL A   1      41.582  26.386  28.465  1.00  0.00     0.049 A 
ATOM     48  H   UNL A   1      41.984  27.636  30.083  1.00  0.00     0.167 HD
ATOM     49  C   UNL A   1      42.824  30.487  33.286  1.00  0.00     0.034 A 
ATOM     50  C   UNL A   1      42.634  25.555  28.331  1.00  0.00     0.034 A 
ATOM     51  C   UNL A   1      43.913  29.548  33.322  1.00  0.00     0.049 A 
ATOM     52  C   UNL A   1      43.787  25.670  29.289  1.00  0.00     0.074 A 
ATOM     53  C   UNL A   1      44.978  29.498  34.203  1.00  0.00     0.029 A 
ATOM     54  N   UNL A   1      44.089  28.505  32.425  1.00  0.00    -0.354 N 
ATOM     55  N   UNL A   1      43.940  26.489  30.302  1.00  0.00    -0.248 NA
ATOM     56  C   UNL A   1      44.898  24.725  29.107  1.00  0.00     0.031 C 
ATOM     57  C   UNL A   1      45.822  28.453  33.812  1.00  0.00     0.029 A 
ATOM     58  C   UNL A   1      45.259  27.822  32.713  1.00  0.00     0.049 A 
ATOM     59  H   UNL A   1      43.473  28.284  31.690  1.00  0.00     0.167 HD
ATOM     60  C   UNL A   1      45.143  26.133  30.902  1.00  0.00     0.074 A 
ATOM     61  C   UNL A   1      45.670  25.015  30.146  1.00  0.00     0.031 C 
ATOM     62  C   UNL A   1      45.757  26.687  31.977  1.00  0.00     0.034 A 
BRANCH  49  63
ATOM     63  C   UNL A   1      42.830  31.641  34.259  1.00  0.00     0.023 A 
ATOM     64  C   UNL A   1      43.447  32.859  33.904  1.00  0.00     0.012 A 
ATOM     65  C   UNL A   1      42.212  31.524  35.519  1.00  0.00     0.148 A 
ATOM     66  C   UNL A   1      43.500  33.920  34.807  1.00  0.00     0.002 A 
ATOM     67  C   UNL A   1      42.223  32.606  36.395  1.00  0.00     0.091 A 
ATOM     68  F   UNL A   1      41.647  30.355  35.853  1.00  0.00    -0.205 F 
ATOM     69  C   UNL A   1      42.882  33.796  36.048  1.00  0.00     0.022 A 
BRANCH  67  70
ATOM     70  S   UNL A   1      41.381  32.570  37.980  1.00  0.00     0.127 S 
ATOM     71  O   UNL A   1      42.192  31.606  38.723  1.00  0.00    -0.237 OA
ATOM     72  O   UNL A   1      41.514  33.956  38.432  1.00  0.00    -0.237 OA
ATOM     73  O   UNL A   1      40.014  32.155  37.697  1.00  0.00    -0.744 OA
ENDBRANCH  67  70
ENDBRANCH  49  63
BRANCH  50  74
ATOM     74  C   UNL A   1      42.603  24.486  27.293  1.00  0.00     0.023 A 
ATOM     75  C   UNL A   1      43.184  24.736  26.035  1.00  0.00     0.012 A 
ATOM     76  C   UNL A   1      42.051  23.218  27.557  1.00  0.00     0.148 A 
ATOM     77  C   UNL A   1      43.195  23.750  25.048  1.00  0.00     0.002 A 
ATOM     78  C   UNL A   1      42.112  22.223  26.589  1.00  0.00     0.091 A 
ATOM     79  F   UNL A   1      41.500  23.003  28.760  1.00  0.00    -0.205 F 
ATOM     80  C   UNL A   1      42.670  22.492  25.328  1.00  0.00     0.022 A 
BRANCH  78  81
ATOM     81  S   UNL A   1      41.576  20.537  26.896  1.00  0.00     0.127 S 
ATOM     82  O   UNL A   1      40.170  20.727  27.242  1.00  0.00    -0.237 OA
ATOM     83  O   UNL A   1      41.813  19.907  25.597  1.00  0.00    -0.237 OA
ATOM     84  O   UNL A   1      42.425  20.039  27.971  1.00  0.00    -0.744 OA
ENDBRANCH  78  81
ENDBRANCH  50  74
BRANCH  62  85
ATOM     85  C   UNL A   1      47.057  26.073  32.433  1.00  0.00     0.023 A 
ATOM     86  C   UNL A   1      48.281  26.551  31.924  1.00  0.00     0.012 A 
ATOM     87  C   UNL A   1      47.066  25.070  33.423  1.00  0.00     0.148 A 
ATOM     88  C   UNL A   1      49.491  26.015  32.367  1.00  0.00     0.002 A 
ATOM     89  C   UNL A   1      48.276  24.579  33.899  1.00  0.00     0.091 A 
ATOM     90  F   UNL A   1      45.891  24.616  33.882  1.00  0.00    -0.205 F 
ATOM     91  C   UNL A   1      49.488  25.040  33.362  1.00  0.00     0.022 A 
BRANCH  89  92
ATOM     92  S   UNL A   1      48.374  23.397  35.247  1.00  0.00     0.127 S 
ATOM     93  O   UNL A   1      47.712  22.229  34.668  1.00  0.00    -0.237 OA
ATOM     94  O   UNL A   1      49.819  23.252  35.426  1.00  0.00    -0.237 OA
ATOM     95  O   UNL A   1      47.683  24.010  36.373  1.00  0.00    -0.744 OA
ENDBRANCH  89  92
ENDBRANCH  62  85
ENDBRANCH  36  37
ENDBRANCH  28  31
ENDBRANCH  26  27
ENDBRANCH  25  26
ENDBRANCH   1  25
TORSDOF 18
ENDMDL
