MODEL 1
REMARK VINA RESULT:     -11.3      0.000      0.000
REMARK SMILES CCc1cc(OC(F)(F)F)cc2c1O[C@H](C(F)(F)F)C(C(=O)NCCCCCCNC(=O)c1ccc(-c3c4nc(c(-c5cccc(S(=O)(=O)[O-])c5F)c5ccc([nH]5)c(-c5cccc(S(=O)(=O)[O-])c5F)c5nc(c(-c6cccc(S(=O)(=O)[O-])c6F)c6ccc3[nH]6)C=C5)C=C4)cc1)=C2
REMARK SMILES IDX 27 1 26 2 25 3 24 4 23 5 21 6 22 7 20 9 3 10 4 11 13 12 5 13
REMARK SMILES IDX 12 14 14 15 11 16 96 17 15 18 2 19 1 20 6 21 7 22 8 23 9 24
REMARK SMILES IDX 10 25 16 26 17 27 18 28 19 29 28 30 29 31 30 32 31 33 32 35
REMARK SMILES IDX 33 36 34 37 95 38 35 39 94 40 36 41 37 42 38 43 88 44 39 45
REMARK SMILES IDX 93 46 87 47 89 48 40 49 92 50 86 51 85 52 41 54 73 55 53 56
REMARK SMILES IDX 72 57 54 58 57 59 71 60 90 61 55 62 56 63 70 65 91 66 58 67
REMARK SMILES IDX 42 68 43 69 51 70 44 71 46 72 52 73 45 74 47 75 48 76 49 77
REMARK SMILES IDX 50 78 74 79 75 80 83 81 76 82 78 83 84 84 77 85 79 86 80 87
REMARK SMILES IDX 81 88 82 89 59 90 60 91 68 92 61 93 63 94 69 95 62 96 64 97
REMARK SMILES IDX 65 98 66 99 67 100
REMARK H PARENT 23 8 30 34 89 53 57 64
REMARK Flexibility Score: inf
ROOT
ATOM      1  C   UNL A   1      35.410  22.625  26.853  1.00  0.00     0.002 C 
ENDROOT
BRANCH   1   2
ATOM      2  C   UNL A   1      33.880  22.622  26.964  1.00  0.00     0.002 C 
BRANCH   2   3
ATOM      3  C   UNL A   1      33.189  21.503  26.174  1.00  0.00     0.021 C 
BRANCH   3   4
ATOM      4  C   UNL A   1      32.419  22.029  24.960  1.00  0.00     0.116 C 
BRANCH   4   5
ATOM      5  N   UNL A   1      33.345  22.297  23.878  1.00  0.00    -0.352 N 
ATOM      6  C   UNL A   1      33.617  23.410  23.156  1.00  0.00     0.251 C 
ATOM      7  O   UNL A   1      34.437  23.305  22.244  1.00  0.00    -0.270 OA
ATOM      8  H   UNL A   1      33.881  21.515  23.614  1.00  0.00     0.163 HD
BRANCH   6   9
ATOM      9  C   UNL A   1      33.075  24.756  23.494  1.00  0.00     0.067 C 
ATOM     10  C   UNL A   1      31.567  28.687  23.431  1.00  0.00    -0.002 A 
ATOM     11  C   UNL A   1      32.079  29.609  24.373  1.00  0.00     0.054 A 
ATOM     12  C   UNL A   1      32.057  27.373  23.460  1.00  0.00     0.131 A 
ATOM     13  C   UNL A   1      33.032  29.233  25.322  1.00  0.00     0.130 A 
ATOM     14  C   UNL A   1      32.997  26.978  24.423  1.00  0.00     0.021 A 
ATOM     15  O   UNL A   1      31.668  26.513  22.470  1.00  0.00    -0.475 OA
ATOM     16  C   UNL A   1      33.478  27.911  25.346  1.00  0.00     0.058 A 
ATOM     17  C   UNL A   1      33.562  25.629  24.385  1.00  0.00     0.025 C 
ATOM     18  C   UNL A   1      31.803  25.096  22.742  1.00  0.00     0.314 C 
BRANCH  10  19
ATOM     19  C   UNL A   1      30.568  29.231  22.426  1.00  0.00     0.036 C 
ATOM     20  C   UNL A   1      29.081  28.998  22.663  1.00  0.00     0.009 C 
ENDBRANCH  10  19
BRANCH  13  21
ATOM     21  O   UNL A   1      33.620  30.041  26.251  1.00  0.00    -0.406 OA
BRANCH  21  22
ATOM     22  C   UNL A   1      34.290  29.430  27.340  1.00  0.00     0.573 C 
ATOM     23  F   UNL A   1      34.553  30.324  28.319  1.00  0.00    -0.132 F 
ATOM     24  F   UNL A   1      33.553  28.417  27.849  1.00  0.00    -0.132 F 
ATOM     25  F   UNL A   1      35.462  28.920  26.906  1.00  0.00    -0.132 F 
ENDBRANCH  21  22
ENDBRANCH  13  21
BRANCH  18  26
ATOM     26  C   UNL A   1      30.544  24.562  23.456  1.00  0.00     0.429 C 
ATOM     27  F   UNL A   1      30.173  23.340  23.003  1.00  0.00    -0.167 F 
ATOM     28  F   UNL A   1      30.759  24.437  24.792  1.00  0.00    -0.167 F 
ATOM     29  F   UNL A   1      29.472  25.374  23.320  1.00  0.00    -0.167 F 
ENDBRANCH  18  26
ENDBRANCH   6   9
ENDBRANCH   4   5
ENDBRANCH   3   4
ENDBRANCH   2   3
ENDBRANCH   1   2
BRANCH   1  30
ATOM     30  C   UNL A   1      35.986  23.776  26.024  1.00  0.00     0.021 C 
BRANCH  30  31
ATOM     31  C   UNL A   1      37.157  23.370  25.137  1.00  0.00     0.116 C 
BRANCH  31  32
ATOM     32  N   UNL A   1      38.021  22.411  25.809  1.00  0.00    -0.352 N 
ATOM     33  C   UNL A   1      39.186  22.635  26.499  1.00  0.00     0.251 C 
ATOM     34  H   UNL A   1      37.729  21.472  25.762  1.00  0.00     0.163 HD
ATOM     35  O   UNL A   1      39.931  21.699  26.769  1.00  0.00    -0.269 OA
BRANCH  33  36
ATOM     36  C   UNL A   1      39.533  24.011  26.910  1.00  0.00     0.039 A 
ATOM     37  C   UNL A   1      39.259  24.421  28.216  1.00  0.00     0.014 A 
ATOM     38  C   UNL A   1      40.118  24.895  25.998  1.00  0.00     0.014 A 
ATOM     39  C   UNL A   1      39.615  25.709  28.621  1.00  0.00     0.010 A 
ATOM     40  C   UNL A   1      40.540  26.149  26.426  1.00  0.00     0.010 A 
ATOM     41  C   UNL A   1      40.281  26.574  27.737  1.00  0.00    -0.014 A 
BRANCH  41  42
ATOM     42  C   UNL A   1      40.716  27.926  28.165  1.00  0.00     0.031 A 
ATOM     43  C   UNL A   1      42.179  28.280  28.186  1.00  0.00     0.074 A 
ATOM     44  C   UNL A   1      39.801  28.806  28.614  1.00  0.00     0.049 A 
ATOM     45  N   UNL A   1      42.753  29.388  28.577  1.00  0.00    -0.248 NA
ATOM     46  C   UNL A   1      43.124  27.244  27.736  1.00  0.00     0.031 C 
ATOM     47  C   UNL A   1      38.362  28.551  28.717  1.00  0.00     0.029 A 
ATOM     48  N   UNL A   1      39.946  30.083  29.095  1.00  0.00    -0.354 N 
ATOM     49  C   UNL A   1      44.120  29.173  28.455  1.00  0.00     0.074 A 
ATOM     50  C   UNL A   1      44.293  27.816  27.988  1.00  0.00     0.031 C 
ATOM     51  C   UNL A   1      37.757  29.638  29.223  1.00  0.00     0.029 A 
ATOM     52  C   UNL A   1      38.765  30.654  29.511  1.00  0.00     0.049 A 
ATOM     53  H   UNL A   1      40.813  30.548  29.137  1.00  0.00     0.167 HD
ATOM     54  C   UNL A   1      45.138  30.035  28.681  1.00  0.00     0.034 A 
ATOM     55  C   UNL A   1      38.522  31.855  30.070  1.00  0.00     0.034 A 
ATOM     56  C   UNL A   1      44.959  31.397  29.106  1.00  0.00     0.049 A 
ATOM     57  C   UNL A   1      39.669  32.807  30.278  1.00  0.00     0.074 A 
ATOM     58  C   UNL A   1      45.918  32.379  29.276  1.00  0.00     0.029 A 
ATOM     59  N   UNL A   1      43.740  31.968  29.440  1.00  0.00    -0.354 N 
ATOM     60  N   UNL A   1      40.939  32.642  30.000  1.00  0.00    -0.248 NA
ATOM     61  C   UNL A   1      39.344  34.125  30.842  1.00  0.00     0.031 C 
ATOM     62  C   UNL A   1      45.283  33.535  29.741  1.00  0.00     0.029 A 
ATOM     63  C   UNL A   1      43.923  33.283  29.828  1.00  0.00     0.049 A 
ATOM     64  H   UNL A   1      42.872  31.504  29.406  1.00  0.00     0.167 HD
ATOM     65  C   UNL A   1      41.560  33.844  30.323  1.00  0.00     0.074 A 
ATOM     66  C   UNL A   1      40.520  34.736  30.795  1.00  0.00     0.031 C 
ATOM     67  C   UNL A   1      42.873  34.175  30.249  1.00  0.00     0.034 A 
BRANCH  54  68
ATOM     68  C   UNL A   1      46.541  29.547  28.426  1.00  0.00     0.023 A 
ATOM     69  C   UNL A   1      47.112  29.702  27.146  1.00  0.00     0.012 A 
ATOM     70  C   UNL A   1      47.314  28.988  29.463  1.00  0.00     0.148 A 
ATOM     71  C   UNL A   1      48.415  29.277  26.891  1.00  0.00     0.002 A 
ATOM     72  C   UNL A   1      48.629  28.610  29.214  1.00  0.00     0.091 A 
ATOM     73  F   UNL A   1      46.749  28.828  30.668  1.00  0.00    -0.205 F 
ATOM     74  C   UNL A   1      49.176  28.742  27.926  1.00  0.00     0.022 A 
BRANCH  72  75
ATOM     75  S   UNL A   1      49.718  27.984  30.497  1.00  0.00     0.127 S 
ATOM     76  O   UNL A   1      49.081  26.710  30.830  1.00  0.00    -0.237 OA
ATOM     77  O   UNL A   1      50.991  27.861  29.786  1.00  0.00    -0.237 OA
ATOM     78  O   UNL A   1      49.707  28.982  31.556  1.00  0.00    -0.744 OA
ENDBRANCH  72  75
ENDBRANCH  54  68
BRANCH  55  79
ATOM     79  C   UNL A   1      37.127  32.249  30.416  1.00  0.00     0.023 A 
ATOM     80  C   UNL A   1      36.653  32.038  31.726  1.00  0.00     0.012 A 
ATOM     81  C   UNL A   1      36.281  32.854  29.468  1.00  0.00     0.148 A 
ATOM     82  C   UNL A   1      35.349  32.389  32.075  1.00  0.00     0.002 A 
ATOM     83  C   UNL A   1      35.002  33.255  29.837  1.00  0.00     0.091 A 
ATOM     84  F   UNL A   1      36.748  33.038  28.225  1.00  0.00    -0.205 F 
ATOM     85  C   UNL A   1      34.527  33.007  31.134  1.00  0.00     0.022 A 
BRANCH  83  86
ATOM     86  S   UNL A   1      33.924  34.175  28.733  1.00  0.00     0.127 S 
ATOM     87  O   UNL A   1      33.607  33.172  27.720  1.00  0.00    -0.237 OA
ATOM     88  O   UNL A   1      32.816  34.528  29.621  1.00  0.00    -0.237 OA
ATOM     89  O   UNL A   1      34.710  35.313  28.275  1.00  0.00    -0.744 OA
ENDBRANCH  83  86
ENDBRANCH  55  79
BRANCH  67  90
ATOM     90  C   UNL A   1      43.265  35.572  30.654  1.00  0.00     0.023 A 
ATOM     91  C   UNL A   1      43.667  35.833  31.978  1.00  0.00     0.012 A 
ATOM     92  C   UNL A   1      43.307  36.608  29.700  1.00  0.00     0.148 A 
ATOM     93  C   UNL A   1      44.072  37.113  32.356  1.00  0.00     0.002 A 
ATOM     94  C   UNL A   1      43.762  37.868  30.070  1.00  0.00     0.091 A 
ATOM     95  F   UNL A   1      42.904  36.344  28.448  1.00  0.00    -0.205 F 
ATOM     96  C   UNL A   1      44.132  38.125  31.401  1.00  0.00     0.022 A 
BRANCH  94  97
ATOM     97  S   UNL A   1      43.966  39.206  28.890  1.00  0.00     0.127 S 
ATOM     98  O   UNL A   1      42.606  39.359  28.375  1.00  0.00    -0.237 OA
ATOM     99  O   UNL A   1      44.423  40.304  29.742  1.00  0.00    -0.237 OA
ATOM    100  O   UNL A   1      44.951  38.741  27.922  1.00  0.00    -0.744 OA
ENDBRANCH  94  97
ENDBRANCH  67  90
ENDBRANCH  41  42
ENDBRANCH  33  36
ENDBRANCH  31  32
ENDBRANCH  30  31
ENDBRANCH   1  30
TORSDOF 20
ENDMDL
MODEL 2
REMARK VINA RESULT:     -11.2      2.964      3.989
REMARK SMILES CCc1cc(OC(F)(F)F)cc2c1O[C@H](C(F)(F)F)C(C(=O)NCCCCCCNC(=O)c1ccc(-c3c4nc(c(-c5cccc(S(=O)(=O)[O-])c5F)c5ccc([nH]5)c(-c5cccc(S(=O)(=O)[O-])c5F)c5nc(c(-c6cccc(S(=O)(=O)[O-])c6F)c6ccc3[nH]6)C=C5)C=C4)cc1)=C2
REMARK SMILES IDX 27 1 26 2 25 3 24 4 23 5 21 6 22 7 20 9 3 10 4 11 13 12 5 13
REMARK SMILES IDX 12 14 14 15 11 16 96 17 15 18 2 19 1 20 6 21 7 22 8 23 9 24
REMARK SMILES IDX 10 25 16 26 17 27 18 28 19 29 28 30 29 31 30 32 31 33 32 35
REMARK SMILES IDX 33 36 34 37 95 38 35 39 94 40 36 41 37 42 38 43 88 44 39 45
REMARK SMILES IDX 93 46 87 47 89 48 40 49 92 50 86 51 85 52 41 54 73 55 53 56
REMARK SMILES IDX 72 57 54 58 57 59 71 60 90 61 55 62 56 63 70 65 91 66 58 67
REMARK SMILES IDX 42 68 43 69 51 70 44 71 46 72 52 73 45 74 47 75 48 76 49 77
REMARK SMILES IDX 50 78 74 79 75 80 83 81 76 82 78 83 84 84 77 85 79 86 80 87
REMARK SMILES IDX 81 88 82 89 59 90 60 91 68 92 61 93 63 94 69 95 62 96 64 97
REMARK SMILES IDX 65 98 66 99 67 100
REMARK H PARENT 23 8 30 34 89 53 57 64
REMARK Flexibility Score: inf
ROOT
ATOM      1  C   UNL A   1      35.050  22.066  26.321  1.00  0.00     0.002 C 
ENDROOT
BRANCH   1   2
ATOM      2  C   UNL A   1      33.683  21.526  26.757  1.00  0.00     0.002 C 
BRANCH   2   3
ATOM      3  C   UNL A   1      32.852  22.506  27.597  1.00  0.00     0.021 C 
BRANCH   3   4
ATOM      4  C   UNL A   1      31.573  22.952  26.886  1.00  0.00     0.116 C 
BRANCH   4   5
ATOM      5  N   UNL A   1      31.654  22.608  25.480  1.00  0.00    -0.352 N 
ATOM      6  C   UNL A   1      31.600  23.350  24.348  1.00  0.00     0.251 C 
ATOM      7  O   UNL A   1      31.644  22.747  23.276  1.00  0.00    -0.270 OA
ATOM      8  H   UNL A   1      31.770  21.645  25.316  1.00  0.00     0.163 HD
BRANCH   6   9
ATOM      9  C   UNL A   1      31.621  24.839  24.345  1.00  0.00     0.067 C 
ATOM     10  C   UNL A   1      31.486  28.930  25.338  1.00  0.00    -0.002 A 
ATOM     11  C   UNL A   1      30.779  29.798  24.475  1.00  0.00     0.054 A 
ATOM     12  C   UNL A   1      31.545  27.569  25.001  1.00  0.00     0.131 A 
ATOM     13  C   UNL A   1      30.167  29.333  23.309  1.00  0.00     0.130 A 
ATOM     14  C   UNL A   1      30.954  27.095  23.821  1.00  0.00     0.021 A 
ATOM     15  O   UNL A   1      32.110  26.703  25.897  1.00  0.00    -0.475 OA
ATOM     16  C   UNL A   1      30.268  27.981  22.985  1.00  0.00     0.058 A 
ATOM     17  C   UNL A   1      30.949  25.662  23.528  1.00  0.00     0.025 C 
ATOM     18  C   UNL A   1      32.563  25.428  25.378  1.00  0.00     0.314 C 
BRANCH  10  19
ATOM     19  C   UNL A   1      32.069  29.550  26.594  1.00  0.00     0.036 C 
ATOM     20  C   UNL A   1      33.576  29.504  26.810  1.00  0.00     0.009 C 
ENDBRANCH  10  19
BRANCH  13  21
ATOM     21  O   UNL A   1      29.432  30.070  22.425  1.00  0.00    -0.406 OA
BRANCH  21  22
ATOM     22  C   UNL A   1      28.122  30.455  22.804  1.00  0.00     0.573 C 
ATOM     23  F   UNL A   1      28.140  31.567  23.571  1.00  0.00    -0.132 F 
ATOM     24  F   UNL A   1      27.354  30.678  21.715  1.00  0.00    -0.132 F 
ATOM     25  F   UNL A   1      27.559  29.457  23.518  1.00  0.00    -0.132 F 
ENDBRANCH  21  22
ENDBRANCH  13  21
BRANCH  18  26
ATOM     26  C   UNL A   1      34.007  25.543  24.849  1.00  0.00     0.429 C 
ATOM     27  F   UNL A   1      34.312  26.801  24.450  1.00  0.00    -0.167 F 
ATOM     28  F   UNL A   1      34.906  25.207  25.810  1.00  0.00    -0.167 F 
ATOM     29  F   UNL A   1      34.254  24.728  23.799  1.00  0.00    -0.167 F 
ENDBRANCH  18  26
ENDBRANCH   6   9
ENDBRANCH   4   5
ENDBRANCH   3   4
ENDBRANCH   2   3
ENDBRANCH   1   2
BRANCH   1  30
ATOM     30  C   UNL A   1      35.421  21.761  24.867  1.00  0.00     0.021 C 
BRANCH  30  31
ATOM     31  C   UNL A   1      36.911  21.894  24.571  1.00  0.00     0.116 C 
BRANCH  31  32
ATOM     32  N   UNL A   1      37.663  20.786  25.141  1.00  0.00    -0.352 N 
ATOM     33  C   UNL A   1      38.898  20.800  25.740  1.00  0.00     0.251 C 
ATOM     34  H   UNL A   1      37.227  19.905  25.088  1.00  0.00     0.163 HD
ATOM     35  O   UNL A   1      39.507  19.751  25.920  1.00  0.00    -0.269 OA
BRANCH  33  36
ATOM     36  C   UNL A   1      39.484  22.088  26.164  1.00  0.00     0.039 A 
ATOM     37  C   UNL A   1      40.775  22.107  26.696  1.00  0.00     0.014 A 
ATOM     38  C   UNL A   1      38.750  23.273  26.044  1.00  0.00     0.014 A 
ATOM     39  C   UNL A   1      41.348  23.324  27.068  1.00  0.00     0.010 A 
ATOM     40  C   UNL A   1      39.352  24.490  26.343  1.00  0.00     0.010 A 
ATOM     41  C   UNL A   1      40.651  24.528  26.870  1.00  0.00    -0.014 A 
BRANCH  41  42
ATOM     42  C   UNL A   1      41.264  25.836  27.207  1.00  0.00     0.031 A 
ATOM     43  C   UNL A   1      42.668  26.152  26.765  1.00  0.00     0.074 A 
ATOM     44  C   UNL A   1      40.588  26.705  27.983  1.00  0.00     0.049 A 
ATOM     45  N   UNL A   1      43.389  27.216  27.008  1.00  0.00    -0.248 NA
ATOM     46  C   UNL A   1      43.365  25.126  25.970  1.00  0.00     0.031 C 
ATOM     47  C   UNL A   1      39.252  26.479  28.541  1.00  0.00     0.029 A 
ATOM     48  N   UNL A   1      40.941  27.942  28.462  1.00  0.00    -0.354 N 
ATOM     49  C   UNL A   1      44.629  26.975  26.429  1.00  0.00     0.074 A 
ATOM     50  C   UNL A   1      44.576  25.650  25.854  1.00  0.00     0.031 C 
ATOM     51  C   UNL A   1      38.898  27.543  29.279  1.00  0.00     0.029 A 
ATOM     52  C   UNL A   1      39.990  28.512  29.276  1.00  0.00     0.049 A 
ATOM     53  H   UNL A   1      41.795  28.381  28.242  1.00  0.00     0.167 HD
ATOM     54  C   UNL A   1      45.704  27.795  26.355  1.00  0.00     0.034 A 
ATOM     55  C   UNL A   1      40.000  29.677  29.952  1.00  0.00     0.034 A 
ATOM     56  C   UNL A   1      45.736  29.127  26.894  1.00  0.00     0.049 A 
ATOM     57  C   UNL A   1      41.193  30.583  29.824  1.00  0.00     0.074 A 
ATOM     58  C   UNL A   1      46.743  30.072  26.793  1.00  0.00     0.029 A 
ATOM     59  N   UNL A   1      44.722  29.704  27.643  1.00  0.00    -0.354 N 
ATOM     60  N   UNL A   1      42.294  30.407  29.134  1.00  0.00    -0.248 NA
ATOM     61  C   UNL A   1      41.132  31.867  30.538  1.00  0.00     0.031 C 
ATOM     62  C   UNL A   1      46.349  31.208  27.507  1.00  0.00     0.029 A 
ATOM     63  C   UNL A   1      45.083  30.984  28.024  1.00  0.00     0.049 A 
ATOM     64  H   UNL A   1      43.870  29.266  27.871  1.00  0.00     0.167 HD
ATOM     65  C   UNL A   1      43.041  31.567  29.303  1.00  0.00     0.074 A 
ATOM     66  C   UNL A   1      42.255  32.450  30.141  1.00  0.00     0.031 C 
ATOM     67  C   UNL A   1      44.270  31.870  28.818  1.00  0.00     0.034 A 
BRANCH  54  68
ATOM     68  C   UNL A   1      46.922  27.291  25.625  1.00  0.00     0.023 A 
ATOM     69  C   UNL A   1      47.764  26.344  26.245  1.00  0.00     0.012 A 
ATOM     70  C   UNL A   1      47.202  27.707  24.308  1.00  0.00     0.148 A 
ATOM     71  C   UNL A   1      48.885  25.848  25.582  1.00  0.00     0.002 A 
ATOM     72  C   UNL A   1      48.295  27.172  23.636  1.00  0.00     0.091 A 
ATOM     73  F   UNL A   1      46.403  28.623  23.743  1.00  0.00    -0.205 F 
ATOM     74  C   UNL A   1      49.145  26.253  24.275  1.00  0.00     0.022 A 
BRANCH  72  75
ATOM     75  S   UNL A   1      48.670  27.567  21.925  1.00  0.00     0.127 S 
ATOM     76  O   UNL A   1      49.571  28.708  22.075  1.00  0.00    -0.237 OA
ATOM     77  O   UNL A   1      49.316  26.338  21.461  1.00  0.00    -0.237 OA
ATOM     78  O   UNL A   1      47.393  27.860  21.291  1.00  0.00    -0.744 OA
ENDBRANCH  72  75
ENDBRANCH  54  68
BRANCH  55  79
ATOM     79  C   UNL A   1      38.814  30.079  30.761  1.00  0.00     0.023 A 
ATOM     80  C   UNL A   1      38.740  29.701  32.116  1.00  0.00     0.012 A 
ATOM     81  C   UNL A   1      37.780  30.857  30.206  1.00  0.00     0.148 A 
ATOM     82  C   UNL A   1      37.638  30.057  32.894  1.00  0.00     0.002 A 
ATOM     83  C   UNL A   1      36.713  31.258  31.002  1.00  0.00     0.091 A 
ATOM     84  F   UNL A   1      37.865  31.199  28.914  1.00  0.00    -0.205 F 
ATOM     85  C   UNL A   1      36.630  30.844  32.341  1.00  0.00     0.022 A 
BRANCH  83  86
ATOM     86  S   UNL A   1      35.439  32.379  30.413  1.00  0.00     0.127 S 
ATOM     87  O   UNL A   1      34.991  31.710  29.195  1.00  0.00    -0.237 OA
ATOM     88  O   UNL A   1      34.482  32.356  31.520  1.00  0.00    -0.237 OA
ATOM     89  O   UNL A   1      36.103  33.662  30.223  1.00  0.00    -0.744 OA
ENDBRANCH  83  86
ENDBRANCH  55  79
BRANCH  67  90
ATOM     90  C   UNL A   1      44.838  33.226  29.150  1.00  0.00     0.023 A 
ATOM     91  C   UNL A   1      45.657  33.386  30.285  1.00  0.00     0.012 A 
ATOM     92  C   UNL A   1      44.619  34.323  28.294  1.00  0.00     0.148 A 
ATOM     93  C   UNL A   1      46.222  34.626  30.581  1.00  0.00     0.002 A 
ATOM     94  C   UNL A   1      45.228  35.542  28.566  1.00  0.00     0.091 A 
ATOM     95  F   UNL A   1      43.822  34.155  27.228  1.00  0.00    -0.205 F 
ATOM     96  C   UNL A   1      46.019  35.699  29.716  1.00  0.00     0.022 A 
BRANCH  94  97
ATOM     97  S   UNL A   1      45.103  36.951  27.458  1.00  0.00     0.127 S 
ATOM     98  O   UNL A   1      43.701  36.884  27.049  1.00  0.00    -0.237 OA
ATOM     99  O   UNL A   1      45.427  38.070  28.344  1.00  0.00    -0.237 OA
ATOM    100  O   UNL A   1      46.075  36.717  26.399  1.00  0.00    -0.744 OA
ENDBRANCH  94  97
ENDBRANCH  67  90
ENDBRANCH  41  42
ENDBRANCH  33  36
ENDBRANCH  31  32
ENDBRANCH  30  31
ENDBRANCH   1  30
TORSDOF 20
ENDMDL
MODEL 3
REMARK VINA RESULT:     -11.0      2.971      7.899
REMARK SMILES CCc1cc(OC(F)(F)F)cc2c1O[C@H](C(F)(F)F)C(C(=O)NCCCCCCNC(=O)c1ccc(-c3c4nc(c(-c5cccc(S(=O)(=O)[O-])c5F)c5ccc([nH]5)c(-c5cccc(S(=O)(=O)[O-])c5F)c5nc(c(-c6cccc(S(=O)(=O)[O-])c6F)c6ccc3[nH]6)C=C5)C=C4)cc1)=C2
REMARK SMILES IDX 27 1 26 2 25 3 24 4 23 5 21 6 22 7 20 9 3 10 4 11 13 12 5 13
REMARK SMILES IDX 12 14 14 15 11 16 96 17 15 18 2 19 1 20 6 21 7 22 8 23 9 24
REMARK SMILES IDX 10 25 16 26 17 27 18 28 19 29 28 30 29 31 30 32 31 33 32 35
REMARK SMILES IDX 33 36 34 37 95 38 35 39 94 40 36 41 37 42 38 43 88 44 39 45
REMARK SMILES IDX 93 46 87 47 89 48 40 49 92 50 86 51 85 52 41 54 73 55 53 56
REMARK SMILES IDX 72 57 54 58 57 59 71 60 90 61 55 62 56 63 70 65 91 66 58 67
REMARK SMILES IDX 42 68 43 69 51 70 44 71 46 72 52 73 45 74 47 75 48 76 49 77
REMARK SMILES IDX 50 78 74 79 75 80 83 81 76 82 78 83 84 84 77 85 79 86 80 87
REMARK SMILES IDX 81 88 82 89 59 90 60 91 68 92 61 93 63 94 69 95 62 96 64 97
REMARK SMILES IDX 65 98 66 99 67 100
REMARK H PARENT 23 8 30 34 89 53 57 64
REMARK Flexibility Score: inf
ROOT
ATOM      1  C   UNL A   1      34.432  23.183  26.653  1.00  0.00     0.002 C 
ENDROOT
BRANCH   1   2
ATOM      2  C   UNL A   1      33.599  22.795  27.881  1.00  0.00     0.002 C 
BRANCH   2   3
ATOM      3  C   UNL A   1      32.151  22.398  27.566  1.00  0.00     0.021 C 
BRANCH   3   4
ATOM      4  C   UNL A   1      31.426  23.445  26.718  1.00  0.00     0.116 C 
BRANCH   4   5
ATOM      5  N   UNL A   1      31.357  22.992  25.343  1.00  0.00    -0.352 N 
ATOM      6  C   UNL A   1      31.164  23.643  24.171  1.00  0.00     0.251 C 
ATOM      7  O   UNL A   1      31.100  22.958  23.150  1.00  0.00    -0.270 OA
ATOM      8  H   UNL A   1      31.471  22.021  25.241  1.00  0.00     0.163 HD
BRANCH   6   9
ATOM      9  C   UNL A   1      31.159  25.127  24.051  1.00  0.00     0.067 C 
ATOM     10  C   UNL A   1      31.327  29.281  24.721  1.00  0.00    -0.002 A 
ATOM     11  C   UNL A   1      30.341  30.092  24.113  1.00  0.00     0.054 A 
ATOM     12  C   UNL A   1      31.282  27.899  24.487  1.00  0.00     0.131 A 
ATOM     13  C   UNL A   1      29.355  29.549  23.286  1.00  0.00     0.130 A 
ATOM     14  C   UNL A   1      30.311  27.345  23.640  1.00  0.00     0.021 A 
ATOM     15  O   UNL A   1      32.147  27.095  25.177  1.00  0.00    -0.475 OA
ATOM     16  C   UNL A   1      29.354  28.174  23.048  1.00  0.00     0.058 A 
ATOM     17  C   UNL A   1      30.223  25.894  23.476  1.00  0.00     0.025 C 
ATOM     18  C   UNL A   1      32.402  25.780  24.625  1.00  0.00     0.314 C 
BRANCH  10  19
ATOM     19  C   UNL A   1      32.316  29.987  25.630  1.00  0.00     0.036 C 
ATOM     20  C   UNL A   1      31.794  30.986  26.655  1.00  0.00     0.009 C 
ENDBRANCH  10  19
BRANCH  13  21
ATOM     21  O   UNL A   1      28.338  30.226  22.678  1.00  0.00    -0.406 OA
BRANCH  21  22
ATOM     22  C   UNL A   1      28.617  30.897  21.461  1.00  0.00     0.573 C 
ATOM     23  F   UNL A   1      27.659  30.657  20.539  1.00  0.00    -0.132 F 
ATOM     24  F   UNL A   1      28.718  32.230  21.661  1.00  0.00    -0.132 F 
ATOM     25  F   UNL A   1      29.795  30.454  20.974  1.00  0.00    -0.132 F 
ENDBRANCH  21  22
ENDBRANCH  13  21
BRANCH  18  26
ATOM     26  C   UNL A   1      33.553  25.839  23.599  1.00  0.00     0.429 C 
ATOM     27  F   UNL A   1      34.351  26.919  23.781  1.00  0.00    -0.167 F 
ATOM     28  F   UNL A   1      34.349  24.742  23.698  1.00  0.00    -0.167 F 
ATOM     29  F   UNL A   1      33.122  25.879  22.319  1.00  0.00    -0.167 F 
ENDBRANCH  18  26
ENDBRANCH   6   9
ENDBRANCH   4   5
ENDBRANCH   3   4
ENDBRANCH   2   3
ENDBRANCH   1   2
BRANCH   1  30
ATOM     30  C   UNL A   1      35.109  22.007  25.944  1.00  0.00     0.021 C 
BRANCH  30  31
ATOM     31  C   UNL A   1      36.540  22.293  25.505  1.00  0.00     0.116 C 
BRANCH  31  32
ATOM     32  N   UNL A   1      37.411  21.159  25.772  1.00  0.00    -0.352 N 
ATOM     33  C   UNL A   1      38.748  21.153  26.083  1.00  0.00     0.251 C 
ATOM     34  H   UNL A   1      36.983  20.274  25.723  1.00  0.00     0.163 HD
ATOM     35  O   UNL A   1      39.392  20.112  26.010  1.00  0.00    -0.269 OA
BRANCH  33  36
ATOM     36  C   UNL A   1      39.402  22.409  26.503  1.00  0.00     0.039 A 
ATOM     37  C   UNL A   1      40.440  22.358  27.435  1.00  0.00     0.014 A 
ATOM     38  C   UNL A   1      38.977  23.635  25.983  1.00  0.00     0.014 A 
ATOM     39  C   UNL A   1      41.085  23.538  27.811  1.00  0.00     0.010 A 
ATOM     40  C   UNL A   1      39.671  24.798  26.302  1.00  0.00     0.010 A 
ATOM     41  C   UNL A   1      40.722  24.763  27.228  1.00  0.00    -0.014 A 
BRANCH  41  42
ATOM     42  C   UNL A   1      41.432  26.020  27.574  1.00  0.00     0.031 A 
ATOM     43  C   UNL A   1      40.723  27.103  28.341  1.00  0.00     0.074 A 
ATOM     44  C   UNL A   1      42.686  26.218  27.125  1.00  0.00     0.049 A 
ATOM     45  N   UNL A   1      41.158  28.286  28.689  1.00  0.00    -0.248 NA
ATOM     46  C   UNL A   1      39.332  26.835  28.746  1.00  0.00     0.031 C 
ATOM     47  C   UNL A   1      43.450  25.276  26.304  1.00  0.00     0.029 A 
ATOM     48  N   UNL A   1      43.531  27.290  27.271  1.00  0.00    -0.354 N 
ATOM     49  C   UNL A   1      40.091  28.914  29.319  1.00  0.00     0.074 A 
ATOM     50  C   UNL A   1      38.975  27.997  29.275  1.00  0.00     0.031 C 
ATOM     51  C   UNL A   1      44.650  25.808  26.025  1.00  0.00     0.029 A 
ATOM     52  C   UNL A   1      44.731  27.140  26.616  1.00  0.00     0.049 A 
ATOM     53  H   UNL A   1      43.299  28.090  27.796  1.00  0.00     0.167 HD
ATOM     54  C   UNL A   1      40.052  30.132  29.909  1.00  0.00     0.034 A 
ATOM     55  C   UNL A   1      45.775  27.983  26.497  1.00  0.00     0.034 A 
ATOM     56  C   UNL A   1      41.177  31.024  29.986  1.00  0.00     0.049 A 
ATOM     57  C   UNL A   1      45.718  29.316  27.192  1.00  0.00     0.074 A 
ATOM     58  C   UNL A   1      41.268  32.240  30.640  1.00  0.00     0.029 A 
ATOM     59  N   UNL A   1      42.405  30.804  29.381  1.00  0.00    -0.354 N 
ATOM     60  N   UNL A   1      44.757  29.825  27.924  1.00  0.00    -0.248 NA
ATOM     61  C   UNL A   1      46.904  30.178  27.076  1.00  0.00     0.031 C 
ATOM     62  C   UNL A   1      42.541  32.769  30.406  1.00  0.00     0.029 A 
ATOM     63  C   UNL A   1      43.255  31.866  29.634  1.00  0.00     0.049 A 
ATOM     64  H   UNL A   1      42.637  30.008  28.851  1.00  0.00     0.167 HD
ATOM     65  C   UNL A   1      45.233  31.048  28.383  1.00  0.00     0.074 A 
ATOM     66  C   UNL A   1      46.578  31.192  27.865  1.00  0.00     0.031 C 
ATOM     67  C   UNL A   1      44.609  31.974  29.153  1.00  0.00     0.034 A 
BRANCH  54  68
ATOM     68  C   UNL A   1      38.761  30.554  30.562  1.00  0.00     0.023 A 
ATOM     69  C   UNL A   1      38.568  30.324  31.940  1.00  0.00     0.012 A 
ATOM     70  C   UNL A   1      37.764  31.228  29.829  1.00  0.00     0.148 A 
ATOM     71  C   UNL A   1      37.392  30.723  32.571  1.00  0.00     0.002 A 
ATOM     72  C   UNL A   1      36.613  31.666  30.476  1.00  0.00     0.091 A 
ATOM     73  F   UNL A   1      37.954  31.421  28.516  1.00  0.00    -0.205 F 
ATOM     74  C   UNL A   1      36.420  31.403  31.842  1.00  0.00     0.022 A 
BRANCH  72  75
ATOM     75  S   UNL A   1      35.338  32.620  29.646  1.00  0.00     0.127 S 
ATOM     76  O   UNL A   1      34.405  32.882  30.740  1.00  0.00    -0.237 OA
ATOM     77  O   UNL A   1      36.083  33.794  29.187  1.00  0.00    -0.237 OA
ATOM     78  O   UNL A   1      34.828  31.769  28.581  1.00  0.00    -0.744 OA
ENDBRANCH  72  75
ENDBRANCH  54  68
BRANCH  55  79
ATOM     79  C   UNL A   1      46.988  27.566  25.738  1.00  0.00     0.023 A 
ATOM     80  C   UNL A   1      47.984  26.810  26.386  1.00  0.00     0.012 A 
ATOM     81  C   UNL A   1      47.145  27.887  24.376  1.00  0.00     0.148 A 
ATOM     82  C   UNL A   1      49.133  26.413  25.701  1.00  0.00     0.002 A 
ATOM     83  C   UNL A   1      48.265  27.440  23.685  1.00  0.00     0.091 A 
ATOM     84  F   UNL A   1      46.190  28.615  23.781  1.00  0.00    -0.205 F 
ATOM     85  C   UNL A   1      49.269  26.719  24.349  1.00  0.00     0.022 A 
BRANCH  83  86
ATOM     86  S   UNL A   1      48.459  27.671  21.914  1.00  0.00     0.127 S 
ATOM     87  O   UNL A   1      48.730  26.310  21.462  1.00  0.00    -0.237 OA
ATOM     88  O   UNL A   1      47.148  28.199  21.534  1.00  0.00    -0.237 OA
ATOM     89  O   UNL A   1      49.554  28.620  21.760  1.00  0.00    -0.744 OA
ENDBRANCH  83  86
ENDBRANCH  55  79
BRANCH  67  90
ATOM     90  C   UNL A   1      45.380  33.216  29.515  1.00  0.00     0.023 A 
ATOM     91  C   UNL A   1      46.237  33.210  30.633  1.00  0.00     0.012 A 
ATOM     92  C   UNL A   1      45.312  34.364  28.701  1.00  0.00     0.148 A 
ATOM     93  C   UNL A   1      46.989  34.340  30.955  1.00  0.00     0.002 A 
ATOM     94  C   UNL A   1      46.102  35.468  28.998  1.00  0.00     0.091 A 
ATOM     95  F   UNL A   1      44.476  34.357  27.652  1.00  0.00    -0.205 F 
ATOM     96  C   UNL A   1      46.932  35.462  30.132  1.00  0.00     0.022 A 
BRANCH  94  97
ATOM     97  S   UNL A   1      46.168  36.919  27.942  1.00  0.00     0.127 S 
ATOM     98  O   UNL A   1      46.580  36.339  26.664  1.00  0.00    -0.237 OA
ATOM     99  O   UNL A   1      44.783  37.392  27.979  1.00  0.00    -0.237 OA
ATOM    100  O   UNL A   1      47.131  37.821  28.558  1.00  0.00    -0.744 OA
ENDBRANCH  94  97
ENDBRANCH  67  90
ENDBRANCH  41  42
ENDBRANCH  33  36
ENDBRANCH  31  32
ENDBRANCH  30  31
ENDBRANCH   1  30
TORSDOF 20
ENDMDL
