MODEL 1
REMARK VINA RESULT:     -11.2      0.000      0.000
REMARK SMILES O=C(C[C@@H]1CN(C(=O)[C@H]2C[C@H](O)C[NH2+]2)CCO1)NCCCCCCNC(=O)c1ccc(-c2c3nc(c(-c4cccc(S(=O)(=O)[O-])c4F)c4ccc([nH]4)c(-c4cccc(S(=O)(=O)[O-])c4F)c4nc(c(-c5cccc(S(=O)(=O)[O-])c5F)c5ccc2[nH]5)C=C4)C=C3)cc1
REMARK SMILES IDX 21 1 20 2 19 3 18 4 1 5 2 6 3 8 4 9 5 10 17 11 6 12 16 13
REMARK SMILES IDX 15 14 7 15 8 16 9 17 10 18 14 19 11 20 13 21 12 24 22 26
REMARK SMILES IDX 23 27 24 28 25 29 26 30 27 32 28 33 29 34 90 35 30 36 89 37
REMARK SMILES IDX 31 38 32 39 33 40 83 41 34 42 88 43 82 44 84 45 35 46 87 47
REMARK SMILES IDX 81 48 80 49 36 51 68 52 48 53 67 54 49 55 52 56 66 57 85 58
REMARK SMILES IDX 50 59 51 60 65 62 86 63 53 64 37 65 38 66 46 67 39 68 41 69
REMARK SMILES IDX 47 70 40 71 42 72 43 73 44 74 45 75 69 76 70 77 78 78 71 79
REMARK SMILES IDX 73 80 79 81 72 82 74 83 75 84 76 85 77 86 54 87 55 88 63 89
REMARK SMILES IDX 56 90 58 91 64 92 57 93 59 94 60 95 61 96 62 97
REMARK H PARENT 18 7 14 22 14 23 12 25 25 31 84 50 52 61
REMARK Flexibility Score: inf
ROOT
ATOM      1  C   UNL A   1      31.474  29.709  25.033  1.00  0.00     0.002 C 
ENDROOT
BRANCH   1   2
ATOM      2  C   UNL A   1      32.755  29.053  24.506  1.00  0.00     0.021 C 
BRANCH   2   3
ATOM      3  C   UNL A   1      33.145  27.724  25.161  1.00  0.00     0.116 C 
BRANCH   3   4
ATOM      4  N   UNL A   1      32.343  26.590  24.720  1.00  0.00    -0.356 N 
ATOM      5  O   UNL A   1      31.421  26.242  26.789  1.00  0.00    -0.275 OA
ATOM      6  C   UNL A   1      31.536  25.918  25.612  1.00  0.00     0.222 C 
ATOM      7  H   UNL A   1      32.380  26.302  23.780  1.00  0.00     0.163 HD
BRANCH   6   8
ATOM      8  C   UNL A   1      30.745  24.766  25.033  1.00  0.00     0.133 C 
BRANCH   8   9
ATOM      9  C   UNL A   1      31.599  23.650  24.408  1.00  0.00     0.147 C 
ATOM     10  C   UNL A   1      32.710  23.081  25.320  1.00  0.00     0.152 C 
ATOM     11  O   UNL A   1      32.166  24.175  23.186  1.00  0.00    -0.374 OA
ATOM     12  N   UNL A   1      33.567  22.120  24.616  1.00  0.00    -0.333 N 
ATOM     13  C   UNL A   1      32.933  23.182  22.489  1.00  0.00     0.182 C 
ATOM     14  C   UNL A   1      34.080  22.651  23.352  1.00  0.00     0.148 C 
BRANCH  12  15
ATOM     15  C   UNL A   1      34.089  20.921  25.084  1.00  0.00     0.281 C 
ATOM     16  O   UNL A   1      35.213  20.891  25.602  1.00  0.00    -0.268 OA
BRANCH  15  17
ATOM     17  C   UNL A   1      33.329  19.580  24.929  1.00  0.00     0.275 C 
ATOM     18  C   UNL A   1      32.292  19.501  23.820  1.00  0.00     0.113 C 
ATOM     19  N   UNL A   1      34.257  18.435  24.818  1.00  0.00    -0.334 N 
ATOM     20  C   UNL A   1      32.802  18.443  22.864  1.00  0.00     0.175 C 
ATOM     21  C   UNL A   1      33.817  17.636  23.679  1.00  0.00     0.293 C 
ATOM     22  H   UNL A   1      34.226  17.876  25.670  1.00  0.00     0.347 HD
ATOM     23  H   UNL A   1      35.216  18.758  24.687  1.00  0.00     0.347 HD
BRANCH  20  24
ATOM     24  O   UNL A   1      31.760  17.635  22.343  1.00  0.00    -0.387 OA
ATOM     25  H   UNL A   1      32.072  16.722  22.253  1.00  0.00     0.211 HD
ENDBRANCH  20  24
ENDBRANCH  15  17
ENDBRANCH  12  15
ENDBRANCH   8   9
ENDBRANCH   6   8
ENDBRANCH   3   4
ENDBRANCH   2   3
ENDBRANCH   1   2
BRANCH   1  26
ATOM     26  C   UNL A   1      31.555  30.234  26.464  1.00  0.00     0.002 C 
BRANCH  26  27
ATOM     27  C   UNL A   1      31.307  31.718  26.681  1.00  0.00     0.021 C 
BRANCH  27  28
ATOM     28  C   UNL A   1      32.543  32.595  26.616  1.00  0.00     0.116 C 
BRANCH  28  29
ATOM     29  N   UNL A   1      32.433  33.817  27.403  1.00  0.00    -0.352 N 
ATOM     30  C   UNL A   1      33.220  34.256  28.448  1.00  0.00     0.251 C 
ATOM     31  H   UNL A   1      31.692  34.414  27.152  1.00  0.00     0.163 HD
ATOM     32  O   UNL A   1      32.925  35.267  29.061  1.00  0.00    -0.269 OA
BRANCH  30  33
ATOM     33  C   UNL A   1      34.407  33.458  28.842  1.00  0.00     0.039 A 
ATOM     34  C   UNL A   1      35.665  34.067  28.860  1.00  0.00     0.014 A 
ATOM     35  C   UNL A   1      34.265  32.132  29.251  1.00  0.00     0.014 A 
ATOM     36  C   UNL A   1      36.763  33.371  29.379  1.00  0.00     0.010 A 
ATOM     37  C   UNL A   1      35.329  31.485  29.863  1.00  0.00     0.010 A 
ATOM     38  C   UNL A   1      36.594  32.091  29.929  1.00  0.00    -0.014 A 
BRANCH  38  39
ATOM     39  C   UNL A   1      37.706  31.345  30.574  1.00  0.00     0.031 A 
ATOM     40  C   UNL A   1      38.052  31.633  32.014  1.00  0.00     0.074 A 
ATOM     41  C   UNL A   1      38.488  30.524  29.843  1.00  0.00     0.049 A 
ATOM     42  N   UNL A   1      39.084  31.237  32.711  1.00  0.00    -0.248 NA
ATOM     43  C   UNL A   1      37.141  32.526  32.753  1.00  0.00     0.031 C 
ATOM     44  C   UNL A   1      38.316  30.226  28.418  1.00  0.00     0.029 A 
ATOM     45  N   UNL A   1      39.614  29.817  30.190  1.00  0.00    -0.354 N 
ATOM     46  C   UNL A   1      38.987  31.888  33.934  1.00  0.00     0.074 A 
ATOM     47  C   UNL A   1      37.807  32.721  33.881  1.00  0.00     0.031 C 
ATOM     48  C   UNL A   1      39.297  29.403  28.017  1.00  0.00     0.029 A 
ATOM     49  C   UNL A   1      40.190  29.137  29.140  1.00  0.00     0.049 A 
ATOM     50  H   UNL A   1      39.977  29.800  31.106  1.00  0.00     0.167 HD
ATOM     51  C   UNL A   1      39.789  31.778  35.019  1.00  0.00     0.034 A 
ATOM     52  C   UNL A   1      41.313  28.394  29.088  1.00  0.00     0.034 A 
ATOM     53  C   UNL A   1      40.894  30.867  35.108  1.00  0.00     0.049 A 
ATOM     54  C   UNL A   1      42.125  28.209  30.344  1.00  0.00     0.074 A 
ATOM     55  C   UNL A   1      41.687  30.584  36.206  1.00  0.00     0.029 A 
ATOM     56  N   UNL A   1      41.356  30.083  34.063  1.00  0.00    -0.354 N 
ATOM     57  N   UNL A   1      41.917  28.701  31.540  1.00  0.00    -0.248 NA
ATOM     58  C   UNL A   1      43.306  27.336  30.252  1.00  0.00     0.031 C 
ATOM     59  C   UNL A   1      42.632  29.627  35.824  1.00  0.00     0.029 A 
ATOM     60  C   UNL A   1      42.419  29.310  34.491  1.00  0.00     0.049 A 
ATOM     61  H   UNL A   1      40.982  30.076  33.153  1.00  0.00     0.167 HD
ATOM     62  C   UNL A   1      42.910  28.164  32.351  1.00  0.00     0.074 A 
ATOM     63  C   UNL A   1      43.711  27.296  31.515  1.00  0.00     0.031 C 
ATOM     64  C   UNL A   1      43.149  28.384  33.667  1.00  0.00     0.034 A 
BRANCH  51  65
ATOM     65  C   UNL A   1      39.459  32.606  36.232  1.00  0.00     0.023 A 
ATOM     66  C   UNL A   1      40.010  33.896  36.363  1.00  0.00     0.012 A 
ATOM     67  C   UNL A   1      38.541  32.143  37.194  1.00  0.00     0.148 A 
ATOM     68  C   UNL A   1      39.674  34.705  37.447  1.00  0.00     0.002 A 
ATOM     69  C   UNL A   1      38.177  32.972  38.250  1.00  0.00     0.091 A 
ATOM     70  F   UNL A   1      38.044  30.905  37.061  1.00  0.00    -0.205 F 
ATOM     71  C   UNL A   1      38.749  34.247  38.383  1.00  0.00     0.022 A 
BRANCH  69  72
ATOM     72  S   UNL A   1      36.936  32.510  39.464  1.00  0.00     0.127 S 
ATOM     73  O   UNL A   1      35.703  32.635  38.688  1.00  0.00    -0.237 OA
ATOM     74  O   UNL A   1      37.318  31.134  39.784  1.00  0.00    -0.237 OA
ATOM     75  O   UNL A   1      37.077  33.452  40.564  1.00  0.00    -0.744 OA
ENDBRANCH  69  72
ENDBRANCH  51  65
BRANCH  52  76
ATOM     76  C   UNL A   1      41.701  27.699  27.827  1.00  0.00     0.023 A 
ATOM     77  C   UNL A   1      42.132  28.468  26.727  1.00  0.00     0.012 A 
ATOM     78  C   UNL A   1      41.648  26.298  27.702  1.00  0.00     0.148 A 
ATOM     79  C   UNL A   1      42.462  27.860  25.515  1.00  0.00     0.002 A 
ATOM     80  C   UNL A   1      42.029  25.694  26.507  1.00  0.00     0.091 A 
ATOM     81  F   UNL A   1      41.220  25.580  28.750  1.00  0.00    -0.205 F 
ATOM     82  C   UNL A   1      42.419  26.473  25.408  1.00  0.00     0.022 A 
BRANCH  80  83
ATOM     83  S   UNL A   1      42.123  23.907  26.336  1.00  0.00     0.127 S 
ATOM     84  O   UNL A   1      42.965  23.541  27.470  1.00  0.00    -0.237 OA
ATOM     85  O   UNL A   1      40.719  23.509  26.457  1.00  0.00    -0.237 OA
ATOM     86  O   UNL A   1      42.691  23.683  25.013  1.00  0.00    -0.744 OA
ENDBRANCH  80  83
ENDBRANCH  52  76
BRANCH  64  87
ATOM     87  C   UNL A   1      44.281  27.636  34.314  1.00  0.00     0.023 A 
ATOM     88  C   UNL A   1      45.537  28.257  34.460  1.00  0.00     0.012 A 
ATOM     89  C   UNL A   1      44.067  26.362  34.876  1.00  0.00     0.148 A 
ATOM     90  C   UNL A   1      46.570  27.611  35.137  1.00  0.00     0.002 A 
ATOM     91  C   UNL A   1      45.087  25.744  35.589  1.00  0.00     0.091 A 
ATOM     92  F   UNL A   1      42.869  25.782  34.710  1.00  0.00    -0.205 F 
ATOM     93  C   UNL A   1      46.341  26.363  35.714  1.00  0.00     0.022 A 
BRANCH  91  94
ATOM     94  S   UNL A   1      44.848  24.186  36.449  1.00  0.00     0.127 S 
ATOM     95  O   UNL A   1      46.196  23.622  36.427  1.00  0.00    -0.237 OA
ATOM     96  O   UNL A   1      44.391  24.623  37.769  1.00  0.00    -0.237 OA
ATOM     97  O   UNL A   1      43.850  23.453  35.681  1.00  0.00    -0.744 OA
ENDBRANCH  91  94
ENDBRANCH  64  87
ENDBRANCH  38  39
ENDBRANCH  30  33
ENDBRANCH  28  29
ENDBRANCH  27  28
ENDBRANCH  26  27
ENDBRANCH   1  26
TORSDOF 20
ENDMDL
MODEL 2
REMARK VINA RESULT:     -10.9      6.163     11.471
REMARK SMILES O=C(C[C@@H]1CN(C(=O)[C@H]2C[C@H](O)C[NH2+]2)CCO1)NCCCCCCNC(=O)c1ccc(-c2c3nc(c(-c4cccc(S(=O)(=O)[O-])c4F)c4ccc([nH]4)c(-c4cccc(S(=O)(=O)[O-])c4F)c4nc(c(-c5cccc(S(=O)(=O)[O-])c5F)c5ccc2[nH]5)C=C4)C=C3)cc1
REMARK SMILES IDX 21 1 20 2 19 3 18 4 1 5 2 6 3 8 4 9 5 10 17 11 6 12 16 13
REMARK SMILES IDX 15 14 7 15 8 16 9 17 10 18 14 19 11 20 13 21 12 24 22 26
REMARK SMILES IDX 23 27 24 28 25 29 26 30 27 32 28 33 29 34 90 35 30 36 89 37
REMARK SMILES IDX 31 38 32 39 33 40 83 41 34 42 88 43 82 44 84 45 35 46 87 47
REMARK SMILES IDX 81 48 80 49 36 51 68 52 48 53 67 54 49 55 52 56 66 57 85 58
REMARK SMILES IDX 50 59 51 60 65 62 86 63 53 64 37 65 38 66 46 67 39 68 41 69
REMARK SMILES IDX 47 70 40 71 42 72 43 73 44 74 45 75 69 76 70 77 78 78 71 79
REMARK SMILES IDX 73 80 79 81 72 82 74 83 75 84 76 85 77 86 54 87 55 88 63 89
REMARK SMILES IDX 56 90 58 91 64 92 57 93 59 94 60 95 61 96 62 97
REMARK H PARENT 18 7 14 22 14 23 12 25 25 31 84 50 52 61
REMARK Flexibility Score: inf
ROOT
ATOM      1  C   UNL A   1      39.035  23.359  26.964  1.00  0.00     0.002 C 
ENDROOT
BRANCH   1   2
ATOM      2  C   UNL A   1      38.101  23.883  25.866  1.00  0.00     0.021 C 
BRANCH   2   3
ATOM      3  C   UNL A   1      36.624  23.501  26.005  1.00  0.00     0.116 C 
BRANCH   3   4
ATOM      4  N   UNL A   1      35.761  24.100  24.997  1.00  0.00    -0.356 N 
ATOM      5  O   UNL A   1      35.005  22.080  24.222  1.00  0.00    -0.275 OA
ATOM      6  C   UNL A   1      35.014  23.305  24.156  1.00  0.00     0.222 C 
ATOM      7  H   UNL A   1      35.712  25.080  24.915  1.00  0.00     0.163 HD
BRANCH   6   8
ATOM      8  C   UNL A   1      34.149  24.043  23.158  1.00  0.00     0.133 C 
BRANCH   8   9
ATOM      9  C   UNL A   1      33.102  24.980  23.786  1.00  0.00     0.147 C 
ATOM     10  C   UNL A   1      33.371  26.490  23.595  1.00  0.00     0.152 C 
ATOM     11  O   UNL A   1      33.020  24.654  25.192  1.00  0.00    -0.374 OA
ATOM     12  N   UNL A   1      32.412  27.322  24.330  1.00  0.00    -0.333 N 
ATOM     13  C   UNL A   1      32.017  25.435  25.859  1.00  0.00     0.182 C 
ATOM     14  C   UNL A   1      32.299  26.933  25.737  1.00  0.00     0.148 C 
BRANCH  12  15
ATOM     15  C   UNL A   1      31.795  28.498  23.923  1.00  0.00     0.281 C 
ATOM     16  O   UNL A   1      31.984  29.549  24.550  1.00  0.00    -0.268 OA
BRANCH  15  17
ATOM     17  C   UNL A   1      30.814  28.539  22.725  1.00  0.00     0.275 C 
ATOM     18  C   UNL A   1      29.345  28.287  23.032  1.00  0.00     0.113 C 
ATOM     19  N   UNL A   1      30.948  29.788  21.950  1.00  0.00    -0.334 N 
ATOM     20  C   UNL A   1      28.632  29.575  22.674  1.00  0.00     0.175 C 
ATOM     21  C   UNL A   1      29.603  30.316  21.750  1.00  0.00     0.293 C 
ATOM     22  H   UNL A   1      31.386  29.596  21.049  1.00  0.00     0.347 HD
ATOM     23  H   UNL A   1      31.532  30.462  22.446  1.00  0.00     0.347 HD
BRANCH  20  24
ATOM     24  O   UNL A   1      27.372  29.347  22.067  1.00  0.00    -0.387 OA
ATOM     25  H   UNL A   1      26.666  29.637  22.665  1.00  0.00     0.211 HD
ENDBRANCH  20  24
ENDBRANCH  15  17
ENDBRANCH  12  15
ENDBRANCH   8   9
ENDBRANCH   6   8
ENDBRANCH   3   4
ENDBRANCH   2   3
ENDBRANCH   1   2
BRANCH   1  26
ATOM     26  C   UNL A   1      40.260  22.598  26.464  1.00  0.00     0.002 C 
BRANCH  26  27
ATOM     27  C   UNL A   1      40.135  21.090  26.320  1.00  0.00     0.021 C 
BRANCH  27  28
ATOM     28  C   UNL A   1      41.207  20.283  27.029  1.00  0.00     0.116 C 
BRANCH  28  29
ATOM     29  N   UNL A   1      42.111  19.589  26.120  1.00  0.00    -0.352 N 
ATOM     30  C   UNL A   1      43.206  20.076  25.436  1.00  0.00     0.251 C 
ATOM     31  H   UNL A   1      41.911  18.636  25.973  1.00  0.00     0.163 HD
ATOM     32  O   UNL A   1      43.799  19.372  24.637  1.00  0.00    -0.269 OA
BRANCH  30  33
ATOM     33  C   UNL A   1      43.628  21.481  25.658  1.00  0.00     0.039 A 
ATOM     34  C   UNL A   1      43.372  22.436  24.670  1.00  0.00     0.014 A 
ATOM     35  C   UNL A   1      44.218  21.861  26.863  1.00  0.00     0.014 A 
ATOM     36  C   UNL A   1      43.623  23.787  24.933  1.00  0.00     0.010 A 
ATOM     37  C   UNL A   1      44.365  23.208  27.161  1.00  0.00     0.010 A 
ATOM     38  C   UNL A   1      44.077  24.190  26.199  1.00  0.00    -0.014 A 
BRANCH  38  39
ATOM     39  C   UNL A   1      44.273  25.618  26.561  1.00  0.00     0.031 A 
ATOM     40  C   UNL A   1      45.653  26.221  26.470  1.00  0.00     0.074 A 
ATOM     41  C   UNL A   1      43.260  26.328  27.102  1.00  0.00     0.049 A 
ATOM     42  N   UNL A   1      46.080  27.378  26.903  1.00  0.00    -0.248 NA
ATOM     43  C   UNL A   1      46.703  25.391  25.852  1.00  0.00     0.031 C 
ATOM     44  C   UNL A   1      41.899  25.835  27.329  1.00  0.00     0.029 A 
ATOM     45  N   UNL A   1      43.231  27.609  27.599  1.00  0.00    -0.354 N 
ATOM     46  C   UNL A   1      47.451  27.382  26.680  1.00  0.00     0.074 A 
ATOM     47  C   UNL A   1      47.792  26.107  26.092  1.00  0.00     0.031 C 
ATOM     48  C   UNL A   1      41.173  26.799  27.917  1.00  0.00     0.029 A 
ATOM     49  C   UNL A   1      42.018  27.967  28.143  1.00  0.00     0.049 A 
ATOM     50  H   UNL A   1      44.007  28.215  27.570  1.00  0.00     0.167 HD
ATOM     51  C   UNL A   1      48.344  28.372  26.913  1.00  0.00     0.034 A 
ATOM     52  C   UNL A   1      41.635  29.101  28.761  1.00  0.00     0.034 A 
ATOM     53  C   UNL A   1      47.986  29.677  27.393  1.00  0.00     0.049 A 
ATOM     54  C   UNL A   1      42.631  30.223  28.909  1.00  0.00     0.074 A 
ATOM     55  C   UNL A   1      48.794  30.790  27.538  1.00  0.00     0.029 A 
ATOM     56  N   UNL A   1      46.713  30.047  27.795  1.00  0.00    -0.354 N 
ATOM     57  N   UNL A   1      43.886  30.267  28.534  1.00  0.00    -0.248 NA
ATOM     58  C   UNL A   1      42.148  31.466  29.532  1.00  0.00     0.031 C 
ATOM     59  C   UNL A   1      48.009  31.836  28.029  1.00  0.00     0.029 A 
ATOM     60  C   UNL A   1      46.711  31.374  28.182  1.00  0.00     0.049 A 
ATOM     61  H   UNL A   1      45.927  29.454  27.803  1.00  0.00     0.167 HD
ATOM     62  C   UNL A   1      44.328  31.551  28.834  1.00  0.00     0.074 A 
ATOM     63  C   UNL A   1      43.203  32.259  29.405  1.00  0.00     0.031 C 
ATOM     64  C   UNL A   1      45.560  32.089  28.666  1.00  0.00     0.034 A 
BRANCH  51  65
ATOM     65  C   UNL A   1      49.790  28.117  26.580  1.00  0.00     0.023 A 
ATOM     66  C   UNL A   1      50.230  28.258  25.249  1.00  0.00     0.012 A 
ATOM     67  C   UNL A   1      50.723  27.823  27.593  1.00  0.00     0.148 A 
ATOM     68  C   UNL A   1      51.575  28.086  24.925  1.00  0.00     0.002 A 
ATOM     69  C   UNL A   1      52.070  27.694  27.269  1.00  0.00     0.091 A 
ATOM     70  F   UNL A   1      50.280  27.674  28.849  1.00  0.00    -0.205 F 
ATOM     71  C   UNL A   1      52.495  27.816  25.936  1.00  0.00     0.022 A 
BRANCH  69  72
ATOM     72  S   UNL A   1      53.345  27.426  28.505  1.00  0.00     0.127 S 
ATOM     73  O   UNL A   1      53.350  28.709  29.207  1.00  0.00    -0.237 OA
ATOM     74  O   UNL A   1      52.795  26.311  29.276  1.00  0.00    -0.237 OA
ATOM     75  O   UNL A   1      54.562  27.116  27.769  1.00  0.00    -0.744 OA
ENDBRANCH  69  72
ENDBRANCH  51  65
BRANCH  52  76
ATOM     76  C   UNL A   1      40.226  29.275  29.218  1.00  0.00     0.023 A 
ATOM     77  C   UNL A   1      39.236  29.609  28.271  1.00  0.00     0.012 A 
ATOM     78  C   UNL A   1      39.857  29.117  30.567  1.00  0.00     0.148 A 
ATOM     79  C   UNL A   1      37.915  29.824  28.665  1.00  0.00     0.002 A 
ATOM     80  C   UNL A   1      38.527  29.281  30.944  1.00  0.00     0.091 A 
ATOM     81  F   UNL A   1      40.811  28.817  31.459  1.00  0.00    -0.205 F 
ATOM     82  C   UNL A   1      37.558  29.651  29.999  1.00  0.00     0.022 A 
BRANCH  80  83
ATOM     83  S   UNL A   1      37.969  28.950  32.620  1.00  0.00     0.127 S 
ATOM     84  O   UNL A   1      38.857  29.803  33.406  1.00  0.00    -0.237 OA
ATOM     85  O   UNL A   1      36.573  29.389  32.576  1.00  0.00    -0.237 OA
ATOM     86  O   UNL A   1      38.134  27.514  32.798  1.00  0.00    -0.744 OA
ENDBRANCH  80  83
ENDBRANCH  52  76
BRANCH  64  87
ATOM     87  C   UNL A   1      45.758  33.531  29.044  1.00  0.00     0.023 A 
ATOM     88  C   UNL A   1      46.289  33.856  30.307  1.00  0.00     0.012 A 
ATOM     89  C   UNL A   1      45.523  34.555  28.105  1.00  0.00     0.148 A 
ATOM     90  C   UNL A   1      46.563  35.182  30.639  1.00  0.00     0.002 A 
ATOM     91  C   UNL A   1      45.841  35.868  28.425  1.00  0.00     0.091 A 
ATOM     92  F   UNL A   1      45.000  34.224  26.915  1.00  0.00    -0.205 F 
ATOM     93  C   UNL A   1      46.353  36.185  29.694  1.00  0.00     0.022 A 
BRANCH  91  94
ATOM     94  S   UNL A   1      45.699  37.207  27.236  1.00  0.00     0.127 S 
ATOM     95  O   UNL A   1      46.281  38.326  27.975  1.00  0.00    -0.237 OA
ATOM     96  O   UNL A   1      46.512  36.723  26.120  1.00  0.00    -0.237 OA
ATOM     97  O   UNL A   1      44.278  37.327  26.936  1.00  0.00    -0.744 OA
ENDBRANCH  91  94
ENDBRANCH  64  87
ENDBRANCH  38  39
ENDBRANCH  30  33
ENDBRANCH  28  29
ENDBRANCH  27  28
ENDBRANCH  26  27
ENDBRANCH   1  26
TORSDOF 20
ENDMDL
MODEL 3
REMARK VINA RESULT:     -10.7      6.221      9.641
REMARK SMILES O=C(C[C@@H]1CN(C(=O)[C@H]2C[C@H](O)C[NH2+]2)CCO1)NCCCCCCNC(=O)c1ccc(-c2c3nc(c(-c4cccc(S(=O)(=O)[O-])c4F)c4ccc([nH]4)c(-c4cccc(S(=O)(=O)[O-])c4F)c4nc(c(-c5cccc(S(=O)(=O)[O-])c5F)c5ccc2[nH]5)C=C4)C=C3)cc1
REMARK SMILES IDX 21 1 20 2 19 3 18 4 1 5 2 6 3 8 4 9 5 10 17 11 6 12 16 13
REMARK SMILES IDX 15 14 7 15 8 16 9 17 10 18 14 19 11 20 13 21 12 24 22 26
REMARK SMILES IDX 23 27 24 28 25 29 26 30 27 32 28 33 29 34 90 35 30 36 89 37
REMARK SMILES IDX 31 38 32 39 33 40 83 41 34 42 88 43 82 44 84 45 35 46 87 47
REMARK SMILES IDX 81 48 80 49 36 51 68 52 48 53 67 54 49 55 52 56 66 57 85 58
REMARK SMILES IDX 50 59 51 60 65 62 86 63 53 64 37 65 38 66 46 67 39 68 41 69
REMARK SMILES IDX 47 70 40 71 42 72 43 73 44 74 45 75 69 76 70 77 78 78 71 79
REMARK SMILES IDX 73 80 79 81 72 82 74 83 75 84 76 85 77 86 54 87 55 88 63 89
REMARK SMILES IDX 56 90 58 91 64 92 57 93 59 94 60 95 61 96 62 97
REMARK H PARENT 18 7 14 22 14 23 12 25 25 31 84 50 52 61
REMARK Flexibility Score: inf
ROOT
ATOM      1  C   UNL A   1      39.770  22.283  26.787  1.00  0.00     0.002 C 
ENDROOT
BRANCH   1   2
ATOM      2  C   UNL A   1      39.401  23.751  26.537  1.00  0.00     0.021 C 
BRANCH   2   3
ATOM      3  C   UNL A   1      37.923  24.110  26.717  1.00  0.00     0.116 C 
BRANCH   3   4
ATOM      4  N   UNL A   1      37.133  23.990  25.500  1.00  0.00    -0.356 N 
ATOM      5  O   UNL A   1      35.259  23.272  26.604  1.00  0.00    -0.275 OA
ATOM      6  C   UNL A   1      35.829  23.551  25.555  1.00  0.00     0.222 C 
ATOM      7  H   UNL A   1      37.534  24.224  24.632  1.00  0.00     0.163 HD
BRANCH   6   8
ATOM      8  C   UNL A   1      35.108  23.479  24.227  1.00  0.00     0.133 C 
BRANCH   8   9
ATOM      9  C   UNL A   1      33.911  22.513  24.197  1.00  0.00     0.147 C 
ATOM     10  C   UNL A   1      34.272  21.012  24.275  1.00  0.00     0.152 C 
ATOM     11  O   UNL A   1      33.162  22.792  22.992  1.00  0.00    -0.374 OA
ATOM     12  N   UNL A   1      33.097  20.149  24.106  1.00  0.00    -0.333 N 
ATOM     13  C   UNL A   1      31.981  21.982  22.903  1.00  0.00     0.182 C 
ATOM     14  C   UNL A   1      32.321  20.490  22.913  1.00  0.00     0.148 C 
BRANCH  12  15
ATOM     15  C   UNL A   1      32.775  18.982  24.788  1.00  0.00     0.281 C 
ATOM     16  O   UNL A   1      32.189  19.040  25.876  1.00  0.00    -0.268 OA
BRANCH  15  17
ATOM     17  C   UNL A   1      33.181  17.584  24.258  1.00  0.00     0.275 C 
ATOM     18  C   UNL A   1      34.634  17.174  24.443  1.00  0.00     0.113 C 
ATOM     19  N   UNL A   1      32.299  16.523  24.785  1.00  0.00    -0.334 N 
ATOM     20  C   UNL A   1      34.600  15.972  25.363  1.00  0.00     0.175 C 
ATOM     21  C   UNL A   1      33.162  15.455  25.280  1.00  0.00     0.293 C 
ATOM     22  H   UNL A   1      31.694  16.169  24.044  1.00  0.00     0.347 HD
ATOM     23  H   UNL A   1      31.704  16.883  25.532  1.00  0.00     0.347 HD
BRANCH  20  24
ATOM     24  O   UNL A   1      35.554  14.986  25.003  1.00  0.00    -0.387 OA
ATOM     25  H   UNL A   1      35.106  14.138  24.862  1.00  0.00     0.211 HD
ENDBRANCH  20  24
ENDBRANCH  15  17
ENDBRANCH  12  15
ENDBRANCH   8   9
ENDBRANCH   6   8
ENDBRANCH   3   4
ENDBRANCH   2   3
ENDBRANCH   1   2
BRANCH   1  26
ATOM     26  C   UNL A   1      39.259  21.299  25.738  1.00  0.00     0.002 C 
BRANCH  26  27
ATOM     27  C   UNL A   1      39.587  19.829  25.940  1.00  0.00     0.021 C 
BRANCH  27  28
ATOM     28  C   UNL A   1      40.877  19.552  26.688  1.00  0.00     0.116 C 
BRANCH  28  29
ATOM     29  N   UNL A   1      41.978  19.149  25.822  1.00  0.00    -0.352 N 
ATOM     30  C   UNL A   1      43.065  19.884  25.393  1.00  0.00     0.251 C 
ATOM     31  H   UNL A   1      41.941  18.221  25.497  1.00  0.00     0.163 HD
ATOM     32  O   UNL A   1      43.849  19.413  24.586  1.00  0.00    -0.269 OA
BRANCH  30  33
ATOM     33  C   UNL A   1      43.245  21.267  25.895  1.00  0.00     0.039 A 
ATOM     34  C   UNL A   1      43.568  21.470  27.240  1.00  0.00     0.014 A 
ATOM     35  C   UNL A   1      43.155  22.354  25.025  1.00  0.00     0.014 A 
ATOM     36  C   UNL A   1      43.892  22.755  27.688  1.00  0.00     0.010 A 
ATOM     37  C   UNL A   1      43.581  23.606  25.445  1.00  0.00     0.010 A 
ATOM     38  C   UNL A   1      43.948  23.827  26.782  1.00  0.00    -0.014 A 
BRANCH  38  39
ATOM     39  C   UNL A   1      44.375  25.193  27.185  1.00  0.00     0.031 A 
ATOM     40  C   UNL A   1      43.356  26.147  27.758  1.00  0.00     0.074 A 
ATOM     41  C   UNL A   1      45.624  25.624  26.909  1.00  0.00     0.049 A 
ATOM     42  N   UNL A   1      43.467  27.425  28.003  1.00  0.00    -0.248 NA
ATOM     43  C   UNL A   1      42.019  25.598  28.049  1.00  0.00     0.031 C 
ATOM     44  C   UNL A   1      46.680  24.831  26.275  1.00  0.00     0.029 A 
ATOM     45  N   UNL A   1      46.205  26.856  27.092  1.00  0.00    -0.354 N 
ATOM     46  C   UNL A   1      42.204  27.845  28.401  1.00  0.00     0.074 A 
ATOM     47  C   UNL A   1      41.335  26.693  28.347  1.00  0.00     0.031 C 
ATOM     48  C   UNL A   1      47.774  25.593  26.122  1.00  0.00     0.029 A 
ATOM     49  C   UNL A   1      47.494  26.938  26.614  1.00  0.00     0.049 A 
ATOM     50  H   UNL A   1      45.742  27.611  27.523  1.00  0.00     0.167 HD
ATOM     51  C   UNL A   1      41.809  29.074  28.808  1.00  0.00     0.034 A 
ATOM     52  C   UNL A   1      48.347  27.981  26.569  1.00  0.00     0.034 A 
ATOM     53  C   UNL A   1      42.699  30.189  28.967  1.00  0.00     0.049 A 
ATOM     54  C   UNL A   1      47.906  29.309  27.128  1.00  0.00     0.074 A 
ATOM     55  C   UNL A   1      42.424  31.437  29.498  1.00  0.00     0.029 A 
ATOM     56  N   UNL A   1      44.037  30.187  28.610  1.00  0.00    -0.354 N 
ATOM     57  N   UNL A   1      46.754  29.639  27.658  1.00  0.00    -0.248 NA
ATOM     58  C   UNL A   1      48.894  30.399  27.115  1.00  0.00     0.031 C 
ATOM     59  C   UNL A   1      43.599  32.193  29.459  1.00  0.00     0.029 A 
ATOM     60  C   UNL A   1      44.605  31.411  28.913  1.00  0.00     0.049 A 
ATOM     61  H   UNL A   1      44.512  29.428  28.202  1.00  0.00     0.167 HD
ATOM     62  C   UNL A   1      46.893  30.956  28.082  1.00  0.00     0.074 A 
ATOM     63  C   UNL A   1      48.246  31.359  27.763  1.00  0.00     0.031 C 
ATOM     64  C   UNL A   1      45.978  31.765  28.668  1.00  0.00     0.034 A 
BRANCH  51  65
ATOM     65  C   UNL A   1      40.364  29.266  29.187  1.00  0.00     0.023 A 
ATOM     66  C   UNL A   1      39.401  29.455  28.176  1.00  0.00     0.012 A 
ATOM     67  C   UNL A   1      39.952  29.173  30.530  1.00  0.00     0.148 A 
ATOM     68  C   UNL A   1      38.050  29.575  28.498  1.00  0.00     0.002 A 
ATOM     69  C   UNL A   1      38.598  29.251  30.839  1.00  0.00     0.091 A 
ATOM     70  F   UNL A   1      40.887  29.012  31.477  1.00  0.00    -0.205 F 
ATOM     71  C   UNL A   1      37.649  29.461  29.827  1.00  0.00     0.022 A 
BRANCH  69  72
ATOM     72  S   UNL A   1      37.970  29.037  32.509  1.00  0.00     0.127 S 
ATOM     73  O   UNL A   1      38.257  27.624  32.753  1.00  0.00    -0.237 OA
ATOM     74  O   UNL A   1      38.801  29.969  33.271  1.00  0.00    -0.237 OA
ATOM     75  O   UNL A   1      36.557  29.384  32.455  1.00  0.00    -0.744 OA
ENDBRANCH  69  72
ENDBRANCH  51  65
BRANCH  52  76
ATOM     76  C   UNL A   1      49.733  27.802  26.049  1.00  0.00     0.023 A 
ATOM     77  C   UNL A   1      49.959  27.887  24.660  1.00  0.00     0.012 A 
ATOM     78  C   UNL A   1      50.821  27.547  26.904  1.00  0.00     0.148 A 
ATOM     79  C   UNL A   1      51.233  27.682  24.130  1.00  0.00     0.002 A 
ATOM     80  C   UNL A   1      52.099  27.396  26.373  1.00  0.00     0.091 A 
ATOM     81  F   UNL A   1      50.590  27.451  28.221  1.00  0.00    -0.205 F 
ATOM     82  C   UNL A   1      52.304  27.445  24.986  1.00  0.00     0.022 A 
BRANCH  80  83
ATOM     83  S   UNL A   1      53.547  27.216  27.422  1.00  0.00     0.127 S 
ATOM     84  O   UNL A   1      54.621  27.124  26.437  1.00  0.00    -0.237 OA
ATOM     85  O   UNL A   1      53.526  28.458  28.196  1.00  0.00    -0.237 OA
ATOM     86  O   UNL A   1      53.296  26.020  28.214  1.00  0.00    -0.744 OA
ENDBRANCH  80  83
ENDBRANCH  52  76
BRANCH  64  87
ATOM     87  C   UNL A   1      46.409  33.150  29.065  1.00  0.00     0.023 A 
ATOM     88  C   UNL A   1      47.066  33.353  30.294  1.00  0.00     0.012 A 
ATOM     89  C   UNL A   1      46.259  34.228  28.170  1.00  0.00     0.148 A 
ATOM     90  C   UNL A   1      47.551  34.614  30.636  1.00  0.00     0.002 A 
ATOM     91  C   UNL A   1      46.786  35.471  28.498  1.00  0.00     0.091 A 
ATOM     92  F   UNL A   1      45.614  34.016  27.014  1.00  0.00    -0.205 F 
ATOM     93  C   UNL A   1      47.424  35.669  29.733  1.00  0.00     0.022 A 
BRANCH  91  94
ATOM     94  S   UNL A   1      46.757  36.856  27.354  1.00  0.00     0.127 S 
ATOM     95  O   UNL A   1      47.420  37.900  28.133  1.00  0.00    -0.237 OA
ATOM     96  O   UNL A   1      47.538  36.347  26.226  1.00  0.00    -0.237 OA
ATOM     97  O   UNL A   1      45.352  37.097  27.052  1.00  0.00    -0.744 OA
ENDBRANCH  91  94
ENDBRANCH  64  87
ENDBRANCH  38  39
ENDBRANCH  30  33
ENDBRANCH  28  29
ENDBRANCH  27  28
ENDBRANCH  26  27
ENDBRANCH   1  26
TORSDOF 20
ENDMDL
