MODEL 1
REMARK VINA RESULT:     -12.0      0.000      0.000
REMARK SMILES O=C(Cc1c(C(=O)c2cc3c(cn2)CCCC3)[nH]c2cc(Cl)ccc12)NCCCCCCNC(=O)c1ccc(-c2c3nc(c(-c4cccc(S(=O)(=O)[O-])c4F)c4ccc([nH]4)c(-c4cccc(S(=O)(=O)[O-])c4F)c4nc(c(-c5cccc(S(=O)(=O)[O-])c5F)c5ccc2[nH]5)C=C4)C=C3)cc1
REMARK SMILES IDX 29 1 28 2 27 3 26 4 1 5 2 6 3 8 4 9 5 10 25 11 18 12 19 13
REMARK SMILES IDX 24 14 20 16 23 17 21 18 22 19 6 20 7 21 8 22 9 23 13 24
REMARK SMILES IDX 10 25 12 26 11 27 17 28 14 29 16 30 15 31 30 32 31 33 32 34
REMARK SMILES IDX 33 35 34 36 35 38 36 39 37 40 98 41 38 42 97 43 39 44 40 45
REMARK SMILES IDX 41 46 91 47 42 48 96 49 90 50 92 51 43 52 95 53 89 54 88 55
REMARK SMILES IDX 44 57 76 58 56 59 75 60 57 61 60 62 74 63 93 64 58 65 59 66
REMARK SMILES IDX 73 68 94 69 61 70 45 71 46 72 54 73 47 74 49 75 55 76 48 77
REMARK SMILES IDX 50 78 51 79 52 80 53 81 77 82 78 83 86 84 79 85 81 86 87 87
REMARK SMILES IDX 80 88 82 89 83 90 84 91 85 92 62 93 63 94 71 95 64 96 66 97
REMARK SMILES IDX 72 98 65 99 67 100 68 101 69 102 70 103
REMARK H PARENT 26 7 18 15 33 37 92 56 60 67
REMARK Flexibility Score: inf
ROOT
ATOM      1  C   UNL A   1      31.277  26.277  25.906  1.00  0.00     0.002 C 
ENDROOT
BRANCH   1   2
ATOM      2  C   UNL A   1      30.575  25.711  24.667  1.00  0.00     0.021 C 
BRANCH   2   3
ATOM      3  C   UNL A   1      31.490  25.384  23.492  1.00  0.00     0.116 C 
BRANCH   3   4
ATOM      4  N   UNL A   1      31.548  23.967  23.194  1.00  0.00    -0.356 N 
ATOM      5  O   UNL A   1      33.556  24.046  22.087  1.00  0.00    -0.275 OA
ATOM      6  C   UNL A   1      32.671  23.392  22.639  1.00  0.00     0.224 C 
ATOM      7  H   UNL A   1      30.766  23.402  23.391  1.00  0.00     0.163 HD
BRANCH   6   8
ATOM      8  C   UNL A   1      32.705  21.874  22.615  1.00  0.00     0.138 C 
BRANCH   8   9
ATOM      9  C   UNL A   1      32.927  21.124  23.909  1.00  0.00    -0.002 A 
ATOM     10  C   UNL A   1      33.521  21.526  25.107  1.00  0.00     0.093 A 
ATOM     11  C   UNL A   1      32.669  19.711  24.041  1.00  0.00     0.004 A 
ATOM     12  N   UNL A   1      33.349  20.489  26.002  1.00  0.00    -0.351 N 
ATOM     13  C   UNL A   1      32.977  19.343  25.347  1.00  0.00     0.048 A 
ATOM     14  C   UNL A   1      32.249  18.707  23.143  1.00  0.00     0.012 A 
ATOM     15  H   UNL A   1      33.476  20.561  26.976  1.00  0.00     0.167 HD
ATOM     16  C   UNL A   1      32.906  18.021  25.805  1.00  0.00     0.047 A 
ATOM     17  C   UNL A   1      32.196  17.374  23.572  1.00  0.00     0.021 A 
ATOM     18  C   UNL A   1      32.526  17.044  24.882  1.00  0.00     0.043 A 
ATOM     19  Cl  UNL A   1      32.488  15.392  25.375  1.00  0.00    -0.084 Cl
BRANCH  10  20
ATOM     20  C   UNL A   1      34.269  22.736  25.426  1.00  0.00     0.227 C 
ATOM     21  O   UNL A   1      33.783  23.863  25.405  1.00  0.00    -0.285 OA
BRANCH  20  22
ATOM     22  C   UNL A   1      35.731  22.620  25.640  1.00  0.00     0.113 A 
ATOM     23  C   UNL A   1      36.399  23.703  26.192  1.00  0.00     0.036 A 
ATOM     24  N   UNL A   1      36.328  21.475  25.227  1.00  0.00    -0.252 NA
ATOM     25  C   UNL A   1      37.779  23.607  26.373  1.00  0.00    -0.041 A 
ATOM     26  C   UNL A   1      37.656  21.386  25.468  1.00  0.00     0.115 A 
ATOM     27  C   UNL A   1      38.425  22.413  26.018  1.00  0.00    -0.026 A 
ATOM     28  C   UNL A   1      38.546  24.799  26.883  1.00  0.00     0.036 C 
ATOM     29  C   UNL A   1      39.889  22.194  26.304  1.00  0.00     0.037 C 
ATOM     30  C   UNL A   1      39.917  24.434  27.444  1.00  0.00     0.005 C 
ATOM     31  C   UNL A   1      40.660  23.501  26.493  1.00  0.00     0.005 C 
ENDBRANCH  20  22
ENDBRANCH  10  20
ENDBRANCH   8   9
ENDBRANCH   6   8
ENDBRANCH   3   4
ENDBRANCH   2   3
ENDBRANCH   1   2
BRANCH   1  32
ATOM     32  C   UNL A   1      31.895  27.670  25.753  1.00  0.00     0.002 C 
BRANCH  32  33
ATOM     33  C   UNL A   1      33.206  27.911  26.502  1.00  0.00     0.021 C 
BRANCH  33  34
ATOM     34  C   UNL A   1      34.064  29.061  25.984  1.00  0.00     0.116 C 
BRANCH  34  35
ATOM     35  N   UNL A   1      33.612  30.369  26.433  1.00  0.00    -0.352 N 
ATOM     36  C   UNL A   1      34.160  31.201  27.384  1.00  0.00     0.251 C 
ATOM     37  H   UNL A   1      32.797  30.707  25.995  1.00  0.00     0.163 HD
ATOM     38  O   UNL A   1      33.578  32.232  27.699  1.00  0.00    -0.269 OA
BRANCH  36  39
ATOM     39  C   UNL A   1      35.427  30.822  28.054  1.00  0.00     0.039 A 
ATOM     40  C   UNL A   1      35.540  29.619  28.754  1.00  0.00     0.014 A 
ATOM     41  C   UNL A   1      36.512  31.703  27.999  1.00  0.00     0.014 A 
ATOM     42  C   UNL A   1      36.672  29.375  29.529  1.00  0.00     0.010 A 
ATOM     43  C   UNL A   1      37.675  31.421  28.721  1.00  0.00     0.010 A 
ATOM     44  C   UNL A   1      37.744  30.281  29.536  1.00  0.00    -0.014 A 
BRANCH  44  45
ATOM     45  C   UNL A   1      38.921  30.018  30.406  1.00  0.00     0.031 A 
ATOM     46  C   UNL A   1      39.020  30.632  31.777  1.00  0.00     0.074 A 
ATOM     47  C   UNL A   1      39.889  29.185  29.975  1.00  0.00     0.049 A 
ATOM     48  N   UNL A   1      39.953  30.473  32.682  1.00  0.00    -0.248 NA
ATOM     49  C   UNL A   1      37.939  31.543  32.191  1.00  0.00     0.031 C 
ATOM     50  C   UNL A   1      39.922  28.545  28.658  1.00  0.00     0.029 A 
ATOM     51  N   UNL A   1      41.019  28.722  30.600  1.00  0.00    -0.354 N 
ATOM     52  C   UNL A   1      39.595  31.288  33.749  1.00  0.00     0.074 A 
ATOM     53  C   UNL A   1      38.361  31.945  33.384  1.00  0.00     0.031 C 
ATOM     54  C   UNL A   1      40.992  27.739  28.589  1.00  0.00     0.029 A 
ATOM     55  C   UNL A   1      41.743  27.835  29.839  1.00  0.00     0.049 A 
ATOM     56  H   UNL A   1      41.287  29.000  31.506  1.00  0.00     0.167 HD
ATOM     57  C   UNL A   1      40.224  31.454  34.937  1.00  0.00     0.034 A 
ATOM     58  C   UNL A   1      42.879  27.166  30.112  1.00  0.00     0.034 A 
ATOM     59  C   UNL A   1      41.415  30.754  35.332  1.00  0.00     0.049 A 
ATOM     60  C   UNL A   1      43.541  27.347  31.447  1.00  0.00     0.074 A 
ATOM     61  C   UNL A   1      42.089  30.823  36.539  1.00  0.00     0.029 A 
ATOM     62  N   UNL A   1      42.106  29.852  34.538  1.00  0.00    -0.354 N 
ATOM     63  N   UNL A   1      43.139  28.057  32.473  1.00  0.00    -0.248 NA
ATOM     64  C   UNL A   1      44.801  26.625  31.672  1.00  0.00     0.031 C 
ATOM     65  C   UNL A   1      43.187  29.959  36.477  1.00  0.00     0.029 A 
ATOM     66  C   UNL A   1      43.196  29.356  35.230  1.00  0.00     0.049 A 
ATOM     67  H   UNL A   1      41.857  29.602  33.619  1.00  0.00     0.167 HD
ATOM     68  C   UNL A   1      44.089  27.863  33.466  1.00  0.00     0.074 A 
ATOM     69  C   UNL A   1      45.078  26.950  32.930  1.00  0.00     0.031 C 
ATOM     70  C   UNL A   1      44.146  28.412  34.703  1.00  0.00     0.034 A 
BRANCH  57  71
ATOM     71  C   UNL A   1      39.606  32.388  35.939  1.00  0.00     0.023 A 
ATOM     72  C   UNL A   1      38.650  31.884  36.842  1.00  0.00     0.012 A 
ATOM     73  C   UNL A   1      40.042  33.722  36.058  1.00  0.00     0.148 A 
ATOM     74  C   UNL A   1      38.130  32.697  37.849  1.00  0.00     0.002 A 
ATOM     75  C   UNL A   1      39.536  34.519  37.079  1.00  0.00     0.091 A 
ATOM     76  F   UNL A   1      40.941  34.181  35.177  1.00  0.00    -0.205 F 
ATOM     77  C   UNL A   1      38.580  34.009  37.972  1.00  0.00     0.022 A 
BRANCH  75  78
ATOM     78  S   UNL A   1      40.082  36.209  37.357  1.00  0.00     0.127 S 
ATOM     79  O   UNL A   1      39.789  36.827  36.064  1.00  0.00    -0.237 OA
ATOM     80  O   UNL A   1      39.210  36.637  38.450  1.00  0.00    -0.237 OA
ATOM     81  O   UNL A   1      41.495  36.125  37.699  1.00  0.00    -0.744 OA
ENDBRANCH  75  78
ENDBRANCH  57  71
BRANCH  58  82
ATOM     82  C   UNL A   1      43.417  26.211  29.108  1.00  0.00     0.023 A 
ATOM     83  C   UNL A   1      43.103  24.844  29.226  1.00  0.00     0.012 A 
ATOM     84  C   UNL A   1      44.154  26.658  27.995  1.00  0.00     0.148 A 
ATOM     85  C   UNL A   1      43.516  23.936  28.252  1.00  0.00     0.002 A 
ATOM     86  C   UNL A   1      44.526  25.755  27.007  1.00  0.00     0.091 A 
ATOM     87  F   UNL A   1      44.447  27.963  27.913  1.00  0.00    -0.205 F 
ATOM     88  C   UNL A   1      44.216  24.392  27.138  1.00  0.00     0.022 A 
BRANCH  86  89
ATOM     89  S   UNL A   1      45.323  26.266  25.480  1.00  0.00     0.127 S 
ATOM     90  O   UNL A   1      45.304  25.029  24.705  1.00  0.00    -0.237 OA
ATOM     91  O   UNL A   1      44.413  27.308  25.001  1.00  0.00    -0.237 OA
ATOM     92  O   UNL A   1      46.641  26.749  25.865  1.00  0.00    -0.744 OA
ENDBRANCH  86  89
ENDBRANCH  58  82
BRANCH  70  93
ATOM     93  C   UNL A   1      45.314  28.057  35.578  1.00  0.00     0.023 A 
ATOM     94  C   UNL A   1      46.454  28.884  35.564  1.00  0.00     0.012 A 
ATOM     95  C   UNL A   1      45.237  26.992  36.495  1.00  0.00     0.148 A 
ATOM     96  C   UNL A   1      47.505  28.653  36.450  1.00  0.00     0.002 A 
ATOM     97  C   UNL A   1      46.275  26.784  37.395  1.00  0.00     0.091 A 
ATOM     98  F   UNL A   1      44.144  26.215  36.479  1.00  0.00    -0.205 F 
ATOM     99  C   UNL A   1      47.412  27.612  37.371  1.00  0.00     0.022 A 
BRANCH  97 100
ATOM    100  S   UNL A   1      46.219  25.516  38.666  1.00  0.00     0.127 S 
ATOM    101  O   UNL A   1      47.459  25.772  39.397  1.00  0.00    -0.237 OA
ATOM    102  O   UNL A   1      44.998  25.863  39.394  1.00  0.00    -0.237 OA
ATOM    103  O   UNL A   1      46.164  24.242  37.962  1.00  0.00    -0.744 OA
ENDBRANCH  97 100
ENDBRANCH  70  93
ENDBRANCH  44  45
ENDBRANCH  36  39
ENDBRANCH  34  35
ENDBRANCH  33  34
ENDBRANCH  32  33
ENDBRANCH   1  32
TORSDOF 19
ENDMDL
MODEL 2
REMARK VINA RESULT:     -11.9      4.918     10.633
REMARK SMILES O=C(Cc1c(C(=O)c2cc3c(cn2)CCCC3)[nH]c2cc(Cl)ccc12)NCCCCCCNC(=O)c1ccc(-c2c3nc(c(-c4cccc(S(=O)(=O)[O-])c4F)c4ccc([nH]4)c(-c4cccc(S(=O)(=O)[O-])c4F)c4nc(c(-c5cccc(S(=O)(=O)[O-])c5F)c5ccc2[nH]5)C=C4)C=C3)cc1
REMARK SMILES IDX 29 1 28 2 27 3 26 4 1 5 2 6 3 8 4 9 5 10 25 11 18 12 19 13
REMARK SMILES IDX 24 14 20 16 23 17 21 18 22 19 6 20 7 21 8 22 9 23 13 24
REMARK SMILES IDX 10 25 12 26 11 27 17 28 14 29 16 30 15 31 30 32 31 33 32 34
REMARK SMILES IDX 33 35 34 36 35 38 36 39 37 40 98 41 38 42 97 43 39 44 40 45
REMARK SMILES IDX 41 46 91 47 42 48 96 49 90 50 92 51 43 52 95 53 89 54 88 55
REMARK SMILES IDX 44 57 76 58 56 59 75 60 57 61 60 62 74 63 93 64 58 65 59 66
REMARK SMILES IDX 73 68 94 69 61 70 45 71 46 72 54 73 47 74 49 75 55 76 48 77
REMARK SMILES IDX 50 78 51 79 52 80 53 81 77 82 78 83 86 84 79 85 81 86 87 87
REMARK SMILES IDX 80 88 82 89 83 90 84 91 85 92 62 93 63 94 71 95 64 96 66 97
REMARK SMILES IDX 72 98 65 99 67 100 68 101 69 102 70 103
REMARK H PARENT 26 7 18 15 33 37 92 56 60 67
REMARK Flexibility Score: inf
ROOT
ATOM      1  C   UNL A   1      39.891  22.188  26.629  1.00  0.00     0.002 C 
ENDROOT
BRANCH   1   2
ATOM      2  C   UNL A   1      39.258  23.561  26.877  1.00  0.00     0.021 C 
BRANCH   2   3
ATOM      3  C   UNL A   1      38.135  23.943  25.919  1.00  0.00     0.116 C 
BRANCH   3   4
ATOM      4  N   UNL A   1      36.821  23.878  26.528  1.00  0.00    -0.356 N 
ATOM      5  O   UNL A   1      35.648  24.139  24.575  1.00  0.00    -0.275 OA
ATOM      6  C   UNL A   1      35.674  23.830  25.766  1.00  0.00     0.224 C 
ATOM      7  H   UNL A   1      36.747  23.869  27.510  1.00  0.00     0.163 HD
BRANCH   6   8
ATOM      8  C   UNL A   1      34.390  23.505  26.507  1.00  0.00     0.138 C 
BRANCH   8   9
ATOM      9  C   UNL A   1      33.339  22.661  25.823  1.00  0.00    -0.002 A 
ATOM     10  C   UNL A   1      31.957  22.833  25.717  1.00  0.00     0.093 A 
ATOM     11  C   UNL A   1      33.627  21.363  25.265  1.00  0.00     0.004 A 
ATOM     12  N   UNL A   1      31.496  21.837  24.879  1.00  0.00    -0.351 N 
ATOM     13  C   UNL A   1      32.449  20.863  24.718  1.00  0.00     0.048 A 
ATOM     14  C   UNL A   1      34.780  20.550  25.228  1.00  0.00     0.012 A 
ATOM     15  H   UNL A   1      30.607  21.826  24.455  1.00  0.00     0.167 HD
ATOM     16  C   UNL A   1      32.352  19.587  24.149  1.00  0.00     0.047 A 
ATOM     17  C   UNL A   1      34.700  19.260  24.688  1.00  0.00     0.021 A 
ATOM     18  C   UNL A   1      33.499  18.791  24.164  1.00  0.00     0.043 A 
ATOM     19  Cl  UNL A   1      33.417  17.187  23.538  1.00  0.00    -0.084 Cl
BRANCH  10  20
ATOM     20  C   UNL A   1      31.074  23.786  26.380  1.00  0.00     0.227 C 
ATOM     21  O   UNL A   1      30.226  23.467  27.207  1.00  0.00    -0.285 OA
BRANCH  20  22
ATOM     22  C   UNL A   1      31.097  25.195  25.924  1.00  0.00     0.113 A 
ATOM     23  C   UNL A   1      31.718  26.135  26.735  1.00  0.00     0.036 A 
ATOM     24  N   UNL A   1      30.457  25.482  24.765  1.00  0.00    -0.252 NA
ATOM     25  C   UNL A   1      31.722  27.467  26.321  1.00  0.00    -0.041 A 
ATOM     26  C   UNL A   1      30.526  26.771  24.359  1.00  0.00     0.115 A 
ATOM     27  C   UNL A   1      31.126  27.795  25.094  1.00  0.00    -0.026 A 
ATOM     28  C   UNL A   1      32.306  28.523  27.222  1.00  0.00     0.036 C 
ATOM     29  C   UNL A   1      31.204  29.189  24.527  1.00  0.00     0.037 C 
ATOM     30  C   UNL A   1      32.645  29.817  26.488  1.00  0.00     0.005 C 
ATOM     31  C   UNL A   1      31.489  30.249  25.592  1.00  0.00     0.005 C 
ENDBRANCH  20  22
ENDBRANCH  10  20
ENDBRANCH   8   9
ENDBRANCH   6   8
ENDBRANCH   3   4
ENDBRANCH   2   3
ENDBRANCH   1   2
BRANCH   1  32
ATOM     32  C   UNL A   1      39.075  21.214  25.774  1.00  0.00     0.002 C 
BRANCH  32  33
ATOM     33  C   UNL A   1      39.607  19.783  25.689  1.00  0.00     0.021 C 
BRANCH  33  34
ATOM     34  C   UNL A   1      40.839  19.483  26.537  1.00  0.00     0.116 C 
BRANCH  34  35
ATOM     35  N   UNL A   1      41.994  19.069  25.756  1.00  0.00    -0.352 N 
ATOM     36  C   UNL A   1      43.091  19.804  25.365  1.00  0.00     0.251 C 
ATOM     37  H   UNL A   1      41.991  18.129  25.463  1.00  0.00     0.163 HD
ATOM     38  O   UNL A   1      43.925  19.306  24.619  1.00  0.00    -0.269 OA
BRANCH  36  39
ATOM     39  C   UNL A   1      43.233  21.211  25.812  1.00  0.00     0.039 A 
ATOM     40  C   UNL A   1      43.173  22.266  24.899  1.00  0.00     0.014 A 
ATOM     41  C   UNL A   1      43.456  21.472  27.167  1.00  0.00     0.014 A 
ATOM     42  C   UNL A   1      43.496  23.557  25.313  1.00  0.00     0.010 A 
ATOM     43  C   UNL A   1      43.710  22.780  27.593  1.00  0.00     0.010 A 
ATOM     44  C   UNL A   1      43.785  23.826  26.660  1.00  0.00    -0.014 A 
BRANCH  44  45
ATOM     45  C   UNL A   1      44.170  25.202  27.067  1.00  0.00     0.031 A 
ATOM     46  C   UNL A   1      45.567  25.715  26.835  1.00  0.00     0.074 A 
ATOM     47  C   UNL A   1      43.243  26.014  27.612  1.00  0.00     0.049 A 
ATOM     48  N   UNL A   1      46.058  26.902  27.087  1.00  0.00    -0.248 NA
ATOM     49  C   UNL A   1      46.542  24.781  26.246  1.00  0.00     0.031 C 
ATOM     50  C   UNL A   1      41.862  25.630  27.912  1.00  0.00     0.029 A 
ATOM     51  N   UNL A   1      43.314  27.329  27.997  1.00  0.00    -0.354 N 
ATOM     52  C   UNL A   1      47.399  26.847  26.727  1.00  0.00     0.074 A 
ATOM     53  C   UNL A   1      47.651  25.510  26.240  1.00  0.00     0.031 C 
ATOM     54  C   UNL A   1      41.204  26.697  28.391  1.00  0.00     0.029 A 
ATOM     55  C   UNL A   1      42.125  27.828  28.472  1.00  0.00     0.049 A 
ATOM     56  H   UNL A   1      44.140  27.864  27.940  1.00  0.00     0.167 HD
ATOM     57  C   UNL A   1      48.331  27.828  26.775  1.00  0.00     0.034 A 
ATOM     58  C   UNL A   1      41.804  29.057  28.919  1.00  0.00     0.034 A 
ATOM     59  C   UNL A   1      48.070  29.178  27.195  1.00  0.00     0.049 A 
ATOM     60  C   UNL A   1      42.847  30.135  28.933  1.00  0.00     0.074 A 
ATOM     61  C   UNL A   1      48.945  30.251  27.223  1.00  0.00     0.029 A 
ATOM     62  N   UNL A   1      46.849  29.645  27.652  1.00  0.00    -0.354 N 
ATOM     63  N   UNL A   1      44.087  30.083  28.509  1.00  0.00    -0.248 NA
ATOM     64  C   UNL A   1      42.450  31.444  29.471  1.00  0.00     0.031 C 
ATOM     65  C   UNL A   1      48.250  31.368  27.694  1.00  0.00     0.029 A 
ATOM     66  C   UNL A   1      46.945  30.989  27.961  1.00  0.00     0.049 A 
ATOM     67  H   UNL A   1      46.033  29.100  27.742  1.00  0.00     0.167 HD
ATOM     68  C   UNL A   1      44.614  31.350  28.720  1.00  0.00     0.074 A 
ATOM     69  C   UNL A   1      43.556  32.157  29.290  1.00  0.00     0.031 C 
ATOM     70  C   UNL A   1      45.871  31.794  28.483  1.00  0.00     0.034 A 
BRANCH  57  71
ATOM     71  C   UNL A   1      49.720  27.508  26.297  1.00  0.00     0.023 A 
ATOM     72  C   UNL A   1      50.644  26.959  27.207  1.00  0.00     0.012 A 
ATOM     73  C   UNL A   1      50.074  27.645  24.942  1.00  0.00     0.148 A 
ATOM     74  C   UNL A   1      51.908  26.557  26.776  1.00  0.00     0.002 A 
ATOM     75  C   UNL A   1      51.327  27.221  24.515  1.00  0.00     0.091 A 
ATOM     76  F   UNL A   1      49.181  28.183  24.099  1.00  0.00    -0.205 F 
ATOM     77  C   UNL A   1      52.245  26.679  25.431  1.00  0.00     0.022 A 
BRANCH  75  78
ATOM     78  S   UNL A   1      51.846  27.288  22.795  1.00  0.00     0.127 S 
ATOM     79  O   UNL A   1      52.235  28.692  22.663  1.00  0.00    -0.237 OA
ATOM     80  O   UNL A   1      52.961  26.342  22.773  1.00  0.00    -0.237 OA
ATOM     81  O   UNL A   1      50.688  26.888  22.008  1.00  0.00    -0.744 OA
ENDBRANCH  75  78
ENDBRANCH  57  71
BRANCH  58  82
ATOM     82  C   UNL A   1      40.400  29.337  29.324  1.00  0.00     0.023 A 
ATOM     83  C   UNL A   1      39.456  29.674  28.336  1.00  0.00     0.012 A 
ATOM     84  C   UNL A   1      39.981  29.182  30.659  1.00  0.00     0.148 A 
ATOM     85  C   UNL A   1      38.115  29.853  28.672  1.00  0.00     0.002 A 
ATOM     86  C   UNL A   1      38.636  29.320  30.979  1.00  0.00     0.091 A 
ATOM     87  F   UNL A   1      40.903  28.870  31.580  1.00  0.00    -0.205 F 
ATOM     88  C   UNL A   1      37.703  29.665  29.988  1.00  0.00     0.022 A 
BRANCH  86  89
ATOM     89  S   UNL A   1      37.993  28.980  32.621  1.00  0.00     0.127 S 
ATOM     90  O   UNL A   1      38.791  29.882  33.447  1.00  0.00    -0.237 OA
ATOM     91  O   UNL A   1      36.586  29.358  32.477  1.00  0.00    -0.237 OA
ATOM     92  O   UNL A   1      38.214  27.558  32.846  1.00  0.00    -0.744 OA
ENDBRANCH  86  89
ENDBRANCH  58  82
BRANCH  70  93
ATOM     93  C   UNL A   1      46.195  33.218  28.838  1.00  0.00     0.023 A 
ATOM     94  C   UNL A   1      46.789  33.492  30.085  1.00  0.00     0.012 A 
ATOM     95  C   UNL A   1      46.031  34.255  27.901  1.00  0.00     0.148 A 
ATOM     96  C   UNL A   1      47.211  34.782  30.398  1.00  0.00     0.002 A 
ATOM     97  C   UNL A   1      46.480  35.534  28.207  1.00  0.00     0.091 A 
ATOM     98  F   UNL A   1      45.453  33.966  26.725  1.00  0.00    -0.205 F 
ATOM     99  C   UNL A   1      47.067  35.800  29.457  1.00  0.00     0.022 A 
BRANCH  97 100
ATOM    100  S   UNL A   1      46.405  36.894  27.037  1.00  0.00     0.127 S 
ATOM    101  O   UNL A   1      47.238  37.900  27.695  1.00  0.00    -0.237 OA
ATOM    102  O   UNL A   1      46.996  36.302  25.836  1.00  0.00    -0.237 OA
ATOM    103  O   UNL A   1      44.995  37.240  26.911  1.00  0.00    -0.744 OA
ENDBRANCH  97 100
ENDBRANCH  70  93
ENDBRANCH  44  45
ENDBRANCH  36  39
ENDBRANCH  34  35
ENDBRANCH  33  34
ENDBRANCH  32  33
ENDBRANCH   1  32
TORSDOF 19
ENDMDL
MODEL 3
REMARK VINA RESULT:     -11.8      2.482      4.832
REMARK SMILES O=C(Cc1c(C(=O)c2cc3c(cn2)CCCC3)[nH]c2cc(Cl)ccc12)NCCCCCCNC(=O)c1ccc(-c2c3nc(c(-c4cccc(S(=O)(=O)[O-])c4F)c4ccc([nH]4)c(-c4cccc(S(=O)(=O)[O-])c4F)c4nc(c(-c5cccc(S(=O)(=O)[O-])c5F)c5ccc2[nH]5)C=C4)C=C3)cc1
REMARK SMILES IDX 29 1 28 2 27 3 26 4 1 5 2 6 3 8 4 9 5 10 25 11 18 12 19 13
REMARK SMILES IDX 24 14 20 16 23 17 21 18 22 19 6 20 7 21 8 22 9 23 13 24
REMARK SMILES IDX 10 25 12 26 11 27 17 28 14 29 16 30 15 31 30 32 31 33 32 34
REMARK SMILES IDX 33 35 34 36 35 38 36 39 37 40 98 41 38 42 97 43 39 44 40 45
REMARK SMILES IDX 41 46 91 47 42 48 96 49 90 50 92 51 43 52 95 53 89 54 88 55
REMARK SMILES IDX 44 57 76 58 56 59 75 60 57 61 60 62 74 63 93 64 58 65 59 66
REMARK SMILES IDX 73 68 94 69 61 70 45 71 46 72 54 73 47 74 49 75 55 76 48 77
REMARK SMILES IDX 50 78 51 79 52 80 53 81 77 82 78 83 86 84 79 85 81 86 87 87
REMARK SMILES IDX 80 88 82 89 83 90 84 91 85 92 62 93 63 94 71 95 64 96 66 97
REMARK SMILES IDX 72 98 65 99 67 100 68 101 69 102 70 103
REMARK H PARENT 26 7 18 15 33 37 92 56 60 67
REMARK Flexibility Score: inf
ROOT
ATOM      1  C   UNL A   1      31.958  29.408  27.044  1.00  0.00     0.002 C 
ENDROOT
BRANCH   1   2
ATOM      2  C   UNL A   1      33.303  28.682  27.157  1.00  0.00     0.021 C 
BRANCH   2   3
ATOM      3  C   UNL A   1      34.220  28.818  25.946  1.00  0.00     0.116 C 
BRANCH   3   4
ATOM      4  N   UNL A   1      33.896  27.890  24.881  1.00  0.00    -0.356 N 
ATOM      5  O   UNL A   1      34.288  25.990  26.105  1.00  0.00    -0.275 OA
ATOM      6  C   UNL A   1      33.813  26.533  25.108  1.00  0.00     0.224 C 
ATOM      7  H   UNL A   1      33.734  28.236  23.974  1.00  0.00     0.163 HD
BRANCH   6   8
ATOM      8  C   UNL A   1      33.219  25.701  23.986  1.00  0.00     0.138 C 
BRANCH   8   9
ATOM      9  C   UNL A   1      32.385  24.488  24.332  1.00  0.00    -0.002 A 
ATOM     10  C   UNL A   1      31.122  24.387  24.919  1.00  0.00     0.093 A 
ATOM     11  C   UNL A   1      32.893  23.143  24.234  1.00  0.00     0.004 A 
ATOM     12  N   UNL A   1      30.779  23.049  24.892  1.00  0.00    -0.351 N 
ATOM     13  C   UNL A   1      31.879  22.275  24.625  1.00  0.00     0.048 A 
ATOM     14  C   UNL A   1      34.150  22.595  23.897  1.00  0.00     0.012 A 
ATOM     15  H   UNL A   1      29.871  22.700  25.043  1.00  0.00     0.167 HD
ATOM     16  C   UNL A   1      32.052  20.887  24.715  1.00  0.00     0.047 A 
ATOM     17  C   UNL A   1      34.354  21.213  24.005  1.00  0.00     0.021 A 
ATOM     18  C   UNL A   1      33.317  20.380  24.414  1.00  0.00     0.043 A 
ATOM     19  Cl  UNL A   1      33.605  18.688  24.573  1.00  0.00    -0.084 Cl
BRANCH  10  20
ATOM     20  C   UNL A   1      30.289  25.409  25.540  1.00  0.00     0.227 C 
ATOM     21  O   UNL A   1      29.994  25.418  26.731  1.00  0.00    -0.285 OA
BRANCH  20  22
ATOM     22  C   UNL A   1      29.638  26.410  24.662  1.00  0.00     0.113 A 
ATOM     23  C   UNL A   1      30.421  27.430  24.141  1.00  0.00     0.036 A 
ATOM     24  N   UNL A   1      28.302  26.290  24.470  1.00  0.00    -0.252 NA
ATOM     25  C   UNL A   1      29.808  28.388  23.333  1.00  0.00    -0.041 A 
ATOM     26  C   UNL A   1      27.744  27.198  23.637  1.00  0.00     0.115 A 
ATOM     27  C   UNL A   1      28.437  28.263  23.057  1.00  0.00    -0.026 A 
ATOM     28  C   UNL A   1      30.610  29.558  22.829  1.00  0.00     0.036 C 
ATOM     29  C   UNL A   1      27.739  29.186  22.093  1.00  0.00     0.037 C 
ATOM     30  C   UNL A   1      29.967  30.257  21.634  1.00  0.00     0.005 C 
ATOM     31  C   UNL A   1      28.484  30.507  21.889  1.00  0.00     0.005 C 
ENDBRANCH  20  22
ENDBRANCH  10  20
ENDBRANCH   8   9
ENDBRANCH   6   8
ENDBRANCH   3   4
ENDBRANCH   2   3
ENDBRANCH   1   2
BRANCH   1  32
ATOM     32  C   UNL A   1      31.941  30.661  26.163  1.00  0.00     0.002 C 
BRANCH  32  33
ATOM     33  C   UNL A   1      31.593  31.973  26.867  1.00  0.00     0.021 C 
BRANCH  33  34
ATOM     34  C   UNL A   1      32.772  32.743  27.455  1.00  0.00     0.116 C 
BRANCH  34  35
ATOM     35  N   UNL A   1      32.458  34.127  27.777  1.00  0.00    -0.352 N 
ATOM     36  C   UNL A   1      33.066  34.971  28.679  1.00  0.00     0.251 C 
ATOM     37  H   UNL A   1      31.701  34.514  27.280  1.00  0.00     0.163 HD
ATOM     38  O   UNL A   1      32.595  36.083  28.886  1.00  0.00    -0.269 OA
BRANCH  36  39
ATOM     39  C   UNL A   1      34.259  34.512  29.430  1.00  0.00     0.039 A 
ATOM     40  C   UNL A   1      35.548  34.753  28.951  1.00  0.00     0.014 A 
ATOM     41  C   UNL A   1      34.078  33.805  30.622  1.00  0.00     0.014 A 
ATOM     42  C   UNL A   1      36.640  34.151  29.573  1.00  0.00     0.010 A 
ATOM     43  C   UNL A   1      35.183  33.262  31.285  1.00  0.00     0.010 A 
ATOM     44  C   UNL A   1      36.469  33.384  30.736  1.00  0.00    -0.014 A 
BRANCH  44  45
ATOM     45  C   UNL A   1      37.644  32.717  31.354  1.00  0.00     0.031 A 
ATOM     46  C   UNL A   1      38.124  33.112  32.726  1.00  0.00     0.074 A 
ATOM     47  C   UNL A   1      38.259  31.716  30.694  1.00  0.00     0.049 A 
ATOM     48  N   UNL A   1      39.102  32.603  33.431  1.00  0.00    -0.248 NA
ATOM     49  C   UNL A   1      37.421  34.219  33.396  1.00  0.00     0.031 C 
ATOM     50  C   UNL A   1      37.906  31.254  29.350  1.00  0.00     0.029 A 
ATOM     51  N   UNL A   1      39.296  30.898  31.066  1.00  0.00    -0.354 N 
ATOM     52  C   UNL A   1      39.158  33.348  34.603  1.00  0.00     0.074 A 
ATOM     53  C   UNL A   1      38.118  34.347  34.518  1.00  0.00     0.031 C 
ATOM     54  C   UNL A   1      38.682  30.209  29.027  1.00  0.00     0.029 A 
ATOM     55  C   UNL A   1      39.614  29.950  30.122  1.00  0.00     0.049 A 
ATOM     56  H   UNL A   1      39.768  30.983  31.926  1.00  0.00     0.167 HD
ATOM     57  C   UNL A   1      39.985  33.197  35.664  1.00  0.00     0.034 A 
ATOM     58  C   UNL A   1      40.544  28.977  30.134  1.00  0.00     0.034 A 
ATOM     59  C   UNL A   1      40.977  32.164  35.783  1.00  0.00     0.049 A 
ATOM     60  C   UNL A   1      41.428  28.813  31.335  1.00  0.00     0.074 A 
ATOM     61  C   UNL A   1      41.822  31.905  36.849  1.00  0.00     0.029 A 
ATOM     62  N   UNL A   1      41.254  31.215  34.812  1.00  0.00    -0.354 N 
ATOM     63  N   UNL A   1      41.407  29.474  32.466  1.00  0.00    -0.248 NA
ATOM     64  C   UNL A   1      42.454  27.762  31.273  1.00  0.00     0.031 C 
ATOM     65  C   UNL A   1      42.609  30.796  36.524  1.00  0.00     0.029 A 
ATOM     66  C   UNL A   1      42.254  30.368  35.255  1.00  0.00     0.049 A 
ATOM     67  H   UNL A   1      40.805  31.152  33.938  1.00  0.00     0.167 HD
ATOM     68  C   UNL A   1      42.406  28.917  33.252  1.00  0.00     0.074 A 
ATOM     69  C   UNL A   1      43.002  27.847  32.479  1.00  0.00     0.031 C 
ATOM     70  C   UNL A   1      42.807  29.277  34.495  1.00  0.00     0.034 A 
BRANCH  57  71
ATOM     71  C   UNL A   1      39.818  34.133  36.829  1.00  0.00     0.023 A 
ATOM     72  C   UNL A   1      40.131  35.495  36.660  1.00  0.00     0.012 A 
ATOM     73  C   UNL A   1      39.255  33.692  38.042  1.00  0.00     0.148 A 
ATOM     74  C   UNL A   1      39.893  36.408  37.687  1.00  0.00     0.002 A 
ATOM     75  C   UNL A   1      39.000  34.612  39.053  1.00  0.00     0.091 A 
ATOM     76  F   UNL A   1      38.980  32.387  38.182  1.00  0.00    -0.205 F 
ATOM     77  C   UNL A   1      39.320  35.969  38.877  1.00  0.00     0.022 A 
BRANCH  75  78
ATOM     78  S   UNL A   1      38.220  34.161  40.608  1.00  0.00     0.127 S 
ATOM     79  O   UNL A   1      36.985  33.529  40.142  1.00  0.00    -0.237 OA
ATOM     80  O   UNL A   1      39.197  33.238  41.185  1.00  0.00    -0.237 OA
ATOM     81  O   UNL A   1      38.042  35.403  41.346  1.00  0.00    -0.744 OA
ENDBRANCH  75  78
ENDBRANCH  57  71
BRANCH  58  82
ATOM     82  C   UNL A   1      40.629  28.042  28.980  1.00  0.00     0.023 A 
ATOM     83  C   UNL A   1      39.699  26.990  28.882  1.00  0.00     0.012 A 
ATOM     84  C   UNL A   1      41.559  28.243  27.943  1.00  0.00     0.148 A 
ATOM     85  C   UNL A   1      39.695  26.151  27.768  1.00  0.00     0.002 A 
ATOM     86  C   UNL A   1      41.521  27.431  26.816  1.00  0.00     0.091 A 
ATOM     87  F   UNL A   1      42.438  29.247  28.067  1.00  0.00    -0.205 F 
ATOM     88  C   UNL A   1      40.595  26.379  26.731  1.00  0.00     0.022 A 
BRANCH  86  89
ATOM     89  S   UNL A   1      42.559  27.722  25.380  1.00  0.00     0.127 S 
ATOM     90  O   UNL A   1      42.390  26.478  24.633  1.00  0.00    -0.237 OA
ATOM     91  O   UNL A   1      41.920  28.894  24.779  1.00  0.00    -0.237 OA
ATOM     92  O   UNL A   1      43.896  27.966  25.901  1.00  0.00    -0.744 OA
ENDBRANCH  86  89
ENDBRANCH  58  82
BRANCH  70  93
ATOM     93  C   UNL A   1      43.949  28.522  35.114  1.00  0.00     0.023 A 
ATOM     94  C   UNL A   1      45.267  28.903  34.801  1.00  0.00     0.012 A 
ATOM     95  C   UNL A   1      43.721  27.533  36.089  1.00  0.00     0.148 A 
ATOM     96  C   UNL A   1      46.348  28.305  35.448  1.00  0.00     0.002 A 
ATOM     97  C   UNL A   1      44.801  26.961  36.751  1.00  0.00     0.091 A 
ATOM     98  F   UNL A   1      42.455  27.183  36.359  1.00  0.00    -0.205 F 
ATOM     99  C   UNL A   1      46.115  27.344  36.429  1.00  0.00     0.022 A 
BRANCH  97 100
ATOM    100  S   UNL A   1      44.603  25.767  38.079  1.00  0.00     0.127 S 
ATOM    101  O   UNL A   1      43.930  24.665  37.391  1.00  0.00    -0.237 OA
ATOM    102  O   UNL A   1      45.990  25.495  38.458  1.00  0.00    -0.237 OA
ATOM    103  O   UNL A   1      43.813  26.434  39.105  1.00  0.00    -0.744 OA
ENDBRANCH  97 100
ENDBRANCH  70  93
ENDBRANCH  44  45
ENDBRANCH  36  39
ENDBRANCH  34  35
ENDBRANCH  33  34
ENDBRANCH  32  33
ENDBRANCH   1  32
TORSDOF 19
ENDMDL
