MODEL 1
REMARK VINA RESULT:     -11.4      0.000      0.000
REMARK SMILES C[C@H](C(=O)NC1CCCC1)[N@H+]1CCn2nc(CCC(=O)NCCCCCCNC(=O)c3ccc(-c4c5nc(c(-c6cccc(S(=O)(=O)[O-])c6F)c6ccc([nH]6)c(-c6cccc(S(=O)(=O)[O-])c6F)c6nc(c(-c7cccc(S(=O)(=O)[O-])c7F)c7ccc4[nH]7)C=C6)C=C5)cc3)cc2C1
REMARK SMILES IDX 23 1 22 2 21 3 19 4 20 5 18 7 17 8 16 9 11 10 12 11 96 12
REMARK SMILES IDX 13 14 95 15 14 16 94 17 15 18 2 19 1 20 3 21 4 22 5 23 6 25
REMARK SMILES IDX 7 26 10 27 8 28 9 29 24 30 25 31 26 32 27 33 28 34 29 35
REMARK SMILES IDX 30 37 31 38 32 39 93 40 33 41 92 42 34 43 35 44 36 45 86 46
REMARK SMILES IDX 37 47 91 48 85 49 87 50 38 51 90 52 84 53 83 54 39 56 71 57
REMARK SMILES IDX 51 58 70 59 52 60 55 61 69 62 88 63 53 64 54 65 68 67 89 68
REMARK SMILES IDX 56 69 40 70 41 71 49 72 42 73 44 74 50 75 43 76 45 77 46 78
REMARK SMILES IDX 47 79 48 80 72 81 73 82 81 83 74 84 76 85 82 86 75 87 77 88
REMARK SMILES IDX 78 89 79 90 80 91 57 92 58 93 66 94 59 95 61 96 67 97 60 98
REMARK SMILES IDX 62 99 63 100 64 101 65 102
REMARK H PARENT 21 6 11 13 5 24 28 36 87 55 55 66
REMARK Flexibility Score: inf
ROOT
ATOM      1  C   UNL A   1      36.305  19.016  25.014  1.00  0.00     0.021 C 
ENDROOT
BRANCH   1   2
ATOM      2  C   UNL A   1      35.321  18.213  24.165  1.00  0.00     0.116 C 
BRANCH   2   3
ATOM      3  N   UNL A   1      34.239  17.675  24.972  1.00  0.00    -0.356 N 
ATOM      4  C   UNL A   1      33.010  18.192  25.257  1.00  0.00     0.220 C 
ATOM      5  O   UNL A   1      32.311  17.586  26.075  1.00  0.00    -0.275 OA
ATOM      6  H   UNL A   1      34.424  16.799  25.378  1.00  0.00     0.163 HD
BRANCH   4   7
ATOM      7  C   UNL A   1      32.463  19.404  24.528  1.00  0.00     0.106 C 
BRANCH   7   8
ATOM      8  C   UNL A   1      32.389  20.666  25.392  1.00  0.00     0.068 C 
BRANCH   8   9
ATOM      9  C   UNL A   1      32.843  21.875  24.651  1.00  0.00     0.063 A 
ATOM     10  N   UNL A   1      32.572  25.857  22.936  1.00  0.00    -0.318 N 
ATOM     11  C   UNL A   1      32.982  25.261  21.650  1.00  0.00     0.287 C 
ATOM     12  C   UNL A   1      33.498  25.407  23.988  1.00  0.00     0.319 C 
ATOM     13  H   UNL A   1      31.628  25.502  23.089  1.00  0.00     0.349 HD
ATOM     14  C   UNL A   1      33.034  23.709  21.670  1.00  0.00     0.206 C 
ATOM     15  C   UNL A   1      33.342  23.953  24.127  1.00  0.00     0.093 A 
ATOM     16  N   UNL A   1      33.155  23.180  23.017  1.00  0.00    -0.258 N 
ATOM     17  C   UNL A   1      33.282  23.103  25.202  1.00  0.00     0.055 A 
ATOM     18  N   UNL A   1      32.771  21.929  23.316  1.00  0.00    -0.177 NA
BRANCH  10  19
ATOM     19  C   UNL A   1      32.298  27.311  22.994  1.00  0.00     0.271 C 
ATOM     20  C   UNL A   1      31.251  27.692  21.945  1.00  0.00     0.086 C 
BRANCH  19  21
ATOM     21  C   UNL A   1      33.520  28.238  22.873  1.00  0.00     0.278 C 
ATOM     22  O   UNL A   1      34.213  28.297  21.855  1.00  0.00    -0.268 OA
ATOM     23  N   UNL A   1      33.827  29.068  23.918  1.00  0.00    -0.348 N 
ATOM     24  H   UNL A   1      34.424  29.824  23.715  1.00  0.00     0.163 HD
BRANCH  23  25
ATOM     25  C   UNL A   1      33.372  28.955  25.286  1.00  0.00     0.082 C 
ATOM     26  C   UNL A   1      34.449  29.266  26.306  1.00  0.00     0.025 C 
ATOM     27  C   UNL A   1      32.278  29.928  25.720  1.00  0.00     0.025 C 
ATOM     28  C   UNL A   1      33.678  29.327  27.606  1.00  0.00     0.002 C 
ATOM     29  C   UNL A   1      32.311  29.882  27.244  1.00  0.00     0.002 C 
ENDBRANCH  23  25
ENDBRANCH  19  21
ENDBRANCH  10  19
ENDBRANCH   8   9
ENDBRANCH   7   8
ENDBRANCH   4   7
ENDBRANCH   2   3
ENDBRANCH   1   2
BRANCH   1  30
ATOM     30  C   UNL A   1      36.115  20.534  25.072  1.00  0.00     0.002 C 
BRANCH  30  31
ATOM     31  C   UNL A   1      37.293  21.403  24.604  1.00  0.00     0.002 C 
BRANCH  31  32
ATOM     32  C   UNL A   1      37.318  22.861  25.082  1.00  0.00     0.021 C 
BRANCH  32  33
ATOM     33  C   UNL A   1      38.235  23.146  26.268  1.00  0.00     0.116 C 
BRANCH  33  34
ATOM     34  N   UNL A   1      39.527  22.474  26.229  1.00  0.00    -0.352 N 
ATOM     35  C   UNL A   1      40.783  23.039  26.412  1.00  0.00     0.251 C 
ATOM     36  H   UNL A   1      39.508  21.506  26.052  1.00  0.00     0.163 HD
ATOM     37  O   UNL A   1      41.778  22.446  26.017  1.00  0.00    -0.269 OA
BRANCH  35  38
ATOM     38  C   UNL A   1      40.930  24.349  27.106  1.00  0.00     0.039 A 
ATOM     39  C   UNL A   1      41.806  24.504  28.190  1.00  0.00     0.014 A 
ATOM     40  C   UNL A   1      40.135  25.423  26.727  1.00  0.00     0.014 A 
ATOM     41  C   UNL A   1      41.885  25.737  28.856  1.00  0.00     0.010 A 
ATOM     42  C   UNL A   1      40.325  26.670  27.277  1.00  0.00     0.010 A 
ATOM     43  C   UNL A   1      41.134  26.828  28.396  1.00  0.00    -0.014 A 
BRANCH  43  44
ATOM     44  C   UNL A   1      41.220  28.161  29.012  1.00  0.00     0.031 A 
ATOM     45  C   UNL A   1      42.208  29.114  28.402  1.00  0.00     0.074 A 
ATOM     46  C   UNL A   1      40.297  28.592  29.911  1.00  0.00     0.049 A 
ATOM     47  N   UNL A   1      43.049  29.893  29.003  1.00  0.00    -0.248 NA
ATOM     48  C   UNL A   1      42.321  29.163  26.932  1.00  0.00     0.031 C 
ATOM     49  C   UNL A   1      39.101  27.887  30.402  1.00  0.00     0.029 A 
ATOM     50  N   UNL A   1      40.133  29.835  30.450  1.00  0.00    -0.354 N 
ATOM     51  C   UNL A   1      43.667  30.654  28.008  1.00  0.00     0.074 A 
ATOM     52  C   UNL A   1      43.271  30.085  26.760  1.00  0.00     0.031 C 
ATOM     53  C   UNL A   1      38.216  28.781  30.895  1.00  0.00     0.029 A 
ATOM     54  C   UNL A   1      38.845  30.085  30.928  1.00  0.00     0.049 A 
ATOM     55  H   UNL A   1      40.860  30.497  30.497  1.00  0.00     0.167 HD
ATOM     56  C   UNL A   1      44.359  31.795  28.273  1.00  0.00     0.034 A 
ATOM     57  C   UNL A   1      38.315  31.284  31.281  1.00  0.00     0.034 A 
ATOM     58  C   UNL A   1      44.839  31.802  29.622  1.00  0.00     0.049 A 
ATOM     59  C   UNL A   1      39.448  32.209  31.492  1.00  0.00     0.074 A 
ATOM     60  C   UNL A   1      45.621  30.928  30.351  1.00  0.00     0.029 A 
ATOM     61  N   UNL A   1      44.172  32.572  30.539  1.00  0.00    -0.354 N 
ATOM     62  N   UNL A   1      40.294  32.093  32.475  1.00  0.00    -0.248 NA
ATOM     63  C   UNL A   1      39.891  33.001  30.357  1.00  0.00     0.031 C 
ATOM     64  C   UNL A   1      44.947  30.828  31.599  1.00  0.00     0.029 A 
ATOM     65  C   UNL A   1      43.883  31.733  31.580  1.00  0.00     0.049 A 
ATOM     66  H   UNL A   1      43.950  33.528  30.465  1.00  0.00     0.167 HD
ATOM     67  C   UNL A   1      41.519  32.387  31.898  1.00  0.00     0.074 A 
ATOM     68  C   UNL A   1      41.201  33.026  30.619  1.00  0.00     0.031 C 
ATOM     69  C   UNL A   1      42.673  31.828  32.359  1.00  0.00     0.034 A 
BRANCH  56  70
ATOM     70  C   UNL A   1      44.347  33.057  27.441  1.00  0.00     0.023 A 
ATOM     71  C   UNL A   1      45.362  33.194  26.466  1.00  0.00     0.012 A 
ATOM     72  C   UNL A   1      43.630  34.223  27.797  1.00  0.00     0.148 A 
ATOM     73  C   UNL A   1      45.705  34.438  25.929  1.00  0.00     0.002 A 
ATOM     74  C   UNL A   1      43.948  35.457  27.226  1.00  0.00     0.091 A 
ATOM     75  F   UNL A   1      42.692  34.151  28.747  1.00  0.00    -0.205 F 
ATOM     76  C   UNL A   1      45.004  35.571  26.316  1.00  0.00     0.022 A 
BRANCH  74  77
ATOM     77  S   UNL A   1      43.112  36.983  27.684  1.00  0.00     0.127 S 
ATOM     78  O   UNL A   1      42.853  36.781  29.108  1.00  0.00    -0.237 OA
ATOM     79  O   UNL A   1      44.137  37.978  27.375  1.00  0.00    -0.237 OA
ATOM     80  O   UNL A   1      41.917  37.031  26.853  1.00  0.00    -0.744 OA
ENDBRANCH  74  77
ENDBRANCH  56  70
BRANCH  57  81
ATOM     81  C   UNL A   1      36.921  31.791  31.266  1.00  0.00     0.023 A 
ATOM     82  C   UNL A   1      36.271  32.065  32.489  1.00  0.00     0.012 A 
ATOM     83  C   UNL A   1      36.342  32.294  30.082  1.00  0.00     0.148 A 
ATOM     84  C   UNL A   1      35.116  32.855  32.538  1.00  0.00     0.002 A 
ATOM     85  C   UNL A   1      35.191  33.077  30.136  1.00  0.00     0.091 A 
ATOM     86  F   UNL A   1      36.976  32.093  28.919  1.00  0.00    -0.205 F 
ATOM     87  C   UNL A   1      34.582  33.371  31.363  1.00  0.00     0.022 A 
BRANCH  85  88
ATOM     88  S   UNL A   1      34.463  33.806  28.663  1.00  0.00     0.127 S 
ATOM     89  O   UNL A   1      34.637  32.740  27.675  1.00  0.00    -0.237 OA
ATOM     90  O   UNL A   1      33.085  34.030  29.087  1.00  0.00    -0.237 OA
ATOM     91  O   UNL A   1      35.255  35.000  28.399  1.00  0.00    -0.744 OA
ENDBRANCH  85  88
ENDBRANCH  57  81
BRANCH  69  92
ATOM     92  C   UNL A   1      42.654  31.034  33.637  1.00  0.00     0.023 A 
ATOM     93  C   UNL A   1      42.681  31.631  34.915  1.00  0.00     0.012 A 
ATOM     94  C   UNL A   1      42.382  29.660  33.537  1.00  0.00     0.148 A 
ATOM     95  C   UNL A   1      42.455  30.866  36.065  1.00  0.00     0.002 A 
ATOM     96  C   UNL A   1      42.096  28.918  34.674  1.00  0.00     0.091 A 
ATOM     97  F   UNL A   1      42.366  29.101  32.317  1.00  0.00    -0.205 F 
ATOM     98  C   UNL A   1      42.144  29.513  35.943  1.00  0.00     0.022 A 
BRANCH  96  99
ATOM     99  S   UNL A   1      41.535  27.221  34.531  1.00  0.00     0.127 S 
ATOM    100  O   UNL A   1      41.263  26.872  35.923  1.00  0.00    -0.237 OA
ATOM    101  O   UNL A   1      40.346  27.344  33.686  1.00  0.00    -0.237 OA
ATOM    102  O   UNL A   1      42.633  26.500  33.898  1.00  0.00    -0.744 OA
ENDBRANCH  96  99
ENDBRANCH  69  92
ENDBRANCH  43  44
ENDBRANCH  35  38
ENDBRANCH  33  34
ENDBRANCH  32  33
ENDBRANCH  31  32
ENDBRANCH  30  31
ENDBRANCH   1  30
TORSDOF 21
ENDMDL
MODEL 2
REMARK VINA RESULT:     -11.3      1.184      2.047
REMARK SMILES C[C@H](C(=O)NC1CCCC1)[N@H+]1CCn2nc(CCC(=O)NCCCCCCNC(=O)c3ccc(-c4c5nc(c(-c6cccc(S(=O)(=O)[O-])c6F)c6ccc([nH]6)c(-c6cccc(S(=O)(=O)[O-])c6F)c6nc(c(-c7cccc(S(=O)(=O)[O-])c7F)c7ccc4[nH]7)C=C6)C=C5)cc3)cc2C1
REMARK SMILES IDX 23 1 22 2 21 3 19 4 20 5 18 7 17 8 16 9 11 10 12 11 96 12
REMARK SMILES IDX 13 14 95 15 14 16 94 17 15 18 2 19 1 20 3 21 4 22 5 23 6 25
REMARK SMILES IDX 7 26 10 27 8 28 9 29 24 30 25 31 26 32 27 33 28 34 29 35
REMARK SMILES IDX 30 37 31 38 32 39 93 40 33 41 92 42 34 43 35 44 36 45 86 46
REMARK SMILES IDX 37 47 91 48 85 49 87 50 38 51 90 52 84 53 83 54 39 56 71 57
REMARK SMILES IDX 51 58 70 59 52 60 55 61 69 62 88 63 53 64 54 65 68 67 89 68
REMARK SMILES IDX 56 69 40 70 41 71 49 72 42 73 44 74 50 75 43 76 45 77 46 78
REMARK SMILES IDX 47 79 48 80 72 81 73 82 81 83 74 84 76 85 82 86 75 87 77 88
REMARK SMILES IDX 78 89 79 90 80 91 57 92 58 93 66 94 59 95 61 96 67 97 60 98
REMARK SMILES IDX 62 99 63 100 64 101 65 102
REMARK H PARENT 21 6 11 13 5 24 28 36 87 55 55 66
REMARK Flexibility Score: inf
ROOT
ATOM      1  C   UNL A   1      34.975  19.858  24.769  1.00  0.00     0.021 C 
ENDROOT
BRANCH   1   2
ATOM      2  C   UNL A   1      33.481  19.697  25.039  1.00  0.00     0.116 C 
BRANCH   2   3
ATOM      3  N   UNL A   1      32.993  20.720  25.949  1.00  0.00    -0.356 N 
ATOM      4  C   UNL A   1      32.342  21.891  25.694  1.00  0.00     0.220 C 
ATOM      5  O   UNL A   1      32.139  22.650  26.645  1.00  0.00    -0.275 OA
ATOM      6  H   UNL A   1      33.159  20.538  26.901  1.00  0.00     0.163 HD
BRANCH   4   7
ATOM      7  C   UNL A   1      31.789  22.216  24.319  1.00  0.00     0.106 C 
BRANCH   7   8
ATOM      8  C   UNL A   1      32.866  22.444  23.255  1.00  0.00     0.068 C 
BRANCH   8   9
ATOM      9  C   UNL A   1      33.395  23.836  23.288  1.00  0.00     0.063 A 
ATOM     10  N   UNL A   1      33.400  28.098  24.128  1.00  0.00    -0.318 N 
ATOM     11  C   UNL A   1      33.713  28.313  22.702  1.00  0.00     0.287 C 
ATOM     12  C   UNL A   1      34.322  27.087  24.672  1.00  0.00     0.319 C 
ATOM     13  H   UNL A   1      32.436  27.766  24.127  1.00  0.00     0.349 HD
ATOM     14  C   UNL A   1      33.635  27.020  21.844  1.00  0.00     0.206 C 
ATOM     15  C   UNL A   1      34.049  25.818  23.982  1.00  0.00     0.093 A 
ATOM     16  N   UNL A   1      33.758  25.818  22.649  1.00  0.00    -0.258 N 
ATOM     17  C   UNL A   1      33.955  24.514  24.396  1.00  0.00     0.055 A 
ATOM     18  N   UNL A   1      33.281  24.637  22.223  1.00  0.00    -0.177 NA
BRANCH  10  19
ATOM     19  C   UNL A   1      33.253  29.276  25.012  1.00  0.00     0.271 C 
ATOM     20  C   UNL A   1      34.046  29.065  26.305  1.00  0.00     0.086 C 
BRANCH  19  21
ATOM     21  C   UNL A   1      31.813  29.700  25.347  1.00  0.00     0.278 C 
ATOM     22  O   UNL A   1      31.542  30.785  25.865  1.00  0.00    -0.268 OA
ATOM     23  N   UNL A   1      30.782  28.862  25.016  1.00  0.00    -0.348 N 
ATOM     24  H   UNL A   1      29.884  29.264  24.987  1.00  0.00     0.163 HD
BRANCH  23  25
ATOM     25  C   UNL A   1      30.868  27.452  24.704  1.00  0.00     0.082 C 
ATOM     26  C   UNL A   1      30.354  26.558  25.815  1.00  0.00     0.025 C 
ATOM     27  C   UNL A   1      30.024  26.964  23.529  1.00  0.00     0.025 C 
ATOM     28  C   UNL A   1      30.314  25.194  25.162  1.00  0.00     0.002 C 
ATOM     29  C   UNL A   1      29.969  25.450  23.705  1.00  0.00     0.002 C 
ENDBRANCH  23  25
ENDBRANCH  19  21
ENDBRANCH  10  19
ENDBRANCH   8   9
ENDBRANCH   7   8
ENDBRANCH   4   7
ENDBRANCH   2   3
ENDBRANCH   1   2
BRANCH   1  30
ATOM     30  C   UNL A   1      35.680  21.069  25.385  1.00  0.00     0.002 C 
BRANCH  30  31
ATOM     31  C   UNL A   1      36.903  21.622  24.637  1.00  0.00     0.002 C 
BRANCH  31  32
ATOM     32  C   UNL A   1      37.387  23.024  25.030  1.00  0.00     0.021 C 
BRANCH  32  33
ATOM     33  C   UNL A   1      38.236  23.092  26.296  1.00  0.00     0.116 C 
BRANCH  33  34
ATOM     34  N   UNL A   1      39.546  22.462  26.199  1.00  0.00    -0.352 N 
ATOM     35  C   UNL A   1      40.790  23.066  26.342  1.00  0.00     0.251 C 
ATOM     36  H   UNL A   1      39.552  21.496  26.010  1.00  0.00     0.163 HD
ATOM     37  O   UNL A   1      41.788  22.509  25.903  1.00  0.00    -0.269 OA
BRANCH  35  38
ATOM     38  C   UNL A   1      40.922  24.371  27.048  1.00  0.00     0.039 A 
ATOM     39  C   UNL A   1      41.696  24.495  28.211  1.00  0.00     0.014 A 
ATOM     40  C   UNL A   1      40.209  25.474  26.595  1.00  0.00     0.014 A 
ATOM     41  C   UNL A   1      41.759  25.726  28.881  1.00  0.00     0.010 A 
ATOM     42  C   UNL A   1      40.394  26.715  27.161  1.00  0.00     0.010 A 
ATOM     43  C   UNL A   1      41.098  26.844  28.351  1.00  0.00    -0.014 A 
BRANCH  43  44
ATOM     44  C   UNL A   1      41.178  28.175  28.974  1.00  0.00     0.031 A 
ATOM     45  C   UNL A   1      42.187  29.123  28.391  1.00  0.00     0.074 A 
ATOM     46  C   UNL A   1      40.235  28.610  29.849  1.00  0.00     0.049 A 
ATOM     47  N   UNL A   1      43.018  29.895  29.016  1.00  0.00    -0.248 NA
ATOM     48  C   UNL A   1      42.338  29.176  26.925  1.00  0.00     0.031 C 
ATOM     49  C   UNL A   1      39.022  27.913  30.308  1.00  0.00     0.029 A 
ATOM     50  N   UNL A   1      40.066  29.853  30.388  1.00  0.00    -0.354 N 
ATOM     51  C   UNL A   1      43.666  30.655  28.039  1.00  0.00     0.074 A 
ATOM     52  C   UNL A   1      43.299  30.091  26.779  1.00  0.00     0.031 C 
ATOM     53  C   UNL A   1      38.131  28.811  30.781  1.00  0.00     0.029 A 
ATOM     54  C   UNL A   1      38.767  30.111  30.834  1.00  0.00     0.049 A 
ATOM     55  H   UNL A   1      40.795  30.510  30.455  1.00  0.00     0.167 HD
ATOM     56  C   UNL A   1      44.359  31.790  28.325  1.00  0.00     0.034 A 
ATOM     57  C   UNL A   1      38.237  31.312  31.175  1.00  0.00     0.034 A 
ATOM     58  C   UNL A   1      44.804  31.790  29.686  1.00  0.00     0.049 A 
ATOM     59  C   UNL A   1      39.370  32.229  31.418  1.00  0.00     0.074 A 
ATOM     60  C   UNL A   1      45.561  30.909  30.432  1.00  0.00     0.029 A 
ATOM     61  N   UNL A   1      44.119  32.563  30.588  1.00  0.00    -0.354 N 
ATOM     62  N   UNL A   1      40.189  32.105  32.422  1.00  0.00    -0.248 NA
ATOM     63  C   UNL A   1      39.847  33.020  30.297  1.00  0.00     0.031 C 
ATOM     64  C   UNL A   1      44.855  30.811  31.662  1.00  0.00     0.029 A 
ATOM     65  C   UNL A   1      43.798  31.723  31.619  1.00  0.00     0.049 A 
ATOM     66  H   UNL A   1      43.905  33.520  30.510  1.00  0.00     0.167 HD
ATOM     67  C   UNL A   1      41.431  32.392  31.877  1.00  0.00     0.074 A 
ATOM     68  C   UNL A   1      41.150  33.036  30.593  1.00  0.00     0.031 C 
ATOM     69  C   UNL A   1      42.569  31.824  32.366  1.00  0.00     0.034 A 
BRANCH  56  70
ATOM     70  C   UNL A   1      44.376  33.054  27.497  1.00  0.00     0.023 A 
ATOM     71  C   UNL A   1      45.438  33.204  26.574  1.00  0.00     0.012 A 
ATOM     72  C   UNL A   1      43.632  34.212  27.818  1.00  0.00     0.148 A 
ATOM     73  C   UNL A   1      45.796  34.453  26.058  1.00  0.00     0.002 A 
ATOM     74  C   UNL A   1      43.967  35.451  27.267  1.00  0.00     0.091 A 
ATOM     75  F   UNL A   1      42.648  34.129  28.721  1.00  0.00    -0.205 F 
ATOM     76  C   UNL A   1      45.066  35.578  26.411  1.00  0.00     0.022 A 
BRANCH  74  77
ATOM     77  S   UNL A   1      43.093  36.968  27.686  1.00  0.00     0.127 S 
ATOM     78  O   UNL A   1      43.815  37.969  26.903  1.00  0.00    -0.237 OA
ATOM     79  O   UNL A   1      41.745  36.664  27.211  1.00  0.00    -0.237 OA
ATOM     80  O   UNL A   1      43.235  37.109  29.128  1.00  0.00    -0.744 OA
ENDBRANCH  74  77
ENDBRANCH  56  70
BRANCH  57  81
ATOM     81  C   UNL A   1      36.846  31.829  31.126  1.00  0.00     0.023 A 
ATOM     82  C   UNL A   1      36.209  32.214  32.326  1.00  0.00     0.012 A 
ATOM     83  C   UNL A   1      36.263  32.233  29.907  1.00  0.00     0.148 A 
ATOM     84  C   UNL A   1      35.061  33.016  32.313  1.00  0.00     0.002 A 
ATOM     85  C   UNL A   1      35.119  33.028  29.901  1.00  0.00     0.091 A 
ATOM     86  F   UNL A   1      36.887  31.925  28.762  1.00  0.00    -0.205 F 
ATOM     87  C   UNL A   1      34.522  33.433  31.101  1.00  0.00     0.022 A 
BRANCH  85  88
ATOM     88  S   UNL A   1      34.386  33.632  28.375  1.00  0.00     0.127 S 
ATOM     89  O   UNL A   1      35.558  33.785  27.511  1.00  0.00    -0.237 OA
ATOM     90  O   UNL A   1      33.496  32.533  28.013  1.00  0.00    -0.237 OA
ATOM     91  O   UNL A   1      33.741  34.888  28.735  1.00  0.00    -0.744 OA
ENDBRANCH  85  88
ENDBRANCH  57  81
BRANCH  69  92
ATOM     92  C   UNL A   1      42.512  31.027  33.641  1.00  0.00     0.023 A 
ATOM     93  C   UNL A   1      42.478  31.621  34.920  1.00  0.00     0.012 A 
ATOM     94  C   UNL A   1      42.266  29.649  33.529  1.00  0.00     0.148 A 
ATOM     95  C   UNL A   1      42.220  30.850  36.059  1.00  0.00     0.002 A 
ATOM     96  C   UNL A   1      41.947  28.900  34.652  1.00  0.00     0.091 A 
ATOM     97  F   UNL A   1      42.308  29.092  32.308  1.00  0.00    -0.205 F 
ATOM     98  C   UNL A   1      41.935  29.493  35.922  1.00  0.00     0.022 A 
BRANCH  96  99
ATOM     99  S   UNL A   1      41.420  27.195  34.484  1.00  0.00     0.127 S 
ATOM    100  O   UNL A   1      40.260  27.319  33.605  1.00  0.00    -0.237 OA
ATOM    101  O   UNL A   1      42.586  26.554  33.873  1.00  0.00    -0.237 OA
ATOM    102  O   UNL A   1      41.143  26.737  35.841  1.00  0.00    -0.744 OA
ENDBRANCH  96  99
ENDBRANCH  69  92
ENDBRANCH  43  44
ENDBRANCH  35  38
ENDBRANCH  33  34
ENDBRANCH  32  33
ENDBRANCH  31  32
ENDBRANCH  30  31
ENDBRANCH   1  30
TORSDOF 21
ENDMDL
MODEL 3
REMARK VINA RESULT:     -11.0      2.111      2.795
REMARK SMILES C[C@H](C(=O)NC1CCCC1)[N@H+]1CCn2nc(CCC(=O)NCCCCCCNC(=O)c3ccc(-c4c5nc(c(-c6cccc(S(=O)(=O)[O-])c6F)c6ccc([nH]6)c(-c6cccc(S(=O)(=O)[O-])c6F)c6nc(c(-c7cccc(S(=O)(=O)[O-])c7F)c7ccc4[nH]7)C=C6)C=C5)cc3)cc2C1
REMARK SMILES IDX 23 1 22 2 21 3 19 4 20 5 18 7 17 8 16 9 11 10 12 11 96 12
REMARK SMILES IDX 13 14 95 15 14 16 94 17 15 18 2 19 1 20 3 21 4 22 5 23 6 25
REMARK SMILES IDX 7 26 10 27 8 28 9 29 24 30 25 31 26 32 27 33 28 34 29 35
REMARK SMILES IDX 30 37 31 38 32 39 93 40 33 41 92 42 34 43 35 44 36 45 86 46
REMARK SMILES IDX 37 47 91 48 85 49 87 50 38 51 90 52 84 53 83 54 39 56 71 57
REMARK SMILES IDX 51 58 70 59 52 60 55 61 69 62 88 63 53 64 54 65 68 67 89 68
REMARK SMILES IDX 56 69 40 70 41 71 49 72 42 73 44 74 50 75 43 76 45 77 46 78
REMARK SMILES IDX 47 79 48 80 72 81 73 82 81 83 74 84 76 85 82 86 75 87 77 88
REMARK SMILES IDX 78 89 79 90 80 91 57 92 58 93 66 94 59 95 61 96 67 97 60 98
REMARK SMILES IDX 62 99 63 100 64 101 65 102
REMARK H PARENT 21 6 11 13 5 24 28 36 87 55 55 66
REMARK Flexibility Score: inf
ROOT
ATOM      1  C   UNL A   1      35.585  20.353  25.022  1.00  0.00     0.021 C 
ENDROOT
BRANCH   1   2
ATOM      2  C   UNL A   1      34.189  19.882  24.622  1.00  0.00     0.116 C 
BRANCH   2   3
ATOM      3  N   UNL A   1      33.156  20.695  25.243  1.00  0.00    -0.356 N 
ATOM      4  C   UNL A   1      32.312  21.618  24.698  1.00  0.00     0.220 C 
ATOM      5  O   UNL A   1      31.599  22.266  25.469  1.00  0.00    -0.275 OA
ATOM      6  H   UNL A   1      33.050  20.559  26.211  1.00  0.00     0.163 HD
BRANCH   4   7
ATOM      7  C   UNL A   1      32.166  21.780  23.197  1.00  0.00     0.106 C 
BRANCH   7   8
ATOM      8  C   UNL A   1      33.231  22.680  22.563  1.00  0.00     0.068 C 
BRANCH   8   9
ATOM      9  C   UNL A   1      33.048  24.109  22.939  1.00  0.00     0.063 A 
ATOM     10  N   UNL A   1      32.509  27.517  25.578  1.00  0.00    -0.318 N 
ATOM     11  C   UNL A   1      31.322  27.869  24.775  1.00  0.00     0.287 C 
ATOM     12  C   UNL A   1      33.642  27.269  24.673  1.00  0.00     0.319 C 
ATOM     13  H   UNL A   1      32.233  26.671  26.077  1.00  0.00     0.349 HD
ATOM     14  C   UNL A   1      30.931  26.786  23.733  1.00  0.00     0.206 C 
ATOM     15  C   UNL A   1      33.315  26.088  23.861  1.00  0.00     0.093 A 
ATOM     16  N   UNL A   1      32.039  25.905  23.411  1.00  0.00    -0.258 N 
ATOM     17  C   UNL A   1      34.030  24.993  23.446  1.00  0.00     0.055 A 
ATOM     18  N   UNL A   1      31.836  24.674  22.917  1.00  0.00    -0.177 NA
BRANCH  10  19
ATOM     19  C   UNL A   1      32.871  28.372  26.731  1.00  0.00     0.271 C 
ATOM     20  C   UNL A   1      31.780  28.300  27.803  1.00  0.00     0.086 C 
BRANCH  19  21
ATOM     21  C   UNL A   1      33.193  29.842  26.412  1.00  0.00     0.278 C 
ATOM     22  O   UNL A   1      32.434  30.564  25.762  1.00  0.00    -0.268 OA
ATOM     23  N   UNL A   1      34.346  30.389  26.907  1.00  0.00    -0.348 N 
ATOM     24  H   UNL A   1      34.391  31.373  26.924  1.00  0.00     0.163 HD
BRANCH  23  25
ATOM     25  C   UNL A   1      35.505  29.682  27.408  1.00  0.00     0.082 C 
ATOM     26  C   UNL A   1      36.798  30.457  27.248  1.00  0.00     0.025 C 
ATOM     27  C   UNL A   1      35.527  29.391  28.906  1.00  0.00     0.025 C 
ATOM     28  C   UNL A   1      37.784  29.639  28.053  1.00  0.00     0.002 C 
ATOM     29  C   UNL A   1      36.984  29.055  29.205  1.00  0.00     0.002 C 
ENDBRANCH  23  25
ENDBRANCH  19  21
ENDBRANCH  10  19
ENDBRANCH   8   9
ENDBRANCH   7   8
ENDBRANCH   4   7
ENDBRANCH   2   3
ENDBRANCH   1   2
BRANCH   1  30
ATOM     30  C   UNL A   1      35.953  21.810  24.728  1.00  0.00     0.002 C 
BRANCH  30  31
ATOM     31  C   UNL A   1      35.705  22.832  25.849  1.00  0.00     0.002 C 
BRANCH  31  32
ATOM     32  C   UNL A   1      36.731  23.964  26.001  1.00  0.00     0.021 C 
BRANCH  32  33
ATOM     33  C   UNL A   1      38.142  23.636  25.522  1.00  0.00     0.116 C 
BRANCH  33  34
ATOM     34  N   UNL A   1      38.837  22.614  26.292  1.00  0.00    -0.352 N 
ATOM     35  C   UNL A   1      39.892  22.792  27.180  1.00  0.00     0.251 C 
ATOM     36  H   UNL A   1      38.523  21.689  26.170  1.00  0.00     0.163 HD
ATOM     37  O   UNL A   1      40.593  21.837  27.487  1.00  0.00    -0.269 OA
BRANCH  35  38
ATOM     38  C   UNL A   1      40.159  24.128  27.781  1.00  0.00     0.039 A 
ATOM     39  C   UNL A   1      39.117  25.028  28.049  1.00  0.00     0.014 A 
ATOM     40  C   UNL A   1      41.469  24.530  28.014  1.00  0.00     0.014 A 
ATOM     41  C   UNL A   1      39.406  26.299  28.567  1.00  0.00     0.010 A 
ATOM     42  C   UNL A   1      41.739  25.712  28.665  1.00  0.00     0.010 A 
ATOM     43  C   UNL A   1      40.730  26.644  28.874  1.00  0.00    -0.014 A 
BRANCH  43  44
ATOM     44  C   UNL A   1      41.088  27.937  29.477  1.00  0.00     0.031 A 
ATOM     45  C   UNL A   1      41.988  28.824  28.664  1.00  0.00     0.074 A 
ATOM     46  C   UNL A   1      40.453  28.410  30.580  1.00  0.00     0.049 A 
ATOM     47  N   UNL A   1      43.020  29.500  29.059  1.00  0.00    -0.248 NA
ATOM     48  C   UNL A   1      41.751  28.924  27.212  1.00  0.00     0.031 C 
ATOM     49  C   UNL A   1      39.348  27.794  31.333  1.00  0.00     0.029 A 
ATOM     50  N   UNL A   1      40.543  29.639  31.167  1.00  0.00    -0.354 N 
ATOM     51  C   UNL A   1      43.452  30.244  27.959  1.00  0.00     0.074 A 
ATOM     52  C   UNL A   1      42.716  29.765  26.833  1.00  0.00     0.031 C 
ATOM     53  C   UNL A   1      38.696  28.740  32.043  1.00  0.00     0.029 A 
ATOM     54  C   UNL A   1      39.437  29.981  31.948  1.00  0.00     0.049 A 
ATOM     55  H   UNL A   1      41.320  30.232  31.050  1.00  0.00     0.167 HD
ATOM     56  C   UNL A   1      44.293  31.307  28.070  1.00  0.00     0.034 A 
ATOM     57  C   UNL A   1      39.124  31.207  32.442  1.00  0.00     0.034 A 
ATOM     58  C   UNL A   1      45.080  31.215  29.263  1.00  0.00     0.049 A 
ATOM     59  C   UNL A   1      40.358  32.018  32.391  1.00  0.00     0.074 A 
ATOM     60  C   UNL A   1      45.926  30.246  29.764  1.00  0.00     0.029 A 
ATOM     61  N   UNL A   1      44.729  32.002  30.329  1.00  0.00    -0.354 N 
ATOM     62  N   UNL A   1      41.399  31.787  33.137  1.00  0.00    -0.248 NA
ATOM     63  C   UNL A   1      40.590  32.815  31.197  1.00  0.00     0.031 C 
ATOM     64  C   UNL A   1      45.564  30.154  31.136  1.00  0.00     0.029 A 
ATOM     65  C   UNL A   1      44.619  31.149  31.393  1.00  0.00     0.049 A 
ATOM     66  H   UNL A   1      44.588  32.976  30.329  1.00  0.00     0.167 HD
ATOM     67  C   UNL A   1      42.473  31.995  32.286  1.00  0.00     0.074 A 
ATOM     68  C   UNL A   1      41.921  32.713  31.135  1.00  0.00     0.031 C 
ATOM     69  C   UNL A   1      43.645  31.318  32.443  1.00  0.00     0.034 A 
BRANCH  56  70
ATOM     70  C   UNL A   1      44.203  32.599  27.291  1.00  0.00     0.023 A 
ATOM     71  C   UNL A   1      45.140  32.787  26.248  1.00  0.00     0.012 A 
ATOM     72  C   UNL A   1      43.502  33.741  27.744  1.00  0.00     0.148 A 
ATOM     73  C   UNL A   1      45.427  34.055  25.735  1.00  0.00     0.002 A 
ATOM     74  C   UNL A   1      43.762  34.999  27.199  1.00  0.00     0.091 A 
ATOM     75  F   UNL A   1      42.640  33.620  28.759  1.00  0.00    -0.205 F 
ATOM     76  C   UNL A   1      44.745  35.163  26.216  1.00  0.00     0.022 A 
BRANCH  74  77
ATOM     77  S   UNL A   1      42.945  36.495  27.776  1.00  0.00     0.127 S 
ATOM     78  O   UNL A   1      41.532  36.148  27.647  1.00  0.00    -0.237 OA
ATOM     79  O   UNL A   1      43.439  36.581  29.149  1.00  0.00    -0.237 OA
ATOM     80  O   UNL A   1      43.394  37.550  26.879  1.00  0.00    -0.744 OA
ENDBRANCH  74  77
ENDBRANCH  56  70
BRANCH  57  81
ATOM     81  C   UNL A   1      37.822  31.835  32.775  1.00  0.00     0.023 A 
ATOM     82  C   UNL A   1      37.581  32.270  34.096  1.00  0.00     0.012 A 
ATOM     83  C   UNL A   1      36.952  32.287  31.761  1.00  0.00     0.148 A 
ATOM     84  C   UNL A   1      36.543  33.162  34.390  1.00  0.00     0.002 A 
ATOM     85  C   UNL A   1      35.918  33.173  32.060  1.00  0.00     0.091 A 
ATOM     86  F   UNL A   1      37.200  31.931  30.493  1.00  0.00    -0.205 F 
ATOM     87  C   UNL A   1      35.719  33.624  33.371  1.00  0.00     0.022 A 
BRANCH  85  88
ATOM     88  S   UNL A   1      34.835  33.838  30.789  1.00  0.00     0.127 S 
ATOM     89  O   UNL A   1      35.789  34.275  29.770  1.00  0.00    -0.237 OA
ATOM     90  O   UNL A   1      34.044  32.666  30.426  1.00  0.00    -0.237 OA
ATOM     91  O   UNL A   1      34.112  34.924  31.436  1.00  0.00    -0.744 OA
ENDBRANCH  85  88
ENDBRANCH  57  81
BRANCH  69  92
ATOM     92  C   UNL A   1      43.856  30.476  33.672  1.00  0.00     0.023 A 
ATOM     93  C   UNL A   1      43.439  29.132  33.766  1.00  0.00     0.012 A 
ATOM     94  C   UNL A   1      44.694  30.995  34.672  1.00  0.00     0.148 A 
ATOM     95  C   UNL A   1      43.837  28.334  34.844  1.00  0.00     0.002 A 
ATOM     96  C   UNL A   1      45.139  30.184  35.705  1.00  0.00     0.091 A 
ATOM     97  F   UNL A   1      45.080  32.278  34.576  1.00  0.00    -0.205 F 
ATOM     98  C   UNL A   1      44.703  28.854  35.803  1.00  0.00     0.022 A 
BRANCH  96  99
ATOM     99  S   UNL A   1      46.377  30.779  36.857  1.00  0.00     0.127 S 
ATOM    100  O   UNL A   1      46.635  29.592  37.667  1.00  0.00    -0.237 OA
ATOM    101  O   UNL A   1      47.478  31.170  35.974  1.00  0.00    -0.237 OA
ATOM    102  O   UNL A   1      45.755  31.901  37.552  1.00  0.00    -0.744 OA
ENDBRANCH  96  99
ENDBRANCH  69  92
ENDBRANCH  43  44
ENDBRANCH  35  38
ENDBRANCH  33  34
ENDBRANCH  32  33
ENDBRANCH  31  32
ENDBRANCH  30  31
ENDBRANCH   1  30
TORSDOF 21
ENDMDL
