MODEL 1
REMARK VINA RESULT:     -12.3      0.000      0.000
REMARK SMILES Cc1ccccc1NC(=O)NC[C@@H]1CC[C@@H](C(=O)NCCCCCCNC(=O)c2ccc(-c3c4nc(c(-c5cccc(S(=O)(=O)[O-])c5F)c5ccc([nH]5)c(-c5cccc(S(=O)(=O)[O-])c5F)c5nc(c(-c6cccc(S(=O)(=O)[O-])c6F)c6ccc3[nH]6)C=C5)C=C4)cc2)O1
REMARK SMILES IDX 22 1 21 2 20 3 19 4 17 5 18 6 16 8 13 9 14 10 92 11 15 12
REMARK SMILES IDX 12 13 11 14 8 15 9 16 10 18 7 20 1 21 2 22 3 23 4 24 6 25
REMARK SMILES IDX 5 26 23 27 24 28 25 29 26 30 27 31 28 33 29 34 30 35 91 36
REMARK SMILES IDX 31 37 90 38 32 39 33 40 34 41 84 42 35 43 89 44 83 45 85 46
REMARK SMILES IDX 36 47 88 48 82 49 81 50 37 52 69 53 49 54 68 55 50 56 53 57
REMARK SMILES IDX 67 58 86 59 51 60 52 61 66 63 87 64 54 65 38 66 39 67 47 68
REMARK SMILES IDX 40 69 42 70 48 71 41 72 43 73 44 74 45 75 46 76 70 77 71 78
REMARK SMILES IDX 79 79 72 80 74 81 80 82 73 83 75 84 76 85 77 86 78 87 55 88
REMARK SMILES IDX 56 89 64 90 57 91 59 92 65 93 58 94 60 95 61 96 62 97 63 98
REMARK H PARENT 19 7 8 17 11 19 26 32 85 51 53 62
REMARK Flexibility Score: inf
ROOT
ATOM      1  C   UNL A   1      35.729  23.663  24.774  1.00  0.00     0.002 C 
ENDROOT
BRANCH   1   2
ATOM      2  C   UNL A   1      34.785  24.824  25.120  1.00  0.00     0.021 C 
BRANCH   2   3
ATOM      3  C   UNL A   1      33.534  24.416  25.902  1.00  0.00     0.116 C 
BRANCH   3   4
ATOM      4  N   UNL A   1      33.266  23.000  25.771  1.00  0.00    -0.354 N 
ATOM      5  C   UNL A   1      32.391  22.334  24.964  1.00  0.00     0.249 C 
ATOM      6  O   UNL A   1      32.357  21.105  25.076  1.00  0.00    -0.272 OA
ATOM      7  H   UNL A   1      33.803  22.423  26.361  1.00  0.00     0.163 HD
BRANCH   5   8
ATOM      8  C   UNL A   1      31.565  23.091  23.901  1.00  0.00     0.207 C 
ATOM      9  C   UNL A   1      30.888  25.351  23.939  1.00  0.00     0.138 C 
ATOM     10  C   UNL A   1      31.483  25.057  22.581  1.00  0.00     0.037 C 
ATOM     11  O   UNL A   1      30.676  24.045  24.521  1.00  0.00    -0.363 OA
ATOM     12  C   UNL A   1      32.364  23.871  22.872  1.00  0.00     0.045 C 
BRANCH   9  13
ATOM     13  C   UNL A   1      29.548  26.103  23.920  1.00  0.00     0.149 C 
BRANCH  13  14
ATOM     14  N   UNL A   1      29.572  27.318  23.127  1.00  0.00    -0.335 N 
ATOM     15  N   UNL A   1      31.235  28.970  23.705  1.00  0.00    -0.308 N 
ATOM     16  C   UNL A   1      30.248  28.444  22.988  1.00  0.00     0.319 C 
ATOM     17  H   UNL A   1      31.497  29.821  23.284  1.00  0.00     0.171 HD
ATOM     18  O   UNL A   1      29.879  29.144  22.030  1.00  0.00    -0.249 OA
ATOM     19  H   UNL A   1      28.837  27.296  22.473  1.00  0.00     0.165 HD
BRANCH  15  20
ATOM     20  C   UNL A   1      32.050  28.778  24.834  1.00  0.00     0.045 A 
ATOM     21  C   UNL A   1      34.132  28.385  23.318  1.00  0.00     0.046 C 
ATOM     22  C   UNL A   1      33.440  28.556  24.649  1.00  0.00    -0.027 A 
ATOM     23  C   UNL A   1      34.295  28.462  25.772  1.00  0.00     0.005 A 
ATOM     24  C   UNL A   1      33.800  28.556  27.065  1.00  0.00     0.000 A 
ATOM     25  C   UNL A   1      31.586  28.798  26.142  1.00  0.00     0.026 A 
ATOM     26  C   UNL A   1      32.439  28.705  27.249  1.00  0.00     0.002 A 
ENDBRANCH  15  20
ENDBRANCH  13  14
ENDBRANCH   9  13
ENDBRANCH   5   8
ENDBRANCH   3   4
ENDBRANCH   2   3
ENDBRANCH   1   2
BRANCH   1  27
ATOM     27  C   UNL A   1      37.145  23.740  25.366  1.00  0.00     0.002 C 
BRANCH  27  28
ATOM     28  C   UNL A   1      38.024  22.502  25.164  1.00  0.00     0.021 C 
BRANCH  28  29
ATOM     29  C   UNL A   1      38.857  22.130  26.386  1.00  0.00     0.116 C 
BRANCH  29  30
ATOM     30  N   UNL A   1      40.292  22.275  26.171  1.00  0.00    -0.352 N 
ATOM     31  C   UNL A   1      41.056  23.427  26.210  1.00  0.00     0.251 C 
ATOM     32  H   UNL A   1      40.781  21.443  25.972  1.00  0.00     0.163 HD
ATOM     33  O   UNL A   1      42.250  23.382  25.930  1.00  0.00    -0.269 OA
BRANCH  31  34
ATOM     34  C   UNL A   1      40.420  24.677  26.683  1.00  0.00     0.039 A 
ATOM     35  C   UNL A   1      40.787  25.881  26.070  1.00  0.00     0.014 A 
ATOM     36  C   UNL A   1      39.678  24.673  27.862  1.00  0.00     0.014 A 
ATOM     37  C   UNL A   1      40.615  27.078  26.764  1.00  0.00     0.010 A 
ATOM     38  C   UNL A   1      39.581  25.846  28.583  1.00  0.00     0.010 A 
ATOM     39  C   UNL A   1      40.118  27.034  28.066  1.00  0.00    -0.014 A 
BRANCH  39  40
ATOM     40  C   UNL A   1      40.246  28.126  29.024  1.00  0.00     0.031 A 
ATOM     41  C   UNL A   1      39.344  29.295  28.974  1.00  0.00     0.074 A 
ATOM     42  C   UNL A   1      41.114  27.995  30.051  1.00  0.00     0.049 A 
ATOM     43  N   UNL A   1      39.545  30.394  29.620  1.00  0.00    -0.248 NA
ATOM     44  C   UNL A   1      38.175  29.339  28.108  1.00  0.00     0.031 C 
ATOM     45  C   UNL A   1      41.106  28.739  31.307  1.00  0.00     0.029 A 
ATOM     46  N   UNL A   1      42.343  27.323  30.057  1.00  0.00    -0.354 N 
ATOM     47  C   UNL A   1      38.421  31.177  29.474  1.00  0.00     0.074 A 
ATOM     48  C   UNL A   1      37.667  30.531  28.429  1.00  0.00     0.031 C 
ATOM     49  C   UNL A   1      42.344  28.730  31.817  1.00  0.00     0.029 A 
ATOM     50  C   UNL A   1      43.212  28.112  30.831  1.00  0.00     0.049 A 
ATOM     51  H   UNL A   1      42.555  26.472  29.611  1.00  0.00     0.167 HD
ATOM     52  C   UNL A   1      38.209  32.197  30.355  1.00  0.00     0.034 A 
ATOM     53  C   UNL A   1      44.392  28.625  30.385  1.00  0.00     0.034 A 
ATOM     54  C   UNL A   1      39.418  32.463  31.152  1.00  0.00     0.049 A 
ATOM     55  C   UNL A   1      44.505  30.129  30.543  1.00  0.00     0.074 A 
ATOM     56  C   UNL A   1      39.799  32.152  32.446  1.00  0.00     0.029 A 
ATOM     57  N   UNL A   1      40.553  32.959  30.517  1.00  0.00    -0.354 N 
ATOM     58  N   UNL A   1      43.528  30.904  30.927  1.00  0.00    -0.248 NA
ATOM     59  C   UNL A   1      45.718  30.883  30.236  1.00  0.00     0.031 C 
ATOM     60  C   UNL A   1      41.198  32.378  32.557  1.00  0.00     0.029 A 
ATOM     61  C   UNL A   1      41.662  32.855  31.341  1.00  0.00     0.049 A 
ATOM     62  H   UNL A   1      40.566  33.333  29.607  1.00  0.00     0.167 HD
ATOM     63  C   UNL A   1      43.892  32.218  30.769  1.00  0.00     0.074 A 
ATOM     64  C   UNL A   1      45.304  32.148  30.429  1.00  0.00     0.031 C 
ATOM     65  C   UNL A   1      42.982  33.238  30.850  1.00  0.00     0.034 A 
BRANCH  52  66
ATOM     66  C   UNL A   1      36.855  32.815  30.703  1.00  0.00     0.023 A 
ATOM     67  C   UNL A   1      36.326  32.534  31.986  1.00  0.00     0.012 A 
ATOM     68  C   UNL A   1      35.997  33.545  29.845  1.00  0.00     0.148 A 
ATOM     69  C   UNL A   1      35.021  32.880  32.363  1.00  0.00     0.002 A 
ATOM     70  C   UNL A   1      34.691  33.886  30.212  1.00  0.00     0.091 A 
ATOM     71  F   UNL A   1      36.416  33.935  28.646  1.00  0.00    -0.205 F 
ATOM     72  C   UNL A   1      34.193  33.543  31.468  1.00  0.00     0.022 A 
BRANCH  70  73
ATOM     73  S   UNL A   1      33.559  34.723  29.082  1.00  0.00     0.127 S 
ATOM     74  O   UNL A   1      33.200  33.646  28.158  1.00  0.00    -0.237 OA
ATOM     75  O   UNL A   1      32.481  35.145  29.975  1.00  0.00    -0.237 OA
ATOM     76  O   UNL A   1      34.308  35.815  28.471  1.00  0.00    -0.744 OA
ENDBRANCH  70  73
ENDBRANCH  52  66
BRANCH  53  77
ATOM     77  C   UNL A   1      45.056  27.819  29.325  1.00  0.00     0.023 A 
ATOM     78  C   UNL A   1      45.632  26.590  29.722  1.00  0.00     0.012 A 
ATOM     79  C   UNL A   1      44.826  28.052  27.958  1.00  0.00     0.148 A 
ATOM     80  C   UNL A   1      45.883  25.579  28.794  1.00  0.00     0.002 A 
ATOM     81  C   UNL A   1      45.069  27.033  27.037  1.00  0.00     0.091 A 
ATOM     82  F   UNL A   1      44.300  29.226  27.589  1.00  0.00    -0.205 F 
ATOM     83  C   UNL A   1      45.575  25.792  27.455  1.00  0.00     0.022 A 
BRANCH  81  84
ATOM     84  S   UNL A   1      44.604  27.185  25.306  1.00  0.00     0.127 S 
ATOM     85  O   UNL A   1      45.817  27.754  24.726  1.00  0.00    -0.237 OA
ATOM     86  O   UNL A   1      44.334  25.796  24.936  1.00  0.00    -0.237 OA
ATOM     87  O   UNL A   1      43.426  28.039  25.310  1.00  0.00    -0.744 OA
ENDBRANCH  81  84
ENDBRANCH  53  77
BRANCH  65  88
ATOM     88  C   UNL A   1      43.238  34.680  30.440  1.00  0.00     0.023 A 
ATOM     89  C   UNL A   1      43.593  35.678  31.370  1.00  0.00     0.012 A 
ATOM     90  C   UNL A   1      43.279  35.053  29.072  1.00  0.00     0.148 A 
ATOM     91  C   UNL A   1      43.908  36.985  30.979  1.00  0.00     0.002 A 
ATOM     92  C   UNL A   1      43.692  36.327  28.681  1.00  0.00     0.091 A 
ATOM     93  F   UNL A   1      42.904  34.175  28.127  1.00  0.00    -0.205 F 
ATOM     94  C   UNL A   1      43.979  37.307  29.632  1.00  0.00     0.022 A 
BRANCH  92  95
ATOM     95  S   UNL A   1      44.014  36.686  26.946  1.00  0.00     0.127 S 
ATOM     96  O   UNL A   1      45.150  35.817  26.655  1.00  0.00    -0.237 OA
ATOM     97  O   UNL A   1      42.764  36.290  26.294  1.00  0.00    -0.237 OA
ATOM     98  O   UNL A   1      44.267  38.122  26.917  1.00  0.00    -0.744 OA
ENDBRANCH  92  95
ENDBRANCH  65  88
ENDBRANCH  39  40
ENDBRANCH  31  34
ENDBRANCH  29  30
ENDBRANCH  28  29
ENDBRANCH  27  28
ENDBRANCH   1  27
TORSDOF 19
ENDMDL
MODEL 2
REMARK VINA RESULT:     -12.2      3.937      9.282
REMARK SMILES Cc1ccccc1NC(=O)NC[C@@H]1CC[C@@H](C(=O)NCCCCCCNC(=O)c2ccc(-c3c4nc(c(-c5cccc(S(=O)(=O)[O-])c5F)c5ccc([nH]5)c(-c5cccc(S(=O)(=O)[O-])c5F)c5nc(c(-c6cccc(S(=O)(=O)[O-])c6F)c6ccc3[nH]6)C=C5)C=C4)cc2)O1
REMARK SMILES IDX 22 1 21 2 20 3 19 4 17 5 18 6 16 8 13 9 14 10 92 11 15 12
REMARK SMILES IDX 12 13 11 14 8 15 9 16 10 18 7 20 1 21 2 22 3 23 4 24 6 25
REMARK SMILES IDX 5 26 23 27 24 28 25 29 26 30 27 31 28 33 29 34 30 35 91 36
REMARK SMILES IDX 31 37 90 38 32 39 33 40 34 41 84 42 35 43 89 44 83 45 85 46
REMARK SMILES IDX 36 47 88 48 82 49 81 50 37 52 69 53 49 54 68 55 50 56 53 57
REMARK SMILES IDX 67 58 86 59 51 60 52 61 66 63 87 64 54 65 38 66 39 67 47 68
REMARK SMILES IDX 40 69 42 70 48 71 41 72 43 73 44 74 45 75 46 76 70 77 71 78
REMARK SMILES IDX 79 79 72 80 74 81 80 82 73 83 75 84 76 85 77 86 78 87 55 88
REMARK SMILES IDX 56 89 64 90 57 91 59 92 65 93 58 94 60 95 61 96 62 97 63 98
REMARK H PARENT 19 7 8 17 11 19 26 32 85 51 53 62
REMARK Flexibility Score: inf
ROOT
ATOM      1  C   UNL A   1      32.938  29.582  24.708  1.00  0.00     0.002 C 
ENDROOT
BRANCH   1   2
ATOM      2  C   UNL A   1      32.574  28.764  23.460  1.00  0.00     0.021 C 
BRANCH   2   3
ATOM      3  C   UNL A   1      33.733  27.958  22.867  1.00  0.00     0.116 C 
BRANCH   3   4
ATOM      4  N   UNL A   1      33.292  27.132  21.764  1.00  0.00    -0.354 N 
ATOM      5  C   UNL A   1      33.158  25.778  21.668  1.00  0.00     0.249 C 
ATOM      6  O   UNL A   1      32.774  25.333  20.583  1.00  0.00    -0.272 OA
ATOM      7  H   UNL A   1      33.051  27.628  20.948  1.00  0.00     0.163 HD
BRANCH   5   8
ATOM      8  C   UNL A   1      33.386  24.873  22.899  1.00  0.00     0.207 C 
ATOM      9  C   UNL A   1      33.334  22.516  22.988  1.00  0.00     0.138 C 
ATOM     10  C   UNL A   1      34.582  22.990  23.697  1.00  0.00     0.037 C 
ATOM     11  O   UNL A   1      32.531  23.709  22.850  1.00  0.00    -0.363 OA
ATOM     12  C   UNL A   1      34.799  24.347  23.083  1.00  0.00     0.045 C 
BRANCH   9  13
ATOM     13  C   UNL A   1      32.514  21.456  23.739  1.00  0.00     0.149 C 
BRANCH  13  14
ATOM     14  N   UNL A   1      33.064  21.102  25.034  1.00  0.00    -0.335 N 
ATOM     15  N   UNL A   1      32.784  22.704  26.819  1.00  0.00    -0.308 N 
ATOM     16  C   UNL A   1      33.150  21.549  26.274  1.00  0.00     0.319 C 
ATOM     17  H   UNL A   1      32.996  22.667  27.780  1.00  0.00     0.171 HD
ATOM     18  O   UNL A   1      33.691  20.757  27.064  1.00  0.00    -0.249 OA
ATOM     19  H   UNL A   1      33.531  20.238  24.966  1.00  0.00     0.165 HD
BRANCH  15  20
ATOM     20  C   UNL A   1      32.208  23.958  26.550  1.00  0.00     0.045 A 
ATOM     21  C   UNL A   1      29.821  22.916  26.577  1.00  0.00     0.046 C 
ATOM     22  C   UNL A   1      30.794  24.067  26.492  1.00  0.00    -0.027 A 
ATOM     23  C   UNL A   1      30.191  25.335  26.324  1.00  0.00     0.005 A 
ATOM     24  C   UNL A   1      30.956  26.486  26.187  1.00  0.00     0.000 A 
ATOM     25  C   UNL A   1      32.937  25.120  26.342  1.00  0.00     0.026 A 
ATOM     26  C   UNL A   1      32.333  26.374  26.177  1.00  0.00     0.002 A 
ENDBRANCH  15  20
ENDBRANCH  13  14
ENDBRANCH   9  13
ENDBRANCH   5   8
ENDBRANCH   3   4
ENDBRANCH   2   3
ENDBRANCH   1   2
BRANCH   1  27
ATOM     27  C   UNL A   1      31.761  30.071  25.567  1.00  0.00     0.002 C 
BRANCH  27  28
ATOM     28  C   UNL A   1      32.085  30.386  27.031  1.00  0.00     0.021 C 
BRANCH  28  29
ATOM     29  C   UNL A   1      33.553  30.197  27.393  1.00  0.00     0.116 C 
BRANCH  29  30
ATOM     30  N   UNL A   1      34.109  31.315  28.146  1.00  0.00    -0.352 N 
ATOM     31  C   UNL A   1      35.281  31.361  28.880  1.00  0.00     0.251 C 
ATOM     32  H   UNL A   1      33.581  32.146  28.129  1.00  0.00     0.163 HD
ATOM     33  O   UNL A   1      35.565  32.369  29.520  1.00  0.00    -0.269 OA
BRANCH  31  34
ATOM     34  C   UNL A   1      36.209  30.212  28.796  1.00  0.00     0.039 A 
ATOM     35  C   UNL A   1      36.608  29.593  29.986  1.00  0.00     0.014 A 
ATOM     36  C   UNL A   1      36.852  29.929  27.593  1.00  0.00     0.014 A 
ATOM     37  C   UNL A   1      37.802  28.873  30.013  1.00  0.00     0.010 A 
ATOM     38  C   UNL A   1      38.073  29.286  27.636  1.00  0.00     0.010 A 
ATOM     39  C   UNL A   1      38.582  28.826  28.859  1.00  0.00    -0.014 A 
BRANCH  39  40
ATOM     40  C   UNL A   1      39.993  28.456  28.845  1.00  0.00     0.031 A 
ATOM     41  C   UNL A   1      40.411  27.047  28.688  1.00  0.00     0.074 A 
ATOM     42  C   UNL A   1      40.925  29.434  28.837  1.00  0.00     0.049 A 
ATOM     43  N   UNL A   1      41.608  26.618  28.905  1.00  0.00    -0.248 NA
ATOM     44  C   UNL A   1      39.469  25.989  28.352  1.00  0.00     0.031 C 
ATOM     45  C   UNL A   1      42.318  29.316  28.417  1.00  0.00     0.029 A 
ATOM     46  N   UNL A   1      40.856  30.690  29.452  1.00  0.00    -0.354 N 
ATOM     47  C   UNL A   1      41.665  25.306  28.489  1.00  0.00     0.074 A 
ATOM     48  C   UNL A   1      40.288  24.937  28.279  1.00  0.00     0.031 C 
ATOM     49  C   UNL A   1      43.029  30.279  29.018  1.00  0.00     0.029 A 
ATOM     50  C   UNL A   1      42.144  30.946  29.956  1.00  0.00     0.049 A 
ATOM     51  H   UNL A   1      40.067  31.276  29.518  1.00  0.00     0.167 HD
ATOM     52  C   UNL A   1      42.884  24.743  28.244  1.00  0.00     0.034 A 
ATOM     53  C   UNL A   1      42.425  31.198  31.265  1.00  0.00     0.034 A 
ATOM     54  C   UNL A   1      43.968  25.588  28.772  1.00  0.00     0.049 A 
ATOM     55  C   UNL A   1      43.469  30.272  31.856  1.00  0.00     0.074 A 
ATOM     56  C   UNL A   1      44.865  26.468  28.190  1.00  0.00     0.029 A 
ATOM     57  N   UNL A   1      44.083  25.762  30.148  1.00  0.00    -0.354 N 
ATOM     58  N   UNL A   1      43.963  29.231  31.243  1.00  0.00    -0.248 NA
ATOM     59  C   UNL A   1      44.008  30.422  33.206  1.00  0.00     0.031 C 
ATOM     60  C   UNL A   1      45.456  27.240  29.227  1.00  0.00     0.029 A 
ATOM     61  C   UNL A   1      44.941  26.811  30.440  1.00  0.00     0.049 A 
ATOM     62  H   UNL A   1      43.619  25.216  30.822  1.00  0.00     0.167 HD
ATOM     63  C   UNL A   1      44.722  28.496  32.119  1.00  0.00     0.074 A 
ATOM     64  C   UNL A   1      44.798  29.337  33.302  1.00  0.00     0.031 C 
ATOM     65  C   UNL A   1      45.148  27.228  31.823  1.00  0.00     0.034 A 
BRANCH  52  66
ATOM     66  C   UNL A   1      43.155  23.559  27.317  1.00  0.00     0.023 A 
ATOM     67  C   UNL A   1      44.008  23.787  26.210  1.00  0.00     0.012 A 
ATOM     68  C   UNL A   1      42.555  22.277  27.361  1.00  0.00     0.148 A 
ATOM     69  C   UNL A   1      44.190  22.847  25.185  1.00  0.00     0.002 A 
ATOM     70  C   UNL A   1      42.727  21.339  26.338  1.00  0.00     0.091 A 
ATOM     71  F   UNL A   1      41.800  21.922  28.394  1.00  0.00    -0.205 F 
ATOM     72  C   UNL A   1      43.535  21.626  25.240  1.00  0.00     0.022 A 
BRANCH  70  73
ATOM     73  S   UNL A   1      41.880  19.745  26.339  1.00  0.00     0.127 S 
ATOM     74  O   UNL A   1      42.430  19.108  25.142  1.00  0.00    -0.237 OA
ATOM     75  O   UNL A   1      42.325  19.156  27.602  1.00  0.00    -0.237 OA
ATOM     76  O   UNL A   1      40.451  20.029  26.268  1.00  0.00    -0.744 OA
ENDBRANCH  70  73
ENDBRANCH  52  66
BRANCH  53  77
ATOM     77  C   UNL A   1      41.318  31.842  32.022  1.00  0.00     0.023 A 
ATOM     78  C   UNL A   1      41.015  33.184  31.695  1.00  0.00     0.012 A 
ATOM     79  C   UNL A   1      40.379  31.092  32.752  1.00  0.00     0.148 A 
ATOM     80  C   UNL A   1      39.772  33.737  32.003  1.00  0.00     0.002 A 
ATOM     81  C   UNL A   1      39.135  31.647  33.047  1.00  0.00     0.091 A 
ATOM     82  F   UNL A   1      40.683  29.828  33.075  1.00  0.00    -0.205 F 
ATOM     83  C   UNL A   1      38.822  32.958  32.653  1.00  0.00     0.022 A 
BRANCH  81  84
ATOM     84  S   UNL A   1      37.814  30.680  33.792  1.00  0.00     0.127 S 
ATOM     85  O   UNL A   1      38.189  29.324  33.401  1.00  0.00    -0.237 OA
ATOM     86  O   UNL A   1      37.976  30.981  35.214  1.00  0.00    -0.237 OA
ATOM     87  O   UNL A   1      36.591  31.207  33.207  1.00  0.00    -0.744 OA
ENDBRANCH  81  84
ENDBRANCH  53  77
BRANCH  65  88
ATOM     88  C   UNL A   1      45.763  26.254  32.815  1.00  0.00     0.023 A 
ATOM     89  C   UNL A   1      47.142  26.244  33.108  1.00  0.00     0.012 A 
ATOM     90  C   UNL A   1      44.946  25.405  33.606  1.00  0.00     0.148 A 
ATOM     91  C   UNL A   1      47.692  25.401  34.082  1.00  0.00     0.002 A 
ATOM     92  C   UNL A   1      45.485  24.643  34.644  1.00  0.00     0.091 A 
ATOM     93  F   UNL A   1      43.631  25.317  33.354  1.00  0.00    -0.205 F 
ATOM     94  C   UNL A   1      46.862  24.614  34.866  1.00  0.00     0.022 A 
BRANCH  92  95
ATOM     95  S   UNL A   1      44.404  23.805  35.813  1.00  0.00     0.127 S 
ATOM     96  O   UNL A   1      45.341  23.364  36.842  1.00  0.00    -0.237 OA
ATOM     97  O   UNL A   1      43.495  24.872  36.238  1.00  0.00    -0.237 OA
ATOM     98  O   UNL A   1      43.762  22.760  35.025  1.00  0.00    -0.744 OA
ENDBRANCH  92  95
ENDBRANCH  65  88
ENDBRANCH  39  40
ENDBRANCH  31  34
ENDBRANCH  29  30
ENDBRANCH  28  29
ENDBRANCH  27  28
ENDBRANCH   1  27
TORSDOF 19
ENDMDL
MODEL 3
REMARK VINA RESULT:     -12.1      3.808      9.428
REMARK SMILES Cc1ccccc1NC(=O)NC[C@@H]1CC[C@@H](C(=O)NCCCCCCNC(=O)c2ccc(-c3c4nc(c(-c5cccc(S(=O)(=O)[O-])c5F)c5ccc([nH]5)c(-c5cccc(S(=O)(=O)[O-])c5F)c5nc(c(-c6cccc(S(=O)(=O)[O-])c6F)c6ccc3[nH]6)C=C5)C=C4)cc2)O1
REMARK SMILES IDX 22 1 21 2 20 3 19 4 17 5 18 6 16 8 13 9 14 10 92 11 15 12
REMARK SMILES IDX 12 13 11 14 8 15 9 16 10 18 7 20 1 21 2 22 3 23 4 24 6 25
REMARK SMILES IDX 5 26 23 27 24 28 25 29 26 30 27 31 28 33 29 34 30 35 91 36
REMARK SMILES IDX 31 37 90 38 32 39 33 40 34 41 84 42 35 43 89 44 83 45 85 46
REMARK SMILES IDX 36 47 88 48 82 49 81 50 37 52 69 53 49 54 68 55 50 56 53 57
REMARK SMILES IDX 67 58 86 59 51 60 52 61 66 63 87 64 54 65 38 66 39 67 47 68
REMARK SMILES IDX 40 69 42 70 48 71 41 72 43 73 44 74 45 75 46 76 70 77 71 78
REMARK SMILES IDX 79 79 72 80 74 81 80 82 73 83 75 84 76 85 77 86 78 87 55 88
REMARK SMILES IDX 56 89 64 90 57 91 59 92 65 93 58 94 60 95 61 96 62 97 63 98
REMARK H PARENT 19 7 8 17 11 19 26 32 85 51 53 62
REMARK Flexibility Score: inf
ROOT
ATOM      1  C   UNL A   1      33.452  28.180  27.261  1.00  0.00     0.002 C 
ENDROOT
BRANCH   1   2
ATOM      2  C   UNL A   1      33.750  27.290  26.045  1.00  0.00     0.021 C 
BRANCH   2   3
ATOM      3  C   UNL A   1      32.715  27.379  24.922  1.00  0.00     0.116 C 
BRANCH   3   4
ATOM      4  N   UNL A   1      33.346  27.402  23.620  1.00  0.00    -0.354 N 
ATOM      5  C   UNL A   1      33.257  26.530  22.574  1.00  0.00     0.249 C 
ATOM      6  O   UNL A   1      33.931  26.791  21.574  1.00  0.00    -0.272 OA
ATOM      7  H   UNL A   1      33.937  28.174  23.463  1.00  0.00     0.163 HD
BRANCH   5   8
ATOM      8  C   UNL A   1      32.281  25.335  22.625  1.00  0.00     0.207 C 
ATOM      9  C   UNL A   1      31.574  24.126  24.524  1.00  0.00     0.138 C 
ATOM     10  C   UNL A   1      30.354  24.480  23.707  1.00  0.00     0.037 C 
ATOM     11  O   UNL A   1      32.683  24.381  23.633  1.00  0.00    -0.363 OA
ATOM     12  C   UNL A   1      30.831  25.675  22.927  1.00  0.00     0.045 C 
BRANCH   9  13
ATOM     13  C   UNL A   1      31.650  22.665  24.995  1.00  0.00     0.149 C 
BRANCH  13  14
ATOM     14  N   UNL A   1      31.883  22.523  26.421  1.00  0.00    -0.335 N 
ATOM     15  N   UNL A   1      34.179  22.582  27.165  1.00  0.00    -0.308 N 
ATOM     16  C   UNL A   1      32.859  22.529  27.309  1.00  0.00     0.319 C 
ATOM     17  H   UNL A   1      34.583  22.582  28.063  1.00  0.00     0.171 HD
ATOM     18  O   UNL A   1      32.474  22.447  28.488  1.00  0.00    -0.249 OA
ATOM     19  H   UNL A   1      31.025  22.369  26.878  1.00  0.00     0.165 HD
BRANCH  15  20
ATOM     20  C   UNL A   1      35.220  22.640  26.222  1.00  0.00     0.045 A 
ATOM     21  C   UNL A   1      34.500  20.344  25.225  1.00  0.00     0.046 C 
ATOM     22  C   UNL A   1      35.336  21.601  25.262  1.00  0.00    -0.027 A 
ATOM     23  C   UNL A   1      36.311  21.689  24.242  1.00  0.00     0.005 A 
ATOM     24  C   UNL A   1      37.184  22.765  24.169  1.00  0.00     0.000 A 
ATOM     25  C   UNL A   1      36.154  23.664  26.155  1.00  0.00     0.026 A 
ATOM     26  C   UNL A   1      37.117  23.745  25.141  1.00  0.00     0.002 A 
ENDBRANCH  15  20
ENDBRANCH  13  14
ENDBRANCH   9  13
ENDBRANCH   5   8
ENDBRANCH   3   4
ENDBRANCH   2   3
ENDBRANCH   1   2
BRANCH   1  27
ATOM     27  C   UNL A   1      32.201  29.068  27.162  1.00  0.00     0.002 C 
BRANCH  27  28
ATOM     28  C   UNL A   1      32.449  30.579  27.171  1.00  0.00     0.021 C 
BRANCH  28  29
ATOM     29  C   UNL A   1      33.922  30.964  27.088  1.00  0.00     0.116 C 
BRANCH  29  30
ATOM     30  N   UNL A   1      34.367  31.785  28.207  1.00  0.00    -0.352 N 
ATOM     31  C   UNL A   1      35.345  31.505  29.144  1.00  0.00     0.251 C 
ATOM     32  H   UNL A   1      33.911  32.652  28.309  1.00  0.00     0.163 HD
ATOM     33  O   UNL A   1      35.545  32.282  30.074  1.00  0.00    -0.269 OA
BRANCH  31  34
ATOM     34  C   UNL A   1      36.192  30.309  28.942  1.00  0.00     0.039 A 
ATOM     35  C   UNL A   1      36.553  29.554  30.064  1.00  0.00     0.014 A 
ATOM     36  C   UNL A   1      36.809  30.099  27.711  1.00  0.00     0.014 A 
ATOM     37  C   UNL A   1      37.695  28.756  30.009  1.00  0.00     0.010 A 
ATOM     38  C   UNL A   1      37.983  29.373  27.679  1.00  0.00     0.010 A 
ATOM     39  C   UNL A   1      38.465  28.766  28.847  1.00  0.00    -0.014 A 
BRANCH  39  40
ATOM     40  C   UNL A   1      39.847  28.304  28.782  1.00  0.00     0.031 A 
ATOM     41  C   UNL A   1      40.166  26.867  28.651  1.00  0.00     0.074 A 
ATOM     42  C   UNL A   1      40.838  29.218  28.703  1.00  0.00     0.049 A 
ATOM     43  N   UNL A   1      41.342  26.366  28.829  1.00  0.00    -0.248 NA
ATOM     44  C   UNL A   1      39.143  25.863  28.391  1.00  0.00     0.031 C 
ATOM     45  C   UNL A   1      42.200  28.997  28.225  1.00  0.00     0.029 A 
ATOM     46  N   UNL A   1      40.879  30.493  29.280  1.00  0.00    -0.354 N 
ATOM     47  C   UNL A   1      41.295  25.042  28.452  1.00  0.00     0.074 A 
ATOM     48  C   UNL A   1      39.889  24.758  28.315  1.00  0.00     0.031 C 
ATOM     49  C   UNL A   1      42.998  29.928  28.764  1.00  0.00     0.029 A 
ATOM     50  C   UNL A   1      42.202  30.678  29.719  1.00  0.00     0.049 A 
ATOM     51  H   UNL A   1      40.133  31.130  29.363  1.00  0.00     0.167 HD
ATOM     52  C   UNL A   1      42.463  24.394  28.172  1.00  0.00     0.034 A 
ATOM     53  C   UNL A   1      42.558  30.948  31.005  1.00  0.00     0.034 A 
ATOM     54  C   UNL A   1      43.622  25.181  28.624  1.00  0.00     0.049 A 
ATOM     55  C   UNL A   1      43.568  29.973  31.578  1.00  0.00     0.074 A 
ATOM     56  C   UNL A   1      44.546  25.983  27.976  1.00  0.00     0.029 A 
ATOM     57  N   UNL A   1      43.812  25.386  29.987  1.00  0.00    -0.354 N 
ATOM     58  N   UNL A   1      43.964  28.885  30.977  1.00  0.00    -0.248 NA
ATOM     59  C   UNL A   1      44.177  30.126  32.898  1.00  0.00     0.031 C 
ATOM     60  C   UNL A   1      45.233  26.744  28.961  1.00  0.00     0.029 A 
ATOM     61  C   UNL A   1      44.748  26.384  30.208  1.00  0.00     0.049 A 
ATOM     62  H   UNL A   1      43.345  24.890  30.698  1.00  0.00     0.167 HD
ATOM     63  C   UNL A   1      44.714  28.127  31.841  1.00  0.00     0.074 A 
ATOM     64  C   UNL A   1      44.899  28.995  32.993  1.00  0.00     0.031 C 
ATOM     65  C   UNL A   1      45.044  26.826  31.567  1.00  0.00     0.034 A 
BRANCH  52  66
ATOM     66  C   UNL A   1      42.614  23.168  27.271  1.00  0.00     0.023 A 
ATOM     67  C   UNL A   1      41.859  22.019  27.611  1.00  0.00     0.012 A 
ATOM     68  C   UNL A   1      43.519  22.998  26.195  1.00  0.00     0.148 A 
ATOM     69  C   UNL A   1      42.043  20.778  26.985  1.00  0.00     0.002 A 
ATOM     70  C   UNL A   1      43.712  21.760  25.573  1.00  0.00     0.091 A 
ATOM     71  F   UNL A   1      44.222  24.028  25.737  1.00  0.00    -0.205 F 
ATOM     72  C   UNL A   1      42.984  20.642  25.975  1.00  0.00     0.022 A 
BRANCH  70  73
ATOM     73  S   UNL A   1      44.940  21.516  24.273  1.00  0.00     0.127 S 
ATOM     74  O   UNL A   1      44.521  22.497  23.271  1.00  0.00    -0.237 OA
ATOM     75  O   UNL A   1      46.190  21.842  24.959  1.00  0.00    -0.237 OA
ATOM     76  O   UNL A   1      44.824  20.128  23.842  1.00  0.00    -0.744 OA
ENDBRANCH  70  73
ENDBRANCH  52  66
BRANCH  53  77
ATOM     77  C   UNL A   1      41.531  31.685  31.790  1.00  0.00     0.023 A 
ATOM     78  C   UNL A   1      41.245  33.009  31.386  1.00  0.00     0.012 A 
ATOM     79  C   UNL A   1      40.628  31.024  32.641  1.00  0.00     0.148 A 
ATOM     80  C   UNL A   1      40.046  33.627  31.740  1.00  0.00     0.002 A 
ATOM     81  C   UNL A   1      39.427  31.643  32.982  1.00  0.00     0.091 A 
ATOM     82  F   UNL A   1      40.917  29.777  33.036  1.00  0.00    -0.205 F 
ATOM     83  C   UNL A   1      39.125  32.932  32.515  1.00  0.00     0.022 A 
BRANCH  81  84
ATOM     84  S   UNL A   1      38.137  30.780  33.892  1.00  0.00     0.127 S 
ATOM     85  O   UNL A   1      36.944  31.511  33.474  1.00  0.00    -0.237 OA
ATOM     86  O   UNL A   1      38.246  29.420  33.364  1.00  0.00    -0.237 OA
ATOM     87  O   UNL A   1      38.518  30.908  35.290  1.00  0.00    -0.744 OA
ENDBRANCH  81  84
ENDBRANCH  53  77
BRANCH  65  88
ATOM     88  C   UNL A   1      45.641  25.842  32.561  1.00  0.00     0.023 A 
ATOM     89  C   UNL A   1      47.032  25.669  32.710  1.00  0.00     0.012 A 
ATOM     90  C   UNL A   1      44.819  25.160  33.494  1.00  0.00     0.148 A 
ATOM     91  C   UNL A   1      47.579  24.822  33.683  1.00  0.00     0.002 A 
ATOM     92  C   UNL A   1      45.372  24.398  34.525  1.00  0.00     0.091 A 
ATOM     93  F   UNL A   1      43.483  25.230  33.387  1.00  0.00    -0.205 F 
ATOM     94  C   UNL A   1      46.751  24.202  34.606  1.00  0.00     0.022 A 
BRANCH  92  95
ATOM     95  S   UNL A   1      44.332  23.784  35.860  1.00  0.00     0.127 S 
ATOM     96  O   UNL A   1      45.311  23.191  36.768  1.00  0.00    -0.237 OA
ATOM     97  O   UNL A   1      43.697  25.003  36.366  1.00  0.00    -0.237 OA
ATOM     98  O   UNL A   1      43.410  22.865  35.205  1.00  0.00    -0.744 OA
ENDBRANCH  92  95
ENDBRANCH  65  88
ENDBRANCH  39  40
ENDBRANCH  31  34
ENDBRANCH  29  30
ENDBRANCH  28  29
ENDBRANCH  27  28
ENDBRANCH   1  27
TORSDOF 19
ENDMDL
