MODEL 1
REMARK VINA RESULT:     -11.6      0.000      0.000
REMARK SMILES Cc1cc(N2CCC[C@H](C(=O)NCCCCCCNC(=O)c3ccc(-c4c5nc(c(-c6cccc(S(=O)(=O)[O-])c6F)c6ccc([nH]6)c(-c6cccc(S(=O)(=O)[O-])c6F)c6nc(c(-c7cccc(S(=O)(=O)[O-])c7F)c7ccc4[nH]7)C=C6)C=C5)cc3)C2)nc(C(C)C)n1
REMARK SMILES IDX 16 1 15 2 14 3 13 4 12 5 10 6 11 7 9 9 5 10 6 11 85 12 7 13
REMARK SMILES IDX 8 14 4 15 1 16 2 17 3 18 91 19 87 20 86 21 88 22 89 23 90 24
REMARK SMILES IDX 17 25 18 26 19 27 20 28 21 30 22 31 23 32 84 33 24 34 83 35
REMARK SMILES IDX 25 36 26 37 27 38 77 39 28 40 82 41 76 42 78 43 29 44 81 45
REMARK SMILES IDX 75 46 74 47 30 49 62 50 42 51 61 52 43 53 46 54 60 55 79 56
REMARK SMILES IDX 44 57 45 58 59 60 80 61 47 62 31 63 32 64 40 65 33 66 35 67
REMARK SMILES IDX 41 68 34 69 36 70 37 71 38 72 39 73 63 74 64 75 72 76 65 77
REMARK SMILES IDX 67 78 73 79 66 80 68 81 69 82 70 83 71 84 48 85 49 86 57 87
REMARK SMILES IDX 50 88 52 89 58 90 51 91 53 92 54 93 55 94 56 95
REMARK H PARENT 12 8 19 29 78 48 46 59
REMARK Flexibility Score: inf
ROOT
ATOM      1  C   UNL A   1      31.262  27.525  26.425  1.00  0.00     0.002 C 
ENDROOT
BRANCH   1   2
ATOM      2  C   UNL A   1      30.602  26.225  25.947  1.00  0.00     0.002 C 
BRANCH   2   3
ATOM      3  C   UNL A   1      29.664  26.365  24.746  1.00  0.00     0.021 C 
BRANCH   3   4
ATOM      4  C   UNL A   1      30.131  25.614  23.500  1.00  0.00     0.116 C 
BRANCH   4   5
ATOM      5  N   UNL A   1      30.335  24.202  23.729  1.00  0.00    -0.356 N 
ATOM      6  C   UNL A   1      31.484  23.493  23.857  1.00  0.00     0.224 C 
ATOM      7  O   UNL A   1      31.373  22.351  24.323  1.00  0.00    -0.275 OA
ATOM      8  H   UNL A   1      29.509  23.671  23.807  1.00  0.00     0.163 HD
BRANCH   6   9
ATOM      9  C   UNL A   1      32.874  24.003  23.462  1.00  0.00     0.098 C 
ATOM     10  N   UNL A   1      34.667  22.670  24.467  1.00  0.00    -0.356 N 
ATOM     11  C   UNL A   1      35.400  23.781  25.046  1.00  0.00     0.118 C 
ATOM     12  C   UNL A   1      33.896  22.893  23.260  1.00  0.00     0.131 C 
ATOM     13  C   UNL A   1      34.452  24.959  25.312  1.00  0.00     0.022 C 
ATOM     14  C   UNL A   1      33.405  25.223  24.224  1.00  0.00     0.017 C 
BRANCH  10  15
ATOM     15  C   UNL A   1      35.055  21.368  24.703  1.00  0.00     0.132 A 
ATOM     16  C   UNL A   1      38.093  19.206  25.054  1.00  0.00     0.067 C 
ATOM     17  C   UNL A   1      36.680  19.680  24.926  1.00  0.00     0.043 A 
ATOM     18  C   UNL A   1      36.376  21.029  24.901  1.00  0.00     0.070 A 
ATOM     19  N   UNL A   1      35.742  18.725  24.786  1.00  0.00    -0.238 NA
ATOM     20  C   UNL A   1      34.475  19.141  24.629  1.00  0.00     0.133 A 
ATOM     21  N   UNL A   1      34.102  20.431  24.575  1.00  0.00    -0.216 NA
BRANCH  20  22
ATOM     22  C   UNL A   1      33.392  18.108  24.427  1.00  0.00     0.051 C 
ATOM     23  C   UNL A   1      33.658  17.264  23.181  1.00  0.00     0.016 C 
ATOM     24  C   UNL A   1      33.211  17.237  25.666  1.00  0.00     0.016 C 
ENDBRANCH  20  22
ENDBRANCH  10  15
ENDBRANCH   6   9
ENDBRANCH   4   5
ENDBRANCH   3   4
ENDBRANCH   2   3
ENDBRANCH   1   2
BRANCH   1  25
ATOM     25  C   UNL A   1      31.678  28.512  25.329  1.00  0.00     0.021 C 
BRANCH  25  26
ATOM     26  C   UNL A   1      32.958  29.292  25.623  1.00  0.00     0.116 C 
BRANCH  26  27
ATOM     27  N   UNL A   1      32.675  30.671  25.992  1.00  0.00    -0.352 N 
ATOM     28  C   UNL A   1      33.224  31.456  26.969  1.00  0.00     0.251 C 
ATOM     29  H   UNL A   1      31.977  31.108  25.453  1.00  0.00     0.163 HD
ATOM     30  O   UNL A   1      32.676  32.518  27.266  1.00  0.00    -0.269 OA
BRANCH  28  31
ATOM     31  C   UNL A   1      34.467  31.051  27.658  1.00  0.00     0.039 A 
ATOM     32  C   UNL A   1      34.598  29.724  28.079  1.00  0.00     0.014 A 
ATOM     33  C   UNL A   1      35.465  31.981  27.956  1.00  0.00     0.014 A 
ATOM     34  C   UNL A   1      35.738  29.328  28.781  1.00  0.00     0.010 A 
ATOM     35  C   UNL A   1      36.632  31.570  28.594  1.00  0.00     0.010 A 
ATOM     36  C   UNL A   1      36.769  30.247  29.036  1.00  0.00    -0.014 A 
BRANCH  36  37
ATOM     37  C   UNL A   1      37.984  29.838  29.782  1.00  0.00     0.031 A 
ATOM     38  C   UNL A   1      38.241  30.375  31.165  1.00  0.00     0.074 A 
ATOM     39  C   UNL A   1      38.887  29.033  29.190  1.00  0.00     0.049 A 
ATOM     40  N   UNL A   1      39.249  30.142  31.966  1.00  0.00    -0.248 NA
ATOM     41  C   UNL A   1      37.252  31.321  31.711  1.00  0.00     0.031 C 
ATOM     42  C   UNL A   1      38.789  28.520  27.822  1.00  0.00     0.029 A 
ATOM     43  N   UNL A   1      40.071  28.523  29.654  1.00  0.00    -0.354 N 
ATOM     44  C   UNL A   1      39.035  30.933  33.089  1.00  0.00     0.074 A 
ATOM     45  C   UNL A   1      37.821  31.682  32.852  1.00  0.00     0.031 C 
ATOM     46  C   UNL A   1      39.865  27.760  27.560  1.00  0.00     0.029 A 
ATOM     47  C   UNL A   1      40.736  27.748  28.731  1.00  0.00     0.049 A 
ATOM     48  H   UNL A   1      40.414  28.694  30.561  1.00  0.00     0.167 HD
ATOM     49  C   UNL A   1      39.764  31.005  34.228  1.00  0.00     0.034 A 
ATOM     50  C   UNL A   1      41.911  27.097  28.824  1.00  0.00     0.034 A 
ATOM     51  C   UNL A   1      40.941  30.219  34.478  1.00  0.00     0.049 A 
ATOM     52  C   UNL A   1      42.664  27.137  30.126  1.00  0.00     0.074 A 
ATOM     53  C   UNL A   1      41.701  30.146  35.632  1.00  0.00     0.029 A 
ATOM     54  N   UNL A   1      41.530  29.365  33.557  1.00  0.00    -0.354 N 
ATOM     55  N   UNL A   1      42.358  27.761  31.238  1.00  0.00    -0.248 NA
ATOM     56  C   UNL A   1      43.902  26.348  30.201  1.00  0.00     0.031 C 
ATOM     57  C   UNL A   1      42.759  29.260  35.403  1.00  0.00     0.029 A 
ATOM     58  C   UNL A   1      42.645  28.764  34.114  1.00  0.00     0.049 A 
ATOM     59  H   UNL A   1      41.203  29.209  32.641  1.00  0.00     0.167 HD
ATOM     60  C   UNL A   1      43.342  27.412  32.155  1.00  0.00     0.074 A 
ATOM     61  C   UNL A   1      44.242  26.503  31.474  1.00  0.00     0.031 C 
ATOM     62  C   UNL A   1      43.499  27.819  33.438  1.00  0.00     0.034 A 
BRANCH  49  63
ATOM     63  C   UNL A   1      39.271  31.923  35.318  1.00  0.00     0.023 A 
ATOM     64  C   UNL A   1      38.339  31.443  36.261  1.00  0.00     0.012 A 
ATOM     65  C   UNL A   1      39.765  33.236  35.444  1.00  0.00     0.148 A 
ATOM     66  C   UNL A   1      37.877  32.264  37.288  1.00  0.00     0.002 A 
ATOM     67  C   UNL A   1      39.334  34.035  36.498  1.00  0.00     0.091 A 
ATOM     68  F   UNL A   1      40.635  33.685  34.528  1.00  0.00    -0.205 F 
ATOM     69  C   UNL A   1      38.382  33.555  37.413  1.00  0.00     0.022 A 
BRANCH  67  70
ATOM     70  S   UNL A   1      39.982  35.686  36.791  1.00  0.00     0.127 S 
ATOM     71  O   UNL A   1      39.271  36.068  38.011  1.00  0.00    -0.237 OA
ATOM     72  O   UNL A   1      41.411  35.428  36.973  1.00  0.00    -0.237 OA
ATOM     73  O   UNL A   1      39.652  36.462  35.605  1.00  0.00    -0.744 OA
ENDBRANCH  67  70
ENDBRANCH  49  63
BRANCH  50  74
ATOM     74  C   UNL A   1      42.400  26.281  27.677  1.00  0.00     0.023 A 
ATOM     75  C   UNL A   1      43.334  26.838  26.783  1.00  0.00     0.012 A 
ATOM     76  C   UNL A   1      41.975  24.952  27.488  1.00  0.00     0.148 A 
ATOM     77  C   UNL A   1      43.813  26.098  25.701  1.00  0.00     0.002 A 
ATOM     78  C   UNL A   1      42.497  24.201  26.440  1.00  0.00     0.091 A 
ATOM     79  F   UNL A   1      41.078  24.443  28.344  1.00  0.00    -0.205 F 
ATOM     80  C   UNL A   1      43.402  24.778  25.536  1.00  0.00     0.022 A 
BRANCH  78  81
ATOM     81  S   UNL A   1      42.122  22.457  26.230  1.00  0.00     0.127 S 
ATOM     82  O   UNL A   1      42.642  21.888  27.473  1.00  0.00    -0.237 OA
ATOM     83  O   UNL A   1      40.661  22.471  26.127  1.00  0.00    -0.237 OA
ATOM     84  O   UNL A   1      42.804  22.053  25.012  1.00  0.00    -0.744 OA
ENDBRANCH  78  81
ENDBRANCH  50  74
BRANCH  62  85
ATOM     85  C   UNL A   1      44.669  27.263  34.206  1.00  0.00     0.023 A 
ATOM     86  C   UNL A   1      45.895  27.958  34.213  1.00  0.00     0.012 A 
ATOM     87  C   UNL A   1      44.534  26.089  34.973  1.00  0.00     0.148 A 
ATOM     88  C   UNL A   1      46.980  27.473  34.943  1.00  0.00     0.002 A 
ATOM     89  C   UNL A   1      45.605  25.638  35.736  1.00  0.00     0.091 A 
ATOM     90  F   UNL A   1      43.366  25.430  34.938  1.00  0.00    -0.205 F 
ATOM     91  C   UNL A   1      46.832  26.321  35.712  1.00  0.00     0.022 A 
BRANCH  89  92
ATOM     92  S   UNL A   1      45.471  24.220  36.830  1.00  0.00     0.127 S 
ATOM     93  O   UNL A   1      44.322  24.587  37.655  1.00  0.00    -0.237 OA
ATOM     94  O   UNL A   1      45.224  23.123  35.893  1.00  0.00    -0.237 OA
ATOM     95  O   UNL A   1      46.746  24.136  37.530  1.00  0.00    -0.744 OA
ENDBRANCH  89  92
ENDBRANCH  62  85
ENDBRANCH  36  37
ENDBRANCH  28  31
ENDBRANCH  26  27
ENDBRANCH  25  26
ENDBRANCH   1  25
TORSDOF 18
ENDMDL
MODEL 2
REMARK VINA RESULT:     -11.6      1.581      2.033
REMARK SMILES Cc1cc(N2CCC[C@H](C(=O)NCCCCCCNC(=O)c3ccc(-c4c5nc(c(-c6cccc(S(=O)(=O)[O-])c6F)c6ccc([nH]6)c(-c6cccc(S(=O)(=O)[O-])c6F)c6nc(c(-c7cccc(S(=O)(=O)[O-])c7F)c7ccc4[nH]7)C=C6)C=C5)cc3)C2)nc(C(C)C)n1
REMARK SMILES IDX 16 1 15 2 14 3 13 4 12 5 10 6 11 7 9 9 5 10 6 11 85 12 7 13
REMARK SMILES IDX 8 14 4 15 1 16 2 17 3 18 91 19 87 20 86 21 88 22 89 23 90 24
REMARK SMILES IDX 17 25 18 26 19 27 20 28 21 30 22 31 23 32 84 33 24 34 83 35
REMARK SMILES IDX 25 36 26 37 27 38 77 39 28 40 82 41 76 42 78 43 29 44 81 45
REMARK SMILES IDX 75 46 74 47 30 49 62 50 42 51 61 52 43 53 46 54 60 55 79 56
REMARK SMILES IDX 44 57 45 58 59 60 80 61 47 62 31 63 32 64 40 65 33 66 35 67
REMARK SMILES IDX 41 68 34 69 36 70 37 71 38 72 39 73 63 74 64 75 72 76 65 77
REMARK SMILES IDX 67 78 73 79 66 80 68 81 69 82 70 83 71 84 48 85 49 86 57 87
REMARK SMILES IDX 50 88 52 89 58 90 51 91 53 92 54 93 55 94 56 95
REMARK H PARENT 12 8 19 29 78 48 46 59
REMARK Flexibility Score: inf
ROOT
ATOM      1  C   UNL A   1      31.731  29.408  24.895  1.00  0.00     0.002 C 
ENDROOT
BRANCH   1   2
ATOM      2  C   UNL A   1      30.570  29.113  23.938  1.00  0.00     0.002 C 
BRANCH   2   3
ATOM      3  C   UNL A   1      30.908  28.212  22.748  1.00  0.00     0.021 C 
BRANCH   3   4
ATOM      4  C   UNL A   1      32.390  27.862  22.633  1.00  0.00     0.116 C 
BRANCH   4   5
ATOM      5  N   UNL A   1      32.625  26.471  22.319  1.00  0.00    -0.356 N 
ATOM      6  C   UNL A   1      32.702  25.390  23.134  1.00  0.00     0.224 C 
ATOM      7  O   UNL A   1      32.632  24.282  22.583  1.00  0.00    -0.275 OA
ATOM      8  H   UNL A   1      32.744  26.277  21.361  1.00  0.00     0.163 HD
BRANCH   6   9
ATOM      9  C   UNL A   1      32.874  25.453  24.655  1.00  0.00     0.098 C 
ATOM     10  N   UNL A   1      33.042  23.226  25.660  1.00  0.00    -0.356 N 
ATOM     11  C   UNL A   1      32.008  23.412  26.662  1.00  0.00     0.118 C 
ATOM     12  C   UNL A   1      33.798  24.378  25.210  1.00  0.00     0.131 C 
ATOM     13  C   UNL A   1      31.001  24.472  26.191  1.00  0.00     0.022 C 
ATOM     14  C   UNL A   1      31.607  25.691  25.486  1.00  0.00     0.017 C 
BRANCH  10  15
ATOM     15  C   UNL A   1      33.656  22.001  25.499  1.00  0.00     0.132 A 
ATOM     16  C   UNL A   1      37.003  20.429  24.901  1.00  0.00     0.067 C 
ATOM     17  C   UNL A   1      35.533  20.645  25.074  1.00  0.00     0.043 A 
ATOM     18  C   UNL A   1      35.028  21.880  25.440  1.00  0.00     0.070 A 
ATOM     19  N   UNL A   1      34.740  19.591  24.803  1.00  0.00    -0.238 NA
ATOM     20  C   UNL A   1      33.416  19.787  24.915  1.00  0.00     0.133 A 
ATOM     21  N   UNL A   1      32.848  20.960  25.245  1.00  0.00    -0.216 NA
BRANCH  20  22
ATOM     22  C   UNL A   1      32.484  18.647  24.581  1.00  0.00     0.051 C 
ATOM     23  C   UNL A   1      32.506  18.333  23.086  1.00  0.00     0.016 C 
ATOM     24  C   UNL A   1      32.792  17.409  25.419  1.00  0.00     0.016 C 
ENDBRANCH  20  22
ENDBRANCH  10  15
ENDBRANCH   6   9
ENDBRANCH   4   5
ENDBRANCH   3   4
ENDBRANCH   2   3
ENDBRANCH   1   2
BRANCH   1  25
ATOM     25  C   UNL A   1      31.456  30.448  25.988  1.00  0.00     0.021 C 
BRANCH  25  26
ATOM     26  C   UNL A   1      32.671  30.819  26.837  1.00  0.00     0.116 C 
BRANCH  26  27
ATOM     27  N   UNL A   1      32.822  32.261  26.957  1.00  0.00    -0.352 N 
ATOM     28  C   UNL A   1      33.724  33.000  27.674  1.00  0.00     0.251 C 
ATOM     29  H   UNL A   1      32.172  32.790  26.440  1.00  0.00     0.163 HD
ATOM     30  O   UNL A   1      33.530  34.207  27.822  1.00  0.00    -0.269 OA
BRANCH  28  31
ATOM     31  C   UNL A   1      34.926  32.371  28.257  1.00  0.00     0.039 A 
ATOM     32  C   UNL A   1      34.787  31.151  28.927  1.00  0.00     0.014 A 
ATOM     33  C   UNL A   1      36.170  33.007  28.215  1.00  0.00     0.014 A 
ATOM     34  C   UNL A   1      35.896  30.561  29.534  1.00  0.00     0.010 A 
ATOM     35  C   UNL A   1      37.289  32.385  28.761  1.00  0.00     0.010 A 
ATOM     36  C   UNL A   1      37.160  31.170  29.448  1.00  0.00    -0.014 A 
BRANCH  36  37
ATOM     37  C   UNL A   1      38.345  30.555  30.092  1.00  0.00     0.031 A 
ATOM     38  C   UNL A   1      38.746  30.957  31.487  1.00  0.00     0.074 A 
ATOM     39  C   UNL A   1      39.099  29.681  29.397  1.00  0.00     0.049 A 
ATOM     40  N   UNL A   1      39.754  30.539  32.208  1.00  0.00    -0.248 NA
ATOM     41  C   UNL A   1      37.924  31.984  32.149  1.00  0.00     0.031 C 
ATOM     42  C   UNL A   1      38.860  29.281  28.009  1.00  0.00     0.029 A 
ATOM     43  N   UNL A   1      40.227  28.989  29.755  1.00  0.00    -0.354 N 
ATOM     44  C   UNL A   1      39.708  31.272  33.388  1.00  0.00     0.074 A 
ATOM     45  C   UNL A   1      38.596  32.189  33.273  1.00  0.00     0.031 C 
ATOM     46  C   UNL A   1      39.808  28.406  27.635  1.00  0.00     0.029 A 
ATOM     47  C   UNL A   1      40.731  28.199  28.748  1.00  0.00     0.049 A 
ATOM     48  H   UNL A   1      40.637  29.051  30.648  1.00  0.00     0.167 HD
ATOM     49  C   UNL A   1      40.499  31.168  34.483  1.00  0.00     0.034 A 
ATOM     50  C   UNL A   1      41.811  27.394  28.727  1.00  0.00     0.034 A 
ATOM     51  C   UNL A   1      41.571  30.219  34.611  1.00  0.00     0.049 A 
ATOM     52  C   UNL A   1      42.630  27.245  29.981  1.00  0.00     0.074 A 
ATOM     53  C   UNL A   1      42.374  29.968  35.709  1.00  0.00     0.029 A 
ATOM     54  N   UNL A   1      41.990  29.361  33.605  1.00  0.00    -0.354 N 
ATOM     55  N   UNL A   1      42.469  27.825  31.146  1.00  0.00    -0.248 NA
ATOM     56  C   UNL A   1      43.751  26.296  29.931  1.00  0.00     0.031 C 
ATOM     57  C   UNL A   1      43.289  28.968  35.362  1.00  0.00     0.029 A 
ATOM     58  C   UNL A   1      43.041  28.582  34.054  1.00  0.00     0.049 A 
ATOM     59  H   UNL A   1      41.596  29.313  32.704  1.00  0.00     0.167 HD
ATOM     60  C   UNL A   1      43.445  27.288  31.977  1.00  0.00     0.074 A 
ATOM     61  C   UNL A   1      44.176  26.318  31.188  1.00  0.00     0.031 C 
ATOM     62  C   UNL A   1      43.722  27.582  33.271  1.00  0.00     0.034 A 
BRANCH  49  63
ATOM     63  C   UNL A   1      40.194  32.066  35.655  1.00  0.00     0.023 A 
ATOM     64  C   UNL A   1      40.964  33.230  35.857  1.00  0.00     0.012 A 
ATOM     65  C   UNL A   1      39.120  31.791  36.524  1.00  0.00     0.148 A 
ATOM     66  C   UNL A   1      40.695  34.086  36.924  1.00  0.00     0.002 A 
ATOM     67  C   UNL A   1      38.829  32.673  37.559  1.00  0.00     0.091 A 
ATOM     68  F   UNL A   1      38.410  30.670  36.332  1.00  0.00    -0.205 F 
ATOM     69  C   UNL A   1      39.622  33.814  37.767  1.00  0.00     0.022 A 
BRANCH  67  70
ATOM     70  S   UNL A   1      37.421  32.453  38.654  1.00  0.00     0.127 S 
ATOM     71  O   UNL A   1      37.471  31.014  38.911  1.00  0.00    -0.237 OA
ATOM     72  O   UNL A   1      37.785  33.289  39.798  1.00  0.00    -0.237 OA
ATOM     73  O   UNL A   1      36.259  32.916  37.910  1.00  0.00    -0.744 OA
ENDBRANCH  67  70
ENDBRANCH  49  63
BRANCH  50  74
ATOM     74  C   UNL A   1      42.123  26.602  27.505  1.00  0.00     0.023 A 
ATOM     75  C   UNL A   1      42.726  27.241  26.405  1.00  0.00     0.012 A 
ATOM     76  C   UNL A   1      41.861  25.220  27.439  1.00  0.00     0.148 A 
ATOM     77  C   UNL A   1      43.034  26.525  25.246  1.00  0.00     0.002 A 
ATOM     78  C   UNL A   1      42.220  24.502  26.303  1.00  0.00     0.091 A 
ATOM     79  F   UNL A   1      41.278  24.632  28.493  1.00  0.00    -0.205 F 
ATOM     80  C   UNL A   1      42.790  25.156  25.200  1.00  0.00     0.022 A 
BRANCH  78  81
ATOM     81  S   UNL A   1      42.062  22.715  26.209  1.00  0.00     0.127 S 
ATOM     82  O   UNL A   1      42.699  22.426  24.926  1.00  0.00    -0.237 OA
ATOM     83  O   UNL A   1      42.823  22.281  27.384  1.00  0.00    -0.237 OA
ATOM     84  O   UNL A   1      40.636  22.443  26.288  1.00  0.00    -0.744 OA
ENDBRANCH  78  81
ENDBRANCH  50  74
BRANCH  62  85
ATOM     85  C   UNL A   1      44.845  26.825  33.930  1.00  0.00     0.023 A 
ATOM     86  C   UNL A   1      46.155  27.344  33.892  1.00  0.00     0.012 A 
ATOM     87  C   UNL A   1      44.592  25.636  34.642  1.00  0.00     0.148 A 
ATOM     88  C   UNL A   1      47.202  26.671  34.522  1.00  0.00     0.002 A 
ATOM     89  C   UNL A   1      45.631  24.997  35.308  1.00  0.00     0.091 A 
ATOM     90  F   UNL A   1      43.343  25.147  34.651  1.00  0.00    -0.205 F 
ATOM     91  C   UNL A   1      46.939  25.506  35.238  1.00  0.00     0.022 A 
BRANCH  89  92
ATOM     92  S   UNL A   1      45.363  23.548  36.334  1.00  0.00     0.127 S 
ATOM     93  O   UNL A   1      46.705  22.972  36.395  1.00  0.00    -0.237 OA
ATOM     94  O   UNL A   1      44.893  24.134  37.589  1.00  0.00    -0.237 OA
ATOM     95  O   UNL A   1      44.366  22.746  35.636  1.00  0.00    -0.744 OA
ENDBRANCH  89  92
ENDBRANCH  62  85
ENDBRANCH  36  37
ENDBRANCH  28  31
ENDBRANCH  26  27
ENDBRANCH  25  26
ENDBRANCH   1  25
TORSDOF 18
ENDMDL
MODEL 3
REMARK VINA RESULT:     -11.5      2.831      4.577
REMARK SMILES Cc1cc(N2CCC[C@H](C(=O)NCCCCCCNC(=O)c3ccc(-c4c5nc(c(-c6cccc(S(=O)(=O)[O-])c6F)c6ccc([nH]6)c(-c6cccc(S(=O)(=O)[O-])c6F)c6nc(c(-c7cccc(S(=O)(=O)[O-])c7F)c7ccc4[nH]7)C=C6)C=C5)cc3)C2)nc(C(C)C)n1
REMARK SMILES IDX 16 1 15 2 14 3 13 4 12 5 10 6 11 7 9 9 5 10 6 11 85 12 7 13
REMARK SMILES IDX 8 14 4 15 1 16 2 17 3 18 91 19 87 20 86 21 88 22 89 23 90 24
REMARK SMILES IDX 17 25 18 26 19 27 20 28 21 30 22 31 23 32 84 33 24 34 83 35
REMARK SMILES IDX 25 36 26 37 27 38 77 39 28 40 82 41 76 42 78 43 29 44 81 45
REMARK SMILES IDX 75 46 74 47 30 49 62 50 42 51 61 52 43 53 46 54 60 55 79 56
REMARK SMILES IDX 44 57 45 58 59 60 80 61 47 62 31 63 32 64 40 65 33 66 35 67
REMARK SMILES IDX 41 68 34 69 36 70 37 71 38 72 39 73 63 74 64 75 72 76 65 77
REMARK SMILES IDX 67 78 73 79 66 80 68 81 69 82 70 83 71 84 48 85 49 86 57 87
REMARK SMILES IDX 50 88 52 89 58 90 51 91 53 92 54 93 55 94 56 95
REMARK H PARENT 12 8 19 29 78 48 46 59
REMARK Flexibility Score: inf
ROOT
ATOM      1  C   UNL A   1      33.164  26.314  26.127  1.00  0.00     0.002 C 
ENDROOT
BRANCH   1   2
ATOM      2  C   UNL A   1      31.970  25.365  26.290  1.00  0.00     0.002 C 
BRANCH   2   3
ATOM      3  C   UNL A   1      32.186  24.191  27.248  1.00  0.00     0.021 C 
BRANCH   3   4
ATOM      4  C   UNL A   1      32.828  22.967  26.599  1.00  0.00     0.116 C 
BRANCH   4   5
ATOM      5  N   UNL A   1      34.273  23.014  26.599  1.00  0.00    -0.356 N 
ATOM      6  C   UNL A   1      35.152  22.897  25.572  1.00  0.00     0.224 C 
ATOM      7  O   UNL A   1      36.315  23.253  25.805  1.00  0.00    -0.275 OA
ATOM      8  H   UNL A   1      34.684  23.157  27.482  1.00  0.00     0.163 HD
BRANCH   6   9
ATOM      9  C   UNL A   1      34.804  22.359  24.181  1.00  0.00     0.098 C 
ATOM     10  N   UNL A   1      33.105  23.721  23.060  1.00  0.00    -0.356 N 
ATOM     11  C   UNL A   1      32.204  22.633  22.731  1.00  0.00     0.118 C 
ATOM     12  C   UNL A   1      34.526  23.449  23.156  1.00  0.00     0.131 C 
ATOM     13  C   UNL A   1      32.387  21.476  23.724  1.00  0.00     0.022 C 
ATOM     14  C   UNL A   1      33.836  21.170  24.120  1.00  0.00     0.017 C 
BRANCH  10  15
ATOM     15  C   UNL A   1      32.759  25.030  22.796  1.00  0.00     0.132 A 
ATOM     16  C   UNL A   1      34.236  28.435  22.289  1.00  0.00     0.067 C 
ATOM     17  C   UNL A   1      33.274  27.306  22.486  1.00  0.00     0.043 A 
ATOM     18  C   UNL A   1      33.709  25.994  22.535  1.00  0.00     0.070 A 
ATOM     19  N   UNL A   1      31.983  27.647  22.663  1.00  0.00    -0.238 NA
ATOM     20  C   UNL A   1      31.119  26.644  22.881  1.00  0.00     0.133 A 
ATOM     21  N   UNL A   1      31.465  25.348  22.962  1.00  0.00    -0.216 NA
BRANCH  20  22
ATOM     22  C   UNL A   1      29.666  26.979  23.127  1.00  0.00     0.051 C 
ATOM     23  C   UNL A   1      29.145  26.294  24.389  1.00  0.00     0.016 C 
ATOM     24  C   UNL A   1      29.441  28.488  23.173  1.00  0.00     0.016 C 
ENDBRANCH  20  22
ENDBRANCH  10  15
ENDBRANCH   6   9
ENDBRANCH   4   5
ENDBRANCH   3   4
ENDBRANCH   2   3
ENDBRANCH   1   2
BRANCH   1  25
ATOM     25  C   UNL A   1      32.908  27.784  26.478  1.00  0.00     0.021 C 
BRANCH  25  26
ATOM     26  C   UNL A   1      34.022  28.744  26.062  1.00  0.00     0.116 C 
BRANCH  26  27
ATOM     27  N   UNL A   1      33.851  30.059  26.661  1.00  0.00    -0.352 N 
ATOM     28  C   UNL A   1      34.566  30.681  27.648  1.00  0.00     0.251 C 
ATOM     29  H   UNL A   1      33.100  30.584  26.300  1.00  0.00     0.163 HD
ATOM     30  O   UNL A   1      34.110  31.699  28.170  1.00  0.00    -0.269 OA
BRANCH  28  31
ATOM     31  C   UNL A   1      35.877  30.156  28.080  1.00  0.00     0.039 A 
ATOM     32  C   UNL A   1      35.984  29.582  29.350  1.00  0.00     0.014 A 
ATOM     33  C   UNL A   1      37.013  30.292  27.276  1.00  0.00     0.014 A 
ATOM     34  C   UNL A   1      37.223  29.127  29.805  1.00  0.00     0.010 A 
ATOM     35  C   UNL A   1      38.233  29.776  27.702  1.00  0.00     0.010 A 
ATOM     36  C   UNL A   1      38.357  29.213  28.980  1.00  0.00    -0.014 A 
BRANCH  36  37
ATOM     37  C   UNL A   1      39.679  28.736  29.453  1.00  0.00     0.031 A 
ATOM     38  C   UNL A   1      40.387  29.451  30.574  1.00  0.00     0.074 A 
ATOM     39  C   UNL A   1      40.271  27.697  28.832  1.00  0.00     0.049 A 
ATOM     40  N   UNL A   1      41.549  29.189  31.114  1.00  0.00    -0.248 NA
ATOM     41  C   UNL A   1      39.716  30.632  31.143  1.00  0.00     0.031 C 
ATOM     42  C   UNL A   1      39.722  26.981  27.679  1.00  0.00     0.029 A 
ATOM     43  N   UNL A   1      41.471  27.079  29.068  1.00  0.00    -0.354 N 
ATOM     44  C   UNL A   1      41.763  30.187  32.059  1.00  0.00     0.074 A 
ATOM     45  C   UNL A   1      40.629  31.081  31.992  1.00  0.00     0.031 C 
ATOM     46  C   UNL A   1      40.579  26.015  27.314  1.00  0.00     0.029 A 
ATOM     47  C   UNL A   1      41.745  26.055  28.192  1.00  0.00     0.049 A 
ATOM     48  H   UNL A   1      42.079  27.342  29.796  1.00  0.00     0.167 HD
ATOM     49  C   UNL A   1      42.794  30.326  32.926  1.00  0.00     0.034 A 
ATOM     50  C   UNL A   1      42.812  25.237  28.111  1.00  0.00     0.034 A 
ATOM     51  C   UNL A   1      43.893  29.404  33.022  1.00  0.00     0.049 A 
ATOM     52  C   UNL A   1      43.909  25.371  29.132  1.00  0.00     0.074 A 
ATOM     53  C   UNL A   1      44.941  29.402  33.925  1.00  0.00     0.029 A 
ATOM     54  N   UNL A   1      44.086  28.317  32.183  1.00  0.00    -0.354 N 
ATOM     55  N   UNL A   1      44.013  26.219  30.126  1.00  0.00    -0.248 NA
ATOM     56  C   UNL A   1      45.014  24.405  29.049  1.00  0.00     0.031 C 
ATOM     57  C   UNL A   1      45.776  28.321  33.623  1.00  0.00     0.029 A 
ATOM     58  C   UNL A   1      45.236  27.638  32.545  1.00  0.00     0.049 A 
ATOM     59  H   UNL A   1      43.491  28.064  31.440  1.00  0.00     0.167 HD
ATOM     60  C   UNL A   1      45.173  25.869  30.807  1.00  0.00     0.074 A 
ATOM     61  C   UNL A   1      45.724  24.716  30.125  1.00  0.00     0.031 C 
ATOM     62  C   UNL A   1      45.741  26.459  31.888  1.00  0.00     0.034 A 
BRANCH  49  63
ATOM     63  C   UNL A   1      42.750  31.489  33.885  1.00  0.00     0.023 A 
ATOM     64  C   UNL A   1      43.297  32.730  33.497  1.00  0.00     0.012 A 
ATOM     65  C   UNL A   1      42.125  31.375  35.142  1.00  0.00     0.148 A 
ATOM     66  C   UNL A   1      43.257  33.826  34.357  1.00  0.00     0.002 A 
ATOM     67  C   UNL A   1      42.049  32.485  35.977  1.00  0.00     0.091 A 
ATOM     68  F   UNL A   1      41.628  30.183  35.505  1.00  0.00    -0.205 F 
ATOM     69  C   UNL A   1      42.624  33.707  35.590  1.00  0.00     0.022 A 
BRANCH  67  70
ATOM     70  S   UNL A   1      41.187  32.455  37.553  1.00  0.00     0.127 S 
ATOM     71  O   UNL A   1      42.035  31.556  38.335  1.00  0.00    -0.237 OA
ATOM     72  O   UNL A   1      41.246  33.859  37.963  1.00  0.00    -0.237 OA
ATOM     73  O   UNL A   1      39.848  31.962  37.268  1.00  0.00    -0.744 OA
ENDBRANCH  67  70
ENDBRANCH  49  63
BRANCH  50  74
ATOM     74  C   UNL A   1      42.848  24.164  27.078  1.00  0.00     0.023 A 
ATOM     75  C   UNL A   1      43.604  24.360  25.906  1.00  0.00     0.012 A 
ATOM     76  C   UNL A   1      42.172  22.943  27.264  1.00  0.00     0.148 A 
ATOM     77  C   UNL A   1      43.661  23.373  24.921  1.00  0.00     0.002 A 
ATOM     78  C   UNL A   1      42.277  21.942  26.304  1.00  0.00     0.091 A 
ATOM     79  F   UNL A   1      41.451  22.779  28.381  1.00  0.00    -0.205 F 
ATOM     80  C   UNL A   1      43.006  22.161  25.125  1.00  0.00     0.022 A 
BRANCH  78  81
ATOM     81  S   UNL A   1      41.574  20.306  26.544  1.00  0.00     0.127 S 
ATOM     82  O   UNL A   1      42.091  19.585  25.383  1.00  0.00    -0.237 OA
ATOM     83  O   UNL A   1      42.164  19.908  27.826  1.00  0.00    -0.237 OA
ATOM     84  O   UNL A   1      40.134  20.499  26.584  1.00  0.00    -0.744 OA
ENDBRANCH  78  81
ENDBRANCH  50  74
BRANCH  62  85
ATOM     85  C   UNL A   1      47.009  25.850  32.424  1.00  0.00     0.023 A 
ATOM     86  C   UNL A   1      46.951  24.959  33.515  1.00  0.00     0.012 A 
ATOM     87  C   UNL A   1      48.249  26.109  31.807  1.00  0.00     0.148 A 
ATOM     88  C   UNL A   1      48.113  24.364  34.006  1.00  0.00     0.002 A 
ATOM     89  C   UNL A   1      49.395  25.474  32.271  1.00  0.00     0.091 A 
ATOM     90  F   UNL A   1      48.288  26.975  30.784  1.00  0.00    -0.205 F 
ATOM     91  C   UNL A   1      49.331  24.612  33.378  1.00  0.00     0.022 A 
BRANCH  89  92
ATOM     92  S   UNL A   1      50.987  25.661  31.461  1.00  0.00     0.127 S 
ATOM     93  O   UNL A   1      51.257  27.083  31.657  1.00  0.00    -0.237 OA
ATOM     94  O   UNL A   1      51.842  24.764  32.240  1.00  0.00    -0.237 OA
ATOM     95  O   UNL A   1      50.782  25.244  30.080  1.00  0.00    -0.744 OA
ENDBRANCH  89  92
ENDBRANCH  62  85
ENDBRANCH  36  37
ENDBRANCH  28  31
ENDBRANCH  26  27
ENDBRANCH  25  26
ENDBRANCH   1  25
TORSDOF 18
ENDMDL
