MODEL 1
REMARK VINA RESULT:     -10.9      0.000      0.000
REMARK SMILES CSc1nc(N)cc(Nc2cccc(C(=O)NCCCCCCNC(=O)c3ccc(-c4c5nc(c(-c6cccc(S(=O)(=O)[O-])c6F)c6ccc([nH]6)c(-c6cccc(S(=O)(=O)[O-])c6F)c6nc(c(-c7cccc(S(=O)(=O)[O-])c7F)c7ccc4[nH]7)C=C6)C=C5)cc3)c2)n1
REMARK SMILES IDX 20 1 19 2 18 3 17 4 15 5 16 6 14 8 10 9 11 10 90 11 12 12
REMARK SMILES IDX 13 13 9 14 8 16 3 17 4 18 91 19 5 20 7 21 2 22 1 23 6 24
REMARK SMILES IDX 21 27 22 28 23 29 24 30 25 31 26 33 27 34 28 35 89 36 29 37
REMARK SMILES IDX 88 38 30 39 31 40 32 41 82 42 33 43 87 44 81 45 83 46 34 47
REMARK SMILES IDX 86 48 80 49 79 50 35 52 67 53 47 54 66 55 48 56 51 57 65 58
REMARK SMILES IDX 84 59 49 60 50 61 64 63 85 64 52 65 36 66 37 67 45 68 38 69
REMARK SMILES IDX 40 70 46 71 39 72 41 73 42 74 43 75 44 76 68 77 69 78 77 79
REMARK SMILES IDX 70 80 72 81 78 82 71 83 73 84 74 85 75 86 76 87 53 88 54 89
REMARK SMILES IDX 62 90 55 91 57 92 63 93 56 94 58 95 59 96 60 97 61 98
REMARK H PARENT 17 7 9 15 6 25 6 26 24 32 83 51 51 62
REMARK Flexibility Score: inf
ROOT
ATOM      1  C   UNL A   1      34.051  26.381  24.845  1.00  0.00     0.002 C 
ENDROOT
BRANCH   1   2
ATOM      2  C   UNL A   1      34.357  24.915  24.546  1.00  0.00     0.021 C 
BRANCH   2   3
ATOM      3  C   UNL A   1      34.235  24.483  23.090  1.00  0.00     0.116 C 
BRANCH   3   4
ATOM      4  N   UNL A   1      33.671  23.154  22.905  1.00  0.00    -0.352 N 
ATOM      5  C   UNL A   1      32.506  22.590  23.384  1.00  0.00     0.251 C 
ATOM      6  O   UNL A   1      32.269  21.412  23.117  1.00  0.00    -0.269 OA
ATOM      7  H   UNL A   1      34.214  22.555  22.344  1.00  0.00     0.163 HD
BRANCH   5   8
ATOM      8  C   UNL A   1      31.566  23.338  24.266  1.00  0.00     0.041 A 
ATOM      9  C   UNL A   1      29.946  25.137  24.598  1.00  0.00     0.040 A 
ATOM     10  C   UNL A   1      30.043  24.939  25.978  1.00  0.00     0.026 A 
ATOM     11  C   UNL A   1      30.643  24.255  23.765  1.00  0.00     0.040 A 
ATOM     12  C   UNL A   1      30.841  23.914  26.501  1.00  0.00     0.003 A 
ATOM     13  C   UNL A   1      31.622  23.132  25.648  1.00  0.00     0.014 A 
BRANCH   9  14
ATOM     14  N   UNL A   1      29.176  26.193  24.077  1.00  0.00    -0.340 N 
ATOM     15  H   UNL A   1      28.201  26.094  24.167  1.00  0.00     0.168 HD
BRANCH  14  16
ATOM     16  C   UNL A   1      29.612  27.373  23.442  1.00  0.00     0.137 A 
ATOM     17  C   UNL A   1      29.145  29.362  22.407  1.00  0.00     0.191 A 
ATOM     18  N   UNL A   1      30.429  29.654  22.194  1.00  0.00    -0.206 NA
ATOM     19  N   UNL A   1      28.702  28.253  23.006  1.00  0.00    -0.205 NA
ATOM     20  C   UNL A   1      31.327  28.762  22.618  1.00  0.00     0.130 A 
ATOM     21  C   UNL A   1      30.963  27.589  23.247  1.00  0.00     0.093 A 
BRANCH  17  22
ATOM     22  S   UNL A   1      27.901  30.511  21.886  1.00  0.00    -0.090 SA
ATOM     23  C   UNL A   1      27.724  31.435  23.426  1.00  0.00     0.094 C 
ENDBRANCH  17  22
BRANCH  20  24
ATOM     24  N   UNL A   1      32.655  29.109  22.480  1.00  0.00    -0.383 N 
ATOM     25  H   UNL A   1      33.357  28.533  22.861  1.00  0.00     0.158 HD
ATOM     26  H   UNL A   1      32.899  29.933  22.001  1.00  0.00     0.158 HD
ENDBRANCH  20  24
ENDBRANCH  14  16
ENDBRANCH   9  14
ENDBRANCH   5   8
ENDBRANCH   3   4
ENDBRANCH   2   3
ENDBRANCH   1   2
BRANCH   1  27
ATOM     27  C   UNL A   1      33.308  26.662  26.154  1.00  0.00     0.002 C 
BRANCH  27  28
ATOM     28  C   UNL A   1      32.864  28.108  26.384  1.00  0.00     0.021 C 
BRANCH  28  29
ATOM     29  C   UNL A   1      33.833  29.183  25.899  1.00  0.00     0.116 C 
BRANCH  29  30
ATOM     30  N   UNL A   1      33.438  30.519  26.312  1.00  0.00    -0.352 N 
ATOM     31  C   UNL A   1      33.928  31.301  27.331  1.00  0.00     0.251 C 
ATOM     32  H   UNL A   1      32.713  30.925  25.784  1.00  0.00     0.163 HD
ATOM     33  O   UNL A   1      33.355  32.341  27.633  1.00  0.00    -0.269 OA
BRANCH  31  34
ATOM     34  C   UNL A   1      35.135  30.878  28.075  1.00  0.00     0.039 A 
ATOM     35  C   UNL A   1      36.247  31.724  28.093  1.00  0.00     0.014 A 
ATOM     36  C   UNL A   1      35.178  29.651  28.743  1.00  0.00     0.014 A 
ATOM     37  C   UNL A   1      37.381  31.365  28.827  1.00  0.00     0.010 A 
ATOM     38  C   UNL A   1      36.278  29.331  29.535  1.00  0.00     0.010 A 
ATOM     39  C   UNL A   1      37.395  30.181  29.581  1.00  0.00    -0.014 A 
BRANCH  39  40
ATOM     40  C   UNL A   1      38.562  29.821  30.428  1.00  0.00     0.031 A 
ATOM     41  C   UNL A   1      38.756  30.469  31.773  1.00  0.00     0.074 A 
ATOM     42  C   UNL A   1      39.491  28.969  29.953  1.00  0.00     0.049 A 
ATOM     43  N   UNL A   1      39.741  30.327  32.622  1.00  0.00    -0.248 NA
ATOM     44  C   UNL A   1      37.722  31.422  32.209  1.00  0.00     0.031 C 
ATOM     45  C   UNL A   1      39.461  28.336  28.633  1.00  0.00     0.029 A 
ATOM     46  N   UNL A   1      40.659  28.513  30.514  1.00  0.00    -0.354 N 
ATOM     47  C   UNL A   1      39.463  31.189  33.675  1.00  0.00     0.074 A 
ATOM     48  C   UNL A   1      38.239  31.882  33.339  1.00  0.00     0.031 C 
ATOM     49  C   UNL A   1      40.557  27.574  28.485  1.00  0.00     0.029 A 
ATOM     50  C   UNL A   1      41.385  27.694  29.682  1.00  0.00     0.049 A 
ATOM     51  H   UNL A   1      40.949  28.750  31.423  1.00  0.00     0.167 HD
ATOM     52  C   UNL A   1      40.145  31.366  34.832  1.00  0.00     0.034 A 
ATOM     53  C   UNL A   1      42.590  27.116  29.852  1.00  0.00     0.034 A 
ATOM     54  C   UNL A   1      41.348  30.656  35.176  1.00  0.00     0.049 A 
ATOM     55  C   UNL A   1      43.320  27.309  31.153  1.00  0.00     0.074 A 
ATOM     56  C   UNL A   1      42.074  30.712  36.353  1.00  0.00     0.029 A 
ATOM     57  N   UNL A   1      42.012  29.771  34.340  1.00  0.00    -0.354 N 
ATOM     58  N   UNL A   1      42.967  28.017  32.198  1.00  0.00    -0.248 NA
ATOM     59  C   UNL A   1      44.594  26.594  31.314  1.00  0.00     0.031 C 
ATOM     60  C   UNL A   1      43.194  29.886  36.216  1.00  0.00     0.029 A 
ATOM     61  C   UNL A   1      43.144  29.283  34.970  1.00  0.00     0.049 A 
ATOM     62  H   UNL A   1      41.721  29.525  33.432  1.00  0.00     0.167 HD
ATOM     63  C   UNL A   1      43.956  27.808  33.152  1.00  0.00     0.074 A 
ATOM     64  C   UNL A   1      44.912  26.890  32.567  1.00  0.00     0.031 C 
ATOM     65  C   UNL A   1      44.066  28.336  34.396  1.00  0.00     0.034 A 
BRANCH  52  66
ATOM     66  C   UNL A   1      39.577  32.341  35.833  1.00  0.00     0.023 A 
ATOM     67  C   UNL A   1      38.596  31.906  36.749  1.00  0.00     0.012 A 
ATOM     68  C   UNL A   1      40.042  33.668  35.900  1.00  0.00     0.148 A 
ATOM     69  C   UNL A   1      38.055  32.788  37.684  1.00  0.00     0.002 A 
ATOM     70  C   UNL A   1      39.534  34.528  36.868  1.00  0.00     0.091 A 
ATOM     71  F   UNL A   1      40.961  34.070  35.010  1.00  0.00    -0.205 F 
ATOM     72  C   UNL A   1      38.531  34.094  37.750  1.00  0.00     0.022 A 
BRANCH  70  73
ATOM     73  S   UNL A   1      40.138  36.205  37.088  1.00  0.00     0.127 S 
ATOM     74  O   UNL A   1      41.561  35.974  37.338  1.00  0.00    -0.237 OA
ATOM     75  O   UNL A   1      39.837  36.812  35.791  1.00  0.00    -0.237 OA
ATOM     76  O   UNL A   1      39.389  36.758  38.208  1.00  0.00    -0.744 OA
ENDBRANCH  70  73
ENDBRANCH  52  66
BRANCH  53  77
ATOM     77  C   UNL A   1      43.164  26.269  28.770  1.00  0.00     0.023 A 
ATOM     78  C   UNL A   1      42.754  24.929  28.635  1.00  0.00     0.012 A 
ATOM     79  C   UNL A   1      44.091  26.801  27.853  1.00  0.00     0.148 A 
ATOM     80  C   UNL A   1      43.280  24.124  27.624  1.00  0.00     0.002 A 
ATOM     81  C   UNL A   1      44.567  26.013  26.814  1.00  0.00     0.091 A 
ATOM     82  F   UNL A   1      44.473  28.077  28.007  1.00  0.00    -0.205 F 
ATOM     83  C   UNL A   1      44.179  24.668  26.707  1.00  0.00     0.022 A 
BRANCH  81  84
ATOM     84  S   UNL A   1      45.619  26.670  25.515  1.00  0.00     0.127 S 
ATOM     85  O   UNL A   1      45.771  25.510  24.640  1.00  0.00    -0.237 OA
ATOM     86  O   UNL A   1      44.789  27.747  24.978  1.00  0.00    -0.237 OA
ATOM     87  O   UNL A   1      46.835  27.118  26.181  1.00  0.00    -0.744 OA
ENDBRANCH  81  84
ENDBRANCH  53  77
BRANCH  65  88
ATOM     88  C   UNL A   1      45.243  27.908  35.235  1.00  0.00     0.023 A 
ATOM     89  C   UNL A   1      46.434  28.659  35.218  1.00  0.00     0.012 A 
ATOM     90  C   UNL A   1      45.137  26.797  36.097  1.00  0.00     0.148 A 
ATOM     91  C   UNL A   1      47.515  28.291  36.019  1.00  0.00     0.002 A 
ATOM     92  C   UNL A   1      46.198  26.469  36.931  1.00  0.00     0.091 A 
ATOM     93  F   UNL A   1      44.001  26.085  36.085  1.00  0.00    -0.205 F 
ATOM     94  C   UNL A   1      47.392  27.205  36.884  1.00  0.00     0.022 A 
BRANCH  92  95
ATOM     95  S   UNL A   1      46.097  25.150  38.146  1.00  0.00     0.127 S 
ATOM     96  O   UNL A   1      46.008  23.965  37.292  1.00  0.00    -0.237 OA
ATOM     97  O   UNL A   1      47.364  25.293  38.862  1.00  0.00    -0.237 OA
ATOM     98  O   UNL A   1      44.913  25.430  38.947  1.00  0.00    -0.744 OA
ENDBRANCH  92  95
ENDBRANCH  65  88
ENDBRANCH  39  40
ENDBRANCH  31  34
ENDBRANCH  29  30
ENDBRANCH  28  29
ENDBRANCH  27  28
ENDBRANCH   1  27
TORSDOF 20
ENDMDL
MODEL 2
REMARK VINA RESULT:     -10.8      2.137      7.699
REMARK SMILES CSc1nc(N)cc(Nc2cccc(C(=O)NCCCCCCNC(=O)c3ccc(-c4c5nc(c(-c6cccc(S(=O)(=O)[O-])c6F)c6ccc([nH]6)c(-c6cccc(S(=O)(=O)[O-])c6F)c6nc(c(-c7cccc(S(=O)(=O)[O-])c7F)c7ccc4[nH]7)C=C6)C=C5)cc3)c2)n1
REMARK SMILES IDX 20 1 19 2 18 3 17 4 15 5 16 6 14 8 10 9 11 10 90 11 12 12
REMARK SMILES IDX 13 13 9 14 8 16 3 17 4 18 91 19 5 20 7 21 2 22 1 23 6 24
REMARK SMILES IDX 21 27 22 28 23 29 24 30 25 31 26 33 27 34 28 35 89 36 29 37
REMARK SMILES IDX 88 38 30 39 31 40 32 41 82 42 33 43 87 44 81 45 83 46 34 47
REMARK SMILES IDX 86 48 80 49 79 50 35 52 67 53 47 54 66 55 48 56 51 57 65 58
REMARK SMILES IDX 84 59 49 60 50 61 64 63 85 64 52 65 36 66 37 67 45 68 38 69
REMARK SMILES IDX 40 70 46 71 39 72 41 73 42 74 43 75 44 76 68 77 69 78 77 79
REMARK SMILES IDX 70 80 72 81 78 82 71 83 73 84 74 85 75 86 76 87 53 88 54 89
REMARK SMILES IDX 62 90 55 91 57 92 63 93 56 94 58 95 59 96 60 97 61 98
REMARK H PARENT 17 7 9 15 6 25 6 26 24 32 83 51 51 62
REMARK Flexibility Score: inf
ROOT
ATOM      1  C   UNL A   1      33.967  26.639  25.555  1.00  0.00     0.002 C 
ENDROOT
BRANCH   1   2
ATOM      2  C   UNL A   1      34.424  25.206  25.295  1.00  0.00     0.021 C 
BRANCH   2   3
ATOM      3  C   UNL A   1      34.345  24.724  23.852  1.00  0.00     0.116 C 
BRANCH   3   4
ATOM      4  N   UNL A   1      33.986  23.320  23.709  1.00  0.00    -0.352 N 
ATOM      5  C   UNL A   1      32.841  22.638  24.068  1.00  0.00     0.251 C 
ATOM      6  O   UNL A   1      32.796  21.422  23.876  1.00  0.00    -0.269 OA
ATOM      7  H   UNL A   1      34.677  22.763  23.284  1.00  0.00     0.163 HD
BRANCH   5   8
ATOM      8  C   UNL A   1      31.694  23.310  24.741  1.00  0.00     0.041 A 
ATOM      9  C   UNL A   1      29.897  24.965  24.719  1.00  0.00     0.040 A 
ATOM     10  C   UNL A   1      29.749  24.790  26.098  1.00  0.00     0.026 A 
ATOM     11  C   UNL A   1      30.808  24.138  24.053  1.00  0.00     0.040 A 
ATOM     12  C   UNL A   1      30.517  23.843  26.786  1.00  0.00     0.003 A 
ATOM     13  C   UNL A   1      31.506  23.123  26.113  1.00  0.00     0.014 A 
BRANCH   9  14
ATOM     14  N   UNL A   1      29.152  25.946  24.037  1.00  0.00    -0.340 N 
ATOM     15  H   UNL A   1      28.180  25.794  24.000  1.00  0.00     0.168 HD
BRANCH  14  16
ATOM     16  C   UNL A   1      29.611  27.114  23.398  1.00  0.00     0.137 A 
ATOM     17  C   UNL A   1      29.209  29.204  22.549  1.00  0.00     0.191 A 
ATOM     18  N   UNL A   1      30.468  29.379  22.146  1.00  0.00    -0.206 NA
ATOM     19  N   UNL A   1      28.746  28.109  23.158  1.00  0.00    -0.205 NA
ATOM     20  C   UNL A   1      31.318  28.375  22.375  1.00  0.00     0.130 A 
ATOM     21  C   UNL A   1      30.930  27.206  22.996  1.00  0.00     0.093 A 
BRANCH  17  22
ATOM     22  S   UNL A   1      28.033  30.505  22.294  1.00  0.00    -0.090 SA
ATOM     23  C   UNL A   1      28.668  31.685  23.502  1.00  0.00     0.094 C 
ENDBRANCH  17  22
BRANCH  20  24
ATOM     24  N   UNL A   1      32.638  28.595  22.040  1.00  0.00    -0.383 N 
ATOM     25  H   UNL A   1      33.318  28.679  22.747  1.00  0.00     0.158 HD
ATOM     26  H   UNL A   1      32.899  28.667  21.094  1.00  0.00     0.158 HD
ENDBRANCH  20  24
ENDBRANCH  14  16
ENDBRANCH   9  14
ENDBRANCH   5   8
ENDBRANCH   3   4
ENDBRANCH   2   3
ENDBRANCH   1   2
BRANCH   1  27
ATOM     27  C   UNL A   1      32.624  26.800  26.271  1.00  0.00     0.002 C 
BRANCH  27  28
ATOM     28  C   UNL A   1      32.025  28.209  26.282  1.00  0.00     0.021 C 
BRANCH  28  29
ATOM     29  C   UNL A   1      32.869  29.291  25.613  1.00  0.00     0.116 C 
BRANCH  29  30
ATOM     30  N   UNL A   1      32.468  30.633  26.000  1.00  0.00    -0.352 N 
ATOM     31  C   UNL A   1      33.018  31.474  26.938  1.00  0.00     0.251 C 
ATOM     32  H   UNL A   1      31.687  30.993  25.521  1.00  0.00     0.163 HD
ATOM     33  O   UNL A   1      32.439  32.510  27.244  1.00  0.00    -0.269 OA
BRANCH  31  34
ATOM     34  C   UNL A   1      34.297  31.120  27.592  1.00  0.00     0.039 A 
ATOM     35  C   UNL A   1      35.265  32.113  27.759  1.00  0.00     0.014 A 
ATOM     36  C   UNL A   1      34.549  29.816  28.028  1.00  0.00     0.014 A 
ATOM     37  C   UNL A   1      36.463  31.813  28.415  1.00  0.00     0.010 A 
ATOM     38  C   UNL A   1      35.708  29.538  28.748  1.00  0.00     0.010 A 
ATOM     39  C   UNL A   1      36.681  30.530  28.943  1.00  0.00    -0.014 A 
BRANCH  39  40
ATOM     40  C   UNL A   1      37.915  30.213  29.710  1.00  0.00     0.031 A 
ATOM     41  C   UNL A   1      38.928  29.246  29.159  1.00  0.00     0.074 A 
ATOM     42  C   UNL A   1      38.086  30.736  30.940  1.00  0.00     0.049 A 
ATOM     43  N   UNL A   1      40.029  28.803  29.708  1.00  0.00    -0.248 NA
ATOM     44  C   UNL A   1      38.654  28.682  27.826  1.00  0.00     0.031 C 
ATOM     45  C   UNL A   1      37.140  31.622  31.621  1.00  0.00     0.029 A 
ATOM     46  N   UNL A   1      39.101  30.572  31.850  1.00  0.00    -0.354 N 
ATOM     47  C   UNL A   1      40.564  27.890  28.808  1.00  0.00     0.074 A 
ATOM     48  C   UNL A   1      39.644  27.811  27.694  1.00  0.00     0.031 C 
ATOM     49  C   UNL A   1      37.618  31.924  32.838  1.00  0.00     0.029 A 
ATOM     50  C   UNL A   1      38.884  31.226  33.040  1.00  0.00     0.049 A 
ATOM     51  H   UNL A   1      39.907  30.038  31.668  1.00  0.00     0.167 HD
ATOM     52  C   UNL A   1      41.729  27.204  28.883  1.00  0.00     0.034 A 
ATOM     53  C   UNL A   1      39.611  31.248  34.174  1.00  0.00     0.034 A 
ATOM     54  C   UNL A   1      42.655  27.304  29.979  1.00  0.00     0.049 A 
ATOM     55  C   UNL A   1      40.912  30.496  34.228  1.00  0.00     0.074 A 
ATOM     56  C   UNL A   1      43.895  26.706  30.116  1.00  0.00     0.029 A 
ATOM     57  N   UNL A   1      42.438  28.041  31.133  1.00  0.00    -0.354 N 
ATOM     58  N   UNL A   1      41.471  29.751  33.306  1.00  0.00    -0.248 NA
ATOM     59  C   UNL A   1      41.700  30.616  35.463  1.00  0.00     0.031 C 
ATOM     60  C   UNL A   1      44.414  27.054  31.367  1.00  0.00     0.029 A 
ATOM     61  C   UNL A   1      43.516  27.904  31.993  1.00  0.00     0.049 A 
ATOM     62  H   UNL A   1      41.637  28.583  31.316  1.00  0.00     0.167 HD
ATOM     63  C   UNL A   1      42.690  29.342  33.834  1.00  0.00     0.074 A 
ATOM     64  C   UNL A   1      42.796  29.939  35.149  1.00  0.00     0.031 C 
ATOM     65  C   UNL A   1      43.631  28.537  33.282  1.00  0.00     0.034 A 
BRANCH  52  66
ATOM     66  C   UNL A   1      42.088  26.312  27.721  1.00  0.00     0.023 A 
ATOM     67  C   UNL A   1      42.816  26.842  26.635  1.00  0.00     0.012 A 
ATOM     68  C   UNL A   1      41.748  24.945  27.721  1.00  0.00     0.148 A 
ATOM     69  C   UNL A   1      43.161  26.039  25.549  1.00  0.00     0.002 A 
ATOM     70  C   UNL A   1      42.139  24.139  26.657  1.00  0.00     0.091 A 
ATOM     71  F   UNL A   1      41.041  24.462  28.751  1.00  0.00    -0.205 F 
ATOM     72  C   UNL A   1      42.831  24.686  25.564  1.00  0.00     0.022 A 
BRANCH  70  73
ATOM     73  S   UNL A   1      41.834  22.369  26.619  1.00  0.00     0.127 S 
ATOM     74  O   UNL A   1      40.373  22.321  26.682  1.00  0.00    -0.237 OA
ATOM     75  O   UNL A   1      42.402  21.987  25.326  1.00  0.00    -0.237 OA
ATOM     76  O   UNL A   1      42.526  21.817  27.775  1.00  0.00    -0.744 OA
ENDBRANCH  70  73
ENDBRANCH  52  66
BRANCH  53  77
ATOM     77  C   UNL A   1      39.135  32.041  35.341  1.00  0.00     0.023 A 
ATOM     78  C   UNL A   1      39.297  33.440  35.352  1.00  0.00     0.012 A 
ATOM     79  C   UNL A   1      38.491  31.415  36.426  1.00  0.00     0.148 A 
ATOM     80  C   UNL A   1      38.855  34.198  36.437  1.00  0.00     0.002 A 
ATOM     81  C   UNL A   1      38.001  32.180  37.475  1.00  0.00     0.091 A 
ATOM     82  F   UNL A   1      38.356  30.081  36.397  1.00  0.00    -0.205 F 
ATOM     83  C   UNL A   1      38.198  33.569  37.493  1.00  0.00     0.022 A 
BRANCH  81  84
ATOM     84  S   UNL A   1      37.027  31.470  38.807  1.00  0.00     0.127 S 
ATOM     85  O   UNL A   1      36.839  30.099  38.340  1.00  0.00    -0.237 OA
ATOM     86  O   UNL A   1      37.932  31.618  39.946  1.00  0.00    -0.237 OA
ATOM     87  O   UNL A   1      35.818  32.279  38.886  1.00  0.00    -0.744 OA
ENDBRANCH  81  84
ENDBRANCH  53  77
BRANCH  65  88
ATOM     88  C   UNL A   1      44.885  28.280  34.078  1.00  0.00     0.023 A 
ATOM     89  C   UNL A   1      45.994  29.139  33.946  1.00  0.00     0.012 A 
ATOM     90  C   UNL A   1      44.933  27.225  35.011  1.00  0.00     0.148 A 
ATOM     91  C   UNL A   1      47.146  28.930  34.705  1.00  0.00     0.002 A 
ATOM     92  C   UNL A   1      46.063  27.055  35.801  1.00  0.00     0.091 A 
ATOM     93  F   UNL A   1      43.874  26.409  35.108  1.00  0.00    -0.205 F 
ATOM     94  C   UNL A   1      47.175  27.897  35.640  1.00  0.00     0.022 A 
BRANCH  92  95
ATOM     95  S   UNL A   1      46.154  25.817  37.099  1.00  0.00     0.127 S 
ATOM     96  O   UNL A   1      46.088  24.575  36.330  1.00  0.00    -0.237 OA
ATOM     97  O   UNL A   1      47.460  26.095  37.698  1.00  0.00    -0.237 OA
ATOM     98  O   UNL A   1      45.020  26.068  37.977  1.00  0.00    -0.744 OA
ENDBRANCH  92  95
ENDBRANCH  65  88
ENDBRANCH  39  40
ENDBRANCH  31  34
ENDBRANCH  29  30
ENDBRANCH  28  29
ENDBRANCH  27  28
ENDBRANCH   1  27
TORSDOF 20
ENDMDL
MODEL 3
REMARK VINA RESULT:     -10.6      2.540      8.191
REMARK SMILES CSc1nc(N)cc(Nc2cccc(C(=O)NCCCCCCNC(=O)c3ccc(-c4c5nc(c(-c6cccc(S(=O)(=O)[O-])c6F)c6ccc([nH]6)c(-c6cccc(S(=O)(=O)[O-])c6F)c6nc(c(-c7cccc(S(=O)(=O)[O-])c7F)c7ccc4[nH]7)C=C6)C=C5)cc3)c2)n1
REMARK SMILES IDX 20 1 19 2 18 3 17 4 15 5 16 6 14 8 10 9 11 10 90 11 12 12
REMARK SMILES IDX 13 13 9 14 8 16 3 17 4 18 91 19 5 20 7 21 2 22 1 23 6 24
REMARK SMILES IDX 21 27 22 28 23 29 24 30 25 31 26 33 27 34 28 35 89 36 29 37
REMARK SMILES IDX 88 38 30 39 31 40 32 41 82 42 33 43 87 44 81 45 83 46 34 47
REMARK SMILES IDX 86 48 80 49 79 50 35 52 67 53 47 54 66 55 48 56 51 57 65 58
REMARK SMILES IDX 84 59 49 60 50 61 64 63 85 64 52 65 36 66 37 67 45 68 38 69
REMARK SMILES IDX 40 70 46 71 39 72 41 73 42 74 43 75 44 76 68 77 69 78 77 79
REMARK SMILES IDX 70 80 72 81 78 82 71 83 73 84 74 85 75 86 76 87 53 88 54 89
REMARK SMILES IDX 62 90 55 91 57 92 63 93 56 94 58 95 59 96 60 97 61 98
REMARK H PARENT 17 7 9 15 6 25 6 26 24 32 83 51 51 62
REMARK Flexibility Score: inf
ROOT
ATOM      1  C   UNL A   1      35.111  31.972  28.607  1.00  0.00     0.002 C 
ENDROOT
BRANCH   1   2
ATOM      2  C   UNL A   1      35.091  30.747  27.696  1.00  0.00     0.021 C 
BRANCH   2   3
ATOM      3  C   UNL A   1      33.781  30.467  26.970  1.00  0.00     0.116 C 
BRANCH   3   4
ATOM      4  N   UNL A   1      32.936  29.477  27.621  1.00  0.00    -0.352 N 
ATOM      5  C   UNL A   1      32.386  28.304  27.146  1.00  0.00     0.251 C 
ATOM      6  O   UNL A   1      31.659  27.649  27.895  1.00  0.00    -0.269 OA
ATOM      7  H   UNL A   1      32.721  29.678  28.560  1.00  0.00     0.163 HD
BRANCH   5   8
ATOM      8  C   UNL A   1      32.585  27.844  25.743  1.00  0.00     0.041 A 
ATOM      9  C   UNL A   1      31.868  27.791  23.407  1.00  0.00     0.040 A 
ATOM     10  C   UNL A   1      32.764  26.742  23.180  1.00  0.00     0.026 A 
ATOM     11  C   UNL A   1      31.874  28.387  24.673  1.00  0.00     0.040 A 
ATOM     12  C   UNL A   1      33.607  26.287  24.200  1.00  0.00     0.003 A 
ATOM     13  C   UNL A   1      33.499  26.819  25.486  1.00  0.00     0.014 A 
BRANCH   9  14
ATOM     14  N   UNL A   1      30.993  28.219  22.391  1.00  0.00    -0.340 N 
ATOM     15  H   UNL A   1      31.295  28.052  21.470  1.00  0.00     0.168 HD
BRANCH  14  16
ATOM     16  C   UNL A   1      29.744  28.858  22.516  1.00  0.00     0.137 A 
ATOM     17  C   UNL A   1      28.455  30.747  22.380  1.00  0.00     0.191 A 
ATOM     18  N   UNL A   1      27.342  30.122  22.769  1.00  0.00    -0.206 NA
ATOM     19  N   UNL A   1      29.652  30.167  22.252  1.00  0.00    -0.205 NA
ATOM     20  C   UNL A   1      27.449  28.820  23.046  1.00  0.00     0.130 A 
ATOM     21  C   UNL A   1      28.643  28.138  22.942  1.00  0.00     0.093 A 
BRANCH  17  22
ATOM     22  S   UNL A   1      28.380  32.471  21.978  1.00  0.00    -0.090 SA
ATOM     23  C   UNL A   1      27.853  32.325  20.259  1.00  0.00     0.094 C 
ENDBRANCH  17  22
BRANCH  20  24
ATOM     24  N   UNL A   1      26.279  28.158  23.358  1.00  0.00    -0.383 N 
ATOM     25  H   UNL A   1      25.850  28.302  24.232  1.00  0.00     0.158 HD
ATOM     26  H   UNL A   1      25.876  27.541  22.705  1.00  0.00     0.158 HD
ENDBRANCH  20  24
ENDBRANCH  14  16
ENDBRANCH   9  14
ENDBRANCH   5   8
ENDBRANCH   3   4
ENDBRANCH   2   3
ENDBRANCH   1   2
BRANCH   1  27
ATOM     27  C   UNL A   1      35.506  33.296  27.948  1.00  0.00     0.002 C 
BRANCH  27  28
ATOM     28  C   UNL A   1      34.427  34.381  27.906  1.00  0.00     0.021 C 
BRANCH  28  29
ATOM     29  C   UNL A   1      33.125  34.047  28.628  1.00  0.00     0.116 C 
BRANCH  29  30
ATOM     30  N   UNL A   1      32.800  35.007  29.669  1.00  0.00    -0.352 N 
ATOM     31  C   UNL A   1      33.360  35.173  30.913  1.00  0.00     0.251 C 
ATOM     32  H   UNL A   1      32.070  35.631  29.452  1.00  0.00     0.163 HD
ATOM     33  O   UNL A   1      32.840  35.933  31.721  1.00  0.00    -0.269 OA
BRANCH  31  34
ATOM     34  C   UNL A   1      34.580  34.420  31.283  1.00  0.00     0.039 A 
ATOM     35  C   UNL A   1      35.828  34.977  30.999  1.00  0.00     0.014 A 
ATOM     36  C   UNL A   1      34.495  33.166  31.895  1.00  0.00     0.014 A 
ATOM     37  C   UNL A   1      36.993  34.304  31.381  1.00  0.00     0.010 A 
ATOM     38  C   UNL A   1      35.653  32.534  32.344  1.00  0.00     0.010 A 
ATOM     39  C   UNL A   1      36.914  33.092  32.085  1.00  0.00    -0.014 A 
BRANCH  39  40
ATOM     40  C   UNL A   1      38.140  32.401  32.566  1.00  0.00     0.031 A 
ATOM     41  C   UNL A   1      38.744  31.277  31.768  1.00  0.00     0.074 A 
ATOM     42  C   UNL A   1      38.663  32.732  33.763  1.00  0.00     0.049 A 
ATOM     43  N   UNL A   1      39.771  30.520  32.057  1.00  0.00    -0.248 NA
ATOM     44  C   UNL A   1      38.094  30.942  30.490  1.00  0.00     0.031 C 
ATOM     45  C   UNL A   1      38.125  33.747  34.669  1.00  0.00     0.029 A 
ATOM     46  N   UNL A   1      39.748  32.227  34.436  1.00  0.00    -0.354 N 
ATOM     47  C   UNL A   1      39.873  29.604  31.017  1.00  0.00     0.074 A 
ATOM     48  C   UNL A   1      38.778  29.872  30.111  1.00  0.00     0.031 C 
ATOM     49  C   UNL A   1      38.879  33.791  35.778  1.00  0.00     0.029 A 
ATOM     50  C   UNL A   1      39.931  32.784  35.680  1.00  0.00     0.049 A 
ATOM     51  H   UNL A   1      40.338  31.533  34.065  1.00  0.00     0.167 HD
ATOM     52  C   UNL A   1      40.810  28.647  30.816  1.00  0.00     0.034 A 
ATOM     53  C   UNL A   1      40.832  32.506  36.642  1.00  0.00     0.034 A 
ATOM     54  C   UNL A   1      41.914  28.399  31.704  1.00  0.00     0.049 A 
ATOM     55  C   UNL A   1      41.877  31.454  36.388  1.00  0.00     0.074 A 
ATOM     56  C   UNL A   1      42.956  27.502  31.553  1.00  0.00     0.029 A 
ATOM     57  N   UNL A   1      42.113  29.040  32.918  1.00  0.00    -0.354 N 
ATOM     58  N   UNL A   1      42.042  30.696  35.332  1.00  0.00    -0.248 NA
ATOM     59  C   UNL A   1      42.880  31.245  37.442  1.00  0.00     0.031 C 
ATOM     60  C   UNL A   1      43.768  27.577  32.689  1.00  0.00     0.029 A 
ATOM     61  C   UNL A   1      43.254  28.551  33.531  1.00  0.00     0.049 A 
ATOM     62  H   UNL A   1      41.530  29.741  33.289  1.00  0.00     0.167 HD
ATOM     63  C   UNL A   1      43.186  29.945  35.578  1.00  0.00     0.074 A 
ATOM     64  C   UNL A   1      43.684  30.355  36.875  1.00  0.00     0.031 C 
ATOM     65  C   UNL A   1      43.766  28.996  34.803  1.00  0.00     0.034 A 
BRANCH  52  66
ATOM     66  C   UNL A   1      40.704  27.822  29.557  1.00  0.00     0.023 A 
ATOM     67  C   UNL A   1      39.718  26.818  29.464  1.00  0.00     0.012 A 
ATOM     68  C   UNL A   1      41.546  28.066  28.455  1.00  0.00     0.148 A 
ATOM     69  C   UNL A   1      39.600  26.041  28.312  1.00  0.00     0.002 A 
ATOM     70  C   UNL A   1      41.389  27.321  27.291  1.00  0.00     0.091 A 
ATOM     71  F   UNL A   1      42.490  29.011  28.567  1.00  0.00    -0.205 F 
ATOM     72  C   UNL A   1      40.428  26.300  27.223  1.00  0.00     0.022 A 
BRANCH  70  73
ATOM     73  S   UNL A   1      42.350  27.630  25.806  1.00  0.00     0.127 S 
ATOM     74  O   UNL A   1      41.976  26.489  24.970  1.00  0.00    -0.237 OA
ATOM     75  O   UNL A   1      41.816  28.916  25.357  1.00  0.00    -0.237 OA
ATOM     76  O   UNL A   1      43.743  27.663  26.227  1.00  0.00    -0.744 OA
ENDBRANCH  70  73
ENDBRANCH  52  66
BRANCH  53  77
ATOM     77  C   UNL A   1      40.803  33.264  37.923  1.00  0.00     0.023 A 
ATOM     78  C   UNL A   1      41.716  34.314  38.138  1.00  0.00     0.012 A 
ATOM     79  C   UNL A   1      39.849  32.968  38.916  1.00  0.00     0.148 A 
ATOM     80  C   UNL A   1      41.700  35.036  39.332  1.00  0.00     0.002 A 
ATOM     81  C   UNL A   1      39.800  33.727  40.077  1.00  0.00     0.091 A 
ATOM     82  F   UNL A   1      38.996  31.957  38.693  1.00  0.00    -0.205 F 
ATOM     83  C   UNL A   1      40.736  34.750  40.297  1.00  0.00     0.022 A 
BRANCH  81  84
ATOM     84  S   UNL A   1      38.510  33.514  41.309  1.00  0.00     0.127 S 
ATOM     85  O   UNL A   1      37.302  33.586  40.490  1.00  0.00    -0.237 OA
ATOM     86  O   UNL A   1      38.822  32.187  41.837  1.00  0.00    -0.237 OA
ATOM     87  O   UNL A   1      38.690  34.602  42.261  1.00  0.00    -0.744 OA
ENDBRANCH  81  84
ENDBRANCH  53  77
BRANCH  65  88
ATOM     88  C   UNL A   1      45.031  28.354  35.311  1.00  0.00     0.023 A 
ATOM     89  C   UNL A   1      46.280  28.948  35.046  1.00  0.00     0.012 A 
ATOM     90  C   UNL A   1      44.971  27.198  36.115  1.00  0.00     0.148 A 
ATOM     91  C   UNL A   1      47.454  28.381  35.544  1.00  0.00     0.002 A 
ATOM     92  C   UNL A   1      46.138  26.669  36.650  1.00  0.00     0.091 A 
ATOM     93  F   UNL A   1      43.773  26.638  36.340  1.00  0.00    -0.205 F 
ATOM     94  C   UNL A   1      47.382  27.251  36.355  1.00  0.00     0.022 A 
BRANCH  92  95
ATOM     95  S   UNL A   1      46.134  25.277  37.785  1.00  0.00     0.127 S 
ATOM     96  O   UNL A   1      47.560  25.127  38.077  1.00  0.00    -0.237 OA
ATOM     97  O   UNL A   1      45.334  25.788  38.898  1.00  0.00    -0.237 OA
ATOM     98  O   UNL A   1      45.527  24.169  37.061  1.00  0.00    -0.744 OA
ENDBRANCH  92  95
ENDBRANCH  65  88
ENDBRANCH  39  40
ENDBRANCH  31  34
ENDBRANCH  29  30
ENDBRANCH  28  29
ENDBRANCH  27  28
ENDBRANCH   1  27
TORSDOF 20
ENDMDL
