MODEL 1
REMARK VINA RESULT:      -9.3      0.000      0.000
REMARK SMILES O=C(NCCCCCCNC(=O)c1cc2c(c(S(=O)(=O)Nc3cc(C(F)(F)F)ccc3-n3cccn3)c1)CCC2)c1ccc(-c2c3nc(c(-c4cccc(S(=O)(=O)[O-])c4F)c4ccc([nH]4)c(-c4cccc(S(=O)(=O)[O-])c4F)c4nc(c(-c5cccc(S(=O)(=O)[O-])c5F)c5ccc2[nH]5)C=C4)C=C3)cc1
REMARK SMILES IDX 7 1 6 2 5 3 4 4 3 5 1 6 2 7 41 9 42 10 103 11 43 12 102 13
REMARK SMILES IDX 44 14 45 15 46 16 96 17 47 18 101 19 95 20 97 21 48 22
REMARK SMILES IDX 100 23 94 24 93 25 49 27 81 28 61 29 80 30 62 31 65 32 79 33
REMARK SMILES IDX 98 34 63 35 64 36 78 38 99 39 66 40 50 41 51 42 59 43 52 44
REMARK SMILES IDX 54 45 60 46 53 47 55 48 56 49 57 50 58 51 82 52 83 53 91 54
REMARK SMILES IDX 84 55 86 56 92 57 85 58 87 59 88 60 89 61 90 62 67 63 68 64
REMARK SMILES IDX 76 65 69 66 71 67 77 68 70 69 72 70 73 71 74 72 75 73 8 74
REMARK SMILES IDX 9 75 10 76 11 77 12 79 13 80 14 81 37 82 15 83 17 84 16 85
REMARK SMILES IDX 40 86 38 87 39 88 18 89 19 90 20 91 21 92 22 94 23 95 31 96
REMARK SMILES IDX 24 97 30 98 29 99 32 100 33 101 36 102 34 103 35 104 25 105
REMARK SMILES IDX 26 106 27 107 28 108
REMARK H PARENT 3 8 97 26 65 37 10 78 21 93
REMARK Flexibility Score: inf
ROOT
ATOM      1  C   UNL A   1      36.704  34.580  32.968  1.00  0.00     0.002 C 
ENDROOT
BRANCH   1   2
ATOM      2  C   UNL A   1      35.390  34.751  32.193  1.00  0.00     0.002 C 
BRANCH   2   3
ATOM      3  C   UNL A   1      34.385  33.594  32.302  1.00  0.00     0.021 C 
BRANCH   3   4
ATOM      4  C   UNL A   1      34.751  32.351  31.493  1.00  0.00     0.116 C 
BRANCH   4   5
ATOM      5  N   UNL A   1      34.665  32.538  30.061  1.00  0.00    -0.352 N 
ATOM      6  O   UNL A   1      34.913  32.415  27.877  1.00  0.00    -0.269 OA
ATOM      7  C   UNL A   1      35.350  32.066  28.977  1.00  0.00     0.251 C 
ATOM      8  H   UNL A   1      33.939  33.154  29.806  1.00  0.00     0.163 HD
BRANCH   7   9
ATOM      9  C   UNL A   1      36.586  31.238  29.032  1.00  0.00     0.039 A 
ATOM     10  C   UNL A   1      36.666  29.872  28.762  1.00  0.00     0.014 A 
ATOM     11  C   UNL A   1      37.764  31.922  29.393  1.00  0.00     0.014 A 
ATOM     12  C   UNL A   1      37.869  29.190  28.931  1.00  0.00     0.010 A 
ATOM     13  C   UNL A   1      38.971  31.250  29.547  1.00  0.00     0.010 A 
ATOM     14  C   UNL A   1      39.013  29.875  29.349  1.00  0.00    -0.014 A 
BRANCH  14  15
ATOM     15  C   UNL A   1      40.272  29.137  29.414  1.00  0.00     0.031 A 
ATOM     16  C   UNL A   1      40.759  28.861  30.798  1.00  0.00     0.074 A 
ATOM     17  C   UNL A   1      40.891  28.620  28.332  1.00  0.00     0.049 A 
ATOM     18  N   UNL A   1      41.860  29.251  31.355  1.00  0.00    -0.248 NA
ATOM     19  C   UNL A   1      39.845  28.157  31.712  1.00  0.00     0.031 C 
ATOM     20  C   UNL A   1      40.388  28.542  26.959  1.00  0.00     0.029 A 
ATOM     21  N   UNL A   1      42.064  27.926  28.268  1.00  0.00    -0.354 N 
ATOM     22  C   UNL A   1      41.872  28.670  32.625  1.00  0.00     0.074 A 
ATOM     23  C   UNL A   1      40.551  28.141  32.843  1.00  0.00     0.031 C 
ATOM     24  C   UNL A   1      41.120  27.639  26.267  1.00  0.00     0.029 A 
ATOM     25  C   UNL A   1      42.220  27.187  27.099  1.00  0.00     0.049 A 
ATOM     26  H   UNL A   1      42.739  27.946  28.984  1.00  0.00     0.167 HD
ATOM     27  C   UNL A   1      43.022  28.491  33.332  1.00  0.00     0.034 A 
ATOM     28  C   UNL A   1      43.141  26.218  26.869  1.00  0.00     0.034 A 
ATOM     29  C   UNL A   1      44.095  29.300  32.822  1.00  0.00     0.049 A 
ATOM     30  C   UNL A   1      44.238  26.403  27.844  1.00  0.00     0.074 A 
ATOM     31  C   UNL A   1      44.315  30.654  32.680  1.00  0.00     0.029 A 
ATOM     32  N   UNL A   1      45.019  28.682  32.016  1.00  0.00    -0.354 N 
ATOM     33  N   UNL A   1      45.039  27.430  27.840  1.00  0.00    -0.248 NA
ATOM     34  C   UNL A   1      44.179  25.656  29.088  1.00  0.00     0.031 C 
ATOM     35  C   UNL A   1      45.002  30.782  31.438  1.00  0.00     0.029 A 
ATOM     36  C   UNL A   1      45.212  29.497  30.932  1.00  0.00     0.049 A 
ATOM     37  H   UNL A   1      45.459  27.819  32.186  1.00  0.00     0.167 HD
ATOM     38  C   UNL A   1      45.221  27.728  29.183  1.00  0.00     0.074 A 
ATOM     39  C   UNL A   1      44.757  26.542  29.902  1.00  0.00     0.031 C 
ATOM     40  C   UNL A   1      45.459  29.008  29.594  1.00  0.00     0.034 A 
BRANCH  27  41
ATOM     41  C   UNL A   1      43.279  27.352  34.291  1.00  0.00     0.023 A 
ATOM     42  C   UNL A   1      43.411  27.661  35.664  1.00  0.00     0.012 A 
ATOM     43  C   UNL A   1      43.658  26.051  33.888  1.00  0.00     0.148 A 
ATOM     44  C   UNL A   1      43.930  26.737  36.579  1.00  0.00     0.002 A 
ATOM     45  C   UNL A   1      44.101  25.111  34.814  1.00  0.00     0.091 A 
ATOM     46  F   UNL A   1      43.722  25.748  32.588  1.00  0.00    -0.205 F 
ATOM     47  C   UNL A   1      44.266  25.458  36.157  1.00  0.00     0.022 A 
BRANCH  45  48
ATOM     48  S   UNL A   1      44.501  23.428  34.331  1.00  0.00     0.127 S 
ATOM     49  O   UNL A   1      45.743  23.625  33.589  1.00  0.00    -0.237 OA
ATOM     50  O   UNL A   1      44.654  22.772  35.630  1.00  0.00    -0.237 OA
ATOM     51  O   UNL A   1      43.357  22.962  33.560  1.00  0.00    -0.744 OA
ENDBRANCH  45  48
ENDBRANCH  27  41
BRANCH  28  52
ATOM     52  C   UNL A   1      43.024  24.974  26.073  1.00  0.00     0.023 A 
ATOM     53  C   UNL A   1      43.995  24.666  25.098  1.00  0.00     0.012 A 
ATOM     54  C   UNL A   1      42.134  23.953  26.472  1.00  0.00     0.148 A 
ATOM     55  C   UNL A   1      44.095  23.376  24.560  1.00  0.00     0.002 A 
ATOM     56  C   UNL A   1      42.234  22.674  25.933  1.00  0.00     0.091 A 
ATOM     57  F   UNL A   1      41.256  24.212  27.449  1.00  0.00    -0.205 F 
ATOM     58  C   UNL A   1      43.221  22.378  24.985  1.00  0.00     0.022 A 
BRANCH  56  59
ATOM     59  S   UNL A   1      41.168  21.326  26.460  1.00  0.00     0.127 S 
ATOM     60  O   UNL A   1      39.855  21.787  26.005  1.00  0.00    -0.237 OA
ATOM     61  O   UNL A   1      41.714  20.199  25.709  1.00  0.00    -0.237 OA
ATOM     62  O   UNL A   1      41.309  21.249  27.908  1.00  0.00    -0.744 OA
ENDBRANCH  56  59
ENDBRANCH  28  52
BRANCH  40  63
ATOM     63  C   UNL A   1      45.740  30.050  28.539  1.00  0.00     0.023 A 
ATOM     64  C   UNL A   1      44.711  30.793  27.918  1.00  0.00     0.012 A 
ATOM     65  C   UNL A   1      47.074  30.410  28.295  1.00  0.00     0.148 A 
ATOM     66  C   UNL A   1      45.008  31.850  27.054  1.00  0.00     0.002 A 
ATOM     67  C   UNL A   1      47.366  31.493  27.474  1.00  0.00     0.091 A 
ATOM     68  F   UNL A   1      48.042  29.702  28.895  1.00  0.00    -0.205 F 
ATOM     69  C   UNL A   1      46.337  32.209  26.842  1.00  0.00     0.022 A 
BRANCH  67  70
ATOM     70  S   UNL A   1      49.046  32.089  27.270  1.00  0.00     0.127 S 
ATOM     71  O   UNL A   1      49.505  32.189  28.653  1.00  0.00    -0.237 OA
ATOM     72  O   UNL A   1      49.668  31.015  26.493  1.00  0.00    -0.237 OA
ATOM     73  O   UNL A   1      48.938  33.353  26.550  1.00  0.00    -0.744 OA
ENDBRANCH  67  70
ENDBRANCH  40  63
ENDBRANCH  14  15
ENDBRANCH   7   9
ENDBRANCH   4   5
ENDBRANCH   3   4
ENDBRANCH   2   3
ENDBRANCH   1   2
BRANCH   1  74
ATOM     74  C   UNL A   1      36.563  34.387  34.478  1.00  0.00     0.021 C 
BRANCH  74  75
ATOM     75  C   UNL A   1      37.244  33.145  35.040  1.00  0.00     0.116 C 
BRANCH  75  76
ATOM     76  N   UNL A   1      36.931  31.925  34.293  1.00  0.00    -0.352 N 
ATOM     77  C   UNL A   1      37.783  31.097  33.587  1.00  0.00     0.251 C 
ATOM     78  H   UNL A   1      35.984  31.659  34.293  1.00  0.00     0.163 HD
ATOM     79  O   UNL A   1      37.348  30.179  32.895  1.00  0.00    -0.269 OA
BRANCH  77  80
ATOM     80  C   UNL A   1      39.241  31.348  33.649  1.00  0.00     0.041 A 
ATOM     81  C   UNL A   1      39.947  30.862  34.744  1.00  0.00     0.018 A 
ATOM     82  C   UNL A   1      39.862  32.191  32.702  1.00  0.00     0.036 A 
ATOM     83  C   UNL A   1      41.155  31.459  35.023  1.00  0.00    -0.043 A 
ATOM     84  C   UNL A   1      41.150  32.724  32.943  1.00  0.00     0.092 A 
ATOM     85  C   UNL A   1      41.715  32.446  34.183  1.00  0.00    -0.024 A 
ATOM     86  C   UNL A   1      41.930  31.292  36.296  1.00  0.00     0.036 C 
ATOM     87  C   UNL A   1      42.787  33.125  34.974  1.00  0.00     0.037 C 
ATOM     88  C   UNL A   1      43.226  31.990  35.905  1.00  0.00     0.010 C 
BRANCH  84  89
ATOM     89  S   UNL A   1      41.789  33.899  31.763  1.00  0.00     0.262 S 
ATOM     90  O   UNL A   1      40.791  34.023  30.715  1.00  0.00    -0.201 OA
ATOM     91  O   UNL A   1      42.190  35.076  32.503  1.00  0.00    -0.201 OA
BRANCH  89  92
ATOM     92  N   UNL A   1      43.180  33.396  30.902  1.00  0.00    -0.277 N 
ATOM     93  H   UNL A   1      43.595  32.538  31.151  1.00  0.00     0.180 HD
BRANCH  92  94
ATOM     94  C   UNL A   1      43.775  34.152  29.839  1.00  0.00     0.075 A 
ATOM     95  C   UNL A   1      42.995  34.460  28.710  1.00  0.00     0.042 A 
ATOM     96  C   UNL A   1      45.066  34.690  29.948  1.00  0.00     0.089 A 
ATOM     97  C   UNL A   1      43.463  35.366  27.732  1.00  0.00     0.058 A 
ATOM     98  C   UNL A   1      45.552  35.557  28.957  1.00  0.00     0.031 A 
ATOM     99  C   UNL A   1      44.757  35.892  27.858  1.00  0.00     0.015 A 
BRANCH  96 100
ATOM    100  N   UNL A   1      45.869  34.446  31.087  1.00  0.00    -0.239 N 
ATOM    101  C   UNL A   1      47.044  33.731  31.162  1.00  0.00     0.115 A 
ATOM    102  N   UNL A   1      45.440  34.817  32.317  1.00  0.00    -0.177 NA
ATOM    103  C   UNL A   1      47.247  33.442  32.487  1.00  0.00     0.042 A 
ATOM    104  C   UNL A   1      46.199  34.099  33.150  1.00  0.00     0.135 A 
ENDBRANCH  96 100
BRANCH  97 105
ATOM    105  C   UNL A   1      42.544  35.837  26.626  1.00  0.00     0.416 C 
ATOM    106  F   UNL A   1      41.235  35.815  26.991  1.00  0.00    -0.166 F 
ATOM    107  F   UNL A   1      42.808  37.119  26.248  1.00  0.00    -0.166 F 
ATOM    108  F   UNL A   1      42.634  35.091  25.490  1.00  0.00    -0.166 F 
ENDBRANCH  97 105
ENDBRANCH  92  94
ENDBRANCH  89  92
ENDBRANCH  84  89
ENDBRANCH  77  80
ENDBRANCH  75  76
ENDBRANCH  74  75
ENDBRANCH   1  74
TORSDOF 21
ENDMDL
MODEL 2
REMARK VINA RESULT:      -8.9      4.607     12.289
REMARK SMILES O=C(NCCCCCCNC(=O)c1cc2c(c(S(=O)(=O)Nc3cc(C(F)(F)F)ccc3-n3cccn3)c1)CCC2)c1ccc(-c2c3nc(c(-c4cccc(S(=O)(=O)[O-])c4F)c4ccc([nH]4)c(-c4cccc(S(=O)(=O)[O-])c4F)c4nc(c(-c5cccc(S(=O)(=O)[O-])c5F)c5ccc2[nH]5)C=C4)C=C3)cc1
REMARK SMILES IDX 7 1 6 2 5 3 4 4 3 5 1 6 2 7 41 9 42 10 103 11 43 12 102 13
REMARK SMILES IDX 44 14 45 15 46 16 96 17 47 18 101 19 95 20 97 21 48 22
REMARK SMILES IDX 100 23 94 24 93 25 49 27 81 28 61 29 80 30 62 31 65 32 79 33
REMARK SMILES IDX 98 34 63 35 64 36 78 38 99 39 66 40 50 41 51 42 59 43 52 44
REMARK SMILES IDX 54 45 60 46 53 47 55 48 56 49 57 50 58 51 82 52 83 53 91 54
REMARK SMILES IDX 84 55 86 56 92 57 85 58 87 59 88 60 89 61 90 62 67 63 68 64
REMARK SMILES IDX 76 65 69 66 71 67 77 68 70 69 72 70 73 71 74 72 75 73 8 74
REMARK SMILES IDX 9 75 10 76 11 77 12 79 13 80 14 81 37 82 15 83 17 84 16 85
REMARK SMILES IDX 40 86 38 87 39 88 18 89 19 90 20 91 21 92 22 94 23 95 31 96
REMARK SMILES IDX 24 97 30 98 29 99 32 100 33 101 36 102 34 103 35 104 25 105
REMARK SMILES IDX 26 106 27 107 28 108
REMARK H PARENT 3 8 97 26 65 37 10 78 21 93
REMARK Flexibility Score: inf
ROOT
ATOM      1  C   UNL A   1      43.889  25.640  25.116  1.00  0.00     0.002 C 
ENDROOT
BRANCH   1   2
ATOM      2  C   UNL A   1      43.675  24.202  25.606  1.00  0.00     0.002 C 
BRANCH   2   3
ATOM      3  C   UNL A   1      44.926  23.463  26.103  1.00  0.00     0.021 C 
BRANCH   3   4
ATOM      4  C   UNL A   1      45.558  24.052  27.362  1.00  0.00     0.116 C 
BRANCH   4   5
ATOM      5  N   UNL A   1      45.165  23.382  28.583  1.00  0.00    -0.352 N 
ATOM      6  O   UNL A   1      44.294  22.838  30.530  1.00  0.00    -0.269 OA
ATOM      7  C   UNL A   1      44.502  23.746  29.720  1.00  0.00     0.251 C 
ATOM      8  H   UNL A   1      45.443  22.436  28.597  1.00  0.00     0.163 HD
BRANCH   7   9
ATOM      9  C   UNL A   1      44.085  25.132  30.068  1.00  0.00     0.039 A 
ATOM     10  C   UNL A   1      44.602  25.902  31.110  1.00  0.00     0.014 A 
ATOM     11  C   UNL A   1      43.076  25.688  29.258  1.00  0.00     0.014 A 
ATOM     12  C   UNL A   1      44.067  27.158  31.389  1.00  0.00     0.010 A 
ATOM     13  C   UNL A   1      42.550  26.948  29.521  1.00  0.00     0.010 A 
ATOM     14  C   UNL A   1      43.024  27.668  30.611  1.00  0.00    -0.014 A 
BRANCH  14  15
ATOM     15  C   UNL A   1      42.567  29.029  30.879  1.00  0.00     0.031 A 
ATOM     16  C   UNL A   1      43.437  30.099  30.306  1.00  0.00     0.074 A 
ATOM     17  C   UNL A   1      41.390  29.319  31.471  1.00  0.00     0.049 A 
ATOM     18  N   UNL A   1      44.086  31.028  30.932  1.00  0.00    -0.248 NA
ATOM     19  C   UNL A   1      43.709  30.053  28.860  1.00  0.00     0.031 C 
ATOM     20  C   UNL A   1      40.301  28.399  31.808  1.00  0.00     0.029 A 
ATOM     21  N   UNL A   1      40.865  30.541  31.778  1.00  0.00    -0.354 N 
ATOM     22  C   UNL A   1      44.685  31.808  29.942  1.00  0.00     0.074 A 
ATOM     23  C   UNL A   1      44.546  31.079  28.708  1.00  0.00     0.031 C 
ATOM     24  C   UNL A   1      39.172  29.109  32.034  1.00  0.00     0.029 A 
ATOM     25  C   UNL A   1      39.491  30.525  31.997  1.00  0.00     0.049 A 
ATOM     26  H   UNL A   1      41.409  31.359  31.838  1.00  0.00     0.167 HD
ATOM     27  C   UNL A   1      45.082  33.091  30.169  1.00  0.00     0.034 A 
ATOM     28  C   UNL A   1      38.668  31.602  32.065  1.00  0.00     0.034 A 
ATOM     29  C   UNL A   1      45.183  33.380  31.573  1.00  0.00     0.049 A 
ATOM     30  C   UNL A   1      39.506  32.787  32.352  1.00  0.00     0.074 A 
ATOM     31  C   UNL A   1      45.938  32.892  32.619  1.00  0.00     0.029 A 
ATOM     32  N   UNL A   1      44.145  34.069  32.149  1.00  0.00    -0.354 N 
ATOM     33  N   UNL A   1      40.141  32.965  33.475  1.00  0.00    -0.248 NA
ATOM     34  C   UNL A   1      39.980  33.576  31.228  1.00  0.00     0.031 C 
ATOM     35  C   UNL A   1      45.051  32.883  33.734  1.00  0.00     0.029 A 
ATOM     36  C   UNL A   1      43.833  33.422  33.315  1.00  0.00     0.049 A 
ATOM     37  H   UNL A   1      43.709  34.876  31.792  1.00  0.00     0.167 HD
ATOM     38  C   UNL A   1      41.357  33.518  33.097  1.00  0.00     0.074 A 
ATOM     39  C   UNL A   1      41.158  33.968  31.720  1.00  0.00     0.031 C 
ATOM     40  C   UNL A   1      42.487  33.299  33.829  1.00  0.00     0.034 A 
BRANCH  27  41
ATOM     41  C   UNL A   1      45.078  34.193  29.134  1.00  0.00     0.023 A 
ATOM     42  C   UNL A   1      46.298  34.857  28.872  1.00  0.00     0.012 A 
ATOM     43  C   UNL A   1      43.904  34.780  28.611  1.00  0.00     0.148 A 
ATOM     44  C   UNL A   1      46.341  36.062  28.160  1.00  0.00     0.002 A 
ATOM     45  C   UNL A   1      43.960  35.937  27.838  1.00  0.00     0.091 A 
ATOM     46  F   UNL A   1      42.706  34.304  28.963  1.00  0.00    -0.205 F 
ATOM     47  C   UNL A   1      45.173  36.598  27.634  1.00  0.00     0.022 A 
BRANCH  45  48
ATOM     48  S   UNL A   1      42.487  36.645  27.093  1.00  0.00     0.127 S 
ATOM     49  O   UNL A   1      42.101  35.596  26.154  1.00  0.00    -0.237 OA
ATOM     50  O   UNL A   1      41.607  36.793  28.253  1.00  0.00    -0.237 OA
ATOM     51  O   UNL A   1      42.916  37.908  26.506  1.00  0.00    -0.744 OA
ENDBRANCH  45  48
ENDBRANCH  27  41
BRANCH  28  52
ATOM     52  C   UNL A   1      37.262  31.745  31.620  1.00  0.00     0.023 A 
ATOM     53  C   UNL A   1      36.275  32.180  32.529  1.00  0.00     0.012 A 
ATOM     54  C   UNL A   1      36.947  31.744  30.244  1.00  0.00     0.148 A 
ATOM     55  C   UNL A   1      35.026  32.626  32.078  1.00  0.00     0.002 A 
ATOM     56  C   UNL A   1      35.703  32.183  29.801  1.00  0.00     0.091 A 
ATOM     57  F   UNL A   1      37.899  31.402  29.367  1.00  0.00    -0.205 F 
ATOM     58  C   UNL A   1      34.743  32.637  30.715  1.00  0.00     0.022 A 
BRANCH  56  59
ATOM     59  S   UNL A   1      35.280  32.262  28.056  1.00  0.00     0.127 S 
ATOM     60  O   UNL A   1      36.134  33.355  27.589  1.00  0.00    -0.237 OA
ATOM     61  O   UNL A   1      35.676  30.936  27.590  1.00  0.00    -0.237 OA
ATOM     62  O   UNL A   1      33.853  32.552  28.004  1.00  0.00    -0.744 OA
ENDBRANCH  56  59
ENDBRANCH  28  52
BRANCH  40  63
ATOM     63  C   UNL A   1      42.342  32.632  35.175  1.00  0.00     0.023 A 
ATOM     64  C   UNL A   1      42.415  31.231  35.335  1.00  0.00     0.012 A 
ATOM     65  C   UNL A   1      42.303  33.441  36.322  1.00  0.00     0.148 A 
ATOM     66  C   UNL A   1      42.423  30.651  36.607  1.00  0.00     0.002 A 
ATOM     67  C   UNL A   1      42.361  32.865  37.586  1.00  0.00     0.091 A 
ATOM     68  F   UNL A   1      42.241  34.771  36.157  1.00  0.00    -0.205 F 
ATOM     69  C   UNL A   1      42.410  31.470  37.733  1.00  0.00     0.022 A 
BRANCH  67  70
ATOM     70  S   UNL A   1      42.484  33.867  39.068  1.00  0.00     0.127 S 
ATOM     71  O   UNL A   1      42.212  32.890  40.120  1.00  0.00    -0.237 OA
ATOM     72  O   UNL A   1      43.870  34.339  39.014  1.00  0.00    -0.237 OA
ATOM     73  O   UNL A   1      41.493  34.925  38.921  1.00  0.00    -0.744 OA
ENDBRANCH  67  70
ENDBRANCH  40  63
ENDBRANCH  14  15
ENDBRANCH   7   9
ENDBRANCH   4   5
ENDBRANCH   3   4
ENDBRANCH   2   3
ENDBRANCH   1   2
BRANCH   1  74
ATOM     74  C   UNL A   1      42.893  26.675  25.640  1.00  0.00     0.021 C 
BRANCH  74  75
ATOM     75  C   UNL A   1      41.424  26.293  25.496  1.00  0.00     0.116 C 
BRANCH  75  76
ATOM     76  N   UNL A   1      40.568  26.887  26.523  1.00  0.00    -0.352 N 
ATOM     77  C   UNL A   1      39.650  26.271  27.352  1.00  0.00     0.251 C 
ATOM     78  H   UNL A   1      40.657  27.860  26.639  1.00  0.00     0.163 HD
ATOM     79  O   UNL A   1      38.904  26.928  28.075  1.00  0.00    -0.269 OA
BRANCH  77  80
ATOM     80  C   UNL A   1      39.551  24.793  27.339  1.00  0.00     0.041 A 
ATOM     81  C   UNL A   1      40.552  24.060  27.969  1.00  0.00     0.018 A 
ATOM     82  C   UNL A   1      38.556  24.150  26.573  1.00  0.00     0.036 A 
ATOM     83  C   UNL A   1      40.704  22.749  27.582  1.00  0.00    -0.043 A 
ATOM     84  C   UNL A   1      38.659  22.774  26.261  1.00  0.00     0.092 A 
ATOM     85  C   UNL A   1      39.823  22.131  26.668  1.00  0.00    -0.024 A 
ATOM     86  C   UNL A   1      41.879  21.878  27.915  1.00  0.00     0.036 C 
ATOM     87  C   UNL A   1      40.499  20.883  26.196  1.00  0.00     0.037 C 
ATOM     88  C   UNL A   1      41.356  20.536  27.418  1.00  0.00     0.010 C 
BRANCH  84  89
ATOM     89  S   UNL A   1      37.435  22.084  25.162  1.00  0.00     0.262 S 
ATOM     90  O   UNL A   1      37.210  23.069  24.118  1.00  0.00    -0.201 OA
ATOM     91  O   UNL A   1      37.881  20.757  24.800  1.00  0.00    -0.201 OA
BRANCH  89  92
ATOM     92  N   UNL A   1      35.873  21.882  25.833  1.00  0.00    -0.277 N 
ATOM     93  H   UNL A   1      35.763  22.020  26.802  1.00  0.00     0.180 HD
BRANCH  92  94
ATOM     94  C   UNL A   1      34.717  21.525  25.065  1.00  0.00     0.075 A 
ATOM     95  C   UNL A   1      34.443  20.162  24.848  1.00  0.00     0.042 A 
ATOM     96  C   UNL A   1      33.792  22.487  24.630  1.00  0.00     0.089 A 
ATOM     97  C   UNL A   1      33.219  19.751  24.276  1.00  0.00     0.058 A 
ATOM     98  C   UNL A   1      32.592  22.085  24.023  1.00  0.00     0.031 A 
ATOM     99  C   UNL A   1      32.309  20.728  23.847  1.00  0.00     0.015 A 
BRANCH  96 100
ATOM    100  N   UNL A   1      34.001  23.866  24.868  1.00  0.00    -0.239 N 
ATOM    101  C   UNL A   1      33.870  24.554  26.053  1.00  0.00     0.115 A 
ATOM    102  N   UNL A   1      34.241  24.707  23.834  1.00  0.00    -0.177 NA
ATOM    103  C   UNL A   1      33.795  25.886  25.730  1.00  0.00     0.042 A 
ATOM    104  C   UNL A   1      33.982  25.917  24.340  1.00  0.00     0.135 A 
ENDBRANCH  96 100
BRANCH  97 105
ATOM    105  C   UNL A   1      32.856  18.283  24.224  1.00  0.00     0.416 C 
ATOM    106  F   UNL A   1      32.096  17.896  25.282  1.00  0.00    -0.166 F 
ATOM    107  F   UNL A   1      32.137  17.971  23.110  1.00  0.00    -0.166 F 
ATOM    108  F   UNL A   1      33.937  17.456  24.210  1.00  0.00    -0.166 F 
ENDBRANCH  97 105
ENDBRANCH  92  94
ENDBRANCH  89  92
ENDBRANCH  84  89
ENDBRANCH  77  80
ENDBRANCH  75  76
ENDBRANCH  74  75
ENDBRANCH   1  74
TORSDOF 21
ENDMDL
MODEL 3
REMARK VINA RESULT:      -8.9      3.034     10.436
REMARK SMILES O=C(NCCCCCCNC(=O)c1cc2c(c(S(=O)(=O)Nc3cc(C(F)(F)F)ccc3-n3cccn3)c1)CCC2)c1ccc(-c2c3nc(c(-c4cccc(S(=O)(=O)[O-])c4F)c4ccc([nH]4)c(-c4cccc(S(=O)(=O)[O-])c4F)c4nc(c(-c5cccc(S(=O)(=O)[O-])c5F)c5ccc2[nH]5)C=C4)C=C3)cc1
REMARK SMILES IDX 7 1 6 2 5 3 4 4 3 5 1 6 2 7 41 9 42 10 103 11 43 12 102 13
REMARK SMILES IDX 44 14 45 15 46 16 96 17 47 18 101 19 95 20 97 21 48 22
REMARK SMILES IDX 100 23 94 24 93 25 49 27 81 28 61 29 80 30 62 31 65 32 79 33
REMARK SMILES IDX 98 34 63 35 64 36 78 38 99 39 66 40 50 41 51 42 59 43 52 44
REMARK SMILES IDX 54 45 60 46 53 47 55 48 56 49 57 50 58 51 82 52 83 53 91 54
REMARK SMILES IDX 84 55 86 56 92 57 85 58 87 59 88 60 89 61 90 62 67 63 68 64
REMARK SMILES IDX 76 65 69 66 71 67 77 68 70 69 72 70 73 71 74 72 75 73 8 74
REMARK SMILES IDX 9 75 10 76 11 77 12 79 13 80 14 81 37 82 15 83 17 84 16 85
REMARK SMILES IDX 40 86 38 87 39 88 18 89 19 90 20 91 21 92 22 94 23 95 31 96
REMARK SMILES IDX 24 97 30 98 29 99 32 100 33 101 36 102 34 103 35 104 25 105
REMARK SMILES IDX 26 106 27 107 28 108
REMARK H PARENT 3 8 97 26 65 37 10 78 21 93
REMARK Flexibility Score: inf
ROOT
ATOM      1  C   UNL A   1      46.499  24.025  26.624  1.00  0.00     0.002 C 
ENDROOT
BRANCH   1   2
ATOM      2  C   UNL A   1      45.199  23.224  26.470  1.00  0.00     0.002 C 
BRANCH   2   3
ATOM      3  C   UNL A   1      44.833  22.798  25.040  1.00  0.00     0.021 C 
BRANCH   3   4
ATOM      4  C   UNL A   1      43.432  23.207  24.590  1.00  0.00     0.116 C 
BRANCH   4   5
ATOM      5  N   UNL A   1      42.368  22.528  25.298  1.00  0.00    -0.352 N 
ATOM      6  O   UNL A   1      40.611  22.015  26.521  1.00  0.00    -0.269 OA
ATOM      7  C   UNL A   1      41.404  22.902  26.191  1.00  0.00     0.251 C 
ATOM      8  H   UNL A   1      42.330  21.567  25.085  1.00  0.00     0.163 HD
BRANCH   7   9
ATOM      9  C   UNL A   1      41.288  24.244  26.823  1.00  0.00     0.039 A 
ATOM     10  C   UNL A   1      40.459  25.281  26.392  1.00  0.00     0.014 A 
ATOM     11  C   UNL A   1      42.098  24.460  27.955  1.00  0.00     0.014 A 
ATOM     12  C   UNL A   1      40.502  26.524  27.018  1.00  0.00     0.010 A 
ATOM     13  C   UNL A   1      42.133  25.693  28.595  1.00  0.00     0.010 A 
ATOM     14  C   UNL A   1      41.359  26.737  28.101  1.00  0.00    -0.014 A 
BRANCH  14  15
ATOM     15  C   UNL A   1      41.294  28.024  28.789  1.00  0.00     0.031 A 
ATOM     16  C   UNL A   1      42.273  29.040  28.296  1.00  0.00     0.074 A 
ATOM     17  C   UNL A   1      40.349  28.339  29.698  1.00  0.00     0.049 A 
ATOM     18  N   UNL A   1      43.226  29.620  28.951  1.00  0.00    -0.248 NA
ATOM     19  C   UNL A   1      42.255  29.360  26.860  1.00  0.00     0.031 C 
ATOM     20  C   UNL A   1      39.155  27.571  30.058  1.00  0.00     0.029 A 
ATOM     21  N   UNL A   1      40.194  29.495  30.406  1.00  0.00    -0.354 N 
ATOM     22  C   UNL A   1      43.800  30.530  28.062  1.00  0.00     0.074 A 
ATOM     23  C   UNL A   1      43.269  30.220  26.761  1.00  0.00     0.031 C 
ATOM     24  C   UNL A   1      38.288  28.377  30.712  1.00  0.00     0.029 A 
ATOM     25  C   UNL A   1      38.920  29.664  30.939  1.00  0.00     0.049 A 
ATOM     26  H   UNL A   1      40.918  30.151  30.527  1.00  0.00     0.167 HD
ATOM     27  C   UNL A   1      44.525  31.603  28.487  1.00  0.00     0.034 A 
ATOM     28  C   UNL A   1      38.403  30.806  31.459  1.00  0.00     0.034 A 
ATOM     29  C   UNL A   1      44.948  31.456  29.852  1.00  0.00     0.049 A 
ATOM     30  C   UNL A   1      39.535  31.690  31.810  1.00  0.00     0.074 A 
ATOM     31  C   UNL A   1      45.745  30.563  30.538  1.00  0.00     0.029 A 
ATOM     32  N   UNL A   1      44.226  32.126  30.809  1.00  0.00    -0.354 N 
ATOM     33  N   UNL A   1      40.389  31.423  32.756  1.00  0.00    -0.248 NA
ATOM     34  C   UNL A   1      39.967  32.668  30.828  1.00  0.00     0.031 C 
ATOM     35  C   UNL A   1      45.102  30.395  31.798  1.00  0.00     0.029 A 
ATOM     36  C   UNL A   1      43.990  31.240  31.826  1.00  0.00     0.049 A 
ATOM     37  H   UNL A   1      43.936  33.066  30.771  1.00  0.00     0.167 HD
ATOM     38  C   UNL A   1      41.611  31.835  32.240  1.00  0.00     0.074 A 
ATOM     39  C   UNL A   1      41.274  32.687  31.101  1.00  0.00     0.031 C 
ATOM     40  C   UNL A   1      42.772  31.218  32.605  1.00  0.00     0.034 A 
BRANCH  27  41
ATOM     41  C   UNL A   1      44.591  32.936  27.778  1.00  0.00     0.023 A 
ATOM     42  C   UNL A   1      45.786  33.263  27.098  1.00  0.00     0.012 A 
ATOM     43  C   UNL A   1      43.657  33.979  27.969  1.00  0.00     0.148 A 
ATOM     44  C   UNL A   1      46.053  34.568  26.666  1.00  0.00     0.002 A 
ATOM     45  C   UNL A   1      43.892  35.257  27.469  1.00  0.00     0.091 A 
ATOM     46  F   UNL A   1      42.590  33.783  28.749  1.00  0.00    -0.205 F 
ATOM     47  C   UNL A   1      45.101  35.564  26.843  1.00  0.00     0.022 A 
BRANCH  45  48
ATOM     48  S   UNL A   1      42.675  36.569  27.626  1.00  0.00     0.127 S 
ATOM     49  O   UNL A   1      41.425  35.816  27.575  1.00  0.00    -0.237 OA
ATOM     50  O   UNL A   1      43.007  37.129  28.937  1.00  0.00    -0.237 OA
ATOM     51  O   UNL A   1      42.930  37.471  26.511  1.00  0.00    -0.744 OA
ENDBRANCH  45  48
ENDBRANCH  27  41
BRANCH  28  52
ATOM     52  C   UNL A   1      37.013  31.318  31.413  1.00  0.00     0.023 A 
ATOM     53  C   UNL A   1      36.369  31.718  32.602  1.00  0.00     0.012 A 
ATOM     54  C   UNL A   1      36.432  31.693  30.182  1.00  0.00     0.148 A 
ATOM     55  C   UNL A   1      35.201  32.490  32.565  1.00  0.00     0.002 A 
ATOM     56  C   UNL A   1      35.269  32.456  30.150  1.00  0.00     0.091 A 
ATOM     57  F   UNL A   1      37.072  31.382  29.048  1.00  0.00    -0.205 F 
ATOM     58  C   UNL A   1      34.656  32.867  31.340  1.00  0.00     0.022 A 
BRANCH  56  59
ATOM     59  S   UNL A   1      34.531  33.013  28.609  1.00  0.00     0.127 S 
ATOM     60  O   UNL A   1      33.609  31.918  28.305  1.00  0.00    -0.237 OA
ATOM     61  O   UNL A   1      33.887  34.259  29.016  1.00  0.00    -0.237 OA
ATOM     62  O   UNL A   1      35.632  33.150  27.665  1.00  0.00    -0.744 OA
ENDBRANCH  56  59
ENDBRANCH  28  52
BRANCH  40  63
ATOM     63  C   UNL A   1      42.723  30.232  33.746  1.00  0.00     0.023 A 
ATOM     64  C   UNL A   1      42.357  28.880  33.561  1.00  0.00     0.012 A 
ATOM     65  C   UNL A   1      43.222  30.631  34.996  1.00  0.00     0.148 A 
ATOM     66  C   UNL A   1      42.460  27.957  34.606  1.00  0.00     0.002 A 
ATOM     67  C   UNL A   1      43.370  29.701  36.018  1.00  0.00     0.091 A 
ATOM     68  F   UNL A   1      43.573  31.915  35.158  1.00  0.00    -0.205 F 
ATOM     69  C   UNL A   1      42.980  28.365  35.831  1.00  0.00     0.022 A 
BRANCH  67  70
ATOM     70  S   UNL A   1      44.158  30.131  37.571  1.00  0.00     0.127 S 
ATOM     71  O   UNL A   1      45.320  30.895  37.123  1.00  0.00    -0.237 OA
ATOM     72  O   UNL A   1      43.124  30.924  38.238  1.00  0.00    -0.237 OA
ATOM     73  O   UNL A   1      44.455  28.868  38.234  1.00  0.00    -0.744 OA
ENDBRANCH  67  70
ENDBRANCH  40  63
ENDBRANCH  14  15
ENDBRANCH   7   9
ENDBRANCH   4   5
ENDBRANCH   3   4
ENDBRANCH   2   3
ENDBRANCH   1   2
BRANCH   1  74
ATOM     74  C   UNL A   1      47.292  24.258  25.338  1.00  0.00     0.021 C 
BRANCH  74  75
ATOM     75  C   UNL A   1      47.416  25.715  24.907  1.00  0.00     0.116 C 
BRANCH  75  76
ATOM     76  N   UNL A   1      46.133  26.328  24.559  1.00  0.00    -0.352 N 
ATOM     77  C   UNL A   1      45.352  27.191  25.304  1.00  0.00     0.251 C 
ATOM     78  H   UNL A   1      45.776  26.091  23.673  1.00  0.00     0.163 HD
ATOM     79  O   UNL A   1      44.227  27.515  24.929  1.00  0.00    -0.269 OA
BRANCH  77  80
ATOM     80  C   UNL A   1      45.878  27.705  26.589  1.00  0.00     0.041 A 
ATOM     81  C   UNL A   1      46.714  28.816  26.562  1.00  0.00     0.018 A 
ATOM     82  C   UNL A   1      45.662  26.989  27.787  1.00  0.00     0.036 A 
ATOM     83  C   UNL A   1      47.534  29.007  27.649  1.00  0.00    -0.043 A 
ATOM     84  C   UNL A   1      46.438  27.257  28.939  1.00  0.00     0.092 A 
ATOM     85  C   UNL A   1      47.465  28.184  28.794  1.00  0.00    -0.024 A 
ATOM     86  C   UNL A   1      48.695  29.957  27.704  1.00  0.00     0.036 C 
ATOM     87  C   UNL A   1      48.719  28.423  29.573  1.00  0.00     0.037 C 
ATOM     88  C   UNL A   1      49.030  29.873  29.187  1.00  0.00     0.010 C 
BRANCH  84  89
ATOM     89  S   UNL A   1      46.200  26.201  30.356  1.00  0.00     0.262 S 
ATOM     90  O   UNL A   1      45.163  25.248  29.997  1.00  0.00    -0.201 OA
ATOM     91  O   UNL A   1      47.502  25.714  30.754  1.00  0.00    -0.201 OA
BRANCH  89  92
ATOM     92  N   UNL A   1      45.547  26.964  31.742  1.00  0.00    -0.277 N 
ATOM     93  H   UNL A   1      45.294  27.914  31.674  1.00  0.00     0.180 HD
BRANCH  92  94
ATOM     94  C   UNL A   1      45.346  26.301  32.997  1.00  0.00     0.075 A 
ATOM     95  C   UNL A   1      44.485  25.188  33.043  1.00  0.00     0.042 A 
ATOM     96  C   UNL A   1      46.072  26.654  34.144  1.00  0.00     0.089 A 
ATOM     97  C   UNL A   1      44.408  24.380  34.199  1.00  0.00     0.058 A 
ATOM     98  C   UNL A   1      45.966  25.879  35.309  1.00  0.00     0.031 A 
ATOM     99  C   UNL A   1      45.140  24.751  35.336  1.00  0.00     0.015 A 
BRANCH  96 100
ATOM    100  N   UNL A   1      46.983  27.736  34.132  1.00  0.00    -0.239 N 
ATOM    101  C   UNL A   1      46.833  28.981  34.699  1.00  0.00     0.115 A 
ATOM    102  N   UNL A   1      48.112  27.667  33.387  1.00  0.00    -0.177 NA
ATOM    103  C   UNL A   1      47.769  29.797  34.116  1.00  0.00     0.042 A 
ATOM    104  C   UNL A   1      48.501  28.941  33.278  1.00  0.00     0.135 A 
ENDBRANCH  96 100
BRANCH  97 105
ATOM    105  C   UNL A   1      43.630  23.083  34.173  1.00  0.00     0.416 C 
ATOM    106  F   UNL A   1      44.388  22.012  34.531  1.00  0.00    -0.166 F 
ATOM    107  F   UNL A   1      42.573  23.099  35.032  1.00  0.00    -0.166 F 
ATOM    108  F   UNL A   1      43.108  22.786  32.951  1.00  0.00    -0.166 F 
ENDBRANCH  97 105
ENDBRANCH  92  94
ENDBRANCH  89  92
ENDBRANCH  84  89
ENDBRANCH  77  80
ENDBRANCH  75  76
ENDBRANCH  74  75
ENDBRANCH   1  74
TORSDOF 21
ENDMDL
