MODEL 1
REMARK VINA RESULT:     -13.2      0.000      0.000
REMARK SMILES Cc1cc(S(F)(F)(F)(F)F)cc2c1O[C@H](C(F)(F)F)C(C(=O)NCCCCCCNC(=O)c1ccc(-c3c4nc(c(-c5cccc(S(=O)(=O)[O-])c5F)c5ccc([nH]5)c(-c5cccc(S(=O)(=O)[O-])c5F)c5nc(c(-c6cccc(S(=O)(=O)[O-])c6F)c6ccc3[nH]6)C=C5)C=C4)cc1)=C2
REMARK SMILES IDX 27 1 26 2 25 3 24 4 23 5 21 6 22 7 20 9 1 10 2 11 3 12 13 13
REMARK SMILES IDX 4 14 12 15 14 16 11 17 96 18 15 19 5 20 6 21 7 22 8 23 9 24
REMARK SMILES IDX 10 25 16 26 17 27 18 28 19 29 28 30 29 31 30 32 31 33 32 35
REMARK SMILES IDX 33 36 34 37 95 38 35 39 94 40 36 41 37 42 38 43 88 44 39 45
REMARK SMILES IDX 93 46 87 47 89 48 40 49 92 50 86 51 85 52 41 54 73 55 53 56
REMARK SMILES IDX 72 57 54 58 57 59 71 60 90 61 55 62 56 63 70 65 91 66 58 67
REMARK SMILES IDX 42 68 43 69 51 70 44 71 46 72 52 73 45 74 47 75 48 76 49 77
REMARK SMILES IDX 50 78 74 79 75 80 83 81 76 82 78 83 84 84 77 85 79 86 80 87
REMARK SMILES IDX 81 88 82 89 59 90 60 91 68 92 61 93 63 94 69 95 62 96 64 97
REMARK SMILES IDX 65 98 66 99 67 100
REMARK H PARENT 23 8 30 34 89 53 57 64
REMARK Flexibility Score: inf
ROOT
ATOM      1  C   UNL A   1      32.015  30.186  26.171  1.00  0.00     0.002 C 
ENDROOT
BRANCH   1   2
ATOM      2  C   UNL A   1      33.181  29.760  27.048  1.00  0.00     0.002 C 
BRANCH   2   3
ATOM      3  C   UNL A   1      34.082  28.816  26.269  1.00  0.00     0.021 C 
BRANCH   3   4
ATOM      4  C   UNL A   1      33.524  28.623  24.868  1.00  0.00     0.116 C 
BRANCH   4   5
ATOM      5  N   UNL A   1      33.860  27.275  24.388  1.00  0.00    -0.352 N 
ATOM      6  C   UNL A   1      32.813  26.414  23.820  1.00  0.00     0.251 C 
ATOM      7  O   UNL A   1      33.105  25.249  23.404  1.00  0.00    -0.270 OA
ATOM      8  H   UNL A   1      34.787  26.949  24.447  1.00  0.00     0.163 HD
BRANCH   6   9
ATOM      9  C   UNL A   1      31.382  26.918  23.728  1.00  0.00     0.067 C 
ATOM     10  C   UNL A   1      26.274  27.388  23.939  1.00  0.00     0.048 C 
ATOM     11  C   UNL A   1      27.428  28.269  23.493  1.00  0.00    -0.007 A 
ATOM     12  C   UNL A   1      27.189  29.521  22.970  1.00  0.00     0.031 A 
ATOM     13  C   UNL A   1      28.739  27.802  23.580  1.00  0.00     0.130 A 
ATOM     14  C   UNL A   1      28.239  30.317  22.527  1.00  0.00     0.108 A 
ATOM     15  C   UNL A   1      29.804  28.617  23.133  1.00  0.00     0.019 A 
ATOM     16  O   UNL A   1      29.059  26.477  24.125  1.00  0.00    -0.475 OA
ATOM     17  C   UNL A   1      29.531  29.882  22.609  1.00  0.00     0.036 A 
ATOM     18  C   UNL A   1      31.169  28.101  23.235  1.00  0.00     0.025 C 
ATOM     19  C   UNL A   1      30.352  26.092  24.178  1.00  0.00     0.314 C 
BRANCH  14  20
ATOM     20  S   UNL A   1      27.888  31.951  21.834  1.00  0.00     0.310 S 
ATOM     21  F   UNL A   1      29.434  32.008  21.486  1.00  0.00    -0.094 F 
ATOM     22  F   UNL A   1      28.235  32.672  23.190  1.00  0.00    -0.094 F 
ATOM     23  F   UNL A   1      27.738  33.321  21.112  1.00  0.00    -0.094 F 
ATOM     24  F   UNL A   1      27.680  31.212  20.453  1.00  0.00    -0.094 F 
ATOM     25  F   UNL A   1      28.147  30.555  22.526  1.00  0.00    -0.094 F 
ENDBRANCH  14  20
BRANCH  19  26
ATOM     26  C   UNL A   1      30.612  26.036  25.674  1.00  0.00     0.429 C 
ATOM     27  F   UNL A   1      30.947  27.248  26.111  1.00  0.00    -0.167 F 
ATOM     28  F   UNL A   1      29.512  25.628  26.301  1.00  0.00    -0.167 F 
ATOM     29  F   UNL A   1      31.605  25.186  25.920  1.00  0.00    -0.167 F 
ENDBRANCH  19  26
ENDBRANCH   6   9
ENDBRANCH   4   5
ENDBRANCH   3   4
ENDBRANCH   2   3
ENDBRANCH   1   2
BRANCH   1  30
ATOM     30  C   UNL A   1      31.532  31.562  26.602  1.00  0.00     0.021 C 
BRANCH  30  31
ATOM     31  C   UNL A   1      32.686  32.330  27.228  1.00  0.00     0.116 C 
BRANCH  31  32
ATOM     32  N   UNL A   1      32.281  33.724  27.454  1.00  0.00    -0.352 N 
ATOM     33  C   UNL A   1      33.023  34.561  28.409  1.00  0.00     0.251 C 
ATOM     34  H   UNL A   1      31.513  34.100  26.964  1.00  0.00     0.163 HD
ATOM     35  O   UNL A   1      32.673  35.766  28.603  1.00  0.00    -0.269 OA
BRANCH  33  36
ATOM     36  C   UNL A   1      34.209  33.982  29.163  1.00  0.00     0.039 A 
ATOM     37  C   UNL A   1      35.475  34.093  28.601  1.00  0.00     0.014 A 
ATOM     38  C   UNL A   1      34.078  33.298  30.280  1.00  0.00     0.014 A 
ATOM     39  C   UNL A   1      36.572  33.923  29.474  1.00  0.00     0.010 A 
ATOM     40  C   UNL A   1      35.187  32.688  30.879  1.00  0.00     0.010 A 
ATOM     41  C   UNL A   1      36.409  32.987  30.495  1.00  0.00    -0.014 A 
BRANCH  41  42
ATOM     42  C   UNL A   1      37.613  32.330  31.148  1.00  0.00     0.031 A 
ATOM     43  C   UNL A   1      38.163  31.220  30.503  1.00  0.00     0.074 A 
ATOM     44  C   UNL A   1      38.056  32.814  32.368  1.00  0.00     0.049 A 
ATOM     45  N   UNL A   1      39.193  30.473  30.906  1.00  0.00    -0.248 NA
ATOM     46  C   UNL A   1      37.674  30.683  29.226  1.00  0.00     0.031 C 
ATOM     47  C   UNL A   1      37.512  33.938  33.020  1.00  0.00     0.029 A 
ATOM     48  N   UNL A   1      39.071  32.319  33.156  1.00  0.00    -0.354 N 
ATOM     49  C   UNL A   1      39.440  29.511  30.014  1.00  0.00     0.074 A 
ATOM     50  C   UNL A   1      38.462  29.629  28.924  1.00  0.00     0.031 C 
ATOM     51  C   UNL A   1      38.181  34.111  34.190  1.00  0.00     0.029 A 
ATOM     52  C   UNL A   1      39.155  33.099  34.288  1.00  0.00     0.049 A 
ATOM     53  H   UNL A   1      39.637  31.542  32.947  1.00  0.00     0.167 HD
ATOM     54  C   UNL A   1      40.443  28.542  30.067  1.00  0.00     0.034 A 
ATOM     55  C   UNL A   1      40.022  32.951  35.359  1.00  0.00     0.034 A 
ATOM     56  C   UNL A   1      41.340  28.420  31.117  1.00  0.00     0.049 A 
ATOM     57  C   UNL A   1      40.989  31.945  35.439  1.00  0.00     0.074 A 
ATOM     58  C   UNL A   1      42.362  27.453  31.183  1.00  0.00     0.029 A 
ATOM     59  N   UNL A   1      41.408  29.185  32.261  1.00  0.00    -0.354 N 
ATOM     60  N   UNL A   1      41.261  31.007  34.529  1.00  0.00    -0.248 NA
ATOM     61  C   UNL A   1      41.892  31.758  36.582  1.00  0.00     0.031 C 
ATOM     62  C   UNL A   1      43.031  27.627  32.353  1.00  0.00     0.029 A 
ATOM     63  C   UNL A   1      42.437  28.704  33.039  1.00  0.00     0.049 A 
ATOM     64  H   UNL A   1      40.821  29.944  32.484  1.00  0.00     0.167 HD
ATOM     65  C   UNL A   1      42.264  30.235  34.951  1.00  0.00     0.074 A 
ATOM     66  C   UNL A   1      42.679  30.702  36.281  1.00  0.00     0.031 C 
ATOM     67  C   UNL A   1      42.852  29.162  34.281  1.00  0.00     0.034 A 
BRANCH  54  68
ATOM     68  C   UNL A   1      40.558  27.565  28.909  1.00  0.00     0.023 A 
ATOM     69  C   UNL A   1      39.871  26.356  28.917  1.00  0.00     0.012 A 
ATOM     70  C   UNL A   1      41.311  27.849  27.867  1.00  0.00     0.148 A 
ATOM     71  C   UNL A   1      39.614  25.766  27.659  1.00  0.00     0.002 A 
ATOM     72  C   UNL A   1      41.424  26.950  26.801  1.00  0.00     0.091 A 
ATOM     73  F   UNL A   1      41.972  29.002  27.829  1.00  0.00    -0.205 F 
ATOM     74  C   UNL A   1      40.600  25.931  26.687  1.00  0.00     0.022 A 
BRANCH  72  75
ATOM     75  S   UNL A   1      42.721  27.193  25.560  1.00  0.00     0.127 S 
ATOM     76  O   UNL A   1      42.321  28.334  24.622  1.00  0.00    -0.237 OA
ATOM     77  O   UNL A   1      44.037  27.543  26.258  1.00  0.00    -0.237 OA
ATOM     78  O   UNL A   1      42.920  25.755  24.656  1.00  0.00    -0.744 OA
ENDBRANCH  72  75
ENDBRANCH  54  68
BRANCH  55  79
ATOM     79  C   UNL A   1      39.918  33.938  36.509  1.00  0.00     0.023 A 
ATOM     80  C   UNL A   1      40.542  35.180  36.449  1.00  0.00     0.012 A 
ATOM     81  C   UNL A   1      39.236  33.634  37.591  1.00  0.00     0.148 A 
ATOM     82  C   UNL A   1      40.010  36.194  37.275  1.00  0.00     0.002 A 
ATOM     83  C   UNL A   1      39.148  34.533  38.660  1.00  0.00     0.091 A 
ATOM     84  F   UNL A   1      38.622  32.456  37.672  1.00  0.00    -0.205 F 
ATOM     85  C   UNL A   1      39.521  35.787  38.517  1.00  0.00     0.022 A 
BRANCH  83  86
ATOM     86  S   UNL A   1      38.514  33.966  40.258  1.00  0.00     0.127 S 
ATOM     87  O   UNL A   1      38.327  35.167  41.187  1.00  0.00    -0.237 OA
ATOM     88  O   UNL A   1      37.169  33.267  40.053  1.00  0.00    -0.237 OA
ATOM     89  O   UNL A   1      39.626  32.871  40.956  1.00  0.00    -0.744 OA
ENDBRANCH  83  86
ENDBRANCH  55  79
BRANCH  67  90
ATOM     90  C   UNL A   1      44.017  28.452  34.950  1.00  0.00     0.023 A 
ATOM     91  C   UNL A   1      45.310  28.923  34.741  1.00  0.00     0.012 A 
ATOM     92  C   UNL A   1      43.858  27.359  35.664  1.00  0.00     0.148 A 
ATOM     93  C   UNL A   1      46.285  28.528  35.684  1.00  0.00     0.002 A 
ATOM     94  C   UNL A   1      44.963  26.681  36.191  1.00  0.00     0.091 A 
ATOM     95  F   UNL A   1      42.633  26.892  35.887  1.00  0.00    -0.205 F 
ATOM     96  C   UNL A   1      46.153  27.243  36.208  1.00  0.00     0.022 A 
BRANCH  94  97
ATOM     97  S   UNL A   1      44.753  25.011  36.859  1.00  0.00     0.127 S 
ATOM     98  O   UNL A   1      46.054  24.225  36.686  1.00  0.00    -0.237 OA
ATOM     99  O   UNL A   1      44.404  25.097  38.346  1.00  0.00    -0.237 OA
ATOM    100  O   UNL A   1      43.492  24.217  36.021  1.00  0.00    -0.744 OA
ENDBRANCH  94  97
ENDBRANCH  67  90
ENDBRANCH  41  42
ENDBRANCH  33  36
ENDBRANCH  31  32
ENDBRANCH  30  31
ENDBRANCH   1  30
TORSDOF 18
ENDMDL
MODEL 2
REMARK VINA RESULT:     -13.0      4.054      6.459
REMARK SMILES Cc1cc(S(F)(F)(F)(F)F)cc2c1O[C@H](C(F)(F)F)C(C(=O)NCCCCCCNC(=O)c1ccc(-c3c4nc(c(-c5cccc(S(=O)(=O)[O-])c5F)c5ccc([nH]5)c(-c5cccc(S(=O)(=O)[O-])c5F)c5nc(c(-c6cccc(S(=O)(=O)[O-])c6F)c6ccc3[nH]6)C=C5)C=C4)cc1)=C2
REMARK SMILES IDX 27 1 26 2 25 3 24 4 23 5 21 6 22 7 20 9 1 10 2 11 3 12 13 13
REMARK SMILES IDX 4 14 12 15 14 16 11 17 96 18 15 19 5 20 6 21 7 22 8 23 9 24
REMARK SMILES IDX 10 25 16 26 17 27 18 28 19 29 28 30 29 31 30 32 31 33 32 35
REMARK SMILES IDX 33 36 34 37 95 38 35 39 94 40 36 41 37 42 38 43 88 44 39 45
REMARK SMILES IDX 93 46 87 47 89 48 40 49 92 50 86 51 85 52 41 54 73 55 53 56
REMARK SMILES IDX 72 57 54 58 57 59 71 60 90 61 55 62 56 63 70 65 91 66 58 67
REMARK SMILES IDX 42 68 43 69 51 70 44 71 46 72 52 73 45 74 47 75 48 76 49 77
REMARK SMILES IDX 50 78 74 79 75 80 83 81 76 82 78 83 84 84 77 85 79 86 80 87
REMARK SMILES IDX 81 88 82 89 59 90 60 91 68 92 61 93 63 94 69 95 62 96 64 97
REMARK SMILES IDX 65 98 66 99 67 100
REMARK H PARENT 23 8 30 34 89 53 57 64
REMARK Flexibility Score: inf
ROOT
ATOM      1  C   UNL A   1      32.915  29.025  24.144  1.00  0.00     0.002 C 
ENDROOT
BRANCH   1   2
ATOM      2  C   UNL A   1      32.405  28.195  22.977  1.00  0.00     0.002 C 
BRANCH   2   3
ATOM      3  C   UNL A   1      33.549  27.381  22.395  1.00  0.00     0.021 C 
BRANCH   3   4
ATOM      4  C   UNL A   1      33.026  26.029  21.936  1.00  0.00     0.116 C 
BRANCH   4   5
ATOM      5  N   UNL A   1      31.604  25.906  22.291  1.00  0.00    -0.352 N 
ATOM      6  C   UNL A   1      31.150  24.788  23.129  1.00  0.00     0.251 C 
ATOM      7  O   UNL A   1      29.922  24.683  23.436  1.00  0.00    -0.270 OA
ATOM      8  H   UNL A   1      30.957  26.573  21.966  1.00  0.00     0.163 HD
BRANCH   6   9
ATOM      9  C   UNL A   1      32.150  23.759  23.630  1.00  0.00     0.067 C 
ATOM     10  C   UNL A   1      36.220  21.402  25.690  1.00  0.00     0.048 C 
ATOM     11  C   UNL A   1      34.929  20.957  25.023  1.00  0.00    -0.007 A 
ATOM     12  C   UNL A   1      34.665  19.618  24.837  1.00  0.00     0.031 A 
ATOM     13  C   UNL A   1      34.014  21.905  24.566  1.00  0.00     0.130 A 
ATOM     14  C   UNL A   1      33.502  19.206  24.196  1.00  0.00     0.108 A 
ATOM     15  C   UNL A   1      32.831  21.482  23.920  1.00  0.00     0.019 A 
ATOM     16  O   UNL A   1      34.239  23.347  24.734  1.00  0.00    -0.475 OA
ATOM     17  C   UNL A   1      32.590  20.118  23.746  1.00  0.00     0.036 A 
ATOM     18  C   UNL A   1      31.890  22.499  23.450  1.00  0.00     0.025 C 
ATOM     19  C   UNL A   1      33.309  24.206  24.265  1.00  0.00     0.314 C 
BRANCH  14  20
ATOM     20  S   UNL A   1      33.193  17.440  23.956  1.00  0.00     0.310 S 
ATOM     21  F   UNL A   1      34.527  17.212  24.784  1.00  0.00    -0.094 F 
ATOM     22  F   UNL A   1      34.077  17.398  22.652  1.00  0.00    -0.094 F 
ATOM     23  F   UNL A   1      33.023  15.894  23.923  1.00  0.00    -0.094 F 
ATOM     24  F   UNL A   1      32.429  17.485  25.337  1.00  0.00    -0.094 F 
ATOM     25  F   UNL A   1      33.453  18.994  24.064  1.00  0.00    -0.094 F 
ENDBRANCH  14  20
BRANCH  19  26
ATOM     26  C   UNL A   1      32.762  24.819  25.544  1.00  0.00     0.429 C 
ATOM     27  F   UNL A   1      33.764  25.058  26.385  1.00  0.00    -0.167 F 
ATOM     28  F   UNL A   1      32.141  25.960  25.258  1.00  0.00    -0.167 F 
ATOM     29  F   UNL A   1      31.902  23.974  26.107  1.00  0.00    -0.167 F 
ENDBRANCH  19  26
ENDBRANCH   6   9
ENDBRANCH   4   5
ENDBRANCH   3   4
ENDBRANCH   2   3
ENDBRANCH   1   2
BRANCH   1  30
ATOM     30  C   UNL A   1      34.149  28.362  24.735  1.00  0.00     0.021 C 
BRANCH  30  31
ATOM     31  C   UNL A   1      34.143  28.536  26.246  1.00  0.00     0.116 C 
BRANCH  31  32
ATOM     32  N   UNL A   1      33.775  29.920  26.577  1.00  0.00    -0.352 N 
ATOM     33  C   UNL A   1      34.684  30.752  27.379  1.00  0.00     0.251 C 
ATOM     34  H   UNL A   1      32.918  30.291  26.262  1.00  0.00     0.163 HD
ATOM     35  O   UNL A   1      34.366  31.948  27.665  1.00  0.00    -0.269 OA
BRANCH  33  36
ATOM     36  C   UNL A   1      36.006  30.180  27.865  1.00  0.00     0.039 A 
ATOM     37  C   UNL A   1      36.125  29.818  29.202  1.00  0.00     0.014 A 
ATOM     38  C   UNL A   1      37.074  30.101  27.098  1.00  0.00     0.014 A 
ATOM     39  C   UNL A   1      37.182  28.940  29.527  1.00  0.00     0.010 A 
ATOM     40  C   UNL A   1      38.299  29.673  27.621  1.00  0.00     0.010 A 
ATOM     41  C   UNL A   1      38.364  29.103  28.806  1.00  0.00    -0.014 A 
BRANCH  41  42
ATOM     42  C   UNL A   1      39.694  28.633  29.372  1.00  0.00     0.031 A 
ATOM     43  C   UNL A   1      40.191  27.414  28.908  1.00  0.00     0.074 A 
ATOM     44  C   UNL A   1      40.303  29.393  30.356  1.00  0.00     0.049 A 
ATOM     45  N   UNL A   1      41.313  26.796  29.284  1.00  0.00    -0.248 NA
ATOM     46  C   UNL A   1      39.528  26.589  27.888  1.00  0.00     0.031 C 
ATOM     47  C   UNL A   1      39.813  30.629  30.823  1.00  0.00     0.029 A 
ATOM     48  N   UNL A   1      41.460  29.110  31.049  1.00  0.00    -0.354 N 
ATOM     49  C   UNL A   1      41.462  25.659  28.602  1.00  0.00     0.074 A 
ATOM     50  C   UNL A   1      40.313  25.506  27.699  1.00  0.00     0.031 C 
ATOM     51  C   UNL A   1      40.655  31.077  31.792  1.00  0.00     0.029 A 
ATOM     52  C   UNL A   1      41.686  30.131  31.944  1.00  0.00     0.049 A 
ATOM     53  H   UNL A   1      42.027  28.315  30.924  1.00  0.00     0.167 HD
ATOM     54  C   UNL A   1      42.512  24.744  28.697  1.00  0.00     0.034 A 
ATOM     55  C   UNL A   1      42.724  30.248  32.854  1.00  0.00     0.034 A 
ATOM     56  C   UNL A   1      43.575  24.882  29.577  1.00  0.00     0.049 A 
ATOM     57  C   UNL A   1      43.745  29.303  32.990  1.00  0.00     0.074 A 
ATOM     58  C   UNL A   1      44.645  23.973  29.680  1.00  0.00     0.029 A 
ATOM     59  N   UNL A   1      43.788  25.891  30.490  1.00  0.00    -0.354 N 
ATOM     60  N   UNL A   1      43.915  28.185  32.281  1.00  0.00    -0.248 NA
ATOM     61  C   UNL A   1      44.833  29.400  33.972  1.00  0.00     0.031 C 
ATOM     62  C   UNL A   1      45.487  24.423  30.648  1.00  0.00     0.029 A 
ATOM     63  C   UNL A   1      44.956  25.619  31.166  1.00  0.00     0.049 A 
ATOM     64  H   UNL A   1      43.205  26.672  30.634  1.00  0.00     0.167 HD
ATOM     65  C   UNL A   1      45.015  27.547  32.686  1.00  0.00     0.074 A 
ATOM     66  C   UNL A   1      45.617  28.316  33.785  1.00  0.00     0.031 C 
ATOM     67  C   UNL A   1      45.543  26.358  32.183  1.00  0.00     0.034 A 
BRANCH  54  68
ATOM     68  C   UNL A   1      42.489  23.528  27.786  1.00  0.00     0.023 A 
ATOM     69  C   UNL A   1      41.557  22.512  27.967  1.00  0.00     0.012 A 
ATOM     70  C   UNL A   1      43.353  23.416  26.799  1.00  0.00     0.148 A 
ATOM     71  C   UNL A   1      41.262  21.716  26.837  1.00  0.00     0.002 A 
ATOM     72  C   UNL A   1      43.338  22.296  25.961  1.00  0.00     0.091 A 
ATOM     73  F   UNL A   1      44.249  24.377  26.597  1.00  0.00    -0.205 F 
ATOM     74  C   UNL A   1      42.322  21.460  25.968  1.00  0.00     0.022 A 
BRANCH  72  75
ATOM     75  S   UNL A   1      44.735  21.993  24.849  1.00  0.00     0.127 S 
ATOM     76  O   UNL A   1      46.005  21.775  25.674  1.00  0.00    -0.237 OA
ATOM     77  O   UNL A   1      44.456  20.748  24.004  1.00  0.00    -0.237 OA
ATOM     78  O   UNL A   1      44.948  23.343  23.821  1.00  0.00    -0.744 OA
ENDBRANCH  72  75
ENDBRANCH  54  68
BRANCH  55  79
ATOM     79  C   UNL A   1      42.756  31.472  33.754  1.00  0.00     0.023 A 
ATOM     80  C   UNL A   1      43.449  32.619  33.382  1.00  0.00     0.012 A 
ATOM     81  C   UNL A   1      42.130  31.468  34.910  1.00  0.00     0.148 A 
ATOM     82  C   UNL A   1      43.035  33.829  33.981  1.00  0.00     0.002 A 
ATOM     83  C   UNL A   1      42.168  32.588  35.749  1.00  0.00     0.091 A 
ATOM     84  F   UNL A   1      41.453  30.387  35.288  1.00  0.00    -0.205 F 
ATOM     85  C   UNL A   1      42.606  33.747  35.306  1.00  0.00     0.022 A 
BRANCH  83  86
ATOM     86  S   UNL A   1      41.606  32.440  37.464  1.00  0.00     0.127 S 
ATOM     87  O   UNL A   1      42.365  31.303  38.152  1.00  0.00    -0.237 OA
ATOM     88  O   UNL A   1      41.875  33.753  38.203  1.00  0.00    -0.237 OA
ATOM     89  O   UNL A   1      39.930  32.104  37.488  1.00  0.00    -0.744 OA
ENDBRANCH  83  86
ENDBRANCH  55  79
BRANCH  67  90
ATOM     90  C   UNL A   1      46.840  25.841  32.783  1.00  0.00     0.023 A 
ATOM     91  C   UNL A   1      48.052  26.240  32.227  1.00  0.00     0.012 A 
ATOM     92  C   UNL A   1      46.861  24.968  33.766  1.00  0.00     0.148 A 
ATOM     93  C   UNL A   1      49.197  26.097  33.043  1.00  0.00     0.002 A 
ATOM     94  C   UNL A   1      48.071  24.444  34.234  1.00  0.00     0.091 A 
ATOM     95  F   UNL A   1      45.718  24.576  34.321  1.00  0.00    -0.205 F 
ATOM     96  C   UNL A   1      49.218  24.989  33.889  1.00  0.00     0.022 A 
BRANCH  94  97
ATOM     97  S   UNL A   1      48.059  23.002  35.328  1.00  0.00     0.127 S 
ATOM     98  O   UNL A   1      49.489  22.489  35.511  1.00  0.00    -0.237 OA
ATOM     99  O   UNL A   1      47.482  23.398  36.689  1.00  0.00    -0.237 OA
ATOM    100  O   UNL A   1      47.096  21.770  34.637  1.00  0.00    -0.744 OA
ENDBRANCH  94  97
ENDBRANCH  67  90
ENDBRANCH  41  42
ENDBRANCH  33  36
ENDBRANCH  31  32
ENDBRANCH  30  31
ENDBRANCH   1  30
TORSDOF 18
ENDMDL
MODEL 3
REMARK VINA RESULT:     -12.7      4.351      6.666
REMARK SMILES Cc1cc(S(F)(F)(F)(F)F)cc2c1O[C@H](C(F)(F)F)C(C(=O)NCCCCCCNC(=O)c1ccc(-c3c4nc(c(-c5cccc(S(=O)(=O)[O-])c5F)c5ccc([nH]5)c(-c5cccc(S(=O)(=O)[O-])c5F)c5nc(c(-c6cccc(S(=O)(=O)[O-])c6F)c6ccc3[nH]6)C=C5)C=C4)cc1)=C2
REMARK SMILES IDX 27 1 26 2 25 3 24 4 23 5 21 6 22 7 20 9 1 10 2 11 3 12 13 13
REMARK SMILES IDX 4 14 12 15 14 16 11 17 96 18 15 19 5 20 6 21 7 22 8 23 9 24
REMARK SMILES IDX 10 25 16 26 17 27 18 28 19 29 28 30 29 31 30 32 31 33 32 35
REMARK SMILES IDX 33 36 34 37 95 38 35 39 94 40 36 41 37 42 38 43 88 44 39 45
REMARK SMILES IDX 93 46 87 47 89 48 40 49 92 50 86 51 85 52 41 54 73 55 53 56
REMARK SMILES IDX 72 57 54 58 57 59 71 60 90 61 55 62 56 63 70 65 91 66 58 67
REMARK SMILES IDX 42 68 43 69 51 70 44 71 46 72 52 73 45 74 47 75 48 76 49 77
REMARK SMILES IDX 50 78 74 79 75 80 83 81 76 82 78 83 84 84 77 85 79 86 80 87
REMARK SMILES IDX 81 88 82 89 59 90 60 91 68 92 61 93 63 94 69 95 62 96 64 97
REMARK SMILES IDX 65 98 66 99 67 100
REMARK H PARENT 23 8 30 34 89 53 57 64
REMARK Flexibility Score: inf
ROOT
ATOM      1  C   UNL A   1      31.463  28.092  26.332  1.00  0.00     0.002 C 
ENDROOT
BRANCH   1   2
ATOM      2  C   UNL A   1      31.140  27.318  25.064  1.00  0.00     0.002 C 
BRANCH   2   3
ATOM      3  C   UNL A   1      30.383  26.050  25.423  1.00  0.00     0.021 C 
BRANCH   3   4
ATOM      4  C   UNL A   1      30.717  24.959  24.419  1.00  0.00     0.116 C 
BRANCH   4   5
ATOM      5  N   UNL A   1      31.162  25.571  23.158  1.00  0.00    -0.352 N 
ATOM      6  C   UNL A   1      32.363  25.065  22.479  1.00  0.00     0.251 C 
ATOM      7  O   UNL A   1      32.747  25.595  21.390  1.00  0.00    -0.270 OA
ATOM      8  H   UNL A   1      30.655  26.320  22.770  1.00  0.00     0.163 HD
BRANCH   6   9
ATOM      9  C   UNL A   1      33.146  23.909  23.080  1.00  0.00     0.067 C 
ATOM     10  C   UNL A   1      36.802  20.919  25.094  1.00  0.00     0.048 C 
ATOM     11  C   UNL A   1      35.335  20.750  24.735  1.00  0.00    -0.007 A 
ATOM     12  C   UNL A   1      34.706  19.538  24.920  1.00  0.00     0.031 A 
ATOM     13  C   UNL A   1      34.621  21.814  24.185  1.00  0.00     0.130 A 
ATOM     14  C   UNL A   1      33.374  19.367  24.562  1.00  0.00     0.108 A 
ATOM     15  C   UNL A   1      33.265  21.638  23.827  1.00  0.00     0.019 A 
ATOM     16  O   UNL A   1      35.234  23.130  23.962  1.00  0.00    -0.475 OA
ATOM     17  C   UNL A   1      32.655  20.398  24.027  1.00  0.00     0.036 A 
ATOM     18  C   UNL A   1      32.542  22.771  23.251  1.00  0.00     0.025 C 
ATOM     19  C   UNL A   1      34.482  24.113  23.425  1.00  0.00     0.314 C 
BRANCH  14  20
ATOM     20  S   UNL A   1      32.584  17.758  24.806  1.00  0.00     0.310 S 
ATOM     21  F   UNL A   1      34.045  17.213  25.093  1.00  0.00    -0.094 F 
ATOM     22  F   UNL A   1      32.801  17.352  23.300  1.00  0.00    -0.094 F 
ATOM     23  F   UNL A   1      32.054  16.335  25.142  1.00  0.00    -0.094 F 
ATOM     24  F   UNL A   1      32.504  18.139  26.336  1.00  0.00    -0.094 F 
ATOM     25  F   UNL A   1      33.225  19.169  24.502  1.00  0.00    -0.094 F 
ENDBRANCH  14  20
BRANCH  19  26
ATOM     26  C   UNL A   1      34.371  25.100  24.575  1.00  0.00     0.429 C 
ATOM     27  F   UNL A   1      34.126  26.316  24.093  1.00  0.00    -0.167 F 
ATOM     28  F   UNL A   1      33.378  24.734  25.380  1.00  0.00    -0.167 F 
ATOM     29  F   UNL A   1      35.513  25.116  25.257  1.00  0.00    -0.167 F 
ENDBRANCH  19  26
ENDBRANCH   6   9
ENDBRANCH   4   5
ENDBRANCH   3   4
ENDBRANCH   2   3
ENDBRANCH   1   2
BRANCH   1  30
ATOM     30  C   UNL A   1      32.784  27.599  26.902  1.00  0.00     0.021 C 
BRANCH  30  31
ATOM     31  C   UNL A   1      33.892  28.569  26.523  1.00  0.00     0.116 C 
BRANCH  31  32
ATOM     32  N   UNL A   1      33.497  29.934  26.894  1.00  0.00    -0.352 N 
ATOM     33  C   UNL A   1      34.400  30.769  27.699  1.00  0.00     0.251 C 
ATOM     34  H   UNL A   1      32.626  30.292  26.602  1.00  0.00     0.163 HD
ATOM     35  O   UNL A   1      34.059  31.950  28.019  1.00  0.00    -0.269 OA
BRANCH  33  36
ATOM     36  C   UNL A   1      35.744  30.218  28.148  1.00  0.00     0.039 A 
ATOM     37  C   UNL A   1      35.893  29.822  29.472  1.00  0.00     0.014 A 
ATOM     38  C   UNL A   1      36.800  30.187  27.363  1.00  0.00     0.014 A 
ATOM     39  C   UNL A   1      36.978  28.964  29.757  1.00  0.00     0.010 A 
ATOM     40  C   UNL A   1      38.045  29.776  27.855  1.00  0.00     0.010 A 
ATOM     41  C   UNL A   1      38.143  29.176  29.022  1.00  0.00    -0.014 A 
BRANCH  41  42
ATOM     42  C   UNL A   1      39.493  28.725  29.554  1.00  0.00     0.031 A 
ATOM     43  C   UNL A   1      40.104  27.645  28.913  1.00  0.00     0.074 A 
ATOM     44  C   UNL A   1      40.011  29.353  30.674  1.00  0.00     0.049 A 
ATOM     45  N   UNL A   1      41.265  27.065  29.225  1.00  0.00    -0.248 NA
ATOM     46  C   UNL A   1      39.541  26.954  27.745  1.00  0.00     0.031 C 
ATOM     47  C   UNL A   1      39.405  30.450  31.320  1.00  0.00     0.029 A 
ATOM     48  N   UNL A   1      41.169  29.050  31.355  1.00  0.00    -0.354 N 
ATOM     49  C   UNL A   1      41.528  26.075  28.370  1.00  0.00     0.074 A 
ATOM     50  C   UNL A   1      40.419  25.985  27.410  1.00  0.00     0.031 C 
ATOM     51  C   UNL A   1      40.181  30.794  32.382  1.00  0.00     0.029 A 
ATOM     52  C   UNL A   1      41.284  29.921  32.416  1.00  0.00     0.049 A 
ATOM     53  H   UNL A   1      41.805  28.336  31.122  1.00  0.00     0.167 HD
ATOM     54  C   UNL A   1      42.650  25.244  28.353  1.00  0.00     0.034 A 
ATOM     55  C   UNL A   1      42.286  29.964  33.373  1.00  0.00     0.034 A 
ATOM     56  C   UNL A   1      43.673  25.315  29.285  1.00  0.00     0.049 A 
ATOM     57  C   UNL A   1      43.379  29.095  33.390  1.00  0.00     0.074 A 
ATOM     58  C   UNL A   1      44.815  24.490  29.277  1.00  0.00     0.029 A 
ATOM     59  N   UNL A   1      43.776  26.169  30.360  1.00  0.00    -0.354 N 
ATOM     60  N   UNL A   1      43.662  28.130  32.512  1.00  0.00    -0.248 NA
ATOM     61  C   UNL A   1      44.430  29.111  34.416  1.00  0.00     0.031 C 
ATOM     62  C   UNL A   1      45.590  24.836  30.339  1.00  0.00     0.029 A 
ATOM     63  C   UNL A   1      44.946  25.881  31.028  1.00  0.00     0.049 A 
ATOM     64  H   UNL A   1      43.126  26.865  30.610  1.00  0.00     0.167 HD
ATOM     65  C   UNL A   1      44.802  27.523  32.848  1.00  0.00     0.074 A 
ATOM     66  C   UNL A   1      45.308  28.140  34.083  1.00  0.00     0.031 C 
ATOM     67  C   UNL A   1      45.442  26.482  32.175  1.00  0.00     0.034 A 
BRANCH  54  68
ATOM     68  C   UNL A   1      42.753  24.201  27.252  1.00  0.00     0.023 A 
ATOM     69  C   UNL A   1      43.289  24.520  26.009  1.00  0.00     0.012 A 
ATOM     70  C   UNL A   1      42.339  22.969  27.457  1.00  0.00     0.148 A 
ATOM     71  C   UNL A   1      43.813  23.447  25.253  1.00  0.00     0.002 A 
ATOM     72  C   UNL A   1      42.427  22.007  26.445  1.00  0.00     0.091 A 
ATOM     73  F   UNL A   1      41.830  22.634  28.640  1.00  0.00    -0.205 F 
ATOM     74  C   UNL A   1      43.146  22.228  25.365  1.00  0.00     0.022 A 
BRANCH  72  75
ATOM     75  S   UNL A   1      41.541  20.438  26.622  1.00  0.00     0.127 S 
ATOM     76  O   UNL A   1      41.776  19.577  25.379  1.00  0.00    -0.237 OA
ATOM     77  O   UNL A   1      42.054  19.699  27.860  1.00  0.00    -0.237 OA
ATOM     78  O   UNL A   1      39.868  20.745  26.795  1.00  0.00    -0.744 OA
ENDBRANCH  72  75
ENDBRANCH  54  68
BRANCH  55  79
ATOM     79  C   UNL A   1      42.190  31.018  34.464  1.00  0.00     0.023 A 
ATOM     80  C   UNL A   1      41.555  30.746  35.671  1.00  0.00     0.012 A 
ATOM     81  C   UNL A   1      42.706  32.214  34.285  1.00  0.00     0.148 A 
ATOM     82  C   UNL A   1      41.931  31.542  36.776  1.00  0.00     0.002 A 
ATOM     83  C   UNL A   1      42.609  33.193  35.281  1.00  0.00     0.091 A 
ATOM     84  F   UNL A   1      43.326  32.499  33.143  1.00  0.00    -0.205 F 
ATOM     85  C   UNL A   1      42.233  32.876  36.502  1.00  0.00     0.022 A 
BRANCH  83  86
ATOM     86  S   UNL A   1      43.004  34.915  34.885  1.00  0.00     0.127 S 
ATOM     87  O   UNL A   1      42.950  35.756  36.162  1.00  0.00    -0.237 OA
ATOM     88  O   UNL A   1      44.409  34.990  34.285  1.00  0.00    -0.237 OA
ATOM     89  O   UNL A   1      41.868  35.516  33.757  1.00  0.00    -0.744 OA
ENDBRANCH  83  86
ENDBRANCH  55  79
BRANCH  67  90
ATOM     90  C   UNL A   1      46.763  25.976  32.731  1.00  0.00     0.023 A 
ATOM     91  C   UNL A   1      47.953  26.502  32.239  1.00  0.00     0.012 A 
ATOM     92  C   UNL A   1      46.827  25.001  33.612  1.00  0.00     0.148 A 
ATOM     93  C   UNL A   1      49.099  26.335  33.049  1.00  0.00     0.002 A 
ATOM     94  C   UNL A   1      48.063  24.499  34.035  1.00  0.00     0.091 A 
ATOM     95  F   UNL A   1      45.705  24.485  34.105  1.00  0.00    -0.205 F 
ATOM     96  C   UNL A   1      49.179  25.143  33.768  1.00  0.00     0.022 A 
BRANCH  94  97
ATOM     97  S   UNL A   1      48.128  22.945  34.963  1.00  0.00     0.127 S 
ATOM     98  O   UNL A   1      46.994  22.028  34.500  1.00  0.00    -0.237 OA
ATOM     99  O   UNL A   1      49.472  22.258  34.715  1.00  0.00    -0.237 OA
ATOM    100  O   UNL A   1      47.952  23.271  36.632  1.00  0.00    -0.744 OA
ENDBRANCH  94  97
ENDBRANCH  67  90
ENDBRANCH  41  42
ENDBRANCH  33  36
ENDBRANCH  31  32
ENDBRANCH  30  31
ENDBRANCH   1  30
TORSDOF 18
ENDMDL
