MODEL 1
REMARK VINA RESULT:     -12.6      0.000      0.000
REMARK SMILES Cc1cc(Cl)c2c(c1)C=C(C(=O)NCCCCCCNC(=O)c1ccc(-c3c4nc(c(-c5cccc(S(=O)(=O)[O-])c5F)c5ccc([nH]5)c(-c5cccc(S(=O)(=O)[O-])c5F)c5nc(c(-c6cccc(S(=O)(=O)[O-])c6F)c6ccc3[nH]6)C=C5)C=C4)cc1)[C@@H](C(F)(F)F)O2
REMARK SMILES IDX 17 1 16 2 15 3 14 4 13 5 11 6 12 7 10 9 1 10 2 11 3 12 8 13
REMARK SMILES IDX 4 14 7 15 5 16 6 17 9 18 91 19 86 20 87 21 88 22 89 23 90 24
REMARK SMILES IDX 18 25 19 26 20 27 21 28 22 30 23 31 24 32 85 33 25 34 84 35
REMARK SMILES IDX 26 36 27 37 28 38 78 39 29 40 83 41 77 42 79 43 30 44 82 45
REMARK SMILES IDX 76 46 75 47 31 49 63 50 43 51 62 52 44 53 47 54 61 55 80 56
REMARK SMILES IDX 45 57 46 58 60 60 81 61 48 62 32 63 33 64 41 65 34 66 36 67
REMARK SMILES IDX 42 68 35 69 37 70 38 71 39 72 40 73 64 74 65 75 73 76 66 77
REMARK SMILES IDX 68 78 74 79 67 80 69 81 70 82 71 83 72 84 49 85 50 86 58 87
REMARK SMILES IDX 51 88 53 89 59 90 52 91 54 92 55 93 56 94 57 95
REMARK H PARENT 13 8 20 29 79 48 47 59
REMARK Flexibility Score: inf
ROOT
ATOM      1  C   UNL A   1      32.602  29.220  24.751  1.00  0.00     0.002 C 
ENDROOT
BRANCH   1   2
ATOM      2  C   UNL A   1      31.820  28.430  23.693  1.00  0.00     0.002 C 
BRANCH   2   3
ATOM      3  C   UNL A   1      30.757  27.474  24.244  1.00  0.00     0.021 C 
BRANCH   3   4
ATOM      4  C   UNL A   1      30.678  26.144  23.501  1.00  0.00     0.116 C 
BRANCH   4   5
ATOM      5  N   UNL A   1      31.582  26.109  22.364  1.00  0.00    -0.352 N 
ATOM      6  C   UNL A   1      32.655  25.384  21.975  1.00  0.00     0.251 C 
ATOM      7  O   UNL A   1      33.125  25.692  20.873  1.00  0.00    -0.270 OA
ATOM      8  H   UNL A   1      31.352  26.798  21.699  1.00  0.00     0.163 HD
BRANCH   6   9
ATOM      9  C   UNL A   1      33.287  24.279  22.759  1.00  0.00     0.067 C 
ATOM     10  C   UNL A   1      32.267  18.366  24.300  1.00  0.00     0.044 C 
ATOM     11  C   UNL A   1      33.015  19.664  24.236  1.00  0.00    -0.049 A 
ATOM     12  C   UNL A   1      34.285  19.774  24.813  1.00  0.00     0.028 A 
ATOM     13  C   UNL A   1      32.483  20.760  23.541  1.00  0.00     0.015 A 
ATOM     14  C   UNL A   1      34.998  20.970  24.720  1.00  0.00     0.084 A 
ATOM     15  C   UNL A   1      33.195  21.962  23.449  1.00  0.00     0.019 A 
ATOM     16  Cl  UNL A   1      36.563  21.051  25.446  1.00  0.00    -0.080 Cl
ATOM     17  C   UNL A   1      34.450  22.067  24.050  1.00  0.00     0.146 A 
ATOM     18  C   UNL A   1      32.662  23.089  22.692  1.00  0.00     0.025 C 
ATOM     19  O   UNL A   1      35.199  23.204  23.955  1.00  0.00    -0.474 OA
ATOM     20  C   UNL A   1      34.509  24.436  23.620  1.00  0.00     0.314 C 
BRANCH  20  21
ATOM     21  C   UNL A   1      34.224  25.229  24.909  1.00  0.00     0.429 C 
ATOM     22  F   UNL A   1      35.168  24.979  25.845  1.00  0.00    -0.167 F 
ATOM     23  F   UNL A   1      34.230  26.568  24.703  1.00  0.00    -0.167 F 
ATOM     24  F   UNL A   1      33.019  24.921  25.443  1.00  0.00    -0.167 F 
ENDBRANCH  20  21
ENDBRANCH   6   9
ENDBRANCH   4   5
ENDBRANCH   3   4
ENDBRANCH   2   3
ENDBRANCH   1   2
BRANCH   1  25
ATOM     25  C   UNL A   1      31.765  30.155  25.628  1.00  0.00     0.021 C 
BRANCH  25  26
ATOM     26  C   UNL A   1      32.460  30.629  26.900  1.00  0.00     0.116 C 
BRANCH  26  27
ATOM     27  N   UNL A   1      32.547  32.079  26.963  1.00  0.00    -0.352 N 
ATOM     28  C   UNL A   1      33.477  32.860  27.599  1.00  0.00     0.251 C 
ATOM     29  H   UNL A   1      31.841  32.567  26.481  1.00  0.00     0.163 HD
ATOM     30  O   UNL A   1      33.290  34.068  27.718  1.00  0.00    -0.269 OA
BRANCH  28  31
ATOM     31  C   UNL A   1      34.696  32.237  28.151  1.00  0.00     0.039 A 
ATOM     32  C   UNL A   1      35.880  32.976  28.182  1.00  0.00     0.014 A 
ATOM     33  C   UNL A   1      34.666  30.927  28.640  1.00  0.00     0.014 A 
ATOM     34  C   UNL A   1      37.026  32.418  28.753  1.00  0.00     0.010 A 
ATOM     35  C   UNL A   1      35.790  30.398  29.267  1.00  0.00     0.010 A 
ATOM     36  C   UNL A   1      36.982  31.135  29.323  1.00  0.00    -0.014 A 
BRANCH  36  37
ATOM     37  C   UNL A   1      38.175  30.550  29.985  1.00  0.00     0.031 A 
ATOM     38  C   UNL A   1      38.536  30.957  31.388  1.00  0.00     0.074 A 
ATOM     39  C   UNL A   1      38.962  29.696  29.301  1.00  0.00     0.049 A 
ATOM     40  N   UNL A   1      39.547  30.569  32.120  1.00  0.00    -0.248 NA
ATOM     41  C   UNL A   1      37.661  31.941  32.047  1.00  0.00     0.031 C 
ATOM     42  C   UNL A   1      38.747  29.279  27.913  1.00  0.00     0.029 A 
ATOM     43  N   UNL A   1      40.106  29.035  29.672  1.00  0.00    -0.354 N 
ATOM     44  C   UNL A   1      39.440  31.270  33.315  1.00  0.00     0.074 A 
ATOM     45  C   UNL A   1      38.293  32.142  33.195  1.00  0.00     0.031 C 
ATOM     46  C   UNL A   1      39.715  28.418  27.558  1.00  0.00     0.029 A 
ATOM     47  C   UNL A   1      40.632  28.241  28.678  1.00  0.00     0.049 A 
ATOM     48  H   UNL A   1      40.511  29.121  30.565  1.00  0.00     0.167 HD
ATOM     49  C   UNL A   1      40.204  31.167  34.427  1.00  0.00     0.034 A 
ATOM     50  C   UNL A   1      41.727  27.455  28.677  1.00  0.00     0.034 A 
ATOM     51  C   UNL A   1      41.316  30.265  34.555  1.00  0.00     0.049 A 
ATOM     52  C   UNL A   1      42.549  27.347  29.934  1.00  0.00     0.074 A 
ATOM     53  C   UNL A   1      42.116  30.043  35.663  1.00  0.00     0.029 A 
ATOM     54  N   UNL A   1      41.784  29.435  33.550  1.00  0.00    -0.354 N 
ATOM     55  N   UNL A   1      42.351  27.914  31.099  1.00  0.00    -0.248 NA
ATOM     56  C   UNL A   1      43.727  26.467  29.888  1.00  0.00     0.031 C 
ATOM     57  C   UNL A   1      43.078  29.090  35.321  1.00  0.00     0.029 A 
ATOM     58  C   UNL A   1      42.864  28.701  34.008  1.00  0.00     0.049 A 
ATOM     59  H   UNL A   1      41.404  29.376  32.643  1.00  0.00     0.167 HD
ATOM     60  C   UNL A   1      43.353  27.434  31.934  1.00  0.00     0.074 A 
ATOM     61  C   UNL A   1      44.147  26.513  31.145  1.00  0.00     0.031 C 
ATOM     62  C   UNL A   1      43.605  27.742  33.229  1.00  0.00     0.034 A 
BRANCH  49  63
ATOM     63  C   UNL A   1      39.818  31.987  35.631  1.00  0.00     0.023 A 
ATOM     64  C   UNL A   1      40.317  33.300  35.754  1.00  0.00     0.012 A 
ATOM     65  C   UNL A   1      38.892  31.508  36.577  1.00  0.00     0.148 A 
ATOM     66  C   UNL A   1      39.917  34.116  36.809  1.00  0.00     0.002 A 
ATOM     67  C   UNL A   1      38.463  32.344  37.603  1.00  0.00     0.091 A 
ATOM     68  F   UNL A   1      38.441  30.251  36.453  1.00  0.00    -0.205 F 
ATOM     69  C   UNL A   1      38.982  33.643  37.725  1.00  0.00     0.022 A 
BRANCH  67  70
ATOM     70  S   UNL A   1      37.200  31.865  38.787  1.00  0.00     0.127 S 
ATOM     71  O   UNL A   1      36.948  30.476  38.403  1.00  0.00    -0.237 OA
ATOM     72  O   UNL A   1      37.900  32.026  40.061  1.00  0.00    -0.237 OA
ATOM     73  O   UNL A   1      36.085  32.777  38.581  1.00  0.00    -0.744 OA
ENDBRANCH  67  70
ENDBRANCH  49  63
BRANCH  50  74
ATOM     74  C   UNL A   1      42.051  26.634  27.473  1.00  0.00     0.023 A 
ATOM     75  C   UNL A   1      42.689  27.247  26.378  1.00  0.00     0.012 A 
ATOM     76  C   UNL A   1      41.774  25.254  27.420  1.00  0.00     0.148 A 
ATOM     77  C   UNL A   1      43.024  26.510  25.242  1.00  0.00     0.002 A 
ATOM     78  C   UNL A   1      42.162  24.512  26.309  1.00  0.00     0.091 A 
ATOM     79  F   UNL A   1      41.153  24.689  28.464  1.00  0.00    -0.205 F 
ATOM     80  C   UNL A   1      42.772  25.141  25.212  1.00  0.00     0.022 A 
BRANCH  78  81
ATOM     81  S   UNL A   1      42.004  22.724  26.242  1.00  0.00     0.127 S 
ATOM     82  O   UNL A   1      42.672  22.412  24.981  1.00  0.00    -0.237 OA
ATOM     83  O   UNL A   1      42.731  22.311  27.443  1.00  0.00    -0.237 OA
ATOM     84  O   UNL A   1      40.573  22.456  26.286  1.00  0.00    -0.744 OA
ENDBRANCH  78  81
ENDBRANCH  50  74
BRANCH  62  85
ATOM     85  C   UNL A   1      44.773  27.072  33.905  1.00  0.00     0.023 A 
ATOM     86  C   UNL A   1      46.058  27.635  33.789  1.00  0.00     0.012 A 
ATOM     87  C   UNL A   1      44.574  25.966  34.757  1.00  0.00     0.148 A 
ATOM     88  C   UNL A   1      47.133  27.097  34.496  1.00  0.00     0.002 A 
ATOM     89  C   UNL A   1      45.639  25.468  35.497  1.00  0.00     0.091 A 
ATOM     90  F   UNL A   1      43.344  25.437  34.840  1.00  0.00    -0.205 F 
ATOM     91  C   UNL A   1      46.920  26.025  35.361  1.00  0.00     0.022 A 
BRANCH  89  92
ATOM     92  S   UNL A   1      45.441  24.162  36.716  1.00  0.00     0.127 S 
ATOM     93  O   UNL A   1      45.074  23.024  35.874  1.00  0.00    -0.237 OA
ATOM     94  O   UNL A   1      46.779  24.082  37.302  1.00  0.00    -0.237 OA
ATOM     95  O   UNL A   1      44.404  24.619  37.631  1.00  0.00    -0.744 OA
ENDBRANCH  89  92
ENDBRANCH  62  85
ENDBRANCH  36  37
ENDBRANCH  28  31
ENDBRANCH  26  27
ENDBRANCH  25  26
ENDBRANCH   1  25
TORSDOF 17
ENDMDL
MODEL 2
REMARK VINA RESULT:     -12.5      2.526      3.171
REMARK SMILES Cc1cc(Cl)c2c(c1)C=C(C(=O)NCCCCCCNC(=O)c1ccc(-c3c4nc(c(-c5cccc(S(=O)(=O)[O-])c5F)c5ccc([nH]5)c(-c5cccc(S(=O)(=O)[O-])c5F)c5nc(c(-c6cccc(S(=O)(=O)[O-])c6F)c6ccc3[nH]6)C=C5)C=C4)cc1)[C@@H](C(F)(F)F)O2
REMARK SMILES IDX 17 1 16 2 15 3 14 4 13 5 11 6 12 7 10 9 1 10 2 11 3 12 8 13
REMARK SMILES IDX 4 14 7 15 5 16 6 17 9 18 91 19 86 20 87 21 88 22 89 23 90 24
REMARK SMILES IDX 18 25 19 26 20 27 21 28 22 30 23 31 24 32 85 33 25 34 84 35
REMARK SMILES IDX 26 36 27 37 28 38 78 39 29 40 83 41 77 42 79 43 30 44 82 45
REMARK SMILES IDX 76 46 75 47 31 49 63 50 43 51 62 52 44 53 47 54 61 55 80 56
REMARK SMILES IDX 45 57 46 58 60 60 81 61 48 62 32 63 33 64 41 65 34 66 36 67
REMARK SMILES IDX 42 68 35 69 37 70 38 71 39 72 40 73 64 74 65 75 73 76 66 77
REMARK SMILES IDX 68 78 74 79 67 80 69 81 70 82 71 83 72 84 49 85 50 86 58 87
REMARK SMILES IDX 51 88 53 89 59 90 52 91 54 92 55 93 56 94 57 95
REMARK H PARENT 13 8 20 29 79 48 47 59
REMARK Flexibility Score: inf
ROOT
ATOM      1  C   UNL A   1      33.384  28.317  24.878  1.00  0.00     0.002 C 
ENDROOT
BRANCH   1   2
ATOM      2  C   UNL A   1      31.852  28.216  24.850  1.00  0.00     0.002 C 
BRANCH   2   3
ATOM      3  C   UNL A   1      31.197  28.577  23.513  1.00  0.00     0.021 C 
BRANCH   3   4
ATOM      4  C   UNL A   1      30.641  27.376  22.754  1.00  0.00     0.116 C 
BRANCH   4   5
ATOM      5  N   UNL A   1      31.601  26.854  21.797  1.00  0.00    -0.352 N 
ATOM      6  C   UNL A   1      32.570  25.911  21.781  1.00  0.00     0.251 C 
ATOM      7  O   UNL A   1      33.152  25.776  20.699  1.00  0.00    -0.270 OA
ATOM      8  H   UNL A   1      31.525  27.308  20.926  1.00  0.00     0.163 HD
BRANCH   6   9
ATOM      9  C   UNL A   1      32.969  25.057  22.941  1.00  0.00     0.067 C 
ATOM     10  C   UNL A   1      37.678  21.494  24.814  1.00  0.00     0.044 C 
ATOM     11  C   UNL A   1      36.355  22.193  24.912  1.00  0.00    -0.049 A 
ATOM     12  C   UNL A   1      35.598  22.107  26.086  1.00  0.00     0.028 A 
ATOM     13  C   UNL A   1      35.893  22.995  23.859  1.00  0.00     0.015 A 
ATOM     14  C   UNL A   1      34.386  22.789  26.193  1.00  0.00     0.084 A 
ATOM     15  C   UNL A   1      34.676  23.679  23.962  1.00  0.00     0.019 A 
ATOM     16  Cl  UNL A   1      33.494  22.652  27.665  1.00  0.00    -0.080 Cl
ATOM     17  C   UNL A   1      33.919  23.565  25.128  1.00  0.00     0.146 A 
ATOM     18  C   UNL A   1      34.213  24.547  22.884  1.00  0.00     0.025 C 
ATOM     19  O   UNL A   1      32.744  24.243  25.292  1.00  0.00    -0.474 OA
ATOM     20  C   UNL A   1      32.071  24.716  24.097  1.00  0.00     0.314 C 
BRANCH  20  21
ATOM     21  C   UNL A   1      30.961  23.722  23.708  1.00  0.00     0.429 C 
ATOM     22  F   UNL A   1      30.531  23.034  24.791  1.00  0.00    -0.167 F 
ATOM     23  F   UNL A   1      29.875  24.339  23.186  1.00  0.00    -0.167 F 
ATOM     24  F   UNL A   1      31.380  22.823  22.786  1.00  0.00    -0.167 F 
ENDBRANCH  20  21
ENDBRANCH   6   9
ENDBRANCH   4   5
ENDBRANCH   3   4
ENDBRANCH   2   3
ENDBRANCH   1   2
BRANCH   1  25
ATOM     25  C   UNL A   1      34.051  27.863  26.179  1.00  0.00     0.021 C 
BRANCH  25  26
ATOM     26  C   UNL A   1      33.442  28.451  27.447  1.00  0.00     0.116 C 
BRANCH  26  27
ATOM     27  N   UNL A   1      33.482  29.904  27.446  1.00  0.00    -0.352 N 
ATOM     28  C   UNL A   1      34.469  30.741  27.899  1.00  0.00     0.251 C 
ATOM     29  H   UNL A   1      32.690  30.349  27.066  1.00  0.00     0.163 HD
ATOM     30  O   UNL A   1      34.256  31.946  28.005  1.00  0.00    -0.269 OA
BRANCH  28  31
ATOM     31  C   UNL A   1      35.784  30.181  28.271  1.00  0.00     0.039 A 
ATOM     32  C   UNL A   1      36.826  30.223  27.342  1.00  0.00     0.014 A 
ATOM     33  C   UNL A   1      35.985  29.620  29.536  1.00  0.00     0.014 A 
ATOM     34  C   UNL A   1      38.088  29.747  27.701  1.00  0.00     0.010 A 
ATOM     35  C   UNL A   1      37.260  29.208  29.914  1.00  0.00     0.010 A 
ATOM     36  C   UNL A   1      38.321  29.262  28.998  1.00  0.00    -0.014 A 
BRANCH  36  37
ATOM     37  C   UNL A   1      39.672  28.806  29.413  1.00  0.00     0.031 A 
ATOM     38  C   UNL A   1      40.417  29.542  30.494  1.00  0.00     0.074 A 
ATOM     39  C   UNL A   1      40.246  27.765  28.778  1.00  0.00     0.049 A 
ATOM     40  N   UNL A   1      41.609  29.304  30.976  1.00  0.00    -0.248 NA
ATOM     41  C   UNL A   1      39.748  30.706  31.098  1.00  0.00     0.031 C 
ATOM     42  C   UNL A   1      39.645  27.016  27.672  1.00  0.00     0.029 A 
ATOM     43  N   UNL A   1      41.466  27.165  28.961  1.00  0.00    -0.354 N 
ATOM     44  C   UNL A   1      41.839  30.294  31.924  1.00  0.00     0.074 A 
ATOM     45  C   UNL A   1      40.683  31.163  31.919  1.00  0.00     0.031 C 
ATOM     46  C   UNL A   1      40.489  26.044  27.290  1.00  0.00     0.029 A 
ATOM     47  C   UNL A   1      41.700  26.115  28.101  1.00  0.00     0.049 A 
ATOM     48  H   UNL A   1      42.113  27.456  29.643  1.00  0.00     0.167 HD
ATOM     49  C   UNL A   1      42.898  30.441  32.753  1.00  0.00     0.034 A 
ATOM     50  C   UNL A   1      42.766  25.300  27.987  1.00  0.00     0.034 A 
ATOM     51  C   UNL A   1      44.023  29.547  32.784  1.00  0.00     0.049 A 
ATOM     52  C   UNL A   1      43.924  25.477  28.934  1.00  0.00     0.074 A 
ATOM     53  C   UNL A   1      45.119  29.577  33.629  1.00  0.00     0.029 A 
ATOM     54  N   UNL A   1      44.197  28.463  31.939  1.00  0.00    -0.354 N 
ATOM     55  N   UNL A   1      44.061  26.335  29.916  1.00  0.00    -0.248 NA
ATOM     56  C   UNL A   1      45.060  24.556  28.780  1.00  0.00     0.031 C 
ATOM     57  C   UNL A   1      45.963  28.519  33.284  1.00  0.00     0.029 A 
ATOM     58  C   UNL A   1      45.384  27.816  32.239  1.00  0.00     0.049 A 
ATOM     59  H   UNL A   1      43.570  28.192  31.230  1.00  0.00     0.167 HD
ATOM     60  C   UNL A   1      45.277  26.035  30.519  1.00  0.00     0.074 A 
ATOM     61  C   UNL A   1      45.830  24.903  29.803  1.00  0.00     0.031 C 
ATOM     62  C   UNL A   1      45.890  26.653  31.558  1.00  0.00     0.034 A 
BRANCH  49  63
ATOM     63  C   UNL A   1      42.860  31.562  33.759  1.00  0.00     0.023 A 
ATOM     64  C   UNL A   1      43.296  32.845  33.371  1.00  0.00     0.012 A 
ATOM     65  C   UNL A   1      42.304  31.379  35.039  1.00  0.00     0.148 A 
ATOM     66  C   UNL A   1      43.199  33.924  34.247  1.00  0.00     0.002 A 
ATOM     67  C   UNL A   1      42.169  32.469  35.892  1.00  0.00     0.091 A 
ATOM     68  F   UNL A   1      41.910  30.147  35.396  1.00  0.00    -0.205 F 
ATOM     69  C   UNL A   1      42.625  33.739  35.501  1.00  0.00     0.022 A 
BRANCH  67  70
ATOM     70  S   UNL A   1      41.368  32.359  37.496  1.00  0.00     0.127 S 
ATOM     71  O   UNL A   1      42.208  31.374  38.178  1.00  0.00    -0.237 OA
ATOM     72  O   UNL A   1      41.503  33.726  38.000  1.00  0.00    -0.237 OA
ATOM     73  O   UNL A   1      40.000  31.933  37.238  1.00  0.00    -0.744 OA
ENDBRANCH  67  70
ENDBRANCH  49  63
BRANCH  50  74
ATOM     74  C   UNL A   1      42.745  24.181  27.000  1.00  0.00     0.023 A 
ATOM     75  C   UNL A   1      43.407  24.343  25.767  1.00  0.00     0.012 A 
ATOM     76  C   UNL A   1      42.119  22.952  27.283  1.00  0.00     0.148 A 
ATOM     77  C   UNL A   1      43.424  23.314  24.825  1.00  0.00     0.002 A 
ATOM     78  C   UNL A   1      42.188  21.910  26.365  1.00  0.00     0.091 A 
ATOM     79  F   UNL A   1      41.481  22.819  28.455  1.00  0.00    -0.205 F 
ATOM     80  C   UNL A   1      42.826  22.094  25.128  1.00  0.00     0.022 A 
BRANCH  78  81
ATOM     81  S   UNL A   1      41.569  20.263  26.728  1.00  0.00     0.127 S 
ATOM     82  O   UNL A   1      41.828  19.563  25.472  1.00  0.00    -0.237 OA
ATOM     83  O   UNL A   1      42.421  19.859  27.847  1.00  0.00    -0.237 OA
ATOM     84  O   UNL A   1      40.166  20.441  27.078  1.00  0.00    -0.744 OA
ENDBRANCH  78  81
ENDBRANCH  50  74
BRANCH  62  85
ATOM     85  C   UNL A   1      47.222  26.120  32.016  1.00  0.00     0.023 A 
ATOM     86  C   UNL A   1      48.406  26.623  31.441  1.00  0.00     0.012 A 
ATOM     87  C   UNL A   1      47.304  25.223  33.100  1.00  0.00     0.148 A 
ATOM     88  C   UNL A   1      49.652  26.228  31.927  1.00  0.00     0.002 A 
ATOM     89  C   UNL A   1      48.549  24.874  33.611  1.00  0.00     0.091 A 
ATOM     90  F   UNL A   1      46.165  24.745  33.622  1.00  0.00    -0.205 F 
ATOM     91  C   UNL A   1      49.722  25.367  33.020  1.00  0.00     0.022 A 
BRANCH  89  92
ATOM     92  S   UNL A   1      48.738  23.860  35.083  1.00  0.00     0.127 S 
ATOM     93  O   UNL A   1      48.024  24.653  36.084  1.00  0.00    -0.237 OA
ATOM     94  O   UNL A   1      48.064  22.621  34.693  1.00  0.00    -0.237 OA
ATOM     95  O   UNL A   1      50.172  23.728  35.300  1.00  0.00    -0.744 OA
ENDBRANCH  89  92
ENDBRANCH  62  85
ENDBRANCH  36  37
ENDBRANCH  28  31
ENDBRANCH  26  27
ENDBRANCH  25  26
ENDBRANCH   1  25
TORSDOF 17
ENDMDL
MODEL 3
REMARK VINA RESULT:     -12.5      1.374      1.545
REMARK SMILES Cc1cc(Cl)c2c(c1)C=C(C(=O)NCCCCCCNC(=O)c1ccc(-c3c4nc(c(-c5cccc(S(=O)(=O)[O-])c5F)c5ccc([nH]5)c(-c5cccc(S(=O)(=O)[O-])c5F)c5nc(c(-c6cccc(S(=O)(=O)[O-])c6F)c6ccc3[nH]6)C=C5)C=C4)cc1)[C@@H](C(F)(F)F)O2
REMARK SMILES IDX 17 1 16 2 15 3 14 4 13 5 11 6 12 7 10 9 1 10 2 11 3 12 8 13
REMARK SMILES IDX 4 14 7 15 5 16 6 17 9 18 91 19 86 20 87 21 88 22 89 23 90 24
REMARK SMILES IDX 18 25 19 26 20 27 21 28 22 30 23 31 24 32 85 33 25 34 84 35
REMARK SMILES IDX 26 36 27 37 28 38 78 39 29 40 83 41 77 42 79 43 30 44 82 45
REMARK SMILES IDX 76 46 75 47 31 49 63 50 43 51 62 52 44 53 47 54 61 55 80 56
REMARK SMILES IDX 45 57 46 58 60 60 81 61 48 62 32 63 33 64 41 65 34 66 36 67
REMARK SMILES IDX 42 68 35 69 37 70 38 71 39 72 40 73 64 74 65 75 73 76 66 77
REMARK SMILES IDX 68 78 74 79 67 80 69 81 70 82 71 83 72 84 49 85 50 86 58 87
REMARK SMILES IDX 51 88 53 89 59 90 52 91 54 92 55 93 56 94 57 95
REMARK H PARENT 13 8 20 29 79 48 47 59
REMARK Flexibility Score: inf
ROOT
ATOM      1  C   UNL A   1      31.408  29.200  24.166  1.00  0.00     0.002 C 
ENDROOT
BRANCH   1   2
ATOM      2  C   UNL A   1      30.042  29.065  23.480  1.00  0.00     0.002 C 
BRANCH   2   3
ATOM      3  C   UNL A   1      29.910  27.882  22.515  1.00  0.00     0.021 C 
BRANCH   3   4
ATOM      4  C   UNL A   1      30.852  26.723  22.825  1.00  0.00     0.116 C 
BRANCH   4   5
ATOM      5  N   UNL A   1      31.693  26.394  21.687  1.00  0.00    -0.352 N 
ATOM      6  C   UNL A   1      32.691  25.524  21.412  1.00  0.00     0.251 C 
ATOM      7  O   UNL A   1      33.124  25.572  20.255  1.00  0.00    -0.270 OA
ATOM      8  H   UNL A   1      31.479  26.955  20.907  1.00  0.00     0.163 HD
BRANCH   6   9
ATOM      9  C   UNL A   1      33.282  24.547  22.378  1.00  0.00     0.067 C 
ATOM     10  C   UNL A   1      32.383  18.776  24.442  1.00  0.00     0.044 C 
ATOM     11  C   UNL A   1      33.069  20.104  24.317  1.00  0.00    -0.049 A 
ATOM     12  C   UNL A   1      34.257  20.351  25.013  1.00  0.00     0.028 A 
ATOM     13  C   UNL A   1      32.566  21.087  23.452  1.00  0.00     0.015 A 
ATOM     14  C   UNL A   1      34.916  21.572  24.867  1.00  0.00     0.084 A 
ATOM     15  C   UNL A   1      33.224  22.314  23.305  1.00  0.00     0.019 A 
ATOM     16  Cl  UNL A   1      36.381  21.824  25.746  1.00  0.00    -0.080 Cl
ATOM     17  C   UNL A   1      34.396  22.557  24.024  1.00  0.00     0.146 A 
ATOM     18  C   UNL A   1      32.727  23.321  22.375  1.00  0.00     0.025 C 
ATOM     19  O   UNL A   1      35.094  23.723  23.886  1.00  0.00    -0.474 OA
ATOM     20  C   UNL A   1      34.387  24.868  23.344  1.00  0.00     0.314 C 
BRANCH  20  21
ATOM     21  C   UNL A   1      33.918  25.772  24.499  1.00  0.00     0.429 C 
ATOM     22  F   UNL A   1      34.742  25.656  25.566  1.00  0.00    -0.167 F 
ATOM     23  F   UNL A   1      33.911  27.083  24.158  1.00  0.00    -0.167 F 
ATOM     24  F   UNL A   1      32.664  25.468  24.908  1.00  0.00    -0.167 F 
ENDBRANCH  20  21
ENDBRANCH   6   9
ENDBRANCH   4   5
ENDBRANCH   3   4
ENDBRANCH   2   3
ENDBRANCH   1   2
BRANCH   1  25
ATOM     25  C   UNL A   1      31.410  28.981  25.681  1.00  0.00     0.021 C 
BRANCH  25  26
ATOM     26  C   UNL A   1      32.599  29.592  26.414  1.00  0.00     0.116 C 
BRANCH  26  27
ATOM     27  N   UNL A   1      32.482  31.038  26.527  1.00  0.00    -0.352 N 
ATOM     28  C   UNL A   1      33.253  31.911  27.249  1.00  0.00     0.251 C 
ATOM     29  H   UNL A   1      31.749  31.445  26.011  1.00  0.00     0.163 HD
ATOM     30  O   UNL A   1      32.895  33.077  27.392  1.00  0.00    -0.269 OA
BRANCH  28  31
ATOM     31  C   UNL A   1      34.508  31.437  27.865  1.00  0.00     0.039 A 
ATOM     32  C   UNL A   1      35.560  32.338  28.040  1.00  0.00     0.014 A 
ATOM     33  C   UNL A   1      34.641  30.106  28.272  1.00  0.00     0.014 A 
ATOM     34  C   UNL A   1      36.731  31.915  28.673  1.00  0.00     0.010 A 
ATOM     35  C   UNL A   1      35.782  29.704  28.961  1.00  0.00     0.010 A 
ATOM     36  C   UNL A   1      36.840  30.603  29.161  1.00  0.00    -0.014 A 
BRANCH  36  37
ATOM     37  C   UNL A   1      38.056  30.155  29.886  1.00  0.00     0.031 A 
ATOM     38  C   UNL A   1      38.339  30.667  31.272  1.00  0.00     0.074 A 
ATOM     39  C   UNL A   1      38.929  29.331  29.273  1.00  0.00     0.049 A 
ATOM     40  N   UNL A   1      39.355  30.404  32.052  1.00  0.00    -0.248 NA
ATOM     41  C   UNL A   1      37.369  31.612  31.851  1.00  0.00     0.031 C 
ATOM     42  C   UNL A   1      38.790  28.822  27.907  1.00  0.00     0.029 A 
ATOM     43  N   UNL A   1      40.110  28.787  29.712  1.00  0.00    -0.354 N 
ATOM     44  C   UNL A   1      39.156  31.159  33.202  1.00  0.00     0.074 A 
ATOM     45  C   UNL A   1      37.947  31.926  33.001  1.00  0.00     0.031 C 
ATOM     46  C   UNL A   1      39.834  28.024  27.628  1.00  0.00     0.029 A 
ATOM     47  C   UNL A   1      40.728  27.985  28.780  1.00  0.00     0.049 A 
ATOM     48  H   UNL A   1      40.479  28.955  30.609  1.00  0.00     0.167 HD
ATOM     49  C   UNL A   1      39.891  31.180  34.337  1.00  0.00     0.034 A 
ATOM     50  C   UNL A   1      41.882  27.291  28.853  1.00  0.00     0.034 A 
ATOM     51  C   UNL A   1      41.067  30.380  34.546  1.00  0.00     0.049 A 
ATOM     52  C   UNL A   1      42.670  27.321  30.134  1.00  0.00     0.074 A 
ATOM     53  C   UNL A   1      41.848  30.286  35.685  1.00  0.00     0.029 A 
ATOM     54  N   UNL A   1      41.630  29.537  33.603  1.00  0.00    -0.354 N 
ATOM     55  N   UNL A   1      42.392  27.934  31.259  1.00  0.00    -0.248 NA
ATOM     56  C   UNL A   1      43.916  26.539  30.171  1.00  0.00     0.031 C 
ATOM     57  C   UNL A   1      42.892  29.396  35.424  1.00  0.00     0.029 A 
ATOM     58  C   UNL A   1      42.751  28.919  34.130  1.00  0.00     0.049 A 
ATOM     59  H   UNL A   1      41.285  29.397  32.691  1.00  0.00     0.167 HD
ATOM     60  C   UNL A   1      43.403  27.584  32.147  1.00  0.00     0.074 A 
ATOM     61  C   UNL A   1      44.292  26.689  31.434  1.00  0.00     0.031 C 
ATOM     62  C   UNL A   1      43.590  27.983  33.428  1.00  0.00     0.034 A 
BRANCH  49  63
ATOM     63  C   UNL A   1      39.404  32.031  35.481  1.00  0.00     0.023 A 
ATOM     64  C   UNL A   1      38.598  31.442  36.478  1.00  0.00     0.012 A 
ATOM     65  C   UNL A   1      39.820  33.368  35.628  1.00  0.00     0.148 A 
ATOM     66  C   UNL A   1      38.198  32.176  37.593  1.00  0.00     0.002 A 
ATOM     67  C   UNL A   1      39.454  34.080  36.765  1.00  0.00     0.091 A 
ATOM     68  F   UNL A   1      40.572  33.914  34.662  1.00  0.00    -0.205 F 
ATOM     69  C   UNL A   1      38.635  33.489  37.742  1.00  0.00     0.022 A 
BRANCH  67  70
ATOM     70  S   UNL A   1      40.030  35.748  37.098  1.00  0.00     0.127 S 
ATOM     71  O   UNL A   1      41.469  35.537  37.260  1.00  0.00    -0.237 OA
ATOM     72  O   UNL A   1      39.653  36.452  35.873  1.00  0.00    -0.237 OA
ATOM     73  O   UNL A   1      39.331  36.187  38.297  1.00  0.00    -0.744 OA
ENDBRANCH  67  70
ENDBRANCH  49  63
BRANCH  50  74
ATOM     74  C   UNL A   1      42.307  26.434  27.707  1.00  0.00     0.023 A 
ATOM     75  C   UNL A   1      43.190  26.964  26.746  1.00  0.00     0.012 A 
ATOM     76  C   UNL A   1      41.884  25.097  27.584  1.00  0.00     0.148 A 
ATOM     77  C   UNL A   1      43.623  26.189  25.671  1.00  0.00     0.002 A 
ATOM     78  C   UNL A   1      42.365  24.311  26.542  1.00  0.00     0.091 A 
ATOM     79  F   UNL A   1      41.032  24.612  28.499  1.00  0.00    -0.205 F 
ATOM     80  C   UNL A   1      43.222  24.859  25.575  1.00  0.00     0.022 A 
BRANCH  78  81
ATOM     81  S   UNL A   1      42.013  22.554  26.419  1.00  0.00     0.127 S 
ATOM     82  O   UNL A   1      42.702  22.196  25.182  1.00  0.00    -0.237 OA
ATOM     83  O   UNL A   1      42.629  22.035  27.641  1.00  0.00    -0.237 OA
ATOM     84  O   UNL A   1      40.560  22.447  26.389  1.00  0.00    -0.744 OA
ENDBRANCH  78  81
ENDBRANCH  50  74
BRANCH  62  85
ATOM     85  C   UNL A   1      44.786  27.448  34.172  1.00  0.00     0.023 A 
ATOM     86  C   UNL A   1      45.981  28.193  34.191  1.00  0.00     0.012 A 
ATOM     87  C   UNL A   1      44.684  26.280  34.954  1.00  0.00     0.148 A 
ATOM     88  C   UNL A   1      47.064  27.774  34.964  1.00  0.00     0.002 A 
ATOM     89  C   UNL A   1      45.749  25.897  35.761  1.00  0.00     0.091 A 
ATOM     90  F   UNL A   1      43.542  25.578  34.909  1.00  0.00    -0.205 F 
ATOM     91  C   UNL A   1      46.942  26.637  35.759  1.00  0.00     0.022 A 
BRANCH  89  92
ATOM     92  S   UNL A   1      45.648  24.511  36.901  1.00  0.00     0.127 S 
ATOM     93  O   UNL A   1      45.710  23.371  35.987  1.00  0.00    -0.237 OA
ATOM     94  O   UNL A   1      46.843  24.700  37.723  1.00  0.00    -0.237 OA
ATOM     95  O   UNL A   1      44.389  24.668  37.616  1.00  0.00    -0.744 OA
ENDBRANCH  89  92
ENDBRANCH  62  85
ENDBRANCH  36  37
ENDBRANCH  28  31
ENDBRANCH  26  27
ENDBRANCH  25  26
ENDBRANCH   1  25
TORSDOF 17
ENDMDL
