MODEL 1
REMARK VINA RESULT:     -11.0      0.000      0.000
REMARK SMILES C[C@@H]1CN(C(=O)NC[C@@H]2CCC[C@@H]2C(=O)NCCCCCCNC(=O)c2ccc(-c3c4nc(c(-c5cccc(S(=O)(=O)[O-])c5F)c5ccc([nH]5)c(-c5cccc(S(=O)(=O)[O-])c5F)c5nc(c(-c6cccc(S(=O)(=O)[O-])c6F)c6ccc3[nH]6)C=C5)C=C4)cc2)C[C@@H]1C
REMARK SMILES IDX 19 1 18 2 17 3 16 4 14 5 15 6 13 8 9 9 10 10 11 11 12 12
REMARK SMILES IDX 8 13 7 14 5 15 6 16 4 18 1 19 2 20 3 21 90 22 89 23 91 24
REMARK SMILES IDX 20 25 21 26 22 27 23 28 24 29 25 31 26 32 27 33 88 34 28 35
REMARK SMILES IDX 87 36 29 37 30 38 31 39 81 40 32 41 86 42 80 43 82 44 33 45
REMARK SMILES IDX 85 46 79 47 78 48 34 50 66 51 46 52 65 53 47 54 50 55 64 56
REMARK SMILES IDX 83 57 48 58 49 59 63 61 84 62 51 63 35 64 36 65 44 66 37 67
REMARK SMILES IDX 39 68 45 69 38 70 40 71 41 72 42 73 43 74 67 75 68 76 76 77
REMARK SMILES IDX 69 78 71 79 77 80 70 81 72 82 73 83 74 84 75 85 52 86 53 87
REMARK SMILES IDX 61 88 54 89 56 90 62 91 55 92 57 93 58 94 59 95 60 96
REMARK H PARENT 16 7 7 17 23 30 82 49 50 60
REMARK Flexibility Score: inf
ROOT
ATOM      1  C   UNL A   1      35.102  31.635  28.564  1.00  0.00     0.002 C 
ENDROOT
BRANCH   1   2
ATOM      2  C   UNL A   1      34.946  30.485  27.566  1.00  0.00     0.021 C 
BRANCH   2   3
ATOM      3  C   UNL A   1      33.538  30.336  26.993  1.00  0.00     0.116 C 
BRANCH   3   4
ATOM      4  N   UNL A   1      32.852  29.225  27.614  1.00  0.00    -0.356 N 
ATOM      5  C   UNL A   1      31.860  28.413  27.192  1.00  0.00     0.223 C 
ATOM      6  O   UNL A   1      31.276  27.779  28.084  1.00  0.00    -0.275 OA
ATOM      7  H   UNL A   1      33.172  29.020  28.523  1.00  0.00     0.163 HD
BRANCH   5   8
ATOM      8  C   UNL A   1      31.537  28.080  25.732  1.00  0.00     0.083 C 
ATOM      9  C   UNL A   1      32.338  26.871  25.208  1.00  0.00     0.021 C 
ATOM     10  C   UNL A   1      33.568  27.499  24.557  1.00  0.00     0.006 C 
ATOM     11  C   UNL A   1      33.082  28.825  23.978  1.00  0.00     0.001 C 
ATOM     12  C   UNL A   1      31.714  29.102  24.615  1.00  0.00     0.014 C 
BRANCH   9  13
ATOM     13  C   UNL A   1      32.700  25.803  26.238  1.00  0.00     0.122 C 
BRANCH  13  14
ATOM     14  N   UNL A   1      31.521  25.075  26.674  1.00  0.00    -0.338 N 
ATOM     15  C   UNL A   1      31.202  23.781  26.876  1.00  0.00     0.317 C 
ATOM     16  O   UNL A   1      30.044  23.541  27.228  1.00  0.00    -0.249 OA
ATOM     17  H   UNL A   1      30.767  25.677  26.870  1.00  0.00     0.165 HD
BRANCH  15  18
ATOM     18  N   UNL A   1      32.112  22.783  26.725  1.00  0.00    -0.324 N 
ATOM     19  C   UNL A   1      34.373  20.540  24.838  1.00  0.00     0.010 C 
ATOM     20  C   UNL A   1      33.527  21.024  26.004  1.00  0.00     0.010 C 
ATOM     21  C   UNL A   1      32.412  21.968  25.563  1.00  0.00     0.125 C 
ATOM     22  C   UNL A   1      34.245  21.836  27.098  1.00  0.00     0.010 C 
ATOM     23  C   UNL A   1      33.044  22.477  27.807  1.00  0.00     0.125 C 
ATOM     24  C   UNL A   1      35.206  22.920  26.594  1.00  0.00     0.010 C 
ENDBRANCH  15  18
ENDBRANCH  13  14
ENDBRANCH   9  13
ENDBRANCH   5   8
ENDBRANCH   3   4
ENDBRANCH   2   3
ENDBRANCH   1   2
BRANCH   1  25
ATOM     25  C   UNL A   1      35.676  32.928  27.975  1.00  0.00     0.002 C 
BRANCH  25  26
ATOM     26  C   UNL A   1      34.696  34.102  27.903  1.00  0.00     0.021 C 
BRANCH  26  27
ATOM     27  C   UNL A   1      33.320  33.818  28.494  1.00  0.00     0.116 C 
BRANCH  27  28
ATOM     28  N   UNL A   1      32.872  34.890  29.369  1.00  0.00    -0.352 N 
ATOM     29  C   UNL A   1      33.242  35.153  30.662  1.00  0.00     0.251 C 
ATOM     30  H   UNL A   1      32.214  35.509  28.979  1.00  0.00     0.163 HD
ATOM     31  O   UNL A   1      32.615  35.974  31.329  1.00  0.00    -0.269 OA
BRANCH  29  32
ATOM     32  C   UNL A   1      34.390  34.433  31.250  1.00  0.00     0.039 A 
ATOM     33  C   UNL A   1      34.169  33.214  31.896  1.00  0.00     0.014 A 
ATOM     34  C   UNL A   1      35.681  34.959  31.151  1.00  0.00     0.014 A 
ATOM     35  C   UNL A   1      35.256  32.497  32.400  1.00  0.00     0.010 A 
ATOM     36  C   UNL A   1      36.767  34.207  31.584  1.00  0.00     0.010 A 
ATOM     37  C   UNL A   1      36.565  32.973  32.222  1.00  0.00    -0.014 A 
BRANCH  37  38
ATOM     38  C   UNL A   1      37.742  32.204  32.695  1.00  0.00     0.031 A 
ATOM     39  C   UNL A   1      38.414  32.580  33.989  1.00  0.00     0.074 A 
ATOM     40  C   UNL A   1      38.265  31.236  31.917  1.00  0.00     0.049 A 
ATOM     41  N   UNL A   1      39.509  32.101  34.519  1.00  0.00    -0.248 NA
ATOM     42  C   UNL A   1      37.787  33.657  34.775  1.00  0.00     0.031 C 
ATOM     43  C   UNL A   1      37.742  30.825  30.612  1.00  0.00     0.029 A 
ATOM     44  N   UNL A   1      39.373  30.445  32.094  1.00  0.00    -0.354 N 
ATOM     45  C   UNL A   1      39.724  32.841  35.675  1.00  0.00     0.074 A 
ATOM     46  C   UNL A   1      38.665  33.823  35.753  1.00  0.00     0.031 C 
ATOM     47  C   UNL A   1      38.528  29.861  30.107  1.00  0.00     0.029 A 
ATOM     48  C   UNL A   1      39.632  29.614  31.028  1.00  0.00     0.049 A 
ATOM     49  H   UNL A   1      39.929  30.470  32.905  1.00  0.00     0.167 HD
ATOM     50  C   UNL A   1      40.702  32.702  36.602  1.00  0.00     0.034 A 
ATOM     51  C   UNL A   1      40.655  28.763  30.809  1.00  0.00     0.034 A 
ATOM     52  C   UNL A   1      41.732  31.701  36.535  1.00  0.00     0.049 A 
ATOM     53  C   UNL A   1      41.716  28.611  31.864  1.00  0.00     0.074 A 
ATOM     54  C   UNL A   1      42.721  31.424  37.462  1.00  0.00     0.029 A 
ATOM     55  N   UNL A   1      41.912  30.821  35.480  1.00  0.00    -0.354 N 
ATOM     56  N   UNL A   1      41.827  29.226  33.016  1.00  0.00    -0.248 NA
ATOM     57  C   UNL A   1      42.776  27.626  31.606  1.00  0.00     0.031 C 
ATOM     58  C   UNL A   1      43.522  30.399  36.950  1.00  0.00     0.029 A 
ATOM     59  C   UNL A   1      43.003  30.006  35.726  1.00  0.00     0.049 A 
ATOM     60  H   UNL A   1      41.348  30.780  34.674  1.00  0.00     0.167 HD
ATOM     61  C   UNL A   1      42.936  28.668  33.642  1.00  0.00     0.074 A 
ATOM     62  C   UNL A   1      43.459  27.660  32.742  1.00  0.00     0.031 C 
ATOM     63  C   UNL A   1      43.476  28.967  34.848  1.00  0.00     0.034 A 
BRANCH  50  64
ATOM     64  C   UNL A   1      40.686  33.632  37.787  1.00  0.00     0.023 A 
ATOM     65  C   UNL A   1      41.564  34.735  37.823  1.00  0.00     0.012 A 
ATOM     66  C   UNL A   1      39.762  33.451  38.834  1.00  0.00     0.148 A 
ATOM     67  C   UNL A   1      41.550  35.620  38.900  1.00  0.00     0.002 A 
ATOM     68  C   UNL A   1      39.719  34.366  39.880  1.00  0.00     0.091 A 
ATOM     69  F   UNL A   1      38.948  32.387  38.792  1.00  0.00    -0.205 F 
ATOM     70  C   UNL A   1      40.620  35.442  39.921  1.00  0.00     0.022 A 
BRANCH  68  71
ATOM     71  S   UNL A   1      38.504  34.273  41.199  1.00  0.00     0.127 S 
ATOM     72  O   UNL A   1      39.208  33.460  42.191  1.00  0.00    -0.237 OA
ATOM     73  O   UNL A   1      38.343  35.680  41.567  1.00  0.00    -0.237 OA
ATOM     74  O   UNL A   1      37.321  33.657  40.615  1.00  0.00    -0.744 OA
ENDBRANCH  68  71
ENDBRANCH  50  64
BRANCH  51  75
ATOM     75  C   UNL A   1      40.696  27.952  29.559  1.00  0.00     0.023 A 
ATOM     76  C   UNL A   1      39.824  26.856  29.415  1.00  0.00     0.012 A 
ATOM     77  C   UNL A   1      41.575  28.273  28.507  1.00  0.00     0.148 A 
ATOM     78  C   UNL A   1      39.853  26.070  28.262  1.00  0.00     0.002 A 
ATOM     79  C   UNL A   1      41.558  27.522  27.338  1.00  0.00     0.091 A 
ATOM     80  F   UNL A   1      42.402  29.317  28.666  1.00  0.00    -0.205 F 
ATOM     81  C   UNL A   1      40.712  26.408  27.221  1.00  0.00     0.022 A 
BRANCH  79  82
ATOM     82  S   UNL A   1      42.536  27.961  25.896  1.00  0.00     0.127 S 
ATOM     83  O   UNL A   1      42.141  26.930  24.940  1.00  0.00    -0.237 OA
ATOM     84  O   UNL A   1      42.041  29.304  25.595  1.00  0.00    -0.237 OA
ATOM     85  O   UNL A   1      43.925  27.917  26.332  1.00  0.00    -0.744 OA
ENDBRANCH  79  82
ENDBRANCH  51  75
BRANCH  63  86
ATOM     86  C   UNL A   1      44.658  28.155  35.313  1.00  0.00     0.023 A 
ATOM     87  C   UNL A   1      45.968  28.567  35.005  1.00  0.00     0.012 A 
ATOM     88  C   UNL A   1      44.460  27.031  36.139  1.00  0.00     0.148 A 
ATOM     89  C   UNL A   1      47.065  27.853  35.490  1.00  0.00     0.002 A 
ATOM     90  C   UNL A   1      45.557  26.358  36.662  1.00  0.00     0.091 A 
ATOM     91  F   UNL A   1      43.203  26.646  36.405  1.00  0.00    -0.205 F 
ATOM     92  C   UNL A   1      46.860  26.760  36.328  1.00  0.00     0.022 A 
BRANCH  90  93
ATOM     93  S   UNL A   1      45.389  25.006  37.831  1.00  0.00     0.127 S 
ATOM     94  O   UNL A   1      44.771  23.971  37.003  1.00  0.00    -0.237 OA
ATOM     95  O   UNL A   1      46.781  24.741  38.199  1.00  0.00    -0.237 OA
ATOM     96  O   UNL A   1      44.560  25.510  38.918  1.00  0.00    -0.744 OA
ENDBRANCH  90  93
ENDBRANCH  63  86
ENDBRANCH  37  38
ENDBRANCH  29  32
ENDBRANCH  27  28
ENDBRANCH  26  27
ENDBRANCH  25  26
ENDBRANCH   1  25
TORSDOF 19
ENDMDL
MODEL 2
REMARK VINA RESULT:     -10.9      1.684      7.956
REMARK SMILES C[C@@H]1CN(C(=O)NC[C@@H]2CCC[C@@H]2C(=O)NCCCCCCNC(=O)c2ccc(-c3c4nc(c(-c5cccc(S(=O)(=O)[O-])c5F)c5ccc([nH]5)c(-c5cccc(S(=O)(=O)[O-])c5F)c5nc(c(-c6cccc(S(=O)(=O)[O-])c6F)c6ccc3[nH]6)C=C5)C=C4)cc2)C[C@@H]1C
REMARK SMILES IDX 19 1 18 2 17 3 16 4 14 5 15 6 13 8 9 9 10 10 11 11 12 12
REMARK SMILES IDX 8 13 7 14 5 15 6 16 4 18 1 19 2 20 3 21 90 22 89 23 91 24
REMARK SMILES IDX 20 25 21 26 22 27 23 28 24 29 25 31 26 32 27 33 88 34 28 35
REMARK SMILES IDX 87 36 29 37 30 38 31 39 81 40 32 41 86 42 80 43 82 44 33 45
REMARK SMILES IDX 85 46 79 47 78 48 34 50 66 51 46 52 65 53 47 54 50 55 64 56
REMARK SMILES IDX 83 57 48 58 49 59 63 61 84 62 51 63 35 64 36 65 44 66 37 67
REMARK SMILES IDX 39 68 45 69 38 70 40 71 41 72 42 73 43 74 67 75 68 76 76 77
REMARK SMILES IDX 69 78 71 79 77 80 70 81 72 82 73 83 74 84 75 85 52 86 53 87
REMARK SMILES IDX 61 88 54 89 56 90 62 91 55 92 57 93 58 94 59 95 60 96
REMARK H PARENT 16 7 7 17 23 30 82 49 50 60
REMARK Flexibility Score: inf
ROOT
ATOM      1  C   UNL A   1      32.833  29.872  25.916  1.00  0.00     0.002 C 
ENDROOT
BRANCH   1   2
ATOM      2  C   UNL A   1      32.847  28.345  25.808  1.00  0.00     0.021 C 
BRANCH   2   3
ATOM      3  C   UNL A   1      31.499  27.684  26.087  1.00  0.00     0.116 C 
BRANCH   3   4
ATOM      4  N   UNL A   1      31.579  26.257  25.865  1.00  0.00    -0.356 N 
ATOM      5  C   UNL A   1      30.892  25.418  25.060  1.00  0.00     0.223 C 
ATOM      6  O   UNL A   1      30.978  24.215  25.349  1.00  0.00    -0.275 OA
ATOM      7  H   UNL A   1      32.270  25.810  26.405  1.00  0.00     0.163 HD
BRANCH   5   8
ATOM      8  C   UNL A   1      30.196  25.805  23.751  1.00  0.00     0.083 C 
ATOM      9  C   UNL A   1      31.188  26.006  22.588  1.00  0.00     0.021 C 
ATOM     10  C   UNL A   1      31.482  27.504  22.611  1.00  0.00     0.006 C 
ATOM     11  C   UNL A   1      30.183  28.160  23.068  1.00  0.00     0.001 C 
ATOM     12  C   UNL A   1      29.308  27.039  23.645  1.00  0.00     0.014 C 
BRANCH   9  13
ATOM     13  C   UNL A   1      32.458  25.158  22.628  1.00  0.00     0.122 C 
BRANCH  13  14
ATOM     14  N   UNL A   1      32.163  23.761  22.357  1.00  0.00    -0.338 N 
ATOM     15  C   UNL A   1      32.711  22.575  22.688  1.00  0.00     0.317 C 
ATOM     16  O   UNL A   1      32.178  21.565  22.220  1.00  0.00    -0.249 OA
ATOM     17  H   UNL A   1      31.365  23.655  21.792  1.00  0.00     0.165 HD
BRANCH  15  18
ATOM     18  N   UNL A   1      33.787  22.484  23.515  1.00  0.00    -0.324 N 
ATOM     19  C   UNL A   1      37.049  23.514  24.929  1.00  0.00     0.010 C 
ATOM     20  C   UNL A   1      35.884  22.590  24.612  1.00  0.00     0.010 C 
ATOM     21  C   UNL A   1      35.127  23.016  23.357  1.00  0.00     0.125 C 
ATOM     22  C   UNL A   1      34.765  22.492  25.666  1.00  0.00     0.010 C 
ATOM     23  C   UNL A   1      33.644  21.862  24.828  1.00  0.00     0.125 C 
ATOM     24  C   UNL A   1      34.299  23.827  26.262  1.00  0.00     0.010 C 
ENDBRANCH  15  18
ENDBRANCH  13  14
ENDBRANCH   9  13
ENDBRANCH   5   8
ENDBRANCH   3   4
ENDBRANCH   2   3
ENDBRANCH   1   2
BRANCH   1  25
ATOM     25  C   UNL A   1      31.695  30.451  26.763  1.00  0.00     0.002 C 
BRANCH  25  26
ATOM     26  C   UNL A   1      31.598  31.979  26.767  1.00  0.00     0.021 C 
BRANCH  26  27
ATOM     27  C   UNL A   1      32.835  32.692  27.302  1.00  0.00     0.116 C 
BRANCH  27  28
ATOM     28  N   UNL A   1      32.565  34.086  27.616  1.00  0.00    -0.352 N 
ATOM     29  C   UNL A   1      33.107  34.863  28.605  1.00  0.00     0.251 C 
ATOM     30  H   UNL A   1      31.903  34.531  27.040  1.00  0.00     0.163 HD
ATOM     31  O   UNL A   1      32.619  35.961  28.867  1.00  0.00    -0.269 OA
BRANCH  29  32
ATOM     32  C   UNL A   1      34.273  34.365  29.363  1.00  0.00     0.039 A 
ATOM     33  C   UNL A   1      34.063  33.702  30.575  1.00  0.00     0.014 A 
ATOM     34  C   UNL A   1      35.568  34.544  28.869  1.00  0.00     0.014 A 
ATOM     35  C   UNL A   1      35.154  33.173  31.267  1.00  0.00     0.010 A 
ATOM     36  C   UNL A   1      36.643  33.951  29.520  1.00  0.00     0.010 A 
ATOM     37  C   UNL A   1      36.448  33.267  30.731  1.00  0.00    -0.014 A 
BRANCH  37  38
ATOM     38  C   UNL A   1      37.619  32.664  31.415  1.00  0.00     0.031 A 
ATOM     39  C   UNL A   1      38.342  31.505  30.783  1.00  0.00     0.074 A 
ATOM     40  C   UNL A   1      37.969  33.092  32.644  1.00  0.00     0.049 A 
ATOM     41  N   UNL A   1      39.316  30.778  31.265  1.00  0.00    -0.248 NA
ATOM     42  C   UNL A   1      37.891  31.089  29.443  1.00  0.00     0.031 C 
ATOM     43  C   UNL A   1      37.303  34.164  33.387  1.00  0.00     0.029 A 
ATOM     44  N   UNL A   1      38.949  32.655  33.499  1.00  0.00    -0.354 N 
ATOM     45  C   UNL A   1      39.566  29.800  30.312  1.00  0.00     0.074 A 
ATOM     46  C   UNL A   1      38.621  30.004  29.236  1.00  0.00     0.031 C 
ATOM     47  C   UNL A   1      37.893  34.300  34.586  1.00  0.00     0.029 A 
ATOM     48  C   UNL A   1      38.948  33.300  34.715  1.00  0.00     0.049 A 
ATOM     49  H   UNL A   1      39.592  31.947  33.266  1.00  0.00     0.167 HD
ATOM     50  C   UNL A   1      40.514  28.831  30.318  1.00  0.00     0.034 A 
ATOM     51  C   UNL A   1      39.700  33.096  35.815  1.00  0.00     0.034 A 
ATOM     52  C   UNL A   1      41.473  28.655  31.375  1.00  0.00     0.049 A 
ATOM     53  C   UNL A   1      40.758  32.029  35.789  1.00  0.00     0.074 A 
ATOM     54  C   UNL A   1      42.522  27.757  31.441  1.00  0.00     0.029 A 
ATOM     55  N   UNL A   1      41.492  29.384  32.554  1.00  0.00    -0.354 N 
ATOM     56  N   UNL A   1      41.071  31.201  34.821  1.00  0.00    -0.248 NA
ATOM     57  C   UNL A   1      41.593  31.888  36.990  1.00  0.00     0.031 C 
ATOM     58  C   UNL A   1      43.156  27.919  32.677  1.00  0.00     0.029 A 
ATOM     59  C   UNL A   1      42.530  28.949  33.360  1.00  0.00     0.049 A 
ATOM     60  H   UNL A   1      40.862  30.104  32.785  1.00  0.00     0.167 HD
ATOM     61  C   UNL A   1      42.166  30.476  35.277  1.00  0.00     0.074 A 
ATOM     62  C   UNL A   1      42.468  30.969  36.605  1.00  0.00     0.031 C 
ATOM     63  C   UNL A   1      42.855  29.489  34.654  1.00  0.00     0.034 A 
BRANCH  50  64
ATOM     64  C   UNL A   1      40.583  27.907  29.131  1.00  0.00     0.023 A 
ATOM     65  C   UNL A   1      39.667  26.840  29.019  1.00  0.00     0.012 A 
ATOM     66  C   UNL A   1      41.512  28.130  28.096  1.00  0.00     0.148 A 
ATOM     67  C   UNL A   1      39.700  25.986  27.917  1.00  0.00     0.002 A 
ATOM     68  C   UNL A   1      41.506  27.306  26.977  1.00  0.00     0.091 A 
ATOM     69  F   UNL A   1      42.387  29.136  28.228  1.00  0.00    -0.205 F 
ATOM     70  C   UNL A   1      40.611  26.226  26.892  1.00  0.00     0.022 A 
BRANCH  68  71
ATOM     71  S   UNL A   1      42.581  27.581  25.564  1.00  0.00     0.127 S 
ATOM     72  O   UNL A   1      42.045  28.831  25.026  1.00  0.00    -0.237 OA
ATOM     73  O   UNL A   1      43.894  27.703  26.197  1.00  0.00    -0.237 OA
ATOM     74  O   UNL A   1      42.424  26.415  24.706  1.00  0.00    -0.744 OA
ENDBRANCH  68  71
ENDBRANCH  50  64
BRANCH  51  75
ATOM     75  C   UNL A   1      39.509  33.956  37.017  1.00  0.00     0.023 A 
ATOM     76  C   UNL A   1      39.871  35.317  36.962  1.00  0.00     0.012 A 
ATOM     77  C   UNL A   1      38.954  33.442  38.205  1.00  0.00     0.148 A 
ATOM     78  C   UNL A   1      39.718  36.140  38.079  1.00  0.00     0.002 A 
ATOM     79  C   UNL A   1      38.750  34.281  39.294  1.00  0.00     0.091 A 
ATOM     80  F   UNL A   1      38.621  32.143  38.240  1.00  0.00    -0.205 F 
ATOM     81  C   UNL A   1      39.150  35.625  39.240  1.00  0.00     0.022 A 
BRANCH  79  82
ATOM     82  S   UNL A   1      37.906  33.738  40.785  1.00  0.00     0.127 S 
ATOM     83  O   UNL A   1      37.852  34.972  41.565  1.00  0.00    -0.237 OA
ATOM     84  O   UNL A   1      36.620  33.287  40.255  1.00  0.00    -0.237 OA
ATOM     85  O   UNL A   1      38.732  32.676  41.342  1.00  0.00    -0.744 OA
ENDBRANCH  79  82
ENDBRANCH  51  75
BRANCH  63  86
ATOM     86  C   UNL A   1      44.053  28.911  35.363  1.00  0.00     0.023 A 
ATOM     87  C   UNL A   1      45.329  29.477  35.182  1.00  0.00     0.012 A 
ATOM     88  C   UNL A   1      43.886  27.858  36.284  1.00  0.00     0.148 A 
ATOM     89  C   UNL A   1      46.426  28.985  35.887  1.00  0.00     0.002 A 
ATOM     90  C   UNL A   1      44.974  27.409  37.023  1.00  0.00     0.091 A 
ATOM     91  F   UNL A   1      42.665  27.321  36.428  1.00  0.00    -0.205 F 
ATOM     92  C   UNL A   1      46.247  27.963  36.816  1.00  0.00     0.022 A 
BRANCH  90  93
ATOM     93  S   UNL A   1      44.817  26.171  38.313  1.00  0.00     0.127 S 
ATOM     94  O   UNL A   1      43.998  25.155  37.653  1.00  0.00    -0.237 OA
ATOM     95  O   UNL A   1      46.209  25.780  38.538  1.00  0.00    -0.237 OA
ATOM     96  O   UNL A   1      44.185  26.840  39.443  1.00  0.00    -0.744 OA
ENDBRANCH  90  93
ENDBRANCH  63  86
ENDBRANCH  37  38
ENDBRANCH  29  32
ENDBRANCH  27  28
ENDBRANCH  26  27
ENDBRANCH  25  26
ENDBRANCH   1  25
TORSDOF 19
ENDMDL
MODEL 3
REMARK VINA RESULT:     -10.8      2.065      7.947
REMARK SMILES C[C@@H]1CN(C(=O)NC[C@@H]2CCC[C@@H]2C(=O)NCCCCCCNC(=O)c2ccc(-c3c4nc(c(-c5cccc(S(=O)(=O)[O-])c5F)c5ccc([nH]5)c(-c5cccc(S(=O)(=O)[O-])c5F)c5nc(c(-c6cccc(S(=O)(=O)[O-])c6F)c6ccc3[nH]6)C=C5)C=C4)cc2)C[C@@H]1C
REMARK SMILES IDX 19 1 18 2 17 3 16 4 14 5 15 6 13 8 9 9 10 10 11 11 12 12
REMARK SMILES IDX 8 13 7 14 5 15 6 16 4 18 1 19 2 20 3 21 90 22 89 23 91 24
REMARK SMILES IDX 20 25 21 26 22 27 23 28 24 29 25 31 26 32 27 33 88 34 28 35
REMARK SMILES IDX 87 36 29 37 30 38 31 39 81 40 32 41 86 42 80 43 82 44 33 45
REMARK SMILES IDX 85 46 79 47 78 48 34 50 66 51 46 52 65 53 47 54 50 55 64 56
REMARK SMILES IDX 83 57 48 58 49 59 63 61 84 62 51 63 35 64 36 65 44 66 37 67
REMARK SMILES IDX 39 68 45 69 38 70 40 71 41 72 42 73 43 74 67 75 68 76 76 77
REMARK SMILES IDX 69 78 71 79 77 80 70 81 72 82 73 83 74 84 75 85 52 86 53 87
REMARK SMILES IDX 61 88 54 89 56 90 62 91 55 92 57 93 58 94 59 95 60 96
REMARK H PARENT 16 7 7 17 23 30 82 49 50 60
REMARK Flexibility Score: inf
ROOT
ATOM      1  C   UNL A   1      33.591  28.229  26.800  1.00  0.00     0.002 C 
ENDROOT
BRANCH   1   2
ATOM      2  C   UNL A   1      33.686  27.394  25.520  1.00  0.00     0.021 C 
BRANCH   2   3
ATOM      3  C   UNL A   1      33.978  28.207  24.260  1.00  0.00     0.116 C 
BRANCH   3   4
ATOM      4  N   UNL A   1      33.155  27.754  23.162  1.00  0.00    -0.356 N 
ATOM      5  C   UNL A   1      31.849  27.422  23.076  1.00  0.00     0.223 C 
ATOM      6  O   UNL A   1      31.533  26.760  22.076  1.00  0.00    -0.275 OA
ATOM      7  H   UNL A   1      33.641  27.671  22.310  1.00  0.00     0.163 HD
BRANCH   5   8
ATOM      8  C   UNL A   1      30.732  27.944  23.985  1.00  0.00     0.083 C 
ATOM      9  C   UNL A   1      29.916  26.809  24.635  1.00  0.00     0.021 C 
ATOM     10  C   UNL A   1      28.739  26.610  23.683  1.00  0.00     0.006 C 
ATOM     11  C   UNL A   1      28.435  27.999  23.128  1.00  0.00     0.001 C 
ATOM     12  C   UNL A   1      29.644  28.879  23.470  1.00  0.00     0.014 C 
BRANCH   9  13
ATOM     13  C   UNL A   1      30.670  25.510  24.915  1.00  0.00     0.122 C 
BRANCH  13  14
ATOM     14  N   UNL A   1      30.056  24.773  26.006  1.00  0.00    -0.338 N 
ATOM     15  C   UNL A   1      30.344  23.655  26.702  1.00  0.00     0.317 C 
ATOM     16  O   UNL A   1      29.533  23.311  27.566  1.00  0.00    -0.249 OA
ATOM     17  H   UNL A   1      29.222  25.195  26.314  1.00  0.00     0.165 HD
BRANCH  15  18
ATOM     18  N   UNL A   1      31.484  22.946  26.485  1.00  0.00    -0.324 N 
ATOM     19  C   UNL A   1      34.036  21.207  24.443  1.00  0.00     0.010 C 
ATOM     20  C   UNL A   1      33.251  21.582  25.690  1.00  0.00     0.010 C 
ATOM     21  C   UNL A   1      31.853  22.102  25.364  1.00  0.00     0.125 C 
ATOM     22  C   UNL A   1      33.833  22.704  26.570  1.00  0.00     0.010 C 
ATOM     23  C   UNL A   1      32.603  23.066  27.414  1.00  0.00     0.125 C 
ATOM     24  C   UNL A   1      34.343  23.938  25.816  1.00  0.00     0.010 C 
ENDBRANCH  15  18
ENDBRANCH  13  14
ENDBRANCH   9  13
ENDBRANCH   5   8
ENDBRANCH   3   4
ENDBRANCH   2   3
ENDBRANCH   1   2
BRANCH   1  25
ATOM     25  C   UNL A   1      32.169  28.631  27.205  1.00  0.00     0.002 C 
BRANCH  25  26
ATOM     26  C   UNL A   1      31.776  30.070  26.861  1.00  0.00     0.021 C 
BRANCH  26  27
ATOM     27  C   UNL A   1      32.951  30.999  26.582  1.00  0.00     0.116 C 
BRANCH  27  28
ATOM     28  N   UNL A   1      32.621  32.390  26.851  1.00  0.00    -0.352 N 
ATOM     29  C   UNL A   1      33.151  33.231  27.795  1.00  0.00     0.251 C 
ATOM     30  H   UNL A   1      31.922  32.779  26.278  1.00  0.00     0.163 HD
ATOM     31  O   UNL A   1      32.616  34.313  28.029  1.00  0.00    -0.269 OA
BRANCH  29  32
ATOM     32  C   UNL A   1      34.359  32.819  28.537  1.00  0.00     0.039 A 
ATOM     33  C   UNL A   1      34.216  32.094  29.722  1.00  0.00     0.014 A 
ATOM     34  C   UNL A   1      35.631  33.143  28.054  1.00  0.00     0.014 A 
ATOM     35  C   UNL A   1      35.354  31.648  30.397  1.00  0.00     0.010 A 
ATOM     36  C   UNL A   1      36.758  32.632  28.685  1.00  0.00     0.010 A 
ATOM     37  C   UNL A   1      36.632  31.888  29.869  1.00  0.00    -0.014 A 
BRANCH  37  38
ATOM     38  C   UNL A   1      37.857  31.376  30.533  1.00  0.00     0.031 A 
ATOM     39  C   UNL A   1      38.696  30.327  29.854  1.00  0.00     0.074 A 
ATOM     40  C   UNL A   1      38.157  31.779  31.783  1.00  0.00     0.049 A 
ATOM     41  N   UNL A   1      39.738  29.682  30.310  1.00  0.00    -0.248 NA
ATOM     42  C   UNL A   1      38.294  29.931  28.493  1.00  0.00     0.031 C 
ATOM     43  C   UNL A   1      37.384  32.742  32.570  1.00  0.00     0.029 A 
ATOM     44  N   UNL A   1      39.175  31.405  32.625  1.00  0.00    -0.354 N 
ATOM     45  C   UNL A   1      40.090  28.779  29.314  1.00  0.00     0.074 A 
ATOM     46  C   UNL A   1      39.131  28.936  28.242  1.00  0.00     0.031 C 
ATOM     47  C   UNL A   1      37.953  32.881  33.778  1.00  0.00     0.029 A 
ATOM     48  C   UNL A   1      39.104  31.990  33.869  1.00  0.00     0.049 A 
ATOM     49  H   UNL A   1      39.887  30.778  32.364  1.00  0.00     0.167 HD
ATOM     50  C   UNL A   1      41.131  27.914  29.283  1.00  0.00     0.034 A 
ATOM     51  C   UNL A   1      39.869  31.812  34.964  1.00  0.00     0.034 A 
ATOM     52  C   UNL A   1      42.100  27.787  30.338  1.00  0.00     0.049 A 
ATOM     53  C   UNL A   1      41.032  30.861  34.897  1.00  0.00     0.074 A 
ATOM     54  C   UNL A   1      43.235  26.998  30.371  1.00  0.00     0.029 A 
ATOM     55  N   UNL A   1      42.042  28.458  31.549  1.00  0.00    -0.354 N 
ATOM     56  N   UNL A   1      41.430  30.115  33.895  1.00  0.00    -0.248 NA
ATOM     57  C   UNL A   1      41.873  30.750  36.097  1.00  0.00     0.031 C 
ATOM     58  C   UNL A   1      43.846  27.166  31.617  1.00  0.00     0.029 A 
ATOM     59  C   UNL A   1      43.116  28.095  32.342  1.00  0.00     0.049 A 
ATOM     60  H   UNL A   1      41.341  29.099  31.808  1.00  0.00     0.167 HD
ATOM     61  C   UNL A   1      42.592  29.485  34.325  1.00  0.00     0.074 A 
ATOM     62  C   UNL A   1      42.838  29.944  35.677  1.00  0.00     0.031 C 
ATOM     63  C   UNL A   1      43.380  28.604  33.663  1.00  0.00     0.034 A 
BRANCH  50  64
ATOM     64  C   UNL A   1      41.298  27.058  28.055  1.00  0.00     0.023 A 
ATOM     65  C   UNL A   1      41.937  27.586  26.914  1.00  0.00     0.012 A 
ATOM     66  C   UNL A   1      40.878  25.713  28.049  1.00  0.00     0.148 A 
ATOM     67  C   UNL A   1      42.121  26.804  25.774  1.00  0.00     0.002 A 
ATOM     68  C   UNL A   1      41.110  24.925  26.929  1.00  0.00     0.091 A 
ATOM     69  F   UNL A   1      40.256  25.233  29.135  1.00  0.00    -0.205 F 
ATOM     70  C   UNL A   1      41.718  25.471  25.786  1.00  0.00     0.022 A 
BRANCH  68  71
ATOM     71  S   UNL A   1      40.707  23.175  26.874  1.00  0.00     0.127 S 
ATOM     72  O   UNL A   1      39.267  23.212  26.618  1.00  0.00    -0.237 OA
ATOM     73  O   UNL A   1      41.515  22.709  25.747  1.00  0.00    -0.237 OA
ATOM     74  O   UNL A   1      41.095  22.632  28.168  1.00  0.00    -0.744 OA
ENDBRANCH  68  71
ENDBRANCH  50  64
BRANCH  51  75
ATOM     75  C   UNL A   1      39.588  32.591  36.203  1.00  0.00     0.023 A 
ATOM     76  C   UNL A   1      40.272  33.802  36.432  1.00  0.00     0.012 A 
ATOM     77  C   UNL A   1      38.636  32.153  37.144  1.00  0.00     0.148 A 
ATOM     78  C   UNL A   1      40.040  34.542  37.592  1.00  0.00     0.002 A 
ATOM     79  C   UNL A   1      38.367  32.925  38.268  1.00  0.00     0.091 A 
ATOM     80  F   UNL A   1      38.000  30.995  36.911  1.00  0.00    -0.205 F 
ATOM     81  C   UNL A   1      39.082  34.109  38.504  1.00  0.00     0.022 A 
BRANCH  79  82
ATOM     82  S   UNL A   1      37.060  32.513  39.430  1.00  0.00     0.127 S 
ATOM     83  O   UNL A   1      35.866  32.664  38.603  1.00  0.00    -0.237 OA
ATOM     84  O   UNL A   1      37.395  31.135  39.784  1.00  0.00    -0.237 OA
ATOM     85  O   UNL A   1      37.192  33.463  40.526  1.00  0.00    -0.744 OA
ENDBRANCH  79  82
ENDBRANCH  51  75
BRANCH  63  86
ATOM     86  C   UNL A   1      44.629  28.118  34.353  1.00  0.00     0.023 A 
ATOM     87  C   UNL A   1      45.829  28.847  34.249  1.00  0.00     0.012 A 
ATOM     88  C   UNL A   1      44.578  26.981  35.184  1.00  0.00     0.148 A 
ATOM     89  C   UNL A   1      46.968  28.434  34.940  1.00  0.00     0.002 A 
ATOM     90  C   UNL A   1      45.701  26.608  35.911  1.00  0.00     0.091 A 
ATOM     91  F   UNL A   1      43.430  26.292  35.254  1.00  0.00    -0.205 F 
ATOM     92  C   UNL A   1      46.900  27.326  35.781  1.00  0.00     0.022 A 
BRANCH  90  93
ATOM     93  S   UNL A   1      45.677  25.259  37.097  1.00  0.00     0.127 S 
ATOM     94  O   UNL A   1      46.528  25.786  38.164  1.00  0.00    -0.237 OA
ATOM     95  O   UNL A   1      44.256  25.172  37.436  1.00  0.00    -0.237 OA
ATOM     96  O   UNL A   1      46.206  24.096  36.397  1.00  0.00    -0.744 OA
ENDBRANCH  90  93
ENDBRANCH  63  86
ENDBRANCH  37  38
ENDBRANCH  29  32
ENDBRANCH  27  28
ENDBRANCH  26  27
ENDBRANCH  25  26
ENDBRANCH   1  25
TORSDOF 19
ENDMDL
