MODEL 1
REMARK VINA RESULT:     -11.7      0.000      0.000
REMARK SMILES CC(C)(C)OC(=O)N[C@@H](C(=O)NCCCCCCNC(=O)c1ccc(-c2c3nc(c(-c4cccc(S(=O)(=O)[O-])c4F)c4ccc([nH]4)c(-c4cccc(S(=O)(=O)[O-])c4F)c4nc(c(-c5cccc(S(=O)(=O)[O-])c5F)c5ccc2[nH]5)C=C4)C=C3)cc1)[C@H](O)c1ccccc1F
REMARK SMILES IDX 15 1 14 2 13 3 12 4 10 5 11 6 9 8 8 9 6 10 7 11 5 13 2 14
REMARK SMILES IDX 1 15 3 16 4 17 85 18 87 19 88 20 92 21 89 22 91 23 93 24
REMARK SMILES IDX 90 25 86 26 16 28 17 29 18 30 19 31 20 32 21 34 22 35 23 36
REMARK SMILES IDX 84 37 24 38 83 39 25 40 26 41 27 42 77 43 28 44 82 45 76 46
REMARK SMILES IDX 78 47 29 48 81 49 75 50 74 51 30 53 62 54 42 55 61 56 43 57
REMARK SMILES IDX 46 58 60 59 79 60 44 61 45 62 59 64 80 65 47 66 31 67 32 68
REMARK SMILES IDX 40 69 33 70 35 71 41 72 34 73 36 74 37 75 38 76 39 77 63 78
REMARK SMILES IDX 64 79 72 80 65 81 67 82 73 83 66 84 68 85 69 86 70 87 71 88
REMARK SMILES IDX 48 89 49 90 57 91 50 92 52 93 58 94 51 95 53 96 54 97 55 98
REMARK SMILES IDX 56 99
REMARK H PARENT 12 7 8 12 86 27 19 33 78 52 46 63
REMARK Flexibility Score: inf
ROOT
ATOM      1  C   UNL A   1      34.274  23.760  23.687  1.00  0.00     0.002 C 
ENDROOT
BRANCH   1   2
ATOM      2  C   UNL A   1      33.385  23.840  22.441  1.00  0.00     0.021 C 
BRANCH   2   3
ATOM      3  C   UNL A   1      32.144  24.706  22.654  1.00  0.00     0.116 C 
BRANCH   3   4
ATOM      4  N   UNL A   1      31.270  24.067  23.620  1.00  0.00    -0.354 N 
ATOM      5  C   UNL A   1      30.720  24.634  24.742  1.00  0.00     0.245 C 
ATOM      6  O   UNL A   1      30.486  23.902  25.705  1.00  0.00    -0.273 OA
ATOM      7  H   UNL A   1      31.046  23.122  23.451  1.00  0.00     0.163 HD
BRANCH   5   8
ATOM      8  C   UNL A   1      30.516  26.156  24.758  1.00  0.00     0.208 C 
BRANCH   8   9
ATOM      9  N   UNL A   1      30.588  26.546  26.176  1.00  0.00    -0.307 N 
ATOM     10  C   UNL A   1      31.322  27.546  26.731  1.00  0.00     0.408 C 
ATOM     11  O   UNL A   1      31.324  27.733  27.937  1.00  0.00    -0.225 OA
ATOM     12  H   UNL A   1      30.036  26.018  26.798  1.00  0.00     0.168 HD
BRANCH  10  13
ATOM     13  O   UNL A   1      32.029  28.248  25.813  1.00  0.00    -0.444 OA
BRANCH  13  14
ATOM     14  C   UNL A   1      33.440  27.978  25.597  1.00  0.00     0.106 C 
ATOM     15  C   UNL A   1      34.177  28.979  26.502  1.00  0.00     0.056 C 
ATOM     16  C   UNL A   1      33.848  28.254  24.144  1.00  0.00     0.056 C 
ATOM     17  C   UNL A   1      33.811  26.558  26.038  1.00  0.00     0.056 C 
ENDBRANCH  13  14
ENDBRANCH  10  13
ENDBRANCH   8   9
BRANCH   8  18
ATOM     18  C   UNL A   1      29.173  26.640  24.150  1.00  0.00     0.179 C 
BRANCH  18  19
ATOM     19  C   UNL A   1      29.127  27.904  23.307  1.00  0.00     0.019 A 
ATOM     20  C   UNL A   1      30.346  28.393  22.797  1.00  0.00     0.009 A 
ATOM     21  C   UNL A   1      27.982  28.663  23.048  1.00  0.00     0.129 A 
ATOM     22  C   UNL A   1      30.404  29.578  22.055  1.00  0.00     0.001 A 
ATOM     23  C   UNL A   1      28.036  29.855  22.324  1.00  0.00     0.039 A 
ATOM     24  F   UNL A   1      26.779  28.287  23.484  1.00  0.00    -0.207 F 
ATOM     25  C   UNL A   1      29.248  30.314  21.824  1.00  0.00     0.003 A 
ENDBRANCH  18  19
BRANCH  18  26
ATOM     26  O   UNL A   1      28.456  25.579  23.503  1.00  0.00    -0.386 OA
ATOM     27  H   UNL A   1      28.894  24.734  23.686  1.00  0.00     0.211 HD
ENDBRANCH  18  26
ENDBRANCH   8  18
ENDBRANCH   5   8
ENDBRANCH   3   4
ENDBRANCH   2   3
ENDBRANCH   1   2
BRANCH   1  28
ATOM     28  C   UNL A   1      34.972  22.408  23.875  1.00  0.00     0.002 C 
BRANCH  28  29
ATOM     29  C   UNL A   1      36.477  22.501  24.143  1.00  0.00     0.021 C 
BRANCH  29  30
ATOM     30  C   UNL A   1      36.853  22.463  25.621  1.00  0.00     0.116 C 
BRANCH  30  31
ATOM     31  N   UNL A   1      37.866  21.456  25.888  1.00  0.00    -0.352 N 
ATOM     32  C   UNL A   1      39.179  21.608  26.245  1.00  0.00     0.251 C 
ATOM     33  H   UNL A   1      37.563  20.524  25.799  1.00  0.00     0.163 HD
ATOM     34  O   UNL A   1      39.937  20.644  26.187  1.00  0.00    -0.269 OA
BRANCH  32  35
ATOM     35  C   UNL A   1      39.686  22.924  26.690  1.00  0.00     0.039 A 
ATOM     36  C   UNL A   1      40.642  22.962  27.707  1.00  0.00     0.014 A 
ATOM     37  C   UNL A   1      39.199  24.116  26.142  1.00  0.00     0.014 A 
ATOM     38  C   UNL A   1      41.130  24.190  28.150  1.00  0.00     0.010 A 
ATOM     39  C   UNL A   1      39.748  25.337  26.528  1.00  0.00     0.010 A 
ATOM     40  C   UNL A   1      40.706  25.389  27.549  1.00  0.00    -0.014 A 
BRANCH  40  41
ATOM     41  C   UNL A   1      41.290  26.684  27.979  1.00  0.00     0.031 A 
ATOM     42  C   UNL A   1      42.738  27.006  27.738  1.00  0.00     0.074 A 
ATOM     43  C   UNL A   1      40.509  27.563  28.638  1.00  0.00     0.049 A 
ATOM     44  N   UNL A   1      43.382  28.121  27.976  1.00  0.00    -0.248 NA
ATOM     45  C   UNL A   1      43.582  25.936  27.186  1.00  0.00     0.031 C 
ATOM     46  C   UNL A   1      39.123  27.322  29.039  1.00  0.00     0.029 A 
ATOM     47  N   UNL A   1      40.774  28.829  29.097  1.00  0.00    -0.354 N 
ATOM     48  C   UNL A   1      44.707  27.877  27.634  1.00  0.00     0.074 A 
ATOM     49  C   UNL A   1      44.782  26.497  27.209  1.00  0.00     0.031 C 
ATOM     50  C   UNL A   1      38.653  28.407  29.670  1.00  0.00     0.029 A 
ATOM     51  C   UNL A   1      39.709  29.413  29.737  1.00  0.00     0.049 A 
ATOM     52  H   UNL A   1      41.644  29.275  28.979  1.00  0.00     0.167 HD
ATOM     53  C   UNL A   1      45.759  28.731  27.647  1.00  0.00     0.034 A 
ATOM     54  C   UNL A   1      39.589  30.625  30.313  1.00  0.00     0.034 A 
ATOM     55  C   UNL A   1      45.672  30.110  28.052  1.00  0.00     0.049 A 
ATOM     56  C   UNL A   1      40.741  31.585  30.238  1.00  0.00     0.074 A 
ATOM     57  C   UNL A   1      46.650  31.088  27.998  1.00  0.00     0.029 A 
ATOM     58  N   UNL A   1      44.550  30.703  28.609  1.00  0.00    -0.354 N 
ATOM     59  N   UNL A   1      41.934  31.403  29.726  1.00  0.00    -0.248 NA
ATOM     60  C   UNL A   1      40.514  32.934  30.773  1.00  0.00     0.031 C 
ATOM     61  C   UNL A   1      46.130  32.259  28.560  1.00  0.00     0.029 A 
ATOM     62  C   UNL A   1      44.813  32.027  28.923  1.00  0.00     0.049 A 
ATOM     63  H   UNL A   1      43.688  30.249  28.759  1.00  0.00     0.167 HD
ATOM     64  C   UNL A   1      42.594  32.619  29.855  1.00  0.00     0.074 A 
ATOM     65  C   UNL A   1      41.654  33.538  30.465  1.00  0.00     0.031 C 
ATOM     66  C   UNL A   1      43.867  32.942  29.510  1.00  0.00     0.034 A 
BRANCH  53  67
ATOM     67  C   UNL A   1      47.093  28.199  27.182  1.00  0.00     0.023 A 
ATOM     68  C   UNL A   1      48.104  27.915  28.125  1.00  0.00     0.012 A 
ATOM     69  C   UNL A   1      47.337  27.951  25.817  1.00  0.00     0.148 A 
ATOM     70  C   UNL A   1      49.350  27.443  27.713  1.00  0.00     0.002 A 
ATOM     71  C   UNL A   1      48.564  27.431  25.420  1.00  0.00     0.091 A 
ATOM     72  F   UNL A   1      46.376  28.246  24.931  1.00  0.00    -0.205 F 
ATOM     73  C   UNL A   1      49.577  27.192  26.363  1.00  0.00     0.022 A 
BRANCH  71  74
ATOM     74  S   UNL A   1      48.918  26.992  23.714  1.00  0.00     0.127 S 
ATOM     75  O   UNL A   1      50.319  26.581  23.800  1.00  0.00    -0.237 OA
ATOM     76  O   UNL A   1      47.976  25.897  23.477  1.00  0.00    -0.237 OA
ATOM     77  O   UNL A   1      48.661  28.191  22.931  1.00  0.00    -0.744 OA
ENDBRANCH  71  74
ENDBRANCH  53  67
BRANCH  54  78
ATOM     78  C   UNL A   1      38.297  31.003  30.948  1.00  0.00     0.023 A 
ATOM     79  C   UNL A   1      38.094  30.772  32.322  1.00  0.00     0.012 A 
ATOM     80  C   UNL A   1      37.298  31.661  30.204  1.00  0.00     0.148 A 
ATOM     81  C   UNL A   1      36.908  31.172  32.940  1.00  0.00     0.002 A 
ATOM     82  C   UNL A   1      36.148  32.109  30.838  1.00  0.00     0.091 A 
ATOM     83  F   UNL A   1      37.512  31.862  28.896  1.00  0.00    -0.205 F 
ATOM     84  C   UNL A   1      35.942  31.851  32.202  1.00  0.00     0.022 A 
BRANCH  82  85
ATOM     85  S   UNL A   1      34.922  33.123  30.003  1.00  0.00     0.127 S 
ATOM     86  O   UNL A   1      34.293  32.156  29.107  1.00  0.00    -0.237 OA
ATOM     87  O   UNL A   1      34.086  33.564  31.121  1.00  0.00    -0.237 OA
ATOM     88  O   UNL A   1      35.668  34.192  29.353  1.00  0.00    -0.744 OA
ENDBRANCH  82  85
ENDBRANCH  54  78
BRANCH  66  89
ATOM     89  C   UNL A   1      44.313  34.359  29.768  1.00  0.00     0.023 A 
ATOM     90  C   UNL A   1      44.901  34.702  31.002  1.00  0.00     0.012 A 
ATOM     91  C   UNL A   1      44.173  35.348  28.774  1.00  0.00     0.148 A 
ATOM     92  C   UNL A   1      45.294  36.015  31.262  1.00  0.00     0.002 A 
ATOM     93  C   UNL A   1      44.618  36.642  29.020  1.00  0.00     0.091 A 
ATOM     94  F   UNL A   1      43.593  35.013  27.612  1.00  0.00    -0.205 F 
ATOM     95  C   UNL A   1      45.161  36.982  30.269  1.00  0.00     0.022 A 
BRANCH  93  96
ATOM     96  S   UNL A   1      44.575  37.923  27.762  1.00  0.00     0.127 S 
ATOM     97  O   UNL A   1      45.096  39.076  28.493  1.00  0.00    -0.237 OA
ATOM     98  O   UNL A   1      45.477  37.390  26.742  1.00  0.00    -0.237 OA
ATOM     99  O   UNL A   1      43.183  38.021  27.341  1.00  0.00    -0.744 OA
ENDBRANCH  93  96
ENDBRANCH  66  89
ENDBRANCH  40  41
ENDBRANCH  32  35
ENDBRANCH  30  31
ENDBRANCH  29  30
ENDBRANCH  28  29
ENDBRANCH   1  28
TORSDOF 22
ENDMDL
MODEL 2
REMARK VINA RESULT:     -11.2      5.053      9.914
REMARK SMILES CC(C)(C)OC(=O)N[C@@H](C(=O)NCCCCCCNC(=O)c1ccc(-c2c3nc(c(-c4cccc(S(=O)(=O)[O-])c4F)c4ccc([nH]4)c(-c4cccc(S(=O)(=O)[O-])c4F)c4nc(c(-c5cccc(S(=O)(=O)[O-])c5F)c5ccc2[nH]5)C=C4)C=C3)cc1)[C@H](O)c1ccccc1F
REMARK SMILES IDX 15 1 14 2 13 3 12 4 10 5 11 6 9 8 8 9 6 10 7 11 5 13 2 14
REMARK SMILES IDX 1 15 3 16 4 17 85 18 87 19 88 20 92 21 89 22 91 23 93 24
REMARK SMILES IDX 90 25 86 26 16 28 17 29 18 30 19 31 20 32 21 34 22 35 23 36
REMARK SMILES IDX 84 37 24 38 83 39 25 40 26 41 27 42 77 43 28 44 82 45 76 46
REMARK SMILES IDX 78 47 29 48 81 49 75 50 74 51 30 53 62 54 42 55 61 56 43 57
REMARK SMILES IDX 46 58 60 59 79 60 44 61 45 62 59 64 80 65 47 66 31 67 32 68
REMARK SMILES IDX 40 69 33 70 35 71 41 72 34 73 36 74 37 75 38 76 39 77 63 78
REMARK SMILES IDX 64 79 72 80 65 81 67 82 73 83 66 84 68 85 69 86 70 87 71 88
REMARK SMILES IDX 48 89 49 90 57 91 50 92 52 93 58 94 51 95 53 96 54 97 55 98
REMARK SMILES IDX 56 99
REMARK H PARENT 12 7 8 12 86 27 19 33 78 52 46 63
REMARK Flexibility Score: inf
ROOT
ATOM      1  C   UNL A   1      31.110  27.077  26.175  1.00  0.00     0.002 C 
ENDROOT
BRANCH   1   2
ATOM      2  C   UNL A   1      31.172  27.176  24.647  1.00  0.00     0.021 C 
BRANCH   2   3
ATOM      3  C   UNL A   1      30.879  25.845  23.955  1.00  0.00     0.116 C 
BRANCH   3   4
ATOM      4  N   UNL A   1      31.513  25.828  22.651  1.00  0.00    -0.354 N 
ATOM      5  C   UNL A   1      32.612  25.097  22.274  1.00  0.00     0.245 C 
ATOM      6  O   UNL A   1      33.340  25.559  21.394  1.00  0.00    -0.273 OA
ATOM      7  H   UNL A   1      31.112  26.405  21.960  1.00  0.00     0.163 HD
BRANCH   5   8
ATOM      8  C   UNL A   1      32.912  23.797  23.033  1.00  0.00     0.208 C 
BRANCH   8   9
ATOM      9  N   UNL A   1      34.254  23.384  22.590  1.00  0.00    -0.307 N 
ATOM     10  C   UNL A   1      35.393  23.318  23.328  1.00  0.00     0.408 C 
ATOM     11  O   UNL A   1      36.457  23.002  22.820  1.00  0.00    -0.225 OA
ATOM     12  H   UNL A   1      34.336  23.125  21.644  1.00  0.00     0.168 HD
BRANCH  10  13
ATOM     13  O   UNL A   1      35.198  23.658  24.625  1.00  0.00    -0.444 OA
BRANCH  13  14
ATOM     14  C   UNL A   1      35.746  22.844  25.697  1.00  0.00     0.106 C 
ATOM     15  C   UNL A   1      37.139  23.435  25.969  1.00  0.00     0.056 C 
ATOM     16  C   UNL A   1      35.920  21.384  25.260  1.00  0.00     0.056 C 
ATOM     17  C   UNL A   1      34.908  22.966  26.974  1.00  0.00     0.056 C 
ENDBRANCH  13  14
ENDBRANCH  10  13
ENDBRANCH   8   9
BRANCH   8  18
ATOM     18  C   UNL A   1      31.902  22.646  22.780  1.00  0.00     0.179 C 
BRANCH  18  19
ATOM     19  C   UNL A   1      32.183  21.251  23.314  1.00  0.00     0.019 A 
ATOM     20  C   UNL A   1      32.205  20.189  22.389  1.00  0.00     0.009 A 
ATOM     21  C   UNL A   1      32.358  20.921  24.661  1.00  0.00     0.129 A 
ATOM     22  C   UNL A   1      32.405  18.867  22.799  1.00  0.00     0.001 A 
ATOM     23  C   UNL A   1      32.540  19.602  25.079  1.00  0.00     0.039 A 
ATOM     24  F   UNL A   1      32.356  21.852  25.618  1.00  0.00    -0.207 F 
ATOM     25  C   UNL A   1      32.566  18.571  24.148  1.00  0.00     0.003 A 
ENDBRANCH  18  19
BRANCH  18  26
ATOM     26  O   UNL A   1      30.552  23.033  23.075  1.00  0.00    -0.386 OA
ATOM     27  H   UNL A   1      30.382  23.916  22.714  1.00  0.00     0.211 HD
ENDBRANCH  18  26
ENDBRANCH   8  18
ENDBRANCH   5   8
ENDBRANCH   3   4
ENDBRANCH   2   3
ENDBRANCH   1   2
BRANCH   1  28
ATOM     28  C   UNL A   1      31.765  28.253  26.909  1.00  0.00     0.002 C 
BRANCH  28  29
ATOM     29  C   UNL A   1      33.289  28.162  27.024  1.00  0.00     0.021 C 
BRANCH  29  30
ATOM     30  C   UNL A   1      34.043  29.143  26.131  1.00  0.00     0.116 C 
BRANCH  30  31
ATOM     31  N   UNL A   1      33.952  30.503  26.639  1.00  0.00    -0.352 N 
ATOM     32  C   UNL A   1      34.658  31.112  27.641  1.00  0.00     0.251 C 
ATOM     33  H   UNL A   1      33.282  31.071  26.194  1.00  0.00     0.163 HD
ATOM     34  O   UNL A   1      34.269  32.189  28.086  1.00  0.00    -0.269 OA
BRANCH  32  35
ATOM     35  C   UNL A   1      35.875  30.478  28.192  1.00  0.00     0.039 A 
ATOM     36  C   UNL A   1      37.079  30.634  27.502  1.00  0.00     0.014 A 
ATOM     37  C   UNL A   1      35.829  29.701  29.354  1.00  0.00     0.014 A 
ATOM     38  C   UNL A   1      38.239  30.039  27.995  1.00  0.00     0.010 A 
ATOM     39  C   UNL A   1      37.005  29.177  29.889  1.00  0.00     0.010 A 
ATOM     40  C   UNL A   1      38.219  29.325  29.206  1.00  0.00    -0.014 A 
BRANCH  40  41
ATOM     41  C   UNL A   1      39.476  28.761  29.759  1.00  0.00     0.031 A 
ATOM     42  C   UNL A   1      40.113  29.334  30.994  1.00  0.00     0.074 A 
ATOM     43  C   UNL A   1      40.075  27.744  29.108  1.00  0.00     0.049 A 
ATOM     44  N   UNL A   1      41.161  28.907  31.651  1.00  0.00    -0.248 NA
ATOM     45  C   UNL A   1      39.517  30.558  31.551  1.00  0.00     0.031 C 
ATOM     46  C   UNL A   1      39.624  27.178  27.835  1.00  0.00     0.029 A 
ATOM     47  N   UNL A   1      41.196  27.017  29.418  1.00  0.00    -0.354 N 
ATOM     48  C   UNL A   1      41.370  29.823  32.675  1.00  0.00     0.074 A 
ATOM     49  C   UNL A   1      40.362  30.850  32.529  1.00  0.00     0.031 C 
ATOM     50  C   UNL A   1      40.449  26.183  27.481  1.00  0.00     0.029 A 
ATOM     51  C   UNL A   1      41.498  26.053  28.488  1.00  0.00     0.049 A 
ATOM     52  H   UNL A   1      41.732  27.171  30.229  1.00  0.00     0.167 HD
ATOM     53  C   UNL A   1      42.298  29.798  33.662  1.00  0.00     0.034 A 
ATOM     54  C   UNL A   1      42.506  25.161  28.446  1.00  0.00     0.034 A 
ATOM     55  C   UNL A   1      43.285  28.761  33.813  1.00  0.00     0.049 A 
ATOM     56  C   UNL A   1      43.471  25.095  29.595  1.00  0.00     0.074 A 
ATOM     57  C   UNL A   1      44.198  28.582  34.838  1.00  0.00     0.029 A 
ATOM     58  N   UNL A   1      43.507  27.739  32.903  1.00  0.00    -0.354 N 
ATOM     59  N   UNL A   1      43.531  25.850  30.664  1.00  0.00    -0.248 NA
ATOM     60  C   UNL A   1      44.475  24.023  29.556  1.00  0.00     0.031 C 
ATOM     61  C   UNL A   1      44.997  27.476  34.526  1.00  0.00     0.029 A 
ATOM     62  C   UNL A   1      44.553  26.937  33.329  1.00  0.00     0.049 A 
ATOM     63  H   UNL A   1      42.994  27.603  32.073  1.00  0.00     0.167 HD
ATOM     64  C   UNL A   1      44.562  25.333  31.439  1.00  0.00     0.074 A 
ATOM     65  C   UNL A   1      45.076  24.179  30.728  1.00  0.00     0.031 C 
ATOM     66  C   UNL A   1      45.046  25.779  32.626  1.00  0.00     0.034 A 
BRANCH  53  67
ATOM     67  C   UNL A   1      42.268  30.918  34.674  1.00  0.00     0.023 A 
ATOM     68  C   UNL A   1      41.537  30.765  35.871  1.00  0.00     0.012 A 
ATOM     69  C   UNL A   1      42.988  32.109  34.456  1.00  0.00     0.148 A 
ATOM     70  C   UNL A   1      41.479  31.796  36.808  1.00  0.00     0.002 A 
ATOM     71  C   UNL A   1      42.968  33.112  35.420  1.00  0.00     0.091 A 
ATOM     72  F   UNL A   1      43.661  32.250  33.306  1.00  0.00    -0.205 F 
ATOM     73  C   UNL A   1      42.202  32.964  36.587  1.00  0.00     0.022 A 
BRANCH  71  74
ATOM     74  S   UNL A   1      43.938  34.616  35.265  1.00  0.00     0.127 S 
ATOM     75  O   UNL A   1      43.190  35.346  34.243  1.00  0.00    -0.237 OA
ATOM     76  O   UNL A   1      43.844  35.184  36.611  1.00  0.00    -0.237 OA
ATOM     77  O   UNL A   1      45.276  34.191  34.882  1.00  0.00    -0.744 OA
ENDBRANCH  71  74
ENDBRANCH  53  67
BRANCH  54  78
ATOM     78  C   UNL A   1      42.595  24.219  27.296  1.00  0.00     0.023 A 
ATOM     79  C   UNL A   1      43.405  24.535  26.189  1.00  0.00     0.012 A 
ATOM     80  C   UNL A   1      41.936  22.975  27.336  1.00  0.00     0.148 A 
ATOM     81  C   UNL A   1      43.539  23.637  25.129  1.00  0.00     0.002 A 
ATOM     82  C   UNL A   1      42.123  22.061  26.308  1.00  0.00     0.091 A 
ATOM     83  F   UNL A   1      41.167  22.699  28.398  1.00  0.00    -0.205 F 
ATOM     84  C   UNL A   1      42.910  22.396  25.195  1.00  0.00     0.022 A 
BRANCH  82  85
ATOM     85  S   UNL A   1      41.477  20.387  26.380  1.00  0.00     0.127 S 
ATOM     86  O   UNL A   1      42.221  19.732  25.306  1.00  0.00    -0.237 OA
ATOM     87  O   UNL A   1      41.857  19.977  27.733  1.00  0.00    -0.237 OA
ATOM     88  O   UNL A   1      40.041  20.506  26.169  1.00  0.00    -0.744 OA
ENDBRANCH  82  85
ENDBRANCH  54  78
BRANCH  66  89
ATOM     89  C   UNL A   1      46.183  25.002  33.243  1.00  0.00     0.023 A 
ATOM     90  C   UNL A   1      47.512  25.435  33.066  1.00  0.00     0.012 A 
ATOM     91  C   UNL A   1      45.930  23.857  34.023  1.00  0.00     0.148 A 
ATOM     92  C   UNL A   1      48.573  24.712  33.610  1.00  0.00     0.002 A 
ATOM     93  C   UNL A   1      46.989  23.172  34.608  1.00  0.00     0.091 A 
ATOM     94  F   UNL A   1      44.661  23.445  34.166  1.00  0.00    -0.205 F 
ATOM     95  C   UNL A   1      48.312  23.586  34.387  1.00  0.00     0.022 A 
BRANCH  93  96
ATOM     96  S   UNL A   1      46.734  21.773  35.704  1.00  0.00     0.127 S 
ATOM     97  O   UNL A   1      46.224  20.760  34.781  1.00  0.00    -0.237 OA
ATOM     98  O   UNL A   1      48.085  21.517  36.204  1.00  0.00    -0.237 OA
ATOM     99  O   UNL A   1      45.794  22.228  36.719  1.00  0.00    -0.744 OA
ENDBRANCH  93  96
ENDBRANCH  66  89
ENDBRANCH  40  41
ENDBRANCH  32  35
ENDBRANCH  30  31
ENDBRANCH  29  30
ENDBRANCH  28  29
ENDBRANCH   1  28
TORSDOF 22
ENDMDL
MODEL 3
REMARK VINA RESULT:     -11.2      1.282      2.845
REMARK SMILES CC(C)(C)OC(=O)N[C@@H](C(=O)NCCCCCCNC(=O)c1ccc(-c2c3nc(c(-c4cccc(S(=O)(=O)[O-])c4F)c4ccc([nH]4)c(-c4cccc(S(=O)(=O)[O-])c4F)c4nc(c(-c5cccc(S(=O)(=O)[O-])c5F)c5ccc2[nH]5)C=C4)C=C3)cc1)[C@H](O)c1ccccc1F
REMARK SMILES IDX 15 1 14 2 13 3 12 4 10 5 11 6 9 8 8 9 6 10 7 11 5 13 2 14
REMARK SMILES IDX 1 15 3 16 4 17 85 18 87 19 88 20 92 21 89 22 91 23 93 24
REMARK SMILES IDX 90 25 86 26 16 28 17 29 18 30 19 31 20 32 21 34 22 35 23 36
REMARK SMILES IDX 84 37 24 38 83 39 25 40 26 41 27 42 77 43 28 44 82 45 76 46
REMARK SMILES IDX 78 47 29 48 81 49 75 50 74 51 30 53 62 54 42 55 61 56 43 57
REMARK SMILES IDX 46 58 60 59 79 60 44 61 45 62 59 64 80 65 47 66 31 67 32 68
REMARK SMILES IDX 40 69 33 70 35 71 41 72 34 73 36 74 37 75 38 76 39 77 63 78
REMARK SMILES IDX 64 79 72 80 65 81 67 82 73 83 66 84 68 85 69 86 70 87 71 88
REMARK SMILES IDX 48 89 49 90 57 91 50 92 52 93 58 94 51 95 53 96 54 97 55 98
REMARK SMILES IDX 56 99
REMARK H PARENT 12 7 8 12 86 27 19 33 78 52 46 63
REMARK Flexibility Score: inf
ROOT
ATOM      1  C   UNL A   1      34.921  24.046  23.955  1.00  0.00     0.002 C 
ENDROOT
BRANCH   1   2
ATOM      2  C   UNL A   1      34.687  24.771  25.284  1.00  0.00     0.021 C 
BRANCH   2   3
ATOM      3  C   UNL A   1      33.933  26.091  25.113  1.00  0.00     0.116 C 
BRANCH   3   4
ATOM      4  N   UNL A   1      33.039  26.285  26.239  1.00  0.00    -0.354 N 
ATOM      5  C   UNL A   1      31.672  26.166  26.240  1.00  0.00     0.245 C 
ATOM      6  O   UNL A   1      31.032  26.854  27.037  1.00  0.00    -0.273 OA
ATOM      7  H   UNL A   1      33.459  26.529  27.096  1.00  0.00     0.163 HD
BRANCH   5   8
ATOM      8  C   UNL A   1      31.023  25.251  25.192  1.00  0.00     0.208 C 
BRANCH   8   9
ATOM      9  N   UNL A   1      29.741  25.890  24.852  1.00  0.00    -0.307 N 
ATOM     10  C   UNL A   1      29.504  26.831  23.900  1.00  0.00     0.408 C 
ATOM     11  O   UNL A   1      28.393  27.314  23.754  1.00  0.00    -0.225 OA
ATOM     12  H   UNL A   1      28.961  25.600  25.378  1.00  0.00     0.168 HD
BRANCH  10  13
ATOM     13  O   UNL A   1      30.614  27.156  23.197  1.00  0.00    -0.444 OA
BRANCH  13  14
ATOM     14  C   UNL A   1      31.074  28.534  23.127  1.00  0.00     0.106 C 
ATOM     15  C   UNL A   1      32.537  28.439  22.662  1.00  0.00     0.056 C 
ATOM     16  C   UNL A   1      31.050  29.203  24.506  1.00  0.00     0.056 C 
ATOM     17  C   UNL A   1      30.283  29.333  22.085  1.00  0.00     0.056 C 
ENDBRANCH  13  14
ENDBRANCH  10  13
ENDBRANCH   8   9
BRANCH   8  18
ATOM     18  C   UNL A   1      30.771  23.794  25.664  1.00  0.00     0.179 C 
BRANCH  18  19
ATOM     19  C   UNL A   1      31.333  22.626  24.870  1.00  0.00     0.019 A 
ATOM     20  C   UNL A   1      31.796  21.507  25.591  1.00  0.00     0.009 A 
ATOM     21  C   UNL A   1      31.491  22.593  23.481  1.00  0.00     0.129 A 
ATOM     22  C   UNL A   1      32.375  20.410  24.946  1.00  0.00     0.001 A 
ATOM     23  C   UNL A   1      32.085  21.510  22.832  1.00  0.00     0.039 A 
ATOM     24  F   UNL A   1      31.085  23.600  22.705  1.00  0.00    -0.207 F 
ATOM     25  C   UNL A   1      32.527  20.414  23.563  1.00  0.00     0.003 A 
ENDBRANCH  18  19
BRANCH  18  26
ATOM     26  O   UNL A   1      31.037  23.623  27.063  1.00  0.00    -0.386 OA
ATOM     27  H   UNL A   1      30.530  24.275  27.571  1.00  0.00     0.211 HD
ENDBRANCH  18  26
ENDBRANCH   8  18
ENDBRANCH   5   8
ENDBRANCH   3   4
ENDBRANCH   2   3
ENDBRANCH   1   2
BRANCH   1  28
ATOM     28  C   UNL A   1      35.333  22.577  24.104  1.00  0.00     0.002 C 
BRANCH  28  29
ATOM     29  C   UNL A   1      36.839  22.351  24.265  1.00  0.00     0.021 C 
BRANCH  29  30
ATOM     30  C   UNL A   1      37.335  22.447  25.704  1.00  0.00     0.116 C 
BRANCH  30  31
ATOM     31  N   UNL A   1      38.268  21.377  26.019  1.00  0.00    -0.352 N 
ATOM     32  C   UNL A   1      39.583  21.445  26.397  1.00  0.00     0.251 C 
ATOM     33  H   UNL A   1      37.899  20.467  25.950  1.00  0.00     0.163 HD
ATOM     34  O   UNL A   1      40.269  20.427  26.380  1.00  0.00    -0.269 OA
BRANCH  32  35
ATOM     35  C   UNL A   1      40.176  22.733  26.814  1.00  0.00     0.039 A 
ATOM     36  C   UNL A   1      39.883  23.875  26.066  1.00  0.00     0.014 A 
ATOM     37  C   UNL A   1      41.046  22.815  27.906  1.00  0.00     0.014 A 
ATOM     38  C   UNL A   1      40.437  25.101  26.434  1.00  0.00     0.010 A 
ATOM     39  C   UNL A   1      41.530  24.054  28.321  1.00  0.00     0.010 A 
ATOM     40  C   UNL A   1      41.246  25.208  27.579  1.00  0.00    -0.014 A 
BRANCH  40  41
ATOM     41  C   UNL A   1      41.766  26.532  28.001  1.00  0.00     0.031 A 
ATOM     42  C   UNL A   1      43.179  26.949  27.699  1.00  0.00     0.074 A 
ATOM     43  C   UNL A   1      40.964  27.352  28.708  1.00  0.00     0.049 A 
ATOM     44  N   UNL A   1      43.761  28.099  27.924  1.00  0.00    -0.248 NA
ATOM     45  C   UNL A   1      44.062  25.941  27.092  1.00  0.00     0.031 C 
ATOM     46  C   UNL A   1      39.615  27.018  29.169  1.00  0.00     0.029 A 
ATOM     47  N   UNL A   1      41.170  28.626  29.174  1.00  0.00    -0.354 N 
ATOM     48  C   UNL A   1      45.082  27.944  27.518  1.00  0.00     0.074 A 
ATOM     49  C   UNL A   1      45.223  26.577  27.069  1.00  0.00     0.031 C 
ATOM     50  C   UNL A   1      39.108  28.064  29.837  1.00  0.00     0.029 A 
ATOM     51  C   UNL A   1      40.100  29.134  29.870  1.00  0.00     0.049 A 
ATOM     52  H   UNL A   1      42.003  29.128  29.023  1.00  0.00     0.167 HD
ATOM     53  C   UNL A   1      46.078  28.864  27.496  1.00  0.00     0.034 A 
ATOM     54  C   UNL A   1      39.932  30.328  30.470  1.00  0.00     0.034 A 
ATOM     55  C   UNL A   1      45.923  30.229  27.925  1.00  0.00     0.049 A 
ATOM     56  C   UNL A   1      41.016  31.361  30.356  1.00  0.00     0.074 A 
ATOM     57  C   UNL A   1      46.834  31.268  27.841  1.00  0.00     0.029 A 
ATOM     58  N   UNL A   1      44.792  30.743  28.541  1.00  0.00    -0.354 N 
ATOM     59  N   UNL A   1      42.192  31.261  29.788  1.00  0.00    -0.248 NA
ATOM     60  C   UNL A   1      40.730  32.686  30.922  1.00  0.00     0.031 C 
ATOM     61  C   UNL A   1      46.268  32.397  28.444  1.00  0.00     0.029 A 
ATOM     62  C   UNL A   1      44.987  32.076  28.863  1.00  0.00     0.049 A 
ATOM     63  H   UNL A   1      43.969  30.233  28.724  1.00  0.00     0.167 HD
ATOM     64  C   UNL A   1      42.781  32.515  29.905  1.00  0.00     0.074 A 
ATOM     65  C   UNL A   1      41.814  33.365  30.571  1.00  0.00     0.031 C 
ATOM     66  C   UNL A   1      44.013  32.922  29.507  1.00  0.00     0.034 A 
BRANCH  53  67
ATOM     67  C   UNL A   1      47.419  28.423  26.962  1.00  0.00     0.023 A 
ATOM     68  C   UNL A   1      48.514  28.280  27.841  1.00  0.00     0.012 A 
ATOM     69  C   UNL A   1      47.591  28.120  25.597  1.00  0.00     0.148 A 
ATOM     70  C   UNL A   1      49.766  27.895  27.364  1.00  0.00     0.002 A 
ATOM     71  C   UNL A   1      48.830  27.686  25.138  1.00  0.00     0.091 A 
ATOM     72  F   UNL A   1      46.548  28.280  24.769  1.00  0.00    -0.205 F 
ATOM     73  C   UNL A   1      49.922  27.589  26.015  1.00  0.00     0.022 A 
BRANCH  71  74
ATOM     74  S   UNL A   1      49.104  27.183  23.435  1.00  0.00     0.127 S 
ATOM     75  O   UNL A   1      50.558  27.027  23.404  1.00  0.00    -0.237 OA
ATOM     76  O   UNL A   1      48.356  25.928  23.360  1.00  0.00    -0.237 OA
ATOM     77  O   UNL A   1      48.569  28.256  22.610  1.00  0.00    -0.744 OA
ENDBRANCH  71  74
ENDBRANCH  53  67
BRANCH  54  78
ATOM     78  C   UNL A   1      38.650  30.615  31.169  1.00  0.00     0.023 A 
ATOM     79  C   UNL A   1      38.495  30.270  32.525  1.00  0.00     0.012 A 
ATOM     80  C   UNL A   1      37.611  31.300  30.509  1.00  0.00     0.148 A 
ATOM     81  C   UNL A   1      37.318  30.584  33.206  1.00  0.00     0.002 A 
ATOM     82  C   UNL A   1      36.468  31.662  31.209  1.00  0.00     0.091 A 
ATOM     83  F   UNL A   1      37.780  31.612  29.216  1.00  0.00    -0.205 F 
ATOM     84  C   UNL A   1      36.311  31.290  32.553  1.00  0.00     0.022 A 
BRANCH  82  85
ATOM     85  S   UNL A   1      35.190  32.702  30.493  1.00  0.00     0.127 S 
ATOM     86  O   UNL A   1      34.753  31.899  29.354  1.00  0.00    -0.237 OA
ATOM     87  O   UNL A   1      34.227  32.792  31.592  1.00  0.00    -0.237 OA
ATOM     88  O   UNL A   1      35.843  33.961  30.162  1.00  0.00    -0.744 OA
ENDBRANCH  82  85
ENDBRANCH  54  78
BRANCH  66  89
ATOM     89  C   UNL A   1      44.380  34.362  29.765  1.00  0.00     0.023 A 
ATOM     90  C   UNL A   1      45.191  34.698  30.868  1.00  0.00     0.012 A 
ATOM     91  C   UNL A   1      43.943  35.382  28.897  1.00  0.00     0.148 A 
ATOM     92  C   UNL A   1      45.516  36.028  31.132  1.00  0.00     0.002 A 
ATOM     93  C   UNL A   1      44.317  36.699  29.135  1.00  0.00     0.091 A 
ATOM     94  F   UNL A   1      43.156  35.050  27.863  1.00  0.00    -0.205 F 
ATOM     95  C   UNL A   1      45.087  37.027  30.262  1.00  0.00     0.022 A 
BRANCH  93  96
ATOM     96  S   UNL A   1      43.891  38.032  28.010  1.00  0.00     0.127 S 
ATOM     97  O   UNL A   1      42.437  37.905  27.934  1.00  0.00    -0.237 OA
ATOM     98  O   UNL A   1      44.363  39.214  28.732  1.00  0.00    -0.237 OA
ATOM     99  O   UNL A   1      44.612  37.757  26.774  1.00  0.00    -0.744 OA
ENDBRANCH  93  96
ENDBRANCH  66  89
ENDBRANCH  40  41
ENDBRANCH  32  35
ENDBRANCH  30  31
ENDBRANCH  29  30
ENDBRANCH  28  29
ENDBRANCH   1  28
TORSDOF 22
ENDMDL
