MODEL 1
REMARK VINA RESULT:     -11.4      0.000      0.000
REMARK SMILES COc1ccc(/C=C/c2ncc(C(=O)NCCCCCCNC(=O)c3ccc(-c4c5nc(c(-c6cccc(S(=O)(=O)[O-])c6F)c6ccc([nH]6)c(-c6cccc(S(=O)(=O)[O-])c6F)c6nc(c(-c7cccc(S(=O)(=O)[O-])c7F)c7ccc4[nH]7)C=C6)C=C5)cc3)s2)cc1O
REMARK SMILES IDX 18 1 17 2 16 3 15 4 13 5 14 6 12 8 9 9 10 10 88 11 11 12
REMARK SMILES IDX 8 13 7 14 6 15 3 16 4 17 90 18 5 19 89 20 2 21 1 22 91 23
REMARK SMILES IDX 19 25 20 26 21 27 22 28 23 29 24 31 25 32 26 33 87 34 27 35
REMARK SMILES IDX 86 36 28 37 29 38 30 39 80 40 31 41 85 42 79 43 81 44 32 45
REMARK SMILES IDX 84 46 78 47 77 48 33 50 65 51 45 52 64 53 46 54 49 55 63 56
REMARK SMILES IDX 82 57 47 58 48 59 62 61 83 62 50 63 34 64 35 65 43 66 36 67
REMARK SMILES IDX 38 68 44 69 37 70 39 71 40 72 41 73 42 74 66 75 67 76 75 77
REMARK SMILES IDX 68 78 70 79 76 80 69 81 71 82 72 83 73 84 74 85 51 86 52 87
REMARK SMILES IDX 60 88 53 89 55 90 61 91 54 92 56 93 57 94 58 95 59 96
REMARK H PARENT 15 7 91 24 22 30 81 49 49 60
REMARK Flexibility Score: inf
ROOT
ATOM      1  C   UNL A   1      34.551  25.394  24.877  1.00  0.00     0.002 C 
ENDROOT
BRANCH   1   2
ATOM      2  C   UNL A   1      35.469  24.169  25.011  1.00  0.00     0.021 C 
BRANCH   2   3
ATOM      3  C   UNL A   1      35.177  23.322  26.250  1.00  0.00     0.116 C 
BRANCH   3   4
ATOM      4  N   UNL A   1      34.454  22.120  25.886  1.00  0.00    -0.351 N 
ATOM      5  C   UNL A   1      33.115  21.843  25.755  1.00  0.00     0.263 C 
ATOM      6  O   UNL A   1      32.857  20.694  25.386  1.00  0.00    -0.268 OA
ATOM      7  H   UNL A   1      35.038  21.350  25.694  1.00  0.00     0.163 HD
BRANCH   5   8
ATOM      8  C   UNL A   1      32.093  22.841  26.005  1.00  0.00     0.112 A 
ATOM      9  C   UNL A   1      30.560  24.747  25.752  1.00  0.00     0.116 A 
ATOM     10  N   UNL A   1      30.462  24.230  26.959  1.00  0.00    -0.244 NA
ATOM     11  S   UNL A   1      31.672  23.920  24.724  1.00  0.00    -0.109 S 
ATOM     12  C   UNL A   1      31.289  23.129  27.087  1.00  0.00     0.137 A 
BRANCH   9  13
ATOM     13  C   UNL A   1      29.840  25.870  25.252  1.00  0.00     0.040 C 
ATOM     14  C   UNL A   1      30.164  26.405  24.063  1.00  0.00     0.011 C 
BRANCH  14  15
ATOM     15  C   UNL A   1      29.517  27.584  23.469  1.00  0.00    -0.022 A 
ATOM     16  C   UNL A   1      28.192  29.777  22.262  1.00  0.00     0.160 A 
ATOM     17  C   UNL A   1      29.589  29.706  22.289  1.00  0.00     0.051 A 
ATOM     18  C   UNL A   1      27.468  28.742  22.856  1.00  0.00     0.158 A 
ATOM     19  C   UNL A   1      30.247  28.623  22.882  1.00  0.00     0.012 A 
ATOM     20  C   UNL A   1      28.119  27.645  23.429  1.00  0.00     0.058 A 
BRANCH  16  21
ATOM     21  O   UNL A   1      27.708  30.906  21.665  1.00  0.00    -0.493 OA
ATOM     22  C   UNL A   1      28.441  32.114  21.821  1.00  0.00     0.278 C 
ENDBRANCH  16  21
BRANCH  18  23
ATOM     23  O   UNL A   1      26.107  28.745  22.973  1.00  0.00    -0.504 OA
ATOM     24  H   UNL A   1      25.597  28.086  22.543  1.00  0.00     0.293 HD
ENDBRANCH  18  23
ENDBRANCH  14  15
ENDBRANCH   9  13
ENDBRANCH   5   8
ENDBRANCH   3   4
ENDBRANCH   2   3
ENDBRANCH   1   2
BRANCH   1  25
ATOM     25  C   UNL A   1      34.113  26.025  26.205  1.00  0.00     0.002 C 
BRANCH  25  26
ATOM     26  C   UNL A   1      33.380  27.365  26.084  1.00  0.00     0.021 C 
BRANCH  26  27
ATOM     27  C   UNL A   1      34.260  28.540  25.658  1.00  0.00     0.116 C 
BRANCH  27  28
ATOM     28  N   UNL A   1      33.869  29.774  26.319  1.00  0.00    -0.352 N 
ATOM     29  C   UNL A   1      34.433  30.414  27.393  1.00  0.00     0.251 C 
ATOM     30  H   UNL A   1      33.077  30.217  25.938  1.00  0.00     0.163 HD
ATOM     31  O   UNL A   1      33.820  31.331  27.934  1.00  0.00    -0.269 OA
BRANCH  29  32
ATOM     32  C   UNL A   1      35.762  30.011  27.904  1.00  0.00     0.039 A 
ATOM     33  C   UNL A   1      35.837  29.413  29.165  1.00  0.00     0.014 A 
ATOM     34  C   UNL A   1      36.932  30.260  27.179  1.00  0.00     0.014 A 
ATOM     35  C   UNL A   1      37.079  29.035  29.680  1.00  0.00     0.010 A 
ATOM     36  C   UNL A   1      38.162  29.820  27.665  1.00  0.00     0.010 A 
ATOM     37  C   UNL A   1      38.251  29.216  28.927  1.00  0.00    -0.014 A 
BRANCH  37  38
ATOM     38  C   UNL A   1      39.558  28.743  29.451  1.00  0.00     0.031 A 
ATOM     39  C   UNL A   1      40.233  29.434  30.603  1.00  0.00     0.074 A 
ATOM     40  C   UNL A   1      40.173  27.713  28.839  1.00  0.00     0.049 A 
ATOM     41  N   UNL A   1      41.334  29.103  31.228  1.00  0.00    -0.248 NA
ATOM     42  C   UNL A   1      39.611  30.671  31.101  1.00  0.00     0.031 C 
ATOM     43  C   UNL A   1      39.686  27.039  27.634  1.00  0.00     0.029 A 
ATOM     44  N   UNL A   1      41.346  27.065  29.134  1.00  0.00    -0.354 N 
ATOM     45  C   UNL A   1      41.555  30.102  32.169  1.00  0.00     0.074 A 
ATOM     46  C   UNL A   1      40.492  31.072  32.007  1.00  0.00     0.031 C 
ATOM     47  C   UNL A   1      40.548  26.068  27.297  1.00  0.00     0.029 A 
ATOM     48  C   UNL A   1      41.651  26.055  28.255  1.00  0.00     0.049 A 
ATOM     49  H   UNL A   1      41.915  27.303  29.901  1.00  0.00     0.167 HD
ATOM     50  C   UNL A   1      42.533  30.190  33.103  1.00  0.00     0.034 A 
ATOM     51  C   UNL A   1      42.693  25.201  28.227  1.00  0.00     0.034 A 
ATOM     52  C   UNL A   1      43.566  29.203  33.284  1.00  0.00     0.049 A 
ATOM     53  C   UNL A   1      43.704  25.246  29.337  1.00  0.00     0.074 A 
ATOM     54  C   UNL A   1      44.530  29.135  34.275  1.00  0.00     0.029 A 
ATOM     55  N   UNL A   1      43.779  28.119  32.447  1.00  0.00    -0.354 N 
ATOM     56  N   UNL A   1      43.775  26.073  30.353  1.00  0.00    -0.248 NA
ATOM     57  C   UNL A   1      44.745  24.210  29.329  1.00  0.00     0.031 C 
ATOM     58  C   UNL A   1      45.339  28.020  34.022  1.00  0.00     0.029 A 
ATOM     59  C   UNL A   1      44.864  27.381  32.889  1.00  0.00     0.049 A 
ATOM     60  H   UNL A   1      43.236  27.904  31.654  1.00  0.00     0.167 HD
ATOM     61  C   UNL A   1      44.854  25.645  31.118  1.00  0.00     0.074 A 
ATOM     62  C   UNL A   1      45.385  24.465  30.464  1.00  0.00     0.031 C 
ATOM     63  C   UNL A   1      45.367  26.190  32.249  1.00  0.00     0.034 A 
BRANCH  50  64
ATOM     64  C   UNL A   1      42.494  31.373  34.038  1.00  0.00     0.023 A 
ATOM     65  C   UNL A   1      43.289  32.506  33.761  1.00  0.00     0.012 A 
ATOM     66  C   UNL A   1      41.655  31.383  35.169  1.00  0.00     0.148 A 
ATOM     67  C   UNL A   1      43.284  33.607  34.615  1.00  0.00     0.002 A 
ATOM     68  C   UNL A   1      41.622  32.504  35.992  1.00  0.00     0.091 A 
ATOM     69  F   UNL A   1      40.925  30.291  35.437  1.00  0.00    -0.205 F 
ATOM     70  C   UNL A   1      42.445  33.610  35.726  1.00  0.00     0.022 A 
BRANCH  68  71
ATOM     71  S   UNL A   1      40.512  32.627  37.400  1.00  0.00     0.127 S 
ATOM     72  O   UNL A   1      41.379  32.209  38.500  1.00  0.00    -0.237 OA
ATOM     73  O   UNL A   1      40.167  34.050  37.403  1.00  0.00    -0.237 OA
ATOM     74  O   UNL A   1      39.396  31.740  37.100  1.00  0.00    -0.744 OA
ENDBRANCH  68  71
ENDBRANCH  50  64
BRANCH  51  75
ATOM     75  C   UNL A   1      42.757  24.172  27.152  1.00  0.00     0.023 A 
ATOM     76  C   UNL A   1      43.587  24.385  26.035  1.00  0.00     0.012 A 
ATOM     77  C   UNL A   1      42.073  22.948  27.280  1.00  0.00     0.148 A 
ATOM     78  C   UNL A   1      43.721  23.403  25.053  1.00  0.00     0.002 A 
ATOM     79  C   UNL A   1      42.255  21.952  26.328  1.00  0.00     0.091 A 
ATOM     80  F   UNL A   1      41.285  22.770  28.350  1.00  0.00    -0.205 F 
ATOM     81  C   UNL A   1      43.067  22.183  25.206  1.00  0.00     0.022 A 
BRANCH  79  82
ATOM     82  S   UNL A   1      41.578  20.299  26.520  1.00  0.00     0.127 S 
ATOM     83  O   UNL A   1      42.088  19.917  27.834  1.00  0.00    -0.237 OA
ATOM     84  O   UNL A   1      40.139  20.557  26.467  1.00  0.00    -0.237 OA
ATOM     85  O   UNL A   1      42.092  19.529  25.395  1.00  0.00    -0.744 OA
ENDBRANCH  79  82
ENDBRANCH  51  75
BRANCH  63  86
ATOM     86  C   UNL A   1      46.567  25.512  32.860  1.00  0.00     0.023 A 
ATOM     87  C   UNL A   1      46.386  24.561  33.884  1.00  0.00     0.012 A 
ATOM     88  C   UNL A   1      47.868  25.782  32.391  1.00  0.00     0.148 A 
ATOM     89  C   UNL A   1      47.482  23.921  34.462  1.00  0.00     0.002 A 
ATOM     90  C   UNL A   1      48.953  25.104  32.940  1.00  0.00     0.091 A 
ATOM     91  F   UNL A   1      48.028  26.705  31.432  1.00  0.00    -0.205 F 
ATOM     92  C   UNL A   1      48.763  24.185  33.984  1.00  0.00     0.022 A 
BRANCH  90  93
ATOM     93  S   UNL A   1      50.622  25.322  32.313  1.00  0.00     0.127 S 
ATOM     94  O   UNL A   1      51.381  24.400  33.156  1.00  0.00    -0.237 OA
ATOM     95  O   UNL A   1      50.494  24.903  30.916  1.00  0.00    -0.237 OA
ATOM     96  O   UNL A   1      50.926  26.736  32.487  1.00  0.00    -0.744 OA
ENDBRANCH  90  93
ENDBRANCH  63  86
ENDBRANCH  37  38
ENDBRANCH  29  32
ENDBRANCH  27  28
ENDBRANCH  26  27
ENDBRANCH  25  26
ENDBRANCH   1  25
TORSDOF 20
ENDMDL
MODEL 2
REMARK VINA RESULT:     -11.3      2.486      3.081
REMARK SMILES COc1ccc(/C=C/c2ncc(C(=O)NCCCCCCNC(=O)c3ccc(-c4c5nc(c(-c6cccc(S(=O)(=O)[O-])c6F)c6ccc([nH]6)c(-c6cccc(S(=O)(=O)[O-])c6F)c6nc(c(-c7cccc(S(=O)(=O)[O-])c7F)c7ccc4[nH]7)C=C6)C=C5)cc3)s2)cc1O
REMARK SMILES IDX 18 1 17 2 16 3 15 4 13 5 14 6 12 8 9 9 10 10 88 11 11 12
REMARK SMILES IDX 8 13 7 14 6 15 3 16 4 17 90 18 5 19 89 20 2 21 1 22 91 23
REMARK SMILES IDX 19 25 20 26 21 27 22 28 23 29 24 31 25 32 26 33 87 34 27 35
REMARK SMILES IDX 86 36 28 37 29 38 30 39 80 40 31 41 85 42 79 43 81 44 32 45
REMARK SMILES IDX 84 46 78 47 77 48 33 50 65 51 45 52 64 53 46 54 49 55 63 56
REMARK SMILES IDX 82 57 47 58 48 59 62 61 83 62 50 63 34 64 35 65 43 66 36 67
REMARK SMILES IDX 38 68 44 69 37 70 39 71 40 72 41 73 42 74 66 75 67 76 75 77
REMARK SMILES IDX 68 78 70 79 76 80 69 81 71 82 72 83 73 84 74 85 51 86 52 87
REMARK SMILES IDX 60 88 53 89 55 90 61 91 54 92 56 93 57 94 58 95 59 96
REMARK H PARENT 15 7 91 24 22 30 81 49 49 60
REMARK Flexibility Score: inf
ROOT
ATOM      1  C   UNL A   1      34.047  25.662  24.656  1.00  0.00     0.002 C 
ENDROOT
BRANCH   1   2
ATOM      2  C   UNL A   1      34.815  24.350  24.882  1.00  0.00     0.021 C 
BRANCH   2   3
ATOM      3  C   UNL A   1      34.303  23.543  26.075  1.00  0.00     0.116 C 
BRANCH   3   4
ATOM      4  N   UNL A   1      33.438  22.468  25.629  1.00  0.00    -0.351 N 
ATOM      5  C   UNL A   1      32.103  22.421  25.308  1.00  0.00     0.263 C 
ATOM      6  O   UNL A   1      31.702  21.318  24.924  1.00  0.00    -0.268 OA
ATOM      7  H   UNL A   1      33.898  21.602  25.536  1.00  0.00     0.163 HD
BRANCH   5   8
ATOM      8  C   UNL A   1      31.248  23.588  25.390  1.00  0.00     0.112 A 
ATOM      9  C   UNL A   1      29.988  25.622  24.818  1.00  0.00     0.116 A 
ATOM     10  N   UNL A   1      29.885  25.357  26.104  1.00  0.00    -0.244 NA
ATOM     11  S   UNL A   1      30.914  24.462  23.938  1.00  0.00    -0.109 S 
ATOM     12  C   UNL A   1      30.553  24.189  26.417  1.00  0.00     0.137 A 
BRANCH   9  13
ATOM     13  C   UNL A   1      29.409  26.726  24.131  1.00  0.00     0.040 C 
ATOM     14  C   UNL A   1      30.145  27.817  23.862  1.00  0.00     0.011 C 
BRANCH  14  15
ATOM     15  C   UNL A   1      29.642  29.027  23.195  1.00  0.00    -0.022 A 
ATOM     16  C   UNL A   1      28.554  31.309  21.919  1.00  0.00     0.160 A 
ATOM     17  C   UNL A   1      29.691  30.672  21.409  1.00  0.00     0.051 A 
ATOM     18  C   UNL A   1      27.976  30.795  23.080  1.00  0.00     0.158 A 
ATOM     19  C   UNL A   1      30.230  29.543  22.036  1.00  0.00     0.012 A 
ATOM     20  C   UNL A   1      28.494  29.653  23.697  1.00  0.00     0.058 A 
BRANCH  16  21
ATOM     21  O   UNL A   1      28.170  32.407  21.202  1.00  0.00    -0.493 OA
ATOM     22  C   UNL A   1      27.730  32.215  19.864  1.00  0.00     0.278 C 
ENDBRANCH  16  21
BRANCH  18  23
ATOM     23  O   UNL A   1      26.922  31.383  23.721  1.00  0.00    -0.504 OA
ATOM     24  H   UNL A   1      26.079  30.973  23.713  1.00  0.00     0.293 HD
ENDBRANCH  18  23
ENDBRANCH  14  15
ENDBRANCH   9  13
ENDBRANCH   5   8
ENDBRANCH   3   4
ENDBRANCH   2   3
ENDBRANCH   1   2
BRANCH   1  25
ATOM     25  C   UNL A   1      33.799  26.494  25.921  1.00  0.00     0.002 C 
BRANCH  25  26
ATOM     26  C   UNL A   1      32.921  27.734  25.727  1.00  0.00     0.021 C 
BRANCH  26  27
ATOM     27  C   UNL A   1      33.661  28.971  25.221  1.00  0.00     0.116 C 
BRANCH  27  28
ATOM     28  N   UNL A   1      33.049  30.200  25.700  1.00  0.00    -0.352 N 
ATOM     29  C   UNL A   1      33.332  30.949  26.813  1.00  0.00     0.251 C 
ATOM     30  H   UNL A   1      32.319  30.547  25.138  1.00  0.00     0.163 HD
ATOM     31  O   UNL A   1      32.552  31.835  27.154  1.00  0.00    -0.269 OA
BRANCH  29  32
ATOM     32  C   UNL A   1      34.558  30.698  27.604  1.00  0.00     0.039 A 
ATOM     33  C   UNL A   1      34.641  29.517  28.346  1.00  0.00     0.014 A 
ATOM     34  C   UNL A   1      35.596  31.633  27.661  1.00  0.00     0.014 A 
ATOM     35  C   UNL A   1      35.779  29.259  29.114  1.00  0.00     0.010 A 
ATOM     36  C   UNL A   1      36.759  31.343  28.373  1.00  0.00     0.010 A 
ATOM     37  C   UNL A   1      36.858  30.160  29.119  1.00  0.00    -0.014 A 
BRANCH  37  38
ATOM     38  C   UNL A   1      38.094  29.843  29.879  1.00  0.00     0.031 A 
ATOM     39  C   UNL A   1      38.341  30.423  31.244  1.00  0.00     0.074 A 
ATOM     40  C   UNL A   1      39.035  29.070  29.303  1.00  0.00     0.049 A 
ATOM     41  N   UNL A   1      39.329  30.187  32.070  1.00  0.00    -0.248 NA
ATOM     42  C   UNL A   1      37.373  31.415  31.737  1.00  0.00     0.031 C 
ATOM     43  C   UNL A   1      38.974  28.550  27.935  1.00  0.00     0.029 A 
ATOM     44  N   UNL A   1      40.230  28.602  29.786  1.00  0.00    -0.354 N 
ATOM     45  C   UNL A   1      39.121  31.020  33.162  1.00  0.00     0.074 A 
ATOM     46  C   UNL A   1      37.932  31.796  32.877  1.00  0.00     0.031 C 
ATOM     47  C   UNL A   1      40.079  27.829  27.692  1.00  0.00     0.029 A 
ATOM     48  C   UNL A   1      40.928  27.840  28.880  1.00  0.00     0.049 A 
ATOM     49  H   UNL A   1      40.556  28.794  30.695  1.00  0.00     0.167 HD
ATOM     50  C   UNL A   1      39.835  31.112  34.310  1.00  0.00     0.034 A 
ATOM     51  C   UNL A   1      42.112  27.209  28.994  1.00  0.00     0.034 A 
ATOM     52  C   UNL A   1      40.994  30.312  34.605  1.00  0.00     0.049 A 
ATOM     53  C   UNL A   1      42.829  27.232  30.314  1.00  0.00     0.074 A 
ATOM     54  C   UNL A   1      41.717  30.238  35.783  1.00  0.00     0.029 A 
ATOM     55  N   UNL A   1      41.612  29.454  33.706  1.00  0.00    -0.354 N 
ATOM     56  N   UNL A   1      42.500  27.858  31.418  1.00  0.00    -0.248 NA
ATOM     57  C   UNL A   1      44.048  26.420  30.422  1.00  0.00     0.031 C 
ATOM     58  C   UNL A   1      42.784  29.353  35.588  1.00  0.00     0.029 A 
ATOM     59  C   UNL A   1      42.713  28.856  34.297  1.00  0.00     0.049 A 
ATOM     60  H   UNL A   1      41.311  29.294  32.783  1.00  0.00     0.167 HD
ATOM     61  C   UNL A   1      43.458  27.500  32.360  1.00  0.00     0.074 A 
ATOM     62  C   UNL A   1      44.360  26.575  31.702  1.00  0.00     0.031 C 
ATOM     63  C   UNL A   1      43.587  27.913  33.646  1.00  0.00     0.034 A 
BRANCH  50  64
ATOM     64  C   UNL A   1      39.341  32.077  35.359  1.00  0.00     0.023 A 
ATOM     65  C   UNL A   1      38.360  31.659  36.283  1.00  0.00     0.012 A 
ATOM     66  C   UNL A   1      39.864  33.381  35.456  1.00  0.00     0.148 A 
ATOM     67  C   UNL A   1      37.874  32.534  37.254  1.00  0.00     0.002 A 
ATOM     68  C   UNL A   1      39.407  34.234  36.456  1.00  0.00     0.091 A 
ATOM     69  F   UNL A   1      40.776  33.775  34.557  1.00  0.00    -0.205 F 
ATOM     70  C   UNL A   1      38.404  33.818  37.346  1.00  0.00     0.022 A 
BRANCH  68  71
ATOM     71  S   UNL A   1      40.091  35.878  36.699  1.00  0.00     0.127 S 
ATOM     72  O   UNL A   1      41.515  35.587  36.858  1.00  0.00    -0.237 OA
ATOM     73  O   UNL A   1      39.743  36.550  35.446  1.00  0.00    -0.237 OA
ATOM     74  O   UNL A   1      39.419  36.414  37.875  1.00  0.00    -0.744 OA
ENDBRANCH  68  71
ENDBRANCH  50  64
BRANCH  51  75
ATOM     75  C   UNL A   1      42.627  26.422  27.839  1.00  0.00     0.023 A 
ATOM     76  C   UNL A   1      43.637  26.965  27.023  1.00  0.00     0.012 A 
ATOM     77  C   UNL A   1      42.184  25.105  27.605  1.00  0.00     0.148 A 
ATOM     78  C   UNL A   1      44.187  26.217  25.981  1.00  0.00     0.002 A 
ATOM     79  C   UNL A   1      42.776  24.345  26.603  1.00  0.00     0.091 A 
ATOM     80  F   UNL A   1      41.217  24.612  28.392  1.00  0.00    -0.205 F 
ATOM     81  C   UNL A   1      43.767  24.904  25.780  1.00  0.00     0.022 A 
BRANCH  79  82
ATOM     82  S   UNL A   1      42.408  22.603  26.371  1.00  0.00     0.127 S 
ATOM     83  O   UNL A   1      40.950  22.613  26.283  1.00  0.00    -0.237 OA
ATOM     84  O   UNL A   1      43.101  22.314  25.115  1.00  0.00    -0.237 OA
ATOM     85  O   UNL A   1      42.965  21.923  27.534  1.00  0.00    -0.744 OA
ENDBRANCH  79  82
ENDBRANCH  51  75
BRANCH  63  86
ATOM     86  C   UNL A   1      44.748  27.362  34.434  1.00  0.00     0.023 A 
ATOM     87  C   UNL A   1      45.992  28.023  34.400  1.00  0.00     0.012 A 
ATOM     88  C   UNL A   1      44.597  26.218  35.242  1.00  0.00     0.148 A 
ATOM     89  C   UNL A   1      47.079  27.532  35.122  1.00  0.00     0.002 A 
ATOM     90  C   UNL A   1      45.673  25.761  35.997  1.00  0.00     0.091 A 
ATOM     91  F   UNL A   1      43.415  25.586  35.248  1.00  0.00    -0.205 F 
ATOM     92  C   UNL A   1      46.917  26.407  35.928  1.00  0.00     0.022 A 
BRANCH  90  93
ATOM     93  S   UNL A   1      45.516  24.375  37.130  1.00  0.00     0.127 S 
ATOM     94  O   UNL A   1      44.516  24.870  38.073  1.00  0.00    -0.237 OA
ATOM     95  O   UNL A   1      45.047  23.300  36.253  1.00  0.00    -0.237 OA
ATOM     96  O   UNL A   1      46.850  24.161  37.675  1.00  0.00    -0.744 OA
ENDBRANCH  90  93
ENDBRANCH  63  86
ENDBRANCH  37  38
ENDBRANCH  29  32
ENDBRANCH  27  28
ENDBRANCH  26  27
ENDBRANCH  25  26
ENDBRANCH   1  25
TORSDOF 20
ENDMDL
MODEL 3
REMARK VINA RESULT:     -10.4      6.666      9.752
REMARK SMILES COc1ccc(/C=C/c2ncc(C(=O)NCCCCCCNC(=O)c3ccc(-c4c5nc(c(-c6cccc(S(=O)(=O)[O-])c6F)c6ccc([nH]6)c(-c6cccc(S(=O)(=O)[O-])c6F)c6nc(c(-c7cccc(S(=O)(=O)[O-])c7F)c7ccc4[nH]7)C=C6)C=C5)cc3)s2)cc1O
REMARK SMILES IDX 18 1 17 2 16 3 15 4 13 5 14 6 12 8 9 9 10 10 88 11 11 12
REMARK SMILES IDX 8 13 7 14 6 15 3 16 4 17 90 18 5 19 89 20 2 21 1 22 91 23
REMARK SMILES IDX 19 25 20 26 21 27 22 28 23 29 24 31 25 32 26 33 87 34 27 35
REMARK SMILES IDX 86 36 28 37 29 38 30 39 80 40 31 41 85 42 79 43 81 44 32 45
REMARK SMILES IDX 84 46 78 47 77 48 33 50 65 51 45 52 64 53 46 54 49 55 63 56
REMARK SMILES IDX 82 57 47 58 48 59 62 61 83 62 50 63 34 64 35 65 43 66 36 67
REMARK SMILES IDX 38 68 44 69 37 70 39 71 40 72 41 73 42 74 66 75 67 76 75 77
REMARK SMILES IDX 68 78 70 79 76 80 69 81 71 82 72 83 73 84 74 85 51 86 52 87
REMARK SMILES IDX 60 88 53 89 55 90 61 91 54 92 56 93 57 94 58 95 59 96
REMARK H PARENT 15 7 91 24 22 30 81 49 49 60
REMARK Flexibility Score: inf
ROOT
ATOM      1  C   UNL A   1      34.692  35.498  33.002  1.00  0.00     0.002 C 
ENDROOT
BRANCH   1   2
ATOM      2  C   UNL A   1      33.867  35.274  31.725  1.00  0.00     0.021 C 
BRANCH   2   3
ATOM      3  C   UNL A   1      34.455  34.208  30.800  1.00  0.00     0.116 C 
BRANCH   3   4
ATOM      4  N   UNL A   1      34.554  34.710  29.444  1.00  0.00    -0.351 N 
ATOM      5  C   UNL A   1      34.800  34.095  28.239  1.00  0.00     0.263 C 
ATOM      6  O   UNL A   1      34.776  34.847  27.260  1.00  0.00    -0.268 OA
ATOM      7  H   UNL A   1      34.417  35.683  29.370  1.00  0.00     0.163 HD
BRANCH   5   8
ATOM      8  C   UNL A   1      35.040  32.669  28.135  1.00  0.00     0.112 A 
ATOM      9  C   UNL A   1      36.148  30.476  28.020  1.00  0.00     0.116 A 
ATOM     10  N   UNL A   1      34.850  30.352  27.836  1.00  0.00    -0.244 NA
ATOM     11  S   UNL A   1      36.658  32.096  28.327  1.00  0.00    -0.109 S 
ATOM     12  C   UNL A   1      34.220  31.577  27.948  1.00  0.00     0.137 A 
BRANCH   9  13
ATOM     13  C   UNL A   1      37.110  29.427  28.002  1.00  0.00     0.040 C 
ATOM     14  C   UNL A   1      38.413  29.707  27.836  1.00  0.00     0.011 C 
BRANCH  14  15
ATOM     15  C   UNL A   1      39.486  28.704  27.764  1.00  0.00    -0.022 A 
ATOM     16  C   UNL A   1      41.532  26.764  27.499  1.00  0.00     0.160 A 
ATOM     17  C   UNL A   1      40.565  26.658  28.504  1.00  0.00     0.051 A 
ATOM     18  C   UNL A   1      41.468  27.860  26.636  1.00  0.00     0.158 A 
ATOM     19  C   UNL A   1      39.550  27.613  28.636  1.00  0.00     0.012 A 
ATOM     20  C   UNL A   1      40.443  28.805  26.748  1.00  0.00     0.058 A 
BRANCH  16  21
ATOM     21  O   UNL A   1      42.461  25.763  27.520  1.00  0.00    -0.493 OA
ATOM     22  C   UNL A   1      43.174  25.534  28.728  1.00  0.00     0.278 C 
ENDBRANCH  16  21
BRANCH  18  23
ATOM     23  O   UNL A   1      42.406  28.120  25.679  1.00  0.00    -0.504 OA
ATOM     24  H   UNL A   1      43.110  28.713  25.860  1.00  0.00     0.293 HD
ENDBRANCH  18  23
ENDBRANCH  14  15
ENDBRANCH   9  13
ENDBRANCH   5   8
ENDBRANCH   3   4
ENDBRANCH   2   3
ENDBRANCH   1   2
BRANCH   1  25
ATOM     25  C   UNL A   1      35.979  34.668  33.097  1.00  0.00     0.002 C 
BRANCH  25  26
ATOM     26  C   UNL A   1      35.970  33.567  34.163  1.00  0.00     0.021 C 
BRANCH  26  27
ATOM     27  C   UNL A   1      37.255  32.744  34.244  1.00  0.00     0.116 C 
BRANCH  27  28
ATOM     28  N   UNL A   1      37.010  31.333  33.992  1.00  0.00    -0.352 N 
ATOM     29  C   UNL A   1      37.594  30.486  33.086  1.00  0.00     0.251 C 
ATOM     30  H   UNL A   1      36.317  30.924  34.560  1.00  0.00     0.163 HD
ATOM     31  O   UNL A   1      37.089  29.384  32.884  1.00  0.00    -0.269 OA
BRANCH  29  32
ATOM     32  C   UNL A   1      38.814  30.886  32.350  1.00  0.00     0.039 A 
ATOM     33  C   UNL A   1      38.706  31.178  30.988  1.00  0.00     0.014 A 
ATOM     34  C   UNL A   1      40.065  30.928  32.976  1.00  0.00     0.014 A 
ATOM     35  C   UNL A   1      39.843  31.544  30.264  1.00  0.00     0.010 A 
ATOM     36  C   UNL A   1      41.186  31.361  32.268  1.00  0.00     0.010 A 
ATOM     37  C   UNL A   1      41.090  31.659  30.901  1.00  0.00    -0.014 A 
BRANCH  37  38
ATOM     38  C   UNL A   1      42.279  32.121  30.141  1.00  0.00     0.031 A 
ATOM     39  C   UNL A   1      42.484  33.576  29.822  1.00  0.00     0.074 A 
ATOM     40  C   UNL A   1      43.154  31.207  29.678  1.00  0.00     0.049 A 
ATOM     41  N   UNL A   1      43.503  34.152  29.236  1.00  0.00    -0.248 NA
ATOM     42  C   UNL A   1      41.398  34.501  30.180  1.00  0.00     0.031 C 
ATOM     43  C   UNL A   1      43.002  29.757  29.808  1.00  0.00     0.029 A 
ATOM     44  N   UNL A   1      44.332  31.361  28.992  1.00  0.00    -0.354 N 
ATOM     45  C   UNL A   1      43.170  35.496  29.126  1.00  0.00     0.074 A 
ATOM     46  C   UNL A   1      41.838  35.645  29.673  1.00  0.00     0.031 C 
ATOM     47  C   UNL A   1      44.051  29.154  29.229  1.00  0.00     0.029 A 
ATOM     48  C   UNL A   1      44.944  30.171  28.680  1.00  0.00     0.049 A 
ATOM     49  H   UNL A   1      44.702  32.239  28.746  1.00  0.00     0.167 HD
ATOM     50  C   UNL A   1      43.915  36.521  28.643  1.00  0.00     0.034 A 
ATOM     51  C   UNL A   1      46.101  29.923  28.037  1.00  0.00     0.034 A 
ATOM     52  C   UNL A   1      45.254  36.374  28.135  1.00  0.00     0.049 A 
ATOM     53  C   UNL A   1      46.963  31.077  27.611  1.00  0.00     0.074 A 
ATOM     54  C   UNL A   1      46.139  37.361  27.735  1.00  0.00     0.029 A 
ATOM     55  N   UNL A   1      45.898  35.161  27.942  1.00  0.00    -0.354 N 
ATOM     56  N   UNL A   1      46.726  32.363  27.714  1.00  0.00    -0.248 NA
ATOM     57  C   UNL A   1      48.273  30.750  27.034  1.00  0.00     0.031 C 
ATOM     58  C   UNL A   1      47.309  36.742  27.280  1.00  0.00     0.029 A 
ATOM     59  C   UNL A   1      47.163  35.371  27.418  1.00  0.00     0.049 A 
ATOM     60  H   UNL A   1      45.512  34.279  28.147  1.00  0.00     0.167 HD
ATOM     61  C   UNL A   1      47.864  33.000  27.233  1.00  0.00     0.074 A 
ATOM     62  C   UNL A   1      48.803  31.956  26.872  1.00  0.00     0.031 C 
ATOM     63  C   UNL A   1      48.103  34.327  27.091  1.00  0.00     0.034 A 
BRANCH  50  64
ATOM     64  C   UNL A   1      43.312  37.903  28.697  1.00  0.00     0.023 A 
ATOM     65  C   UNL A   1      42.483  38.342  27.642  1.00  0.00     0.012 A 
ATOM     66  C   UNL A   1      43.534  38.754  29.796  1.00  0.00     0.148 A 
ATOM     67  C   UNL A   1      41.925  39.619  27.658  1.00  0.00     0.002 A 
ATOM     68  C   UNL A   1      42.936  40.010  29.826  1.00  0.00     0.091 A 
ATOM     69  F   UNL A   1      44.344  38.336  30.779  1.00  0.00    -0.205 F 
ATOM     70  C   UNL A   1      42.144  40.449  28.754  1.00  0.00     0.022 A 
BRANCH  68  71
ATOM     71  S   UNL A   1      43.098  41.115  31.234  1.00  0.00     0.127 S 
ATOM     72  O   UNL A   1      42.651  40.262  32.334  1.00  0.00    -0.237 OA
ATOM     73  O   UNL A   1      44.532  41.410  31.237  1.00  0.00    -0.237 OA
ATOM     74  O   UNL A   1      42.250  42.261  30.935  1.00  0.00    -0.744 OA
ENDBRANCH  68  71
ENDBRANCH  50  64
BRANCH  51  75
ATOM     75  C   UNL A   1      46.540  28.511  27.856  1.00  0.00     0.023 A 
ATOM     76  C   UNL A   1      47.277  27.876  28.874  1.00  0.00     0.012 A 
ATOM     77  C   UNL A   1      46.151  27.771  26.722  1.00  0.00     0.148 A 
ATOM     78  C   UNL A   1      47.635  26.533  28.759  1.00  0.00     0.002 A 
ATOM     79  C   UNL A   1      46.460  26.419  26.640  1.00  0.00     0.091 A 
ATOM     80  F   UNL A   1      45.455  28.399  25.764  1.00  0.00    -0.205 F 
ATOM     81  C   UNL A   1      47.216  25.801  27.650  1.00  0.00     0.022 A 
BRANCH  79  82
ATOM     82  S   UNL A   1      45.833  25.365  25.328  1.00  0.00     0.127 S 
ATOM     83  O   UNL A   1      46.800  25.610  24.260  1.00  0.00    -0.237 OA
ATOM     84  O   UNL A   1      45.915  24.040  25.942  1.00  0.00    -0.237 OA
ATOM     85  O   UNL A   1      44.475  25.824  25.068  1.00  0.00    -0.744 OA
ENDBRANCH  79  82
ENDBRANCH  51  75
BRANCH  63  86
ATOM     86  C   UNL A   1      49.439  34.731  26.520  1.00  0.00     0.023 A 
ATOM     87  C   UNL A   1      49.564  34.972  25.137  1.00  0.00     0.012 A 
ATOM     88  C   UNL A   1      50.558  34.915  27.356  1.00  0.00     0.148 A 
ATOM     89  C   UNL A   1      50.790  35.347  24.589  1.00  0.00     0.002 A 
ATOM     90  C   UNL A   1      51.766  35.335  26.808  1.00  0.00     0.091 A 
ATOM     91  F   UNL A   1      50.431  34.660  28.666  1.00  0.00    -0.205 F 
ATOM     92  C   UNL A   1      51.887  35.539  25.424  1.00  0.00     0.022 A 
BRANCH  90  93
ATOM     93  S   UNL A   1      53.198  35.693  27.832  1.00  0.00     0.127 S 
ATOM     94  O   UNL A   1      54.276  35.703  26.846  1.00  0.00    -0.237 OA
ATOM     95  O   UNL A   1      52.870  37.007  28.389  1.00  0.00    -0.237 OA
ATOM     96  O   UNL A   1      53.252  34.623  28.819  1.00  0.00    -0.744 OA
ENDBRANCH  90  93
ENDBRANCH  63  86
ENDBRANCH  37  38
ENDBRANCH  29  32
ENDBRANCH  27  28
ENDBRANCH  26  27
ENDBRANCH  25  26
ENDBRANCH   1  25
TORSDOF 20
ENDMDL
