MODEL 1
REMARK VINA RESULT:     -12.3      0.000      0.000
REMARK SMILES COc1ccc(-c2nc(NCC(=O)NCCCCCCNC(=O)c3ccc(-c4c5nc(c(-c6cccc(S(=O)(=O)[O-])c6F)c6ccc([nH]6)c(-c6cccc(S(=O)(=O)[O-])c6F)c6nc(c(-c7cccc(S(=O)(=O)[O-])c7F)c7ccc4[nH]7)C=C6)C=C5)cc3)sc2-c2ccc(OC)cc2)cc1
REMARK SMILES IDX 17 1 16 2 15 3 14 4 12 5 13 6 11 8 10 9 9 11 7 12 8 13 88 14
REMARK SMILES IDX 87 15 6 16 3 17 4 18 98 19 5 20 97 21 2 22 1 23 89 24 90 25
REMARK SMILES IDX 96 26 91 27 95 28 92 29 93 30 94 31 18 32 19 33 20 34 21 35
REMARK SMILES IDX 22 36 23 38 24 39 25 40 86 41 26 42 85 43 27 44 28 45 29 46
REMARK SMILES IDX 79 47 30 48 84 49 78 50 80 51 31 52 83 53 77 54 76 55 32 57
REMARK SMILES IDX 64 58 44 59 63 60 45 61 48 62 62 63 81 64 46 65 47 66 61 68
REMARK SMILES IDX 82 69 49 70 33 71 34 72 42 73 35 74 37 75 43 76 36 77 38 78
REMARK SMILES IDX 39 79 40 80 41 81 65 82 66 83 74 84 67 85 69 86 75 87 68 88
REMARK SMILES IDX 70 89 71 90 72 91 73 92 50 93 51 94 59 95 52 96 54 97 60 98
REMARK SMILES IDX 53 99 55 100 56 101 57 102 58 103
REMARK H PARENT 14 7 10 10 21 37 80 56 48 67
REMARK Flexibility Score: inf
ROOT
ATOM      1  C   UNL A   1      32.555  29.749  27.056  1.00  0.00     0.002 C 
ENDROOT
BRANCH   1   2
ATOM      2  C   UNL A   1      31.788  28.487  27.471  1.00  0.00     0.021 C 
BRANCH   2   3
ATOM      3  C   UNL A   1      32.232  27.239  26.710  1.00  0.00     0.116 C 
BRANCH   3   4
ATOM      4  N   UNL A   1      31.277  26.162  26.882  1.00  0.00    -0.355 N 
ATOM      5  C   UNL A   1      30.172  25.876  26.131  1.00  0.00     0.239 C 
ATOM      6  O   UNL A   1      29.423  24.973  26.514  1.00  0.00    -0.273 OA
ATOM      7  H   UNL A   1      31.448  25.556  27.639  1.00  0.00     0.163 HD
BRANCH   5   8
ATOM      8  C   UNL A   1      29.924  26.617  24.812  1.00  0.00     0.215 C 
BRANCH   8   9
ATOM      9  N   UNL A   1      30.791  26.149  23.742  1.00  0.00    -0.352 N 
ATOM     10  H   UNL A   1      30.866  26.715  22.940  1.00  0.00     0.163 HD
BRANCH   9  11
ATOM     11  C   UNL A   1      31.502  24.999  23.759  1.00  0.00     0.184 A 
ATOM     12  C   UNL A   1      33.232  23.676  24.173  1.00  0.00     0.091 A 
ATOM     13  N   UNL A   1      32.758  24.979  24.142  1.00  0.00    -0.220 NA
ATOM     14  C   UNL A   1      32.292  22.695  23.896  1.00  0.00     0.064 A 
ATOM     15  S   UNL A   1      30.863  23.448  23.340  1.00  0.00    -0.096 S 
BRANCH  12  16
ATOM     16  C   UNL A   1      34.622  23.370  24.483  1.00  0.00     0.002 A 
ATOM     17  C   UNL A   1      37.332  22.939  25.077  1.00  0.00     0.118 A 
ATOM     18  C   UNL A   1      36.469  23.433  26.055  1.00  0.00     0.047 A 
ATOM     19  C   UNL A   1      36.834  22.631  23.809  1.00  0.00     0.047 A 
ATOM     20  C   UNL A   1      35.125  23.651  25.761  1.00  0.00     0.014 A 
ATOM     21  C   UNL A   1      35.478  22.838  23.514  1.00  0.00     0.014 A 
BRANCH  17  22
ATOM     22  O   UNL A   1      38.620  22.741  25.489  1.00  0.00    -0.497 OA
ATOM     23  C   UNL A   1      38.912  21.439  25.990  1.00  0.00     0.278 C 
ENDBRANCH  17  22
ENDBRANCH  12  16
BRANCH  14  24
ATOM     24  C   UNL A   1      32.376  21.237  24.012  1.00  0.00    -0.006 A 
ATOM     25  C   UNL A   1      32.229  20.402  22.900  1.00  0.00     0.013 A 
ATOM     26  C   UNL A   1      32.659  20.656  25.258  1.00  0.00     0.013 A 
ATOM     27  C   UNL A   1      32.404  19.023  23.031  1.00  0.00     0.047 A 
ATOM     28  C   UNL A   1      32.835  19.275  25.385  1.00  0.00     0.047 A 
ATOM     29  C   UNL A   1      32.726  18.454  24.266  1.00  0.00     0.118 A 
BRANCH  29  30
ATOM     30  O   UNL A   1      32.921  17.102  24.239  1.00  0.00    -0.497 OA
ATOM     31  C   UNL A   1      34.177  16.625  24.717  1.00  0.00     0.278 C 
ENDBRANCH  29  30
ENDBRANCH  14  24
ENDBRANCH   9  11
ENDBRANCH   8   9
ENDBRANCH   5   8
ENDBRANCH   3   4
ENDBRANCH   2   3
ENDBRANCH   1   2
BRANCH   1  32
ATOM     32  C   UNL A   1      31.773  30.702  26.143  1.00  0.00     0.002 C 
BRANCH  32  33
ATOM     33  C   UNL A   1      31.508  32.088  26.735  1.00  0.00     0.021 C 
BRANCH  33  34
ATOM     34  C   UNL A   1      32.730  32.739  27.376  1.00  0.00     0.116 C 
BRANCH  34  35
ATOM     35  N   UNL A   1      32.499  34.146  27.675  1.00  0.00    -0.352 N 
ATOM     36  C   UNL A   1      33.062  34.926  28.651  1.00  0.00     0.251 C 
ATOM     37  H   UNL A   1      31.847  34.600  27.093  1.00  0.00     0.163 HD
ATOM     38  O   UNL A   1      32.593  36.036  28.899  1.00  0.00    -0.269 OA
BRANCH  36  39
ATOM     39  C   UNL A   1      34.224  34.424  29.411  1.00  0.00     0.039 A 
ATOM     40  C   UNL A   1      34.014  33.805  30.646  1.00  0.00     0.014 A 
ATOM     41  C   UNL A   1      35.519  34.562  28.903  1.00  0.00     0.014 A 
ATOM     42  C   UNL A   1      35.100  33.272  31.345  1.00  0.00     0.010 A 
ATOM     43  C   UNL A   1      36.587  33.963  29.563  1.00  0.00     0.010 A 
ATOM     44  C   UNL A   1      36.392  33.317  30.793  1.00  0.00    -0.014 A 
BRANCH  44  45
ATOM     45  C   UNL A   1      37.547  32.686  31.482  1.00  0.00     0.031 A 
ATOM     46  C   UNL A   1      38.275  31.535  30.840  1.00  0.00     0.074 A 
ATOM     47  C   UNL A   1      37.884  33.089  32.724  1.00  0.00     0.049 A 
ATOM     48  N   UNL A   1      39.253  30.812  31.319  1.00  0.00    -0.248 NA
ATOM     49  C   UNL A   1      37.830  31.125  29.498  1.00  0.00     0.031 C 
ATOM     50  C   UNL A   1      37.208  34.143  33.485  1.00  0.00     0.029 A 
ATOM     51  N   UNL A   1      38.859  32.639  33.580  1.00  0.00    -0.354 N 
ATOM     52  C   UNL A   1      39.512  29.840  30.360  1.00  0.00     0.074 A 
ATOM     53  C   UNL A   1      38.574  30.048  29.282  1.00  0.00     0.031 C 
ATOM     54  C   UNL A   1      37.786  34.257  34.691  1.00  0.00     0.029 A 
ATOM     55  C   UNL A   1      38.848  33.262  34.806  1.00  0.00     0.049 A 
ATOM     56  H   UNL A   1      39.504  31.937  33.338  1.00  0.00     0.167 HD
ATOM     57  C   UNL A   1      40.461  28.875  30.368  1.00  0.00     0.034 A 
ATOM     58  C   UNL A   1      39.595  33.045  35.907  1.00  0.00     0.034 A 
ATOM     59  C   UNL A   1      41.424  28.698  31.422  1.00  0.00     0.049 A 
ATOM     60  C   UNL A   1      40.665  31.989  35.870  1.00  0.00     0.074 A 
ATOM     61  C   UNL A   1      42.486  27.812  31.472  1.00  0.00     0.029 A 
ATOM     62  N   UNL A   1      41.437  29.407  32.611  1.00  0.00    -0.354 N 
ATOM     63  N   UNL A   1      40.997  31.185  34.889  1.00  0.00    -0.248 NA
ATOM     64  C   UNL A   1      41.486  31.829  37.079  1.00  0.00     0.031 C 
ATOM     65  C   UNL A   1      43.118  27.958  32.710  1.00  0.00     0.029 A 
ATOM     66  C   UNL A   1      42.477  28.966  33.411  1.00  0.00     0.049 A 
ATOM     67  H   UNL A   1      40.802  30.119  32.852  1.00  0.00     0.167 HD
ATOM     68  C   UNL A   1      42.089  30.458  35.347  1.00  0.00     0.074 A 
ATOM     69  C   UNL A   1      42.375  30.928  36.686  1.00  0.00     0.031 C 
ATOM     70  C   UNL A   1      42.786  29.479  34.719  1.00  0.00     0.034 A 
BRANCH  57  71
ATOM     71  C   UNL A   1      40.540  27.945  29.186  1.00  0.00     0.023 A 
ATOM     72  C   UNL A   1      39.632  26.874  29.074  1.00  0.00     0.012 A 
ATOM     73  C   UNL A   1      41.450  28.193  28.140  1.00  0.00     0.148 A 
ATOM     74  C   UNL A   1      39.641  26.051  27.949  1.00  0.00     0.002 A 
ATOM     75  C   UNL A   1      41.423  27.399  27.001  1.00  0.00     0.091 A 
ATOM     76  F   UNL A   1      42.319  29.206  28.277  1.00  0.00    -0.205 F 
ATOM     77  C   UNL A   1      40.526  26.321  26.908  1.00  0.00     0.022 A 
BRANCH  75  78
ATOM     78  S   UNL A   1      42.463  27.714  25.572  1.00  0.00     0.127 S 
ATOM     79  O   UNL A   1      43.795  27.734  26.177  1.00  0.00    -0.237 OA
ATOM     80  O   UNL A   1      42.190  26.548  24.732  1.00  0.00    -0.237 OA
ATOM     81  O   UNL A   1      42.015  28.985  25.020  1.00  0.00    -0.744 OA
ENDBRANCH  75  78
ENDBRANCH  57  71
BRANCH  58  82
ATOM     82  C   UNL A   1      39.383  33.864  37.134  1.00  0.00     0.023 A 
ATOM     83  C   UNL A   1      39.867  35.185  37.187  1.00  0.00     0.012 A 
ATOM     84  C   UNL A   1      38.709  33.338  38.252  1.00  0.00     0.148 A 
ATOM     85  C   UNL A   1      39.727  35.951  38.346  1.00  0.00     0.002 A 
ATOM     86  C   UNL A   1      38.515  34.128  39.379  1.00  0.00     0.091 A 
ATOM     87  F   UNL A   1      38.274  32.070  38.196  1.00  0.00    -0.205 F 
ATOM     88  C   UNL A   1      39.041  35.426  39.438  1.00  0.00     0.022 A 
BRANCH  86  89
ATOM     89  S   UNL A   1      37.520  33.568  40.764  1.00  0.00     0.127 S 
ATOM     90  O   UNL A   1      38.373  32.535  41.344  1.00  0.00    -0.237 OA
ATOM     91  O   UNL A   1      37.391  34.787  41.562  1.00  0.00    -0.237 OA
ATOM     92  O   UNL A   1      36.272  33.110  40.170  1.00  0.00    -0.744 OA
ENDBRANCH  86  89
ENDBRANCH  58  82
BRANCH  70  93
ATOM     93  C   UNL A   1      43.963  28.879  35.443  1.00  0.00     0.023 A 
ATOM     94  C   UNL A   1      45.243  29.450  35.310  1.00  0.00     0.012 A 
ATOM     95  C   UNL A   1      43.777  27.793  36.321  1.00  0.00     0.148 A 
ATOM     96  C   UNL A   1      46.327  28.927  36.014  1.00  0.00     0.002 A 
ATOM     97  C   UNL A   1      44.849  27.312  37.060  1.00  0.00     0.091 A 
ATOM     98  F   UNL A   1      42.553  27.253  36.420  1.00  0.00    -0.205 F 
ATOM     99  C   UNL A   1      46.128  27.869  36.898  1.00  0.00     0.022 A 
BRANCH  97 100
ATOM    100  S   UNL A   1      44.669  26.021  38.295  1.00  0.00     0.127 S 
ATOM    101  O   UNL A   1      44.003  26.737  39.380  1.00  0.00    -0.237 OA
ATOM    102  O   UNL A   1      43.828  25.046  37.600  1.00  0.00    -0.237 OA
ATOM    103  O   UNL A   1      46.017  25.555  38.591  1.00  0.00    -0.744 OA
ENDBRANCH  97 100
ENDBRANCH  70  93
ENDBRANCH  44  45
ENDBRANCH  36  39
ENDBRANCH  34  35
ENDBRANCH  33  34
ENDBRANCH  32  33
ENDBRANCH   1  32
TORSDOF 22
ENDMDL
MODEL 2
REMARK VINA RESULT:     -12.1      0.962      2.652
REMARK SMILES COc1ccc(-c2nc(NCC(=O)NCCCCCCNC(=O)c3ccc(-c4c5nc(c(-c6cccc(S(=O)(=O)[O-])c6F)c6ccc([nH]6)c(-c6cccc(S(=O)(=O)[O-])c6F)c6nc(c(-c7cccc(S(=O)(=O)[O-])c7F)c7ccc4[nH]7)C=C6)C=C5)cc3)sc2-c2ccc(OC)cc2)cc1
REMARK SMILES IDX 17 1 16 2 15 3 14 4 12 5 13 6 11 8 10 9 9 11 7 12 8 13 88 14
REMARK SMILES IDX 87 15 6 16 3 17 4 18 98 19 5 20 97 21 2 22 1 23 89 24 90 25
REMARK SMILES IDX 96 26 91 27 95 28 92 29 93 30 94 31 18 32 19 33 20 34 21 35
REMARK SMILES IDX 22 36 23 38 24 39 25 40 86 41 26 42 85 43 27 44 28 45 29 46
REMARK SMILES IDX 79 47 30 48 84 49 78 50 80 51 31 52 83 53 77 54 76 55 32 57
REMARK SMILES IDX 64 58 44 59 63 60 45 61 48 62 62 63 81 64 46 65 47 66 61 68
REMARK SMILES IDX 82 69 49 70 33 71 34 72 42 73 35 74 37 75 43 76 36 77 38 78
REMARK SMILES IDX 39 79 40 80 41 81 65 82 66 83 74 84 67 85 69 86 75 87 68 88
REMARK SMILES IDX 70 89 71 90 72 91 73 92 50 93 51 94 59 95 52 96 54 97 60 98
REMARK SMILES IDX 53 99 55 100 56 101 57 102 58 103
REMARK H PARENT 14 7 10 10 21 37 80 56 48 67
REMARK Flexibility Score: inf
ROOT
ATOM      1  C   UNL A   1      32.172  30.020  26.954  1.00  0.00     0.002 C 
ENDROOT
BRANCH   1   2
ATOM      2  C   UNL A   1      31.819  28.550  26.694  1.00  0.00     0.021 C 
BRANCH   2   3
ATOM      3  C   UNL A   1      31.855  28.179  25.212  1.00  0.00     0.116 C 
BRANCH   3   4
ATOM      4  N   UNL A   1      30.571  27.667  24.776  1.00  0.00    -0.355 N 
ATOM      5  C   UNL A   1      30.080  27.570  23.504  1.00  0.00     0.239 C 
ATOM      6  O   UNL A   1      28.911  27.206  23.355  1.00  0.00    -0.273 OA
ATOM      7  H   UNL A   1      29.974  27.345  25.490  1.00  0.00     0.163 HD
BRANCH   5   8
ATOM      8  C   UNL A   1      30.994  27.842  22.304  1.00  0.00     0.215 C 
BRANCH   8   9
ATOM      9  N   UNL A   1      31.575  26.623  21.764  1.00  0.00    -0.352 N 
ATOM     10  H   UNL A   1      31.463  26.457  20.799  1.00  0.00     0.163 HD
BRANCH   9  11
ATOM     11  C   UNL A   1      32.258  25.700  22.477  1.00  0.00     0.184 A 
ATOM     12  C   UNL A   1      32.774  23.682  23.238  1.00  0.00     0.091 A 
ATOM     13  N   UNL A   1      31.855  24.451  22.539  1.00  0.00    -0.220 NA
ATOM     14  C   UNL A   1      33.928  24.344  23.629  1.00  0.00     0.064 A 
ATOM     15  S   UNL A   1      33.726  26.015  23.333  1.00  0.00    -0.096 S 
BRANCH  12  16
ATOM     16  C   UNL A   1      32.536  22.275  23.529  1.00  0.00     0.002 A 
ATOM     17  C   UNL A   1      32.237  19.546  24.118  1.00  0.00     0.118 A 
ATOM     18  C   UNL A   1      32.440  20.467  25.145  1.00  0.00     0.047 A 
ATOM     19  C   UNL A   1      32.152  19.992  22.797  1.00  0.00     0.047 A 
ATOM     20  C   UNL A   1      32.593  21.821  24.853  1.00  0.00     0.014 A 
ATOM     21  C   UNL A   1      32.294  21.356  22.502  1.00  0.00     0.014 A 
BRANCH  17  22
ATOM     22  O   UNL A   1      32.074  18.252  24.526  1.00  0.00    -0.497 OA
ATOM     23  C   UNL A   1      32.894  17.845  25.618  1.00  0.00     0.278 C 
ENDBRANCH  17  22
ENDBRANCH  12  16
BRANCH  14  24
ATOM     24  C   UNL A   1      35.170  23.829  24.209  1.00  0.00    -0.006 A 
ATOM     25  C   UNL A   1      35.623  24.246  25.464  1.00  0.00     0.013 A 
ATOM     26  C   UNL A   1      35.906  22.854  23.517  1.00  0.00     0.013 A 
ATOM     27  C   UNL A   1      36.764  23.668  26.026  1.00  0.00     0.047 A 
ATOM     28  C   UNL A   1      37.046  22.277  24.083  1.00  0.00     0.047 A 
ATOM     29  C   UNL A   1      37.470  22.670  25.349  1.00  0.00     0.118 A 
BRANCH  29  30
ATOM     30  O   UNL A   1      38.532  22.156  26.037  1.00  0.00    -0.497 OA
ATOM     31  C   UNL A   1      39.044  20.902  25.586  1.00  0.00     0.278 C 
ENDBRANCH  29  30
ENDBRANCH  14  24
ENDBRANCH   9  11
ENDBRANCH   8   9
ENDBRANCH   5   8
ENDBRANCH   3   4
ENDBRANCH   2   3
ENDBRANCH   1   2
BRANCH   1  32
ATOM     32  C   UNL A   1      31.402  31.026  26.089  1.00  0.00     0.002 C 
BRANCH  32  33
ATOM     33  C   UNL A   1      31.392  32.460  26.623  1.00  0.00     0.021 C 
BRANCH  33  34
ATOM     34  C   UNL A   1      32.721  32.916  27.217  1.00  0.00     0.116 C 
BRANCH  34  35
ATOM     35  N   UNL A   1      32.651  34.286  27.707  1.00  0.00    -0.352 N 
ATOM     36  C   UNL A   1      33.349  34.875  28.730  1.00  0.00     0.251 C 
ATOM     37  H   UNL A   1      32.014  34.871  27.238  1.00  0.00     0.163 HD
ATOM     38  O   UNL A   1      33.010  35.981  29.151  1.00  0.00    -0.269 OA
BRANCH  36  39
ATOM     39  C   UNL A   1      34.499  34.172  29.332  1.00  0.00     0.039 A 
ATOM     40  C   UNL A   1      35.791  34.486  28.902  1.00  0.00     0.014 A 
ATOM     41  C   UNL A   1      34.302  33.207  30.324  1.00  0.00     0.014 A 
ATOM     42  C   UNL A   1      36.889  33.872  29.509  1.00  0.00     0.010 A 
ATOM     43  C   UNL A   1      35.399  32.654  30.978  1.00  0.00     0.010 A 
ATOM     44  C   UNL A   1      36.704  32.975  30.575  1.00  0.00    -0.014 A 
BRANCH  44  45
ATOM     45  C   UNL A   1      37.860  32.373  31.286  1.00  0.00     0.031 A 
ATOM     46  C   UNL A   1      38.604  31.214  30.677  1.00  0.00     0.074 A 
ATOM     47  C   UNL A   1      38.184  32.808  32.521  1.00  0.00     0.049 A 
ATOM     48  N   UNL A   1      39.586  30.512  31.180  1.00  0.00    -0.248 NA
ATOM     49  C   UNL A   1      38.173  30.768  29.342  1.00  0.00     0.031 C 
ATOM     50  C   UNL A   1      37.492  33.873  33.252  1.00  0.00     0.029 A 
ATOM     51  N   UNL A   1      39.157  32.388  33.394  1.00  0.00    -0.354 N 
ATOM     52  C   UNL A   1      39.862  29.521  30.247  1.00  0.00     0.074 A 
ATOM     53  C   UNL A   1      38.929  29.694  29.156  1.00  0.00     0.031 C 
ATOM     54  C   UNL A   1      38.060  34.021  34.459  1.00  0.00     0.029 A 
ATOM     55  C   UNL A   1      39.131  33.040  34.605  1.00  0.00     0.049 A 
ATOM     56  H   UNL A   1      39.811  31.688  33.173  1.00  0.00     0.167 HD
ATOM     57  C   UNL A   1      40.821  28.566  30.284  1.00  0.00     0.034 A 
ATOM     58  C   UNL A   1      39.872  32.857  35.716  1.00  0.00     0.034 A 
ATOM     59  C   UNL A   1      41.777  28.424  31.348  1.00  0.00     0.049 A 
ATOM     60  C   UNL A   1      40.953  31.811  35.712  1.00  0.00     0.074 A 
ATOM     61  C   UNL A   1      42.848  27.550  31.426  1.00  0.00     0.029 A 
ATOM     62  N   UNL A   1      41.774  29.161  32.520  1.00  0.00    -0.354 N 
ATOM     63  N   UNL A   1      41.300  30.988  34.753  1.00  0.00    -0.248 NA
ATOM     64  C   UNL A   1      41.767  31.688  36.930  1.00  0.00     0.031 C 
ATOM     65  C   UNL A   1      43.469  27.732  32.665  1.00  0.00     0.029 A 
ATOM     66  C   UNL A   1      42.813  28.750  33.338  1.00  0.00     0.049 A 
ATOM     67  H   UNL A   1      41.131  29.872  32.740  1.00  0.00     0.167 HD
ATOM     68  C   UNL A   1      42.396  30.283  35.235  1.00  0.00     0.074 A 
ATOM     69  C   UNL A   1      42.668  30.787  36.565  1.00  0.00     0.031 C 
ATOM     70  C   UNL A   1      43.108  29.297  34.635  1.00  0.00     0.034 A 
BRANCH  57  71
ATOM     71  C   UNL A   1      40.917  27.609  29.124  1.00  0.00     0.023 A 
ATOM     72  C   UNL A   1      40.066  26.488  29.068  1.00  0.00     0.012 A 
ATOM     73  C   UNL A   1      41.783  27.877  28.046  1.00  0.00     0.148 A 
ATOM     74  C   UNL A   1      40.089  25.635  27.965  1.00  0.00     0.002 A 
ATOM     75  C   UNL A   1      41.767  27.051  26.930  1.00  0.00     0.091 A 
ATOM     76  F   UNL A   1      42.598  28.939  28.131  1.00  0.00    -0.205 F 
ATOM     77  C   UNL A   1      40.929  25.924  26.891  1.00  0.00     0.022 A 
BRANCH  75  78
ATOM     78  S   UNL A   1      42.748  27.383  25.463  1.00  0.00     0.127 S 
ATOM     79  O   UNL A   1      42.558  26.150  24.698  1.00  0.00    -0.237 OA
ATOM     80  O   UNL A   1      42.077  28.558  24.906  1.00  0.00    -0.237 OA
ATOM     81  O   UNL A   1      44.107  27.617  25.930  1.00  0.00    -0.744 OA
ENDBRANCH  75  78
ENDBRANCH  57  71
BRANCH  58  82
ATOM     82  C   UNL A   1      39.643  33.703  36.922  1.00  0.00     0.023 A 
ATOM     83  C   UNL A   1      40.121  35.027  36.950  1.00  0.00     0.012 A 
ATOM     84  C   UNL A   1      38.959  33.198  38.044  1.00  0.00     0.148 A 
ATOM     85  C   UNL A   1      39.964  35.817  38.090  1.00  0.00     0.002 A 
ATOM     86  C   UNL A   1      38.749  34.013  39.151  1.00  0.00     0.091 A 
ATOM     87  F   UNL A   1      38.530  31.928  38.012  1.00  0.00    -0.205 F 
ATOM     88  C   UNL A   1      39.269  35.314  39.186  1.00  0.00     0.022 A 
BRANCH  86  89
ATOM     89  S   UNL A   1      37.741  33.480  40.537  1.00  0.00     0.127 S 
ATOM     90  O   UNL A   1      36.541  32.996  39.862  1.00  0.00    -0.237 OA
ATOM     91  O   UNL A   1      38.575  32.442  41.143  1.00  0.00    -0.237 OA
ATOM     92  O   UNL A   1      37.577  34.669  41.362  1.00  0.00    -0.744 OA
ENDBRANCH  86  89
ENDBRANCH  58  82
BRANCH  70  93
ATOM     93  C   UNL A   1      44.285  28.726  35.382  1.00  0.00     0.023 A 
ATOM     94  C   UNL A   1      45.557  29.315  35.255  1.00  0.00     0.012 A 
ATOM     95  C   UNL A   1      44.106  27.650  36.274  1.00  0.00     0.148 A 
ATOM     96  C   UNL A   1      46.641  28.819  35.979  1.00  0.00     0.002 A 
ATOM     97  C   UNL A   1      45.177  27.197  37.032  1.00  0.00     0.091 A 
ATOM     98  F   UNL A   1      42.889  27.093  36.367  1.00  0.00    -0.205 F 
ATOM     99  C   UNL A   1      46.449  27.771  36.876  1.00  0.00     0.022 A 
BRANCH  97 100
ATOM    100  S   UNL A   1      45.002  25.921  38.284  1.00  0.00     0.127 S 
ATOM    101  O   UNL A   1      46.367  25.814  38.793  1.00  0.00    -0.237 OA
ATOM    102  O   UNL A   1      44.050  26.530  39.213  1.00  0.00    -0.237 OA
ATOM    103  O   UNL A   1      44.501  24.742  37.590  1.00  0.00    -0.744 OA
ENDBRANCH  97 100
ENDBRANCH  70  93
ENDBRANCH  44  45
ENDBRANCH  36  39
ENDBRANCH  34  35
ENDBRANCH  33  34
ENDBRANCH  32  33
ENDBRANCH   1  32
TORSDOF 22
ENDMDL
MODEL 3
REMARK VINA RESULT:     -11.5      1.985      2.331
REMARK SMILES COc1ccc(-c2nc(NCC(=O)NCCCCCCNC(=O)c3ccc(-c4c5nc(c(-c6cccc(S(=O)(=O)[O-])c6F)c6ccc([nH]6)c(-c6cccc(S(=O)(=O)[O-])c6F)c6nc(c(-c7cccc(S(=O)(=O)[O-])c7F)c7ccc4[nH]7)C=C6)C=C5)cc3)sc2-c2ccc(OC)cc2)cc1
REMARK SMILES IDX 17 1 16 2 15 3 14 4 12 5 13 6 11 8 10 9 9 11 7 12 8 13 88 14
REMARK SMILES IDX 87 15 6 16 3 17 4 18 98 19 5 20 97 21 2 22 1 23 89 24 90 25
REMARK SMILES IDX 96 26 91 27 95 28 92 29 93 30 94 31 18 32 19 33 20 34 21 35
REMARK SMILES IDX 22 36 23 38 24 39 25 40 86 41 26 42 85 43 27 44 28 45 29 46
REMARK SMILES IDX 79 47 30 48 84 49 78 50 80 51 31 52 83 53 77 54 76 55 32 57
REMARK SMILES IDX 64 58 44 59 63 60 45 61 48 62 62 63 81 64 46 65 47 66 61 68
REMARK SMILES IDX 82 69 49 70 33 71 34 72 42 73 35 74 37 75 43 76 36 77 38 78
REMARK SMILES IDX 39 79 40 80 41 81 65 82 66 83 74 84 67 85 69 86 75 87 68 88
REMARK SMILES IDX 70 89 71 90 72 91 73 92 50 93 51 94 59 95 52 96 54 97 60 98
REMARK SMILES IDX 53 99 55 100 56 101 57 102 58 103
REMARK H PARENT 14 7 10 10 21 37 80 56 48 67
REMARK Flexibility Score: inf
ROOT
ATOM      1  C   UNL A   1      32.427  29.755  27.022  1.00  0.00     0.002 C 
ENDROOT
BRANCH   1   2
ATOM      2  C   UNL A   1      31.788  28.439  27.484  1.00  0.00     0.021 C 
BRANCH   2   3
ATOM      3  C   UNL A   1      32.067  27.273  26.538  1.00  0.00     0.116 C 
BRANCH   3   4
ATOM      4  N   UNL A   1      30.929  27.023  25.675  1.00  0.00    -0.355 N 
ATOM      5  C   UNL A   1      30.766  27.362  24.361  1.00  0.00     0.239 C 
ATOM      6  O   UNL A   1      29.669  27.155  23.836  1.00  0.00    -0.273 OA
ATOM      7  H   UNL A   1      30.175  26.546  26.090  1.00  0.00     0.163 HD
BRANCH   5   8
ATOM      8  C   UNL A   1      31.948  27.916  23.557  1.00  0.00     0.215 C 
BRANCH   8   9
ATOM      9  N   UNL A   1      32.504  26.932  22.641  1.00  0.00    -0.352 N 
ATOM     10  H   UNL A   1      32.597  27.196  21.696  1.00  0.00     0.163 HD
BRANCH   9  11
ATOM     11  C   UNL A   1      32.903  25.686  22.980  1.00  0.00     0.184 A 
ATOM     12  C   UNL A   1      34.185  24.138  23.917  1.00  0.00     0.091 A 
ATOM     13  N   UNL A   1      34.053  25.478  23.581  1.00  0.00    -0.220 NA
ATOM     14  C   UNL A   1      33.079  23.346  23.647  1.00  0.00     0.064 A 
ATOM     15  S   UNL A   1      31.967  24.256  22.723  1.00  0.00    -0.096 S 
BRANCH  12  16
ATOM     16  C   UNL A   1      35.401  23.613  24.520  1.00  0.00     0.002 A 
ATOM     17  C   UNL A   1      37.824  22.736  25.637  1.00  0.00     0.118 A 
ATOM     18  C   UNL A   1      37.066  23.713  26.283  1.00  0.00     0.047 A 
ATOM     19  C   UNL A   1      37.357  22.175  24.447  1.00  0.00     0.047 A 
ATOM     20  C   UNL A   1      35.865  24.151  25.728  1.00  0.00     0.014 A 
ATOM     21  C   UNL A   1      36.143  22.606  23.892  1.00  0.00     0.014 A 
BRANCH  17  22
ATOM     22  O   UNL A   1      38.967  22.367  26.289  1.00  0.00    -0.497 OA
ATOM     23  C   UNL A   1      39.526  21.119  25.890  1.00  0.00     0.278 C 
ENDBRANCH  17  22
ENDBRANCH  12  16
BRANCH  14  24
ATOM     24  C   UNL A   1      32.787  21.960  24.021  1.00  0.00    -0.006 A 
ATOM     25  C   UNL A   1      32.443  20.998  23.067  1.00  0.00     0.013 A 
ATOM     26  C   UNL A   1      32.901  21.567  25.364  1.00  0.00     0.013 A 
ATOM     27  C   UNL A   1      32.259  19.667  23.448  1.00  0.00     0.047 A 
ATOM     28  C   UNL A   1      32.718  20.233  25.741  1.00  0.00     0.047 A 
ATOM     29  C   UNL A   1      32.413  19.274  24.780  1.00  0.00     0.118 A 
BRANCH  29  30
ATOM     30  O   UNL A   1      32.257  17.935  25.002  1.00  0.00    -0.497 OA
ATOM     31  C   UNL A   1      33.444  17.143  25.010  1.00  0.00     0.278 C 
ENDBRANCH  29  30
ENDBRANCH  14  24
ENDBRANCH   9  11
ENDBRANCH   8   9
ENDBRANCH   5   8
ENDBRANCH   3   4
ENDBRANCH   2   3
ENDBRANCH   1   2
BRANCH   1  32
ATOM     32  C   UNL A   1      31.488  30.683  26.241  1.00  0.00     0.002 C 
BRANCH  32  33
ATOM     33  C   UNL A   1      31.388  32.108  26.790  1.00  0.00     0.021 C 
BRANCH  33  34
ATOM     34  C   UNL A   1      32.734  32.761  27.085  1.00  0.00     0.116 C 
BRANCH  34  35
ATOM     35  N   UNL A   1      32.576  34.072  27.699  1.00  0.00    -0.352 N 
ATOM     36  C   UNL A   1      33.218  34.599  28.789  1.00  0.00     0.251 C 
ATOM     37  H   UNL A   1      31.915  34.663  27.271  1.00  0.00     0.163 HD
ATOM     38  O   UNL A   1      32.807  35.640  29.303  1.00  0.00    -0.269 OA
BRANCH  36  39
ATOM     39  C   UNL A   1      34.395  33.908  29.353  1.00  0.00     0.039 A 
ATOM     40  C   UNL A   1      35.673  34.298  28.945  1.00  0.00     0.014 A 
ATOM     41  C   UNL A   1      34.235  32.879  30.285  1.00  0.00     0.014 A 
ATOM     42  C   UNL A   1      36.794  33.693  29.518  1.00  0.00     0.010 A 
ATOM     43  C   UNL A   1      35.353  32.332  30.908  1.00  0.00     0.010 A 
ATOM     44  C   UNL A   1      36.644  32.728  30.529  1.00  0.00    -0.014 A 
BRANCH  44  45
ATOM     45  C   UNL A   1      37.823  32.131  31.206  1.00  0.00     0.031 A 
ATOM     46  C   UNL A   1      38.560  30.982  30.572  1.00  0.00     0.074 A 
ATOM     47  C   UNL A   1      38.174  32.561  32.435  1.00  0.00     0.049 A 
ATOM     48  N   UNL A   1      39.561  30.285  31.045  1.00  0.00    -0.248 NA
ATOM     49  C   UNL A   1      38.099  30.540  29.245  1.00  0.00     0.031 C 
ATOM     50  C   UNL A   1      37.493  33.616  33.190  1.00  0.00     0.029 A 
ATOM     51  N   UNL A   1      39.173  32.144  33.280  1.00  0.00    -0.354 N 
ATOM     52  C   UNL A   1      39.820  29.302  30.098  1.00  0.00     0.074 A 
ATOM     53  C   UNL A   1      38.859  29.474  29.033  1.00  0.00     0.031 C 
ATOM     54  C   UNL A   1      38.091  33.761  34.383  1.00  0.00     0.029 A 
ATOM     55  C   UNL A   1      39.173  32.788  34.496  1.00  0.00     0.049 A 
ATOM     56  H   UNL A   1      39.827  31.450  33.039  1.00  0.00     0.167 HD
ATOM     57  C   UNL A   1      40.787  28.354  30.105  1.00  0.00     0.034 A 
ATOM     58  C   UNL A   1      39.944  32.604  35.587  1.00  0.00     0.034 A 
ATOM     59  C   UNL A   1      41.772  28.213  31.143  1.00  0.00     0.049 A 
ATOM     60  C   UNL A   1      41.032  31.567  35.548  1.00  0.00     0.074 A 
ATOM     61  C   UNL A   1      42.851  27.348  31.189  1.00  0.00     0.029 A 
ATOM     62  N   UNL A   1      41.793  28.944  32.320  1.00  0.00    -0.354 N 
ATOM     63  N   UNL A   1      41.361  30.753  34.575  1.00  0.00    -0.248 NA
ATOM     64  C   UNL A   1      41.878  31.443  36.745  1.00  0.00     0.031 C 
ATOM     65  C   UNL A   1      43.502  27.527  32.413  1.00  0.00     0.029 A 
ATOM     66  C   UNL A   1      42.855  28.536  33.108  1.00  0.00     0.049 A 
ATOM     67  H   UNL A   1      41.150  29.648  32.561  1.00  0.00     0.167 HD
ATOM     68  C   UNL A   1      42.475  30.054  35.025  1.00  0.00     0.074 A 
ATOM     69  C   UNL A   1      42.776  30.552  36.350  1.00  0.00     0.031 C 
ATOM     70  C   UNL A   1      43.179  29.077  34.401  1.00  0.00     0.034 A 
BRANCH  57  71
ATOM     71  C   UNL A   1      40.862  27.406  28.937  1.00  0.00     0.023 A 
ATOM     72  C   UNL A   1      39.928  26.357  28.826  1.00  0.00     0.012 A 
ATOM     73  C   UNL A   1      41.795  27.615  27.904  1.00  0.00     0.148 A 
ATOM     74  C   UNL A   1      39.935  25.517  27.712  1.00  0.00     0.002 A 
ATOM     75  C   UNL A   1      41.767  26.805  26.776  1.00  0.00     0.091 A 
ATOM     76  F   UNL A   1      42.688  28.607  28.041  1.00  0.00    -0.205 F 
ATOM     77  C   UNL A   1      40.844  25.750  26.683  1.00  0.00     0.022 A 
BRANCH  75  78
ATOM     78  S   UNL A   1      42.838  27.073  25.360  1.00  0.00     0.127 S 
ATOM     79  O   UNL A   1      42.665  25.823  24.620  1.00  0.00    -0.237 OA
ATOM     80  O   UNL A   1      42.228  28.245  24.733  1.00  0.00    -0.237 OA
ATOM     81  O   UNL A   1      44.172  27.293  25.900  1.00  0.00    -0.744 OA
ENDBRANCH  75  78
ENDBRANCH  57  71
BRANCH  58  82
ATOM     82  C   UNL A   1      39.738  33.441  36.803  1.00  0.00     0.023 A 
ATOM     83  C   UNL A   1      38.718  33.111  37.716  1.00  0.00     0.012 A 
ATOM     84  C   UNL A   1      40.544  34.567  37.056  1.00  0.00     0.148 A 
ATOM     85  C   UNL A   1      38.474  33.912  38.832  1.00  0.00     0.002 A 
ATOM     86  C   UNL A   1      40.338  35.322  38.204  1.00  0.00     0.091 A 
ATOM     87  F   UNL A   1      41.497  34.882  36.166  1.00  0.00    -0.205 F 
ATOM     88  C   UNL A   1      39.291  35.011  39.082  1.00  0.00     0.022 A 
BRANCH  86  89
ATOM     89  S   UNL A   1      41.440  36.663  38.662  1.00  0.00     0.127 S 
ATOM     90  O   UNL A   1      40.512  37.616  39.265  1.00  0.00    -0.237 OA
ATOM     91  O   UNL A   1      42.351  36.005  39.599  1.00  0.00    -0.237 OA
ATOM     92  O   UNL A   1      42.065  37.080  37.415  1.00  0.00    -0.744 OA
ENDBRANCH  86  89
ENDBRANCH  58  82
BRANCH  70  93
ATOM     93  C   UNL A   1      44.379  28.512  35.114  1.00  0.00     0.023 A 
ATOM     94  C   UNL A   1      44.246  27.373  35.932  1.00  0.00     0.012 A 
ATOM     95  C   UNL A   1      45.656  29.068  34.904  1.00  0.00     0.148 A 
ATOM     96  C   UNL A   1      45.361  26.817  36.557  1.00  0.00     0.002 A 
ATOM     97  C   UNL A   1      46.770  28.477  35.486  1.00  0.00     0.091 A 
ATOM     98  F   UNL A   1      45.759  30.162  34.135  1.00  0.00    -0.205 F 
ATOM     99  C   UNL A   1      46.623  27.360  36.324  1.00  0.00     0.022 A 
BRANCH  97 100
ATOM    100  S   UNL A   1      48.443  29.045  35.163  1.00  0.00     0.127 S 
ATOM    101  O   UNL A   1      48.522  28.927  33.709  1.00  0.00    -0.237 OA
ATOM    102  O   UNL A   1      48.404  30.419  35.663  1.00  0.00    -0.237 OA
ATOM    103  O   UNL A   1      49.322  28.154  35.910  1.00  0.00    -0.744 OA
ENDBRANCH  97 100
ENDBRANCH  70  93
ENDBRANCH  44  45
ENDBRANCH  36  39
ENDBRANCH  34  35
ENDBRANCH  33  34
ENDBRANCH  32  33
ENDBRANCH   1  32
TORSDOF 22
ENDMDL
