MODEL 1
REMARK VINA RESULT:     -10.8      0.000      0.000
REMARK SMILES Cc1nn(C)c(C)c1[C@H](C)N1C(=O)CC[C@@H](C(=O)NCCCCCCNC(=O)c2ccc(-c3c4nc(c(-c5cccc(S(=O)(=O)[O-])c5F)c5ccc([nH]5)c(-c5cccc(S(=O)(=O)[O-])c5F)c5nc(c(-c6cccc(S(=O)(=O)[O-])c6F)c6ccc3[nH]6)C=C5)C=C4)cc2)[C@@H]1c1ccco1
REMARK SMILES IDX 23 1 22 2 21 3 20 4 19 5 17 6 18 7 16 9 11 10 12 11 92 12
REMARK SMILES IDX 13 13 14 14 15 15 9 16 10 17 8 18 1 19 2 20 3 21 4 22 6 23
REMARK SMILES IDX 5 24 7 25 93 26 94 27 97 28 95 29 96 30 24 31 25 32 26 33
REMARK SMILES IDX 27 34 28 36 29 37 30 38 91 39 31 40 90 41 32 42 33 43 34 44
REMARK SMILES IDX 84 45 35 46 89 47 83 48 85 49 36 50 88 51 82 52 81 53 37 55
REMARK SMILES IDX 69 56 49 57 68 58 50 59 53 60 67 61 86 62 51 63 52 64 66 66
REMARK SMILES IDX 87 67 54 68 38 69 39 70 47 71 40 72 42 73 48 74 41 75 43 76
REMARK SMILES IDX 44 77 45 78 46 79 70 80 71 81 79 82 72 83 74 84 80 85 73 86
REMARK SMILES IDX 75 87 76 88 77 89 78 90 55 91 56 92 64 93 57 94 59 95 65 96
REMARK SMILES IDX 58 97 60 98 61 99 62 100 63 101
REMARK H PARENT 19 8 26 35 85 54 53 65
REMARK Flexibility Score: inf
ROOT
ATOM      1  C   UNL A   1      34.738  34.006  27.881  1.00  0.00     0.002 C 
ENDROOT
BRANCH   1   2
ATOM      2  C   UNL A   1      35.266  32.723  28.531  1.00  0.00     0.002 C 
BRANCH   2   3
ATOM      3  C   UNL A   1      34.240  31.586  28.658  1.00  0.00     0.021 C 
BRANCH   3   4
ATOM      4  C   UNL A   1      34.203  30.640  27.457  1.00  0.00     0.116 C 
BRANCH   4   5
ATOM      5  N   UNL A   1      32.897  30.683  26.833  1.00  0.00    -0.356 N 
ATOM      6  C   UNL A   1      32.224  29.727  26.143  1.00  0.00     0.225 C 
ATOM      7  O   UNL A   1      31.302  30.114  25.425  1.00  0.00    -0.275 OA
ATOM      8  H   UNL A   1      32.423  31.541  26.922  1.00  0.00     0.163 HD
BRANCH   6   9
ATOM      9  C   UNL A   1      32.553  28.249  26.340  1.00  0.00     0.109 C 
ATOM     10  N   UNL A   1      32.187  27.562  23.932  1.00  0.00    -0.325 N 
ATOM     11  C   UNL A   1      33.477  28.000  23.634  1.00  0.00     0.223 C 
ATOM     12  C   UNL A   1      31.724  27.439  25.327  1.00  0.00     0.164 C 
ATOM     13  O   UNL A   1      33.842  28.268  22.484  1.00  0.00    -0.275 OA
ATOM     14  C   UNL A   1      34.498  28.168  24.746  1.00  0.00     0.101 C 
ATOM     15  C   UNL A   1      34.029  27.953  26.166  1.00  0.00     0.026 C 
BRANCH  10  16
ATOM     16  C   UNL A   1      31.265  27.352  22.771  1.00  0.00     0.117 C 
ATOM     17  C   UNL A   1      31.206  25.866  22.386  1.00  0.00     0.036 C 
BRANCH  16  18
ATOM     18  C   UNL A   1      29.883  28.003  22.904  1.00  0.00     0.018 A 
ATOM     19  C   UNL A   1      28.267  26.180  24.044  1.00  0.00     0.069 C 
ATOM     20  C   UNL A   1      28.653  27.491  23.456  1.00  0.00     0.065 A 
ATOM     21  N   UNL A   1      27.664  28.388  23.380  1.00  0.00    -0.178 NA
ATOM     22  N   UNL A   1      28.212  29.460  22.811  1.00  0.00    -0.272 N 
ATOM     23  C   UNL A   1      29.501  29.254  22.400  1.00  0.00     0.040 A 
ATOM     24  C   UNL A   1      27.405  30.654  22.710  1.00  0.00     0.174 C 
ATOM     25  C   UNL A   1      30.252  30.277  21.622  1.00  0.00     0.067 C 
ENDBRANCH  16  18
ENDBRANCH  10  16
BRANCH  12  26
ATOM     26  C   UNL A   1      31.562  26.011  25.758  1.00  0.00     0.127 A 
ATOM     27  C   UNL A   1      32.389  24.913  25.597  1.00  0.00     0.048 A 
ATOM     28  O   UNL A   1      30.449  25.651  26.460  1.00  0.00    -0.467 OA
ATOM     29  C   UNL A   1      31.757  23.834  26.254  1.00  0.00     0.042 A 
ATOM     30  C   UNL A   1      30.588  24.336  26.772  1.00  0.00     0.195 A 
ENDBRANCH  12  26
ENDBRANCH   6   9
ENDBRANCH   4   5
ENDBRANCH   3   4
ENDBRANCH   2   3
ENDBRANCH   1   2
BRANCH   1  31
ATOM     31  C   UNL A   1      33.481  34.588  28.533  1.00  0.00     0.021 C 
BRANCH  31  32
ATOM     32  C   UNL A   1      33.701  35.907  29.263  1.00  0.00     0.116 C 
BRANCH  32  33
ATOM     33  N   UNL A   1      32.914  35.995  30.483  1.00  0.00    -0.352 N 
ATOM     34  C   UNL A   1      33.068  35.306  31.660  1.00  0.00     0.251 C 
ATOM     35  H   UNL A   1      32.169  36.638  30.462  1.00  0.00     0.163 HD
ATOM     36  O   UNL A   1      32.195  35.361  32.524  1.00  0.00    -0.269 OA
BRANCH  34  37
ATOM     37  C   UNL A   1      34.275  34.480  31.874  1.00  0.00     0.039 A 
ATOM     38  C   UNL A   1      35.532  35.086  31.803  1.00  0.00     0.014 A 
ATOM     39  C   UNL A   1      34.167  33.114  32.154  1.00  0.00     0.014 A 
ATOM     40  C   UNL A   1      36.677  34.335  32.076  1.00  0.00     0.010 A 
ATOM     41  C   UNL A   1      35.303  32.388  32.501  1.00  0.00     0.010 A 
ATOM     42  C   UNL A   1      36.570  32.988  32.464  1.00  0.00    -0.014 A 
BRANCH  42  43
ATOM     43  C   UNL A   1      37.768  32.201  32.857  1.00  0.00     0.031 A 
ATOM     44  C   UNL A   1      38.502  32.516  34.131  1.00  0.00     0.074 A 
ATOM     45  C   UNL A   1      38.244  31.259  32.019  1.00  0.00     0.049 A 
ATOM     46  N   UNL A   1      39.598  31.978  34.604  1.00  0.00    -0.248 NA
ATOM     47  C   UNL A   1      37.950  33.590  34.974  1.00  0.00     0.031 C 
ATOM     48  C   UNL A   1      37.666  30.911  30.718  1.00  0.00     0.029 A 
ATOM     49  N   UNL A   1      39.342  30.440  32.121  1.00  0.00    -0.354 N 
ATOM     50  C   UNL A   1      39.884  32.669  35.775  1.00  0.00     0.074 A 
ATOM     51  C   UNL A   1      38.867  33.684  35.926  1.00  0.00     0.031 C 
ATOM     52  C   UNL A   1      38.409  29.951  30.148  1.00  0.00     0.029 A 
ATOM     53  C   UNL A   1      39.538  29.639  31.018  1.00  0.00     0.049 A 
ATOM     54  H   UNL A   1      39.933  30.427  32.908  1.00  0.00     0.167 HD
ATOM     55  C   UNL A   1      40.889  32.459  36.659  1.00  0.00     0.034 A 
ATOM     56  C   UNL A   1      40.523  28.765  30.733  1.00  0.00     0.034 A 
ATOM     57  C   UNL A   1      41.882  31.428  36.522  1.00  0.00     0.049 A 
ATOM     58  C   UNL A   1      41.613  28.537  31.743  1.00  0.00     0.074 A 
ATOM     59  C   UNL A   1      42.890  31.082  37.405  1.00  0.00     0.029 A 
ATOM     60  N   UNL A   1      42.004  30.584  35.428  1.00  0.00    -0.354 N 
ATOM     61  N   UNL A   1      41.781  29.094  32.917  1.00  0.00    -0.248 NA
ATOM     62  C   UNL A   1      42.633  27.532  31.405  1.00  0.00     0.031 C 
ATOM     63  C   UNL A   1      43.643  30.054  36.829  1.00  0.00     0.029 A 
ATOM     64  C   UNL A   1      43.078  29.730  35.606  1.00  0.00     0.049 A 
ATOM     65  H   UNL A   1      41.413  30.593  34.641  1.00  0.00     0.167 HD
ATOM     66  C   UNL A   1      42.897  28.481  33.475  1.00  0.00     0.074 A 
ATOM     67  C   UNL A   1      43.356  27.498  32.516  1.00  0.00     0.031 C 
ATOM     68  C   UNL A   1      43.496  28.721  34.668  1.00  0.00     0.034 A 
BRANCH  55  69
ATOM     69  C   UNL A   1      40.946  33.341  37.880  1.00  0.00     0.023 A 
ATOM     70  C   UNL A   1      40.236  32.974  39.042  1.00  0.00     0.012 A 
ATOM     71  C   UNL A   1      41.755  34.495  37.901  1.00  0.00     0.148 A 
ATOM     72  C   UNL A   1      40.302  33.759  40.193  1.00  0.00     0.002 A 
ATOM     73  C   UNL A   1      41.852  35.245  39.068  1.00  0.00     0.091 A 
ATOM     74  F   UNL A   1      42.408  34.838  36.783  1.00  0.00    -0.205 F 
ATOM     75  C   UNL A   1      41.118  34.887  40.209  1.00  0.00     0.022 A 
BRANCH  73  76
ATOM     76  S   UNL A   1      42.939  36.668  39.217  1.00  0.00     0.127 S 
ATOM     77  O   UNL A   1      42.563  37.189  40.530  1.00  0.00    -0.237 OA
ATOM     78  O   UNL A   1      44.264  36.047  39.164  1.00  0.00    -0.237 OA
ATOM     79  O   UNL A   1      42.627  37.534  38.090  1.00  0.00    -0.744 OA
ENDBRANCH  73  76
ENDBRANCH  55  69
BRANCH  56  80
ATOM     80  C   UNL A   1      40.495  28.004  29.451  1.00  0.00     0.023 A 
ATOM     81  C   UNL A   1      39.534  26.991  29.263  1.00  0.00     0.012 A 
ATOM     82  C   UNL A   1      41.402  28.290  28.413  1.00  0.00     0.148 A 
ATOM     83  C   UNL A   1      39.503  26.252  28.081  1.00  0.00     0.002 A 
ATOM     84  C   UNL A   1      41.326  27.591  27.215  1.00  0.00     0.091 A 
ATOM     85  F   UNL A   1      42.315  29.251  28.614  1.00  0.00    -0.205 F 
ATOM     86  C   UNL A   1      40.390  26.558  27.054  1.00  0.00     0.022 A 
BRANCH  84  87
ATOM     87  S   UNL A   1      42.339  28.009  25.791  1.00  0.00     0.127 S 
ATOM     88  O   UNL A   1      43.688  27.894  26.340  1.00  0.00    -0.237 OA
ATOM     89  O   UNL A   1      41.968  26.961  24.840  1.00  0.00    -0.237 OA
ATOM     90  O   UNL A   1      41.929  29.349  25.394  1.00  0.00    -0.744 OA
ENDBRANCH  84  87
ENDBRANCH  56  80
BRANCH  68  91
ATOM     91  C   UNL A   1      44.686  27.873  35.036  1.00  0.00     0.023 A 
ATOM     92  C   UNL A   1      45.991  28.327  34.763  1.00  0.00     0.012 A 
ATOM     93  C   UNL A   1      44.507  26.653  35.721  1.00  0.00     0.148 A 
ATOM     94  C   UNL A   1      47.098  27.564  35.132  1.00  0.00     0.002 A 
ATOM     95  C   UNL A   1      45.617  25.926  36.134  1.00  0.00     0.091 A 
ATOM     96  F   UNL A   1      43.257  26.230  35.956  1.00  0.00    -0.205 F 
ATOM     97  C   UNL A   1      46.912  26.372  35.828  1.00  0.00     0.022 A 
BRANCH  95  98
ATOM     98  S   UNL A   1      45.476  24.431  37.120  1.00  0.00     0.127 S 
ATOM     99  O   UNL A   1      44.608  23.604  36.284  1.00  0.00    -0.237 OA
ATOM    100  O   UNL A   1      46.865  23.979  37.194  1.00  0.00    -0.237 OA
ATOM    101  O   UNL A   1      44.905  24.842  38.396  1.00  0.00    -0.744 OA
ENDBRANCH  95  98
ENDBRANCH  68  91
ENDBRANCH  42  43
ENDBRANCH  34  37
ENDBRANCH  32  33
ENDBRANCH  31  32
ENDBRANCH   1  31
TORSDOF 19
ENDMDL
MODEL 2
REMARK VINA RESULT:     -10.7      2.580      7.839
REMARK SMILES Cc1nn(C)c(C)c1[C@H](C)N1C(=O)CC[C@@H](C(=O)NCCCCCCNC(=O)c2ccc(-c3c4nc(c(-c5cccc(S(=O)(=O)[O-])c5F)c5ccc([nH]5)c(-c5cccc(S(=O)(=O)[O-])c5F)c5nc(c(-c6cccc(S(=O)(=O)[O-])c6F)c6ccc3[nH]6)C=C5)C=C4)cc2)[C@@H]1c1ccco1
REMARK SMILES IDX 23 1 22 2 21 3 20 4 19 5 17 6 18 7 16 9 11 10 12 11 92 12
REMARK SMILES IDX 13 13 14 14 15 15 9 16 10 17 8 18 1 19 2 20 3 21 4 22 6 23
REMARK SMILES IDX 5 24 7 25 93 26 94 27 97 28 95 29 96 30 24 31 25 32 26 33
REMARK SMILES IDX 27 34 28 36 29 37 30 38 91 39 31 40 90 41 32 42 33 43 34 44
REMARK SMILES IDX 84 45 35 46 89 47 83 48 85 49 36 50 88 51 82 52 81 53 37 55
REMARK SMILES IDX 69 56 49 57 68 58 50 59 53 60 67 61 86 62 51 63 52 64 66 66
REMARK SMILES IDX 87 67 54 68 38 69 39 70 47 71 40 72 42 73 48 74 41 75 43 76
REMARK SMILES IDX 44 77 45 78 46 79 70 80 71 81 79 82 72 83 74 84 80 85 73 86
REMARK SMILES IDX 75 87 76 88 77 89 78 90 55 91 56 92 64 93 57 94 59 95 65 96
REMARK SMILES IDX 58 97 60 98 61 99 62 100 63 101
REMARK H PARENT 19 8 26 35 85 54 53 65
REMARK Flexibility Score: inf
ROOT
ATOM      1  C   UNL A   1      31.230  30.757  25.652  1.00  0.00     0.002 C 
ENDROOT
BRANCH   1   2
ATOM      2  C   UNL A   1      31.831  29.630  26.499  1.00  0.00     0.002 C 
BRANCH   2   3
ATOM      3  C   UNL A   1      32.848  28.737  25.771  1.00  0.00     0.021 C 
BRANCH   3   4
ATOM      4  C   UNL A   1      33.034  27.357  26.403  1.00  0.00     0.116 C 
BRANCH   4   5
ATOM      5  N   UNL A   1      34.078  26.631  25.710  1.00  0.00    -0.356 N 
ATOM      6  C   UNL A   1      34.425  25.321  25.774  1.00  0.00     0.225 C 
ATOM      7  O   UNL A   1      35.548  25.028  25.365  1.00  0.00    -0.275 OA
ATOM      8  H   UNL A   1      34.624  27.175  25.096  1.00  0.00     0.163 HD
BRANCH   6   9
ATOM      9  C   UNL A   1      33.419  24.272  26.244  1.00  0.00     0.109 C 
ATOM     10  N   UNL A   1      32.261  23.981  24.013  1.00  0.00    -0.325 N 
ATOM     11  C   UNL A   1      33.276  23.106  23.626  1.00  0.00     0.223 C 
ATOM     12  C   UNL A   1      32.136  24.437  25.411  1.00  0.00     0.164 C 
ATOM     13  O   UNL A   1      33.506  22.833  22.443  1.00  0.00    -0.275 OA
ATOM     14  C   UNL A   1      34.150  22.445  24.676  1.00  0.00     0.101 C 
ATOM     15  C   UNL A   1      33.950  22.858  26.116  1.00  0.00     0.026 C 
BRANCH  10  16
ATOM     16  C   UNL A   1      31.397  24.533  22.921  1.00  0.00     0.117 C 
ATOM     17  C   UNL A   1      30.045  23.804  22.879  1.00  0.00     0.036 C 
BRANCH  16  18
ATOM     18  C   UNL A   1      31.269  26.060  22.893  1.00  0.00     0.018 A 
ATOM     19  C   UNL A   1      33.661  27.031  22.136  1.00  0.00     0.069 C 
ATOM     20  C   UNL A   1      32.231  27.077  22.544  1.00  0.00     0.065 A 
ATOM     21  N   UNL A   1      31.714  28.306  22.652  1.00  0.00    -0.178 NA
ATOM     22  N   UNL A   1      30.455  28.119  23.045  1.00  0.00    -0.272 N 
ATOM     23  C   UNL A   1      30.163  26.810  23.316  1.00  0.00     0.040 A 
ATOM     24  C   UNL A   1      29.598  29.278  23.127  1.00  0.00     0.174 C 
ATOM     25  C   UNL A   1      28.854  26.399  23.896  1.00  0.00     0.067 C 
ENDBRANCH  16  18
ENDBRANCH  10  16
BRANCH  12  26
ATOM     26  C   UNL A   1      30.943  23.848  26.104  1.00  0.00     0.127 A 
ATOM     27  C   UNL A   1      30.595  22.534  26.358  1.00  0.00     0.048 A 
ATOM     28  O   UNL A   1      30.003  24.684  26.632  1.00  0.00    -0.467 OA
ATOM     29  C   UNL A   1      29.392  22.571  27.098  1.00  0.00     0.042 A 
ATOM     30  C   UNL A   1      29.079  23.900  27.248  1.00  0.00     0.195 A 
ENDBRANCH  12  26
ENDBRANCH   6   9
ENDBRANCH   4   5
ENDBRANCH   3   4
ENDBRANCH   2   3
ENDBRANCH   1   2
BRANCH   1  31
ATOM     31  C   UNL A   1      31.233  32.134  26.319  1.00  0.00     0.021 C 
BRANCH  31  32
ATOM     32  C   UNL A   1      32.547  32.506  26.996  1.00  0.00     0.116 C 
BRANCH  32  33
ATOM     33  N   UNL A   1      32.530  33.866  27.514  1.00  0.00    -0.352 N 
ATOM     34  C   UNL A   1      33.327  34.432  28.477  1.00  0.00     0.251 C 
ATOM     35  H   UNL A   1      31.854  34.462  27.118  1.00  0.00     0.163 HD
ATOM     36  O   UNL A   1      33.048  35.539  28.933  1.00  0.00    -0.269 OA
BRANCH  34  37
ATOM     37  C   UNL A   1      34.506  33.696  28.979  1.00  0.00     0.039 A 
ATOM     38  C   UNL A   1      35.779  34.235  28.778  1.00  0.00     0.014 A 
ATOM     39  C   UNL A   1      34.356  32.482  29.657  1.00  0.00     0.014 A 
ATOM     40  C   UNL A   1      36.896  33.589  29.311  1.00  0.00     0.010 A 
ATOM     41  C   UNL A   1      35.461  31.881  30.253  1.00  0.00     0.010 A 
ATOM     42  C   UNL A   1      36.743  32.426  30.086  1.00  0.00    -0.014 A 
BRANCH  42  43
ATOM     43  C   UNL A   1      37.907  31.781  30.746  1.00  0.00     0.031 A 
ATOM     44  C   UNL A   1      38.697  30.718  30.032  1.00  0.00     0.074 A 
ATOM     45  C   UNL A   1      38.199  32.092  32.025  1.00  0.00     0.049 A 
ATOM     46  N   UNL A   1      39.701  30.005  30.472  1.00  0.00    -0.248 NA
ATOM     47  C   UNL A   1      38.291  30.397  28.654  1.00  0.00     0.031 C 
ATOM     48  C   UNL A   1      37.462  33.052  32.852  1.00  0.00     0.029 A 
ATOM     49  N   UNL A   1      39.174  31.614  32.866  1.00  0.00    -0.354 N 
ATOM     50  C   UNL A   1      40.025  29.129  29.441  1.00  0.00     0.074 A 
ATOM     51  C   UNL A   1      39.091  29.379  28.367  1.00  0.00     0.031 C 
ATOM     52  C   UNL A   1      38.013  33.094  34.075  1.00  0.00     0.029 A 
ATOM     53  C   UNL A   1      39.114  32.140  34.136  1.00  0.00     0.049 A 
ATOM     54  H   UNL A   1      39.851  30.957  32.585  1.00  0.00     0.167 HD
ATOM     55  C   UNL A   1      41.026  28.218  29.386  1.00  0.00     0.034 A 
ATOM     56  C   UNL A   1      39.853  31.872  35.231  1.00  0.00     0.034 A 
ATOM     57  C   UNL A   1      41.973  27.994  30.444  1.00  0.00     0.049 A 
ATOM     58  C   UNL A   1      40.971  30.872  35.133  1.00  0.00     0.074 A 
ATOM     59  C   UNL A   1      43.072  27.154  30.450  1.00  0.00     0.029 A 
ATOM     60  N   UNL A   1      41.928  28.601  31.690  1.00  0.00    -0.354 N 
ATOM     61  N   UNL A   1      41.358  30.164  34.100  1.00  0.00    -0.248 NA
ATOM     62  C   UNL A   1      41.781  30.658  36.343  1.00  0.00     0.031 C 
ATOM     63  C   UNL A   1      43.670  27.224  31.712  1.00  0.00     0.029 A 
ATOM     64  C   UNL A   1      42.970  28.143  32.478  1.00  0.00     0.049 A 
ATOM     65  H   UNL A   1      41.254  29.260  31.972  1.00  0.00     0.167 HD
ATOM     66  C   UNL A   1      42.476  29.454  34.520  1.00  0.00     0.074 A 
ATOM     67  C   UNL A   1      42.716  29.830  35.898  1.00  0.00     0.031 C 
ATOM     68  C   UNL A   1      43.229  28.561  33.831  1.00  0.00     0.034 A 
BRANCH  55  69
ATOM     69  C   UNL A   1      41.175  27.416  28.118  1.00  0.00     0.023 A 
ATOM     70  C   UNL A   1      41.770  28.005  26.983  1.00  0.00     0.012 A 
ATOM     71  C   UNL A   1      40.790  26.061  28.071  1.00  0.00     0.148 A 
ATOM     72  C   UNL A   1      41.947  27.270  25.811  1.00  0.00     0.002 A 
ATOM     73  C   UNL A   1      41.014  25.323  26.914  1.00  0.00     0.091 A 
ATOM     74  F   UNL A   1      40.209  25.524  29.152  1.00  0.00    -0.205 F 
ATOM     75  C   UNL A   1      41.580  25.927  25.781  1.00  0.00     0.022 A 
BRANCH  73  76
ATOM     76  S   UNL A   1      40.652  23.566  26.801  1.00  0.00     0.127 S 
ATOM     77  O   UNL A   1      41.018  23.104  28.139  1.00  0.00    -0.237 OA
ATOM     78  O   UNL A   1      39.215  23.568  26.528  1.00  0.00    -0.237 OA
ATOM     79  O   UNL A   1      41.478  23.053  25.717  1.00  0.00    -0.744 OA
ENDBRANCH  73  76
ENDBRANCH  55  69
BRANCH  56  80
ATOM     80  C   UNL A   1      39.587  32.600  36.504  1.00  0.00     0.023 A 
ATOM     81  C   UNL A   1      40.214  33.839  36.742  1.00  0.00     0.012 A 
ATOM     82  C   UNL A   1      38.705  32.081  37.472  1.00  0.00     0.148 A 
ATOM     83  C   UNL A   1      39.997  34.528  37.935  1.00  0.00     0.002 A 
ATOM     84  C   UNL A   1      38.446  32.802  38.631  1.00  0.00     0.091 A 
ATOM     85  F   UNL A   1      38.124  30.897  37.231  1.00  0.00    -0.205 F 
ATOM     86  C   UNL A   1      39.106  34.016  38.874  1.00  0.00     0.022 A 
BRANCH  84  87
ATOM     87  S   UNL A   1      37.212  32.284  39.830  1.00  0.00     0.127 S 
ATOM     88  O   UNL A   1      36.973  33.523  40.567  1.00  0.00    -0.237 OA
ATOM     89  O   UNL A   1      36.112  31.858  38.964  1.00  0.00    -0.237 OA
ATOM     90  O   UNL A   1      37.828  31.205  40.590  1.00  0.00    -0.744 OA
ENDBRANCH  84  87
ENDBRANCH  56  80
BRANCH  68  91
ATOM     91  C   UNL A   1      44.419  27.960  34.533  1.00  0.00     0.023 A 
ATOM     92  C   UNL A   1      45.667  28.614  34.499  1.00  0.00     0.012 A 
ATOM     93  C   UNL A   1      44.279  26.777  35.288  1.00  0.00     0.148 A 
ATOM     94  C   UNL A   1      46.764  28.082  35.175  1.00  0.00     0.002 A 
ATOM     95  C   UNL A   1      45.363  26.284  36.003  1.00  0.00     0.091 A 
ATOM     96  F   UNL A   1      43.088  26.161  35.294  1.00  0.00    -0.205 F 
ATOM     97  C   UNL A   1      46.609  26.926  35.936  1.00  0.00     0.022 A 
BRANCH  95  98
ATOM     98  S   UNL A   1      45.232  24.858  37.089  1.00  0.00     0.127 S 
ATOM     99  O   UNL A   1      44.888  23.796  36.144  1.00  0.00    -0.237 OA
ATOM    100  O   UNL A   1      46.583  24.768  37.643  1.00  0.00    -0.237 OA
ATOM    101  O   UNL A   1      44.200  25.185  38.062  1.00  0.00    -0.744 OA
ENDBRANCH  95  98
ENDBRANCH  68  91
ENDBRANCH  42  43
ENDBRANCH  34  37
ENDBRANCH  32  33
ENDBRANCH  31  32
ENDBRANCH   1  31
TORSDOF 19
ENDMDL
MODEL 3
REMARK VINA RESULT:     -10.3      6.655     11.879
REMARK SMILES Cc1nn(C)c(C)c1[C@H](C)N1C(=O)CC[C@@H](C(=O)NCCCCCCNC(=O)c2ccc(-c3c4nc(c(-c5cccc(S(=O)(=O)[O-])c5F)c5ccc([nH]5)c(-c5cccc(S(=O)(=O)[O-])c5F)c5nc(c(-c6cccc(S(=O)(=O)[O-])c6F)c6ccc3[nH]6)C=C5)C=C4)cc2)[C@@H]1c1ccco1
REMARK SMILES IDX 23 1 22 2 21 3 20 4 19 5 17 6 18 7 16 9 11 10 12 11 92 12
REMARK SMILES IDX 13 13 14 14 15 15 9 16 10 17 8 18 1 19 2 20 3 21 4 22 6 23
REMARK SMILES IDX 5 24 7 25 93 26 94 27 97 28 95 29 96 30 24 31 25 32 26 33
REMARK SMILES IDX 27 34 28 36 29 37 30 38 91 39 31 40 90 41 32 42 33 43 34 44
REMARK SMILES IDX 84 45 35 46 89 47 83 48 85 49 36 50 88 51 82 52 81 53 37 55
REMARK SMILES IDX 69 56 49 57 68 58 50 59 53 60 67 61 86 62 51 63 52 64 66 66
REMARK SMILES IDX 87 67 54 68 38 69 39 70 47 71 40 72 42 73 48 74 41 75 43 76
REMARK SMILES IDX 44 77 45 78 46 79 70 80 71 81 79 82 72 83 74 84 80 85 73 86
REMARK SMILES IDX 75 87 76 88 77 89 78 90 55 91 56 92 64 93 57 94 59 95 65 96
REMARK SMILES IDX 58 97 60 98 61 99 62 100 63 101
REMARK H PARENT 19 8 26 35 85 54 53 65
REMARK Flexibility Score: inf
ROOT
ATOM      1  C   UNL A   1      41.879  21.115  27.780  1.00  0.00     0.002 C 
ENDROOT
BRANCH   1   2
ATOM      2  C   UNL A   1      40.535  21.832  27.611  1.00  0.00     0.002 C 
BRANCH   2   3
ATOM      3  C   UNL A   1      40.030  21.937  26.163  1.00  0.00     0.021 C 
BRANCH   3   4
ATOM      4  C   UNL A   1      38.581  22.411  26.040  1.00  0.00     0.116 C 
BRANCH   4   5
ATOM      5  N   UNL A   1      37.776  21.384  25.411  1.00  0.00    -0.356 N 
ATOM      6  C   UNL A   1      36.493  21.424  24.969  1.00  0.00     0.225 C 
ATOM      7  O   UNL A   1      35.937  20.340  24.798  1.00  0.00    -0.275 OA
ATOM      8  H   UNL A   1      38.231  20.519  25.284  1.00  0.00     0.163 HD
BRANCH   6   9
ATOM      9  C   UNL A   1      35.833  22.756  24.619  1.00  0.00     0.109 C 
ATOM     10  N   UNL A   1      33.507  22.119  25.384  1.00  0.00    -0.325 N 
ATOM     11  C   UNL A   1      33.875  22.433  26.693  1.00  0.00     0.223 C 
ATOM     12  C   UNL A   1      34.368  22.475  24.241  1.00  0.00     0.164 C 
ATOM     13  O   UNL A   1      33.261  22.010  27.678  1.00  0.00    -0.275 OA
ATOM     14  C   UNL A   1      35.075  23.326  26.950  1.00  0.00     0.101 C 
ATOM     15  C   UNL A   1      35.899  23.755  25.757  1.00  0.00     0.026 C 
BRANCH  10  16
ATOM     16  C   UNL A   1      32.268  21.294  25.215  1.00  0.00     0.117 C 
ATOM     17  C   UNL A   1      31.075  22.179  24.826  1.00  0.00     0.036 C 
BRANCH  16  18
ATOM     18  C   UNL A   1      32.422  20.053  24.328  1.00  0.00     0.018 A 
ATOM     19  C   UNL A   1      31.781  20.798  21.824  1.00  0.00     0.069 C 
ATOM     20  C   UNL A   1      32.226  19.882  22.909  1.00  0.00     0.065 A 
ATOM     21  N   UNL A   1      32.468  18.625  22.523  1.00  0.00    -0.178 NA
ATOM     22  N   UNL A   1      32.822  17.983  23.635  1.00  0.00    -0.272 N 
ATOM     23  C   UNL A   1      32.704  18.751  24.762  1.00  0.00     0.040 A 
ATOM     24  C   UNL A   1      33.269  16.616  23.508  1.00  0.00     0.174 C 
ATOM     25  C   UNL A   1      32.922  18.187  26.123  1.00  0.00     0.067 C 
ENDBRANCH  16  18
ENDBRANCH  10  16
BRANCH  12  26
ATOM     26  C   UNL A   1      33.789  23.577  23.403  1.00  0.00     0.127 A 
ATOM     27  C   UNL A   1      33.484  23.632  22.055  1.00  0.00     0.048 A 
ATOM     28  O   UNL A   1      33.449  24.755  24.001  1.00  0.00    -0.467 OA
ATOM     29  C   UNL A   1      32.908  24.900  21.824  1.00  0.00     0.042 A 
ATOM     30  C   UNL A   1      32.898  25.541  23.039  1.00  0.00     0.195 A 
ENDBRANCH  12  26
ENDBRANCH   6   9
ENDBRANCH   4   5
ENDBRANCH   3   4
ENDBRANCH   2   3
ENDBRANCH   1   2
BRANCH   1  31
ATOM     31  C   UNL A   1      41.909  19.674  27.264  1.00  0.00     0.021 C 
BRANCH  31  32
ATOM     32  C   UNL A   1      41.813  19.543  25.749  1.00  0.00     0.116 C 
BRANCH  32  33
ATOM     33  N   UNL A   1      43.081  19.157  25.151  1.00  0.00    -0.352 N 
ATOM     34  C   UNL A   1      44.168  19.940  24.850  1.00  0.00     0.251 C 
ATOM     35  H   UNL A   1      43.174  18.201  24.934  1.00  0.00     0.163 HD
ATOM     36  O   UNL A   1      45.084  19.484  24.168  1.00  0.00    -0.269 OA
BRANCH  34  37
ATOM     37  C   UNL A   1      44.219  21.338  25.327  1.00  0.00     0.039 A 
ATOM     38  C   UNL A   1      44.926  21.629  26.496  1.00  0.00     0.014 A 
ATOM     39  C   UNL A   1      43.580  22.360  24.618  1.00  0.00     0.014 A 
ATOM     40  C   UNL A   1      45.045  22.955  26.919  1.00  0.00     0.010 A 
ATOM     41  C   UNL A   1      43.766  23.686  24.998  1.00  0.00     0.010 A 
ATOM     42  C   UNL A   1      44.498  23.998  26.153  1.00  0.00    -0.014 A 
BRANCH  42  43
ATOM     43  C   UNL A   1      44.702  25.421  26.531  1.00  0.00     0.031 A 
ATOM     44  C   UNL A   1      46.065  26.048  26.432  1.00  0.00     0.074 A 
ATOM     45  C   UNL A   1      43.673  26.122  27.048  1.00  0.00     0.049 A 
ATOM     46  N   UNL A   1      46.443  27.253  26.774  1.00  0.00    -0.248 NA
ATOM     47  C   UNL A   1      47.152  25.207  25.902  1.00  0.00     0.031 C 
ATOM     48  C   UNL A   1      42.320  25.604  27.266  1.00  0.00     0.029 A 
ATOM     49  N   UNL A   1      43.610  27.413  27.513  1.00  0.00    -0.354 N 
ATOM     50  C   UNL A   1      47.812  27.304  26.535  1.00  0.00     0.074 A 
ATOM     51  C   UNL A   1      48.204  26.000  26.049  1.00  0.00     0.031 C 
ATOM     52  C   UNL A   1      41.563  26.566  27.816  1.00  0.00     0.029 A 
ATOM     53  C   UNL A   1      42.381  27.755  28.027  1.00  0.00     0.049 A 
ATOM     54  H   UNL A   1      44.373  28.034  27.481  1.00  0.00     0.167 HD
ATOM     55  C   UNL A   1      48.660  28.349  26.683  1.00  0.00     0.034 A 
ATOM     56  C   UNL A   1      41.962  28.893  28.617  1.00  0.00     0.034 A 
ATOM     57  C   UNL A   1      48.262  29.654  27.137  1.00  0.00     0.049 A 
ATOM     58  C   UNL A   1      42.921  30.044  28.747  1.00  0.00     0.074 A 
ATOM     59  C   UNL A   1      49.030  30.801  27.240  1.00  0.00     0.029 A 
ATOM     60  N   UNL A   1      46.989  29.986  27.578  1.00  0.00    -0.354 N 
ATOM     61  N   UNL A   1      44.174  30.121  28.373  1.00  0.00    -0.248 NA
ATOM     62  C   UNL A   1      42.397  31.280  29.348  1.00  0.00     0.031 C 
ATOM     63  C   UNL A   1      48.232  31.815  27.778  1.00  0.00     0.029 A 
ATOM     64  C   UNL A   1      46.955  31.314  27.968  1.00  0.00     0.049 A 
ATOM     65  H   UNL A   1      46.224  29.368  27.608  1.00  0.00     0.167 HD
ATOM     66  C   UNL A   1      44.578  31.422  28.655  1.00  0.00     0.074 A 
ATOM     67  C   UNL A   1      43.429  32.102  29.215  1.00  0.00     0.031 C 
ATOM     68  C   UNL A   1      45.793  31.996  28.478  1.00  0.00     0.034 A 
BRANCH  55  69
ATOM     69  C   UNL A   1      50.106  28.138  26.312  1.00  0.00     0.023 A 
ATOM     70  C   UNL A   1      50.525  28.350  24.982  1.00  0.00     0.012 A 
ATOM     71  C   UNL A   1      51.061  27.798  27.291  1.00  0.00     0.148 A 
ATOM     72  C   UNL A   1      51.864  28.191  24.626  1.00  0.00     0.002 A 
ATOM     73  C   UNL A   1      52.401  27.689  26.936  1.00  0.00     0.091 A 
ATOM     74  F   UNL A   1      50.641  27.583  28.545  1.00  0.00    -0.205 F 
ATOM     75  C   UNL A   1      52.802  27.873  25.604  1.00  0.00     0.022 A 
BRANCH  73  76
ATOM     76  S   UNL A   1      53.698  27.364  28.137  1.00  0.00     0.127 S 
ATOM     77  O   UNL A   1      53.018  27.672  29.394  1.00  0.00    -0.237 OA
ATOM     78  O   UNL A   1      53.964  25.941  27.920  1.00  0.00    -0.237 OA
ATOM     79  O   UNL A   1      54.800  28.250  27.791  1.00  0.00    -0.744 OA
ENDBRANCH  73  76
ENDBRANCH  55  69
BRANCH  56  80
ATOM     80  C   UNL A   1      40.553  29.013  29.086  1.00  0.00     0.023 A 
ATOM     81  C   UNL A   1      39.532  29.303  28.159  1.00  0.00     0.012 A 
ATOM     82  C   UNL A   1      40.215  28.827  30.440  1.00  0.00     0.148 A 
ATOM     83  C   UNL A   1      38.209  29.442  28.577  1.00  0.00     0.002 A 
ATOM     84  C   UNL A   1      38.887  28.906  30.840  1.00  0.00     0.091 A 
ATOM     85  F   UNL A   1      41.201  28.560  31.309  1.00  0.00    -0.205 F 
ATOM     86  C   UNL A   1      37.885  29.233  29.915  1.00  0.00     0.022 A 
BRANCH  84  87
ATOM     87  S   UNL A   1      38.363  28.519  32.515  1.00  0.00     0.127 S 
ATOM     88  O   UNL A   1      39.272  29.340  33.310  1.00  0.00    -0.237 OA
ATOM     89  O   UNL A   1      36.970  28.970  32.505  1.00  0.00    -0.237 OA
ATOM     90  O   UNL A   1      38.523  27.078  32.657  1.00  0.00    -0.744 OA
ENDBRANCH  84  87
ENDBRANCH  56  80
BRANCH  68  91
ATOM     91  C   UNL A   1      45.941  33.450  28.844  1.00  0.00     0.023 A 
ATOM     92  C   UNL A   1      46.374  33.815  30.134  1.00  0.00     0.012 A 
ATOM     93  C   UNL A   1      45.716  34.454  27.879  1.00  0.00     0.148 A 
ATOM     94  C   UNL A   1      46.546  35.158  30.469  1.00  0.00     0.002 A 
ATOM     95  C   UNL A   1      45.942  35.785  28.205  1.00  0.00     0.091 A 
ATOM     96  F   UNL A   1      45.287  34.087  26.663  1.00  0.00    -0.205 F 
ATOM     97  C   UNL A   1      46.343  36.140  29.503  1.00  0.00     0.022 A 
BRANCH  95  98
ATOM     98  S   UNL A   1      45.803  37.109  26.998  1.00  0.00     0.127 S 
ATOM     99  O   UNL A   1      46.591  38.168  27.627  1.00  0.00    -0.237 OA
ATOM    100  O   UNL A   1      46.419  36.511  25.813  1.00  0.00    -0.237 OA
ATOM    101  O   UNL A   1      44.380  37.385  26.865  1.00  0.00    -0.744 OA
ENDBRANCH  95  98
ENDBRANCH  68  91
ENDBRANCH  42  43
ENDBRANCH  34  37
ENDBRANCH  32  33
ENDBRANCH  31  32
ENDBRANCH   1  31
TORSDOF 19
ENDMDL
