MODEL 1
REMARK VINA RESULT:     -11.6      0.000      0.000
REMARK SMILES CC(C)(C)OC(=O)N1C[C@@H](Oc2cccnc2)C[C@H]1C(=O)NCCCCCCNC(=O)c1ccc(-c2c3nc(c(-c4cccc(S(=O)(=O)[O-])c4F)c4ccc([nH]4)c(-c4cccc(S(=O)(=O)[O-])c4F)c4nc(c(-c5cccc(S(=O)(=O)[O-])c5F)c5ccc2[nH]5)C=C4)C=C3)cc1
REMARK SMILES IDX 25 1 24 2 23 3 22 4 20 5 21 6 19 8 8 9 9 10 10 11 18 12 6 13
REMARK SMILES IDX 7 14 5 15 2 16 1 17 3 18 4 19 11 20 12 21 13 22 17 23 14 24
REMARK SMILES IDX 16 25 15 26 26 27 27 28 28 29 29 30 30 31 31 33 32 34 33 35
REMARK SMILES IDX 94 36 34 37 93 38 35 39 36 40 37 41 87 42 38 43 92 44 86 45
REMARK SMILES IDX 88 46 39 47 91 48 85 49 84 50 40 52 72 53 52 54 71 55 53 56
REMARK SMILES IDX 56 57 70 58 89 59 54 60 55 61 69 63 90 64 57 65 41 66 42 67
REMARK SMILES IDX 50 68 43 69 45 70 51 71 44 72 46 73 47 74 48 75 49 76 73 77
REMARK SMILES IDX 74 78 82 79 75 80 77 81 83 82 76 83 78 84 79 85 80 86 81 87
REMARK SMILES IDX 58 88 59 89 67 90 60 91 62 92 68 93 61 94 63 95 64 96 65 97
REMARK SMILES IDX 66 98
REMARK H PARENT 22 7 29 32 88 51 56 62
REMARK Flexibility Score: inf
ROOT
ATOM      1  C   UNL A   1      31.723  28.633  27.100  1.00  0.00     0.002 C 
ENDROOT
BRANCH   1   2
ATOM      2  C   UNL A   1      32.368  27.275  26.816  1.00  0.00     0.021 C 
BRANCH   2   3
ATOM      3  C   UNL A   1      31.453  26.304  26.075  1.00  0.00     0.116 C 
BRANCH   3   4
ATOM      4  N   UNL A   1      31.226  25.107  26.861  1.00  0.00    -0.354 N 
ATOM      5  C   UNL A   1      31.436  23.790  26.609  1.00  0.00     0.243 C 
ATOM      6  O   UNL A   1      30.975  23.003  27.448  1.00  0.00    -0.273 OA
ATOM      7  H   UNL A   1      30.844  25.285  27.751  1.00  0.00     0.163 HD
BRANCH   5   8
ATOM      8  C   UNL A   1      32.324  23.234  25.466  1.00  0.00     0.181 C 
ATOM      9  N   UNL A   1      33.648  22.707  25.750  1.00  0.00    -0.292 N 
ATOM     10  C   UNL A   1      33.686  21.255  25.702  1.00  0.00     0.169 C 
ATOM     11  C   UNL A   1      32.519  20.880  24.797  1.00  0.00     0.195 C 
ATOM     12  C   UNL A   1      31.566  22.082  24.777  1.00  0.00     0.082 C 
BRANCH   9  13
ATOM     13  C   UNL A   1      34.712  23.551  25.981  1.00  0.00     0.411 C 
ATOM     14  O   UNL A   1      34.586  24.768  25.997  1.00  0.00    -0.224 OA
BRANCH  13  15
ATOM     15  O   UNL A   1      35.858  22.874  26.216  1.00  0.00    -0.444 OA
BRANCH  15  16
ATOM     16  C   UNL A   1      36.997  22.850  25.303  1.00  0.00     0.106 C 
ATOM     17  C   UNL A   1      37.543  21.418  25.392  1.00  0.00     0.056 C 
ATOM     18  C   UNL A   1      38.060  23.819  25.829  1.00  0.00     0.056 C 
ATOM     19  C   UNL A   1      36.678  23.157  23.835  1.00  0.00     0.056 C 
ENDBRANCH  15  16
ENDBRANCH  13  15
ENDBRANCH   9  13
BRANCH  11  20
ATOM     20  O   UNL A   1      31.940  19.595  25.008  1.00  0.00    -0.487 OA
BRANCH  20  21
ATOM     21  C   UNL A   1      32.580  18.419  24.783  1.00  0.00     0.138 A 
ATOM     22  C   UNL A   1      32.956  17.463  25.716  1.00  0.00     0.050 A 
ATOM     23  C   UNL A   1      32.893  18.148  23.453  1.00  0.00     0.157 A 
ATOM     24  C   UNL A   1      33.582  16.285  25.296  1.00  0.00     0.024 A 
ATOM     25  N   UNL A   1      33.500  17.018  23.008  1.00  0.00    -0.261 NA
ATOM     26  C   UNL A   1      33.830  16.110  23.946  1.00  0.00     0.111 A 
ENDBRANCH  20  21
ENDBRANCH  11  20
ENDBRANCH   5   8
ENDBRANCH   3   4
ENDBRANCH   2   3
ENDBRANCH   1   2
BRANCH   1  27
ATOM     27  C   UNL A   1      31.542  29.529  25.868  1.00  0.00     0.002 C 
BRANCH  27  28
ATOM     28  C   UNL A   1      31.694  31.033  26.121  1.00  0.00     0.021 C 
BRANCH  28  29
ATOM     29  C   UNL A   1      32.678  31.395  27.230  1.00  0.00     0.116 C 
BRANCH  29  30
ATOM     30  N   UNL A   1      32.945  32.825  27.262  1.00  0.00    -0.352 N 
ATOM     31  C   UNL A   1      33.919  33.518  27.934  1.00  0.00     0.251 C 
ATOM     32  H   UNL A   1      32.336  33.377  26.721  1.00  0.00     0.163 HD
ATOM     33  O   UNL A   1      33.834  34.737  28.046  1.00  0.00    -0.269 OA
BRANCH  31  34
ATOM     34  C   UNL A   1      35.067  32.797  28.526  1.00  0.00     0.039 A 
ATOM     35  C   UNL A   1      36.357  33.297  28.327  1.00  0.00     0.014 A 
ATOM     36  C   UNL A   1      34.876  31.612  29.243  1.00  0.00     0.014 A 
ATOM     37  C   UNL A   1      37.450  32.634  28.889  1.00  0.00     0.010 A 
ATOM     38  C   UNL A   1      35.959  30.994  29.861  1.00  0.00     0.010 A 
ATOM     39  C   UNL A   1      37.257  31.490  29.682  1.00  0.00    -0.014 A 
BRANCH  39  40
ATOM     40  C   UNL A   1      38.401  30.803  30.336  1.00  0.00     0.031 A 
ATOM     41  C   UNL A   1      38.826  31.193  31.726  1.00  0.00     0.074 A 
ATOM     42  C   UNL A   1      39.109  29.888  29.645  1.00  0.00     0.049 A 
ATOM     43  N   UNL A   1      39.836  30.755  32.431  1.00  0.00    -0.248 NA
ATOM     44  C   UNL A   1      38.030  32.231  32.401  1.00  0.00     0.031 C 
ATOM     45  C   UNL A   1      38.843  29.481  28.264  1.00  0.00     0.029 A 
ATOM     46  N   UNL A   1      40.216  29.157  30.000  1.00  0.00    -0.354 N 
ATOM     47  C   UNL A   1      39.818  31.482  33.616  1.00  0.00     0.074 A 
ATOM     48  C   UNL A   1      38.717  32.417  33.519  1.00  0.00     0.031 C 
ATOM     49  C   UNL A   1      39.761  28.576  27.888  1.00  0.00     0.029 A 
ATOM     50  C   UNL A   1      40.698  28.362  28.986  1.00  0.00     0.049 A 
ATOM     51  H   UNL A   1      40.625  29.199  30.894  1.00  0.00     0.167 HD
ATOM     52  C   UNL A   1      40.624  31.365  34.698  1.00  0.00     0.034 A 
ATOM     53  C   UNL A   1      41.780  27.560  28.942  1.00  0.00     0.034 A 
ATOM     54  C   UNL A   1      41.693  30.409  34.806  1.00  0.00     0.049 A 
ATOM     55  C   UNL A   1      42.638  27.422  30.170  1.00  0.00     0.074 A 
ATOM     56  C   UNL A   1      42.514  30.155  35.890  1.00  0.00     0.029 A 
ATOM     57  N   UNL A   1      42.096  29.555  33.790  1.00  0.00    -0.354 N 
ATOM     58  N   UNL A   1      42.511  28.007  31.335  1.00  0.00    -0.248 NA
ATOM     59  C   UNL A   1      43.766  26.483  30.090  1.00  0.00     0.031 C 
ATOM     60  C   UNL A   1      43.430  29.165  35.522  1.00  0.00     0.029 A 
ATOM     61  C   UNL A   1      43.159  28.780  34.219  1.00  0.00     0.049 A 
ATOM     62  H   UNL A   1      41.686  29.507  32.897  1.00  0.00     0.167 HD
ATOM     63  C   UNL A   1      43.518  27.482  32.138  1.00  0.00     0.074 A 
ATOM     64  C   UNL A   1      44.233  26.516  31.331  1.00  0.00     0.031 C 
ATOM     65  C   UNL A   1      43.829  27.783  33.423  1.00  0.00     0.034 A 
BRANCH  52  66
ATOM     66  C   UNL A   1      40.348  32.261  35.878  1.00  0.00     0.023 A 
ATOM     67  C   UNL A   1      41.130  33.420  36.070  1.00  0.00     0.012 A 
ATOM     68  C   UNL A   1      39.283  31.995  36.760  1.00  0.00     0.148 A 
ATOM     69  C   UNL A   1      40.881  34.277  37.141  1.00  0.00     0.002 A 
ATOM     70  C   UNL A   1      39.010  32.879  37.798  1.00  0.00     0.091 A 
ATOM     71  F   UNL A   1      38.562  30.880  36.573  1.00  0.00    -0.205 F 
ATOM     72  C   UNL A   1      39.816  34.012  37.998  1.00  0.00     0.022 A 
BRANCH  70  73
ATOM     73  S   UNL A   1      37.612  32.672  38.907  1.00  0.00     0.127 S 
ATOM     74  O   UNL A   1      36.483  32.883  38.001  1.00  0.00    -0.237 OA
ATOM     75  O   UNL A   1      37.781  31.291  39.358  1.00  0.00    -0.237 OA
ATOM     76  O   UNL A   1      37.773  33.677  39.949  1.00  0.00    -0.744 OA
ENDBRANCH  70  73
ENDBRANCH  52  66
BRANCH  53  77
ATOM     77  C   UNL A   1      42.081  26.785  27.704  1.00  0.00     0.023 A 
ATOM     78  C   UNL A   1      42.542  27.461  26.558  1.00  0.00     0.012 A 
ATOM     79  C   UNL A   1      41.940  25.386  27.667  1.00  0.00     0.148 A 
ATOM     80  C   UNL A   1      42.822  26.759  25.385  1.00  0.00     0.002 A 
ATOM     81  C   UNL A   1      42.276  24.686  26.514  1.00  0.00     0.091 A 
ATOM     82  F   UNL A   1      41.491  24.762  28.766  1.00  0.00    -0.205 F 
ATOM     83  C   UNL A   1      42.699  25.372  25.366  1.00  0.00     0.022 A 
BRANCH  81  84
ATOM     84  S   UNL A   1      42.278  22.891  26.445  1.00  0.00     0.127 S 
ATOM     85  O   UNL A   1      43.507  22.565  27.163  1.00  0.00    -0.237 OA
ATOM     86  O   UNL A   1      41.042  22.561  27.153  1.00  0.00    -0.237 OA
ATOM     87  O   UNL A   1      42.264  22.553  25.027  1.00  0.00    -0.744 OA
ENDBRANCH  81  84
ENDBRANCH  53  77
BRANCH  65  88
ATOM     88  C   UNL A   1      44.970  27.033  34.060  1.00  0.00     0.023 A 
ATOM     89  C   UNL A   1      46.288  27.517  33.934  1.00  0.00     0.012 A 
ATOM     90  C   UNL A   1      44.725  25.890  34.846  1.00  0.00     0.148 A 
ATOM     91  C   UNL A   1      47.348  26.854  34.554  1.00  0.00     0.002 A 
ATOM     92  C   UNL A   1      45.778  25.265  35.502  1.00  0.00     0.091 A 
ATOM     93  F   UNL A   1      43.467  25.435  34.937  1.00  0.00    -0.205 F 
ATOM     94  C   UNL A   1      47.091  25.738  35.347  1.00  0.00     0.022 A 
BRANCH  92  95
ATOM     95  S   UNL A   1      45.531  23.882  36.621  1.00  0.00     0.127 S 
ATOM     96  O   UNL A   1      46.903  23.573  37.019  1.00  0.00    -0.237 OA
ATOM     97  O   UNL A   1      44.710  24.479  37.675  1.00  0.00    -0.237 OA
ATOM     98  O   UNL A   1      44.859  22.850  35.843  1.00  0.00    -0.744 OA
ENDBRANCH  92  95
ENDBRANCH  65  88
ENDBRANCH  39  40
ENDBRANCH  31  34
ENDBRANCH  29  30
ENDBRANCH  28  29
ENDBRANCH  27  28
ENDBRANCH   1  27
TORSDOF 21
ENDMDL
MODEL 2
REMARK VINA RESULT:     -11.4      5.030     10.684
REMARK SMILES CC(C)(C)OC(=O)N1C[C@@H](Oc2cccnc2)C[C@H]1C(=O)NCCCCCCNC(=O)c1ccc(-c2c3nc(c(-c4cccc(S(=O)(=O)[O-])c4F)c4ccc([nH]4)c(-c4cccc(S(=O)(=O)[O-])c4F)c4nc(c(-c5cccc(S(=O)(=O)[O-])c5F)c5ccc2[nH]5)C=C4)C=C3)cc1
REMARK SMILES IDX 25 1 24 2 23 3 22 4 20 5 21 6 19 8 8 9 9 10 10 11 18 12 6 13
REMARK SMILES IDX 7 14 5 15 2 16 1 17 3 18 4 19 11 20 12 21 13 22 17 23 14 24
REMARK SMILES IDX 16 25 15 26 26 27 27 28 28 29 29 30 30 31 31 33 32 34 33 35
REMARK SMILES IDX 94 36 34 37 93 38 35 39 36 40 37 41 87 42 38 43 92 44 86 45
REMARK SMILES IDX 88 46 39 47 91 48 85 49 84 50 40 52 72 53 52 54 71 55 53 56
REMARK SMILES IDX 56 57 70 58 89 59 54 60 55 61 69 63 90 64 57 65 41 66 42 67
REMARK SMILES IDX 50 68 43 69 45 70 51 71 44 72 46 73 47 74 48 75 49 76 73 77
REMARK SMILES IDX 74 78 82 79 75 80 77 81 83 82 76 83 78 84 79 85 80 86 81 87
REMARK SMILES IDX 58 88 59 89 67 90 60 91 62 92 68 93 61 94 63 95 64 96 65 97
REMARK SMILES IDX 66 98
REMARK H PARENT 22 7 29 32 88 51 56 62
REMARK Flexibility Score: inf
ROOT
ATOM      1  C   UNL A   1      34.433  20.456  24.902  1.00  0.00     0.002 C 
ENDROOT
BRANCH   1   2
ATOM      2  C   UNL A   1      33.090  20.326  25.623  1.00  0.00     0.021 C 
BRANCH   2   3
ATOM      3  C   UNL A   1      31.959  21.108  24.960  1.00  0.00     0.116 C 
BRANCH   3   4
ATOM      4  N   UNL A   1      31.296  21.969  25.918  1.00  0.00    -0.354 N 
ATOM      5  C   UNL A   1      31.456  23.278  26.241  1.00  0.00     0.243 C 
ATOM      6  O   UNL A   1      30.824  23.667  27.233  1.00  0.00    -0.273 OA
ATOM      7  H   UNL A   1      30.591  21.517  26.435  1.00  0.00     0.163 HD
BRANCH   5   8
ATOM      8  C   UNL A   1      32.225  24.317  25.384  1.00  0.00     0.181 C 
ATOM      9  N   UNL A   1      31.510  25.194  24.472  1.00  0.00    -0.292 N 
ATOM     10  C   UNL A   1      31.406  26.552  24.981  1.00  0.00     0.169 C 
ATOM     11  C   UNL A   1      32.578  26.681  25.946  1.00  0.00     0.195 C 
ATOM     12  C   UNL A   1      32.995  25.257  26.333  1.00  0.00     0.082 C 
BRANCH   9  13
ATOM     13  C   UNL A   1      31.054  24.733  23.257  1.00  0.00     0.411 C 
ATOM     14  O   UNL A   1      30.402  23.703  23.155  1.00  0.00    -0.224 OA
BRANCH  13  15
ATOM     15  O   UNL A   1      31.381  25.563  22.242  1.00  0.00    -0.444 OA
BRANCH  15  16
ATOM     16  C   UNL A   1      32.636  25.494  21.499  1.00  0.00     0.106 C 
ATOM     17  C   UNL A   1      33.232  24.126  21.859  1.00  0.00     0.056 C 
ATOM     18  C   UNL A   1      33.567  26.593  22.019  1.00  0.00     0.056 C 
ATOM     19  C   UNL A   1      32.511  25.581  19.973  1.00  0.00     0.056 C 
ENDBRANCH  15  16
ENDBRANCH  13  15
ENDBRANCH   9  13
BRANCH  11  20
ATOM     20  O   UNL A   1      32.428  27.624  27.003  1.00  0.00    -0.487 OA
BRANCH  20  21
ATOM     21  C   UNL A   1      33.229  28.705  27.186  1.00  0.00     0.138 A 
ATOM     22  C   UNL A   1      34.608  28.727  27.338  1.00  0.00     0.050 A 
ATOM     23  C   UNL A   1      32.578  29.936  27.224  1.00  0.00     0.157 A 
ATOM     24  C   UNL A   1      35.276  29.947  27.482  1.00  0.00     0.024 A 
ATOM     25  N   UNL A   1      33.192  31.140  27.364  1.00  0.00    -0.261 NA
ATOM     26  C   UNL A   1      34.532  31.115  27.489  1.00  0.00     0.111 A 
ENDBRANCH  20  21
ENDBRANCH  11  20
ENDBRANCH   5   8
ENDBRANCH   3   4
ENDBRANCH   2   3
ENDBRANCH   1   2
BRANCH   1  27
ATOM     27  C   UNL A   1      34.699  21.834  24.282  1.00  0.00     0.002 C 
BRANCH  27  28
ATOM     28  C   UNL A   1      36.157  22.306  24.328  1.00  0.00     0.021 C 
BRANCH  28  29
ATOM     29  C   UNL A   1      36.751  22.399  25.731  1.00  0.00     0.116 C 
BRANCH  29  30
ATOM     30  N   UNL A   1      37.751  21.367  25.957  1.00  0.00    -0.352 N 
ATOM     31  C   UNL A   1      39.092  21.490  26.213  1.00  0.00     0.251 C 
ATOM     32  H   UNL A   1      37.415  20.442  25.921  1.00  0.00     0.163 HD
ATOM     33  O   UNL A   1      39.824  20.509  26.124  1.00  0.00    -0.269 OA
BRANCH  31  34
ATOM     34  C   UNL A   1      39.657  22.804  26.594  1.00  0.00     0.039 A 
ATOM     35  C   UNL A   1      40.585  22.866  27.636  1.00  0.00     0.014 A 
ATOM     36  C   UNL A   1      39.244  23.973  25.949  1.00  0.00     0.014 A 
ATOM     37  C   UNL A   1      41.135  24.098  27.999  1.00  0.00     0.010 A 
ATOM     38  C   UNL A   1      39.846  25.188  26.264  1.00  0.00     0.010 A 
ATOM     39  C   UNL A   1      40.789  25.266  27.299  1.00  0.00    -0.014 A 
BRANCH  39  40
ATOM     40  C   UNL A   1      41.406  26.576  27.632  1.00  0.00     0.031 A 
ATOM     41  C   UNL A   1      42.830  26.864  27.242  1.00  0.00     0.074 A 
ATOM     42  C   UNL A   1      40.710  27.472  28.359  1.00  0.00     0.049 A 
ATOM     43  N   UNL A   1      43.558  27.919  27.502  1.00  0.00    -0.248 NA
ATOM     44  C   UNL A   1      43.541  25.820  26.486  1.00  0.00     0.031 C 
ATOM     45  C   UNL A   1      39.349  27.277  28.862  1.00  0.00     0.029 A 
ATOM     46  N   UNL A   1      41.062  28.714  28.827  1.00  0.00    -0.354 N 
ATOM     47  C   UNL A   1      44.816  27.656  26.973  1.00  0.00     0.074 A 
ATOM     48  C   UNL A   1      44.763  26.324  26.408  1.00  0.00     0.031 C 
ATOM     49  C   UNL A   1      38.982  28.358  29.570  1.00  0.00     0.029 A 
ATOM     50  C   UNL A   1      40.091  29.308  29.598  1.00  0.00     0.049 A 
ATOM     51  H   UNL A   1      41.929  29.138  28.630  1.00  0.00     0.167 HD
ATOM     52  C   UNL A   1      45.907  28.457  26.933  1.00  0.00     0.034 A 
ATOM     53  C   UNL A   1      40.096  30.480  30.264  1.00  0.00     0.034 A 
ATOM     54  C   UNL A   1      45.943  29.794  27.462  1.00  0.00     0.049 A 
ATOM     55  C   UNL A   1      41.308  31.366  30.173  1.00  0.00     0.074 A 
ATOM     56  C   UNL A   1      46.972  30.716  27.399  1.00  0.00     0.029 A 
ATOM     57  N   UNL A   1      44.907  30.398  28.159  1.00  0.00    -0.354 N 
ATOM     58  N   UNL A   1      42.434  31.161  29.537  1.00  0.00    -0.248 NA
ATOM     59  C   UNL A   1      41.235  32.663  30.862  1.00  0.00     0.031 C 
ATOM     60  C   UNL A   1      46.568  31.869  28.080  1.00  0.00     0.029 A 
ATOM     61  C   UNL A   1      45.275  31.676  28.539  1.00  0.00     0.049 A 
ATOM     62  H   UNL A   1      44.037  29.979  28.353  1.00  0.00     0.167 HD
ATOM     63  C   UNL A   1      43.190  32.314  29.716  1.00  0.00     0.074 A 
ATOM     64  C   UNL A   1      42.383  33.223  30.504  1.00  0.00     0.031 C 
ATOM     65  C   UNL A   1      44.443  32.591  29.278  1.00  0.00     0.034 A 
BRANCH  52  66
ATOM     66  C   UNL A   1      47.141  27.927  26.249  1.00  0.00     0.023 A 
ATOM     67  C   UNL A   1      48.128  27.265  27.009  1.00  0.00     0.012 A 
ATOM     68  C   UNL A   1      47.299  28.030  24.853  1.00  0.00     0.148 A 
ATOM     69  C   UNL A   1      49.268  26.747  26.397  1.00  0.00     0.002 A 
ATOM     70  C   UNL A   1      48.415  27.469  24.244  1.00  0.00     0.091 A 
ATOM     71  F   UNL A   1      46.360  28.679  24.150  1.00  0.00    -0.205 F 
ATOM     72  C   UNL A   1      49.407  26.840  25.015  1.00  0.00     0.022 A 
BRANCH  70  73
ATOM     73  S   UNL A   1      48.648  27.463  22.462  1.00  0.00     0.127 S 
ATOM     74  O   UNL A   1      47.495  28.243  22.012  1.00  0.00    -0.237 OA
ATOM     75  O   UNL A   1      49.936  28.142  22.319  1.00  0.00    -0.237 OA
ATOM     76  O   UNL A   1      48.650  26.063  22.062  1.00  0.00    -0.744 OA
ENDBRANCH  70  73
ENDBRANCH  52  66
BRANCH  53  77
ATOM     77  C   UNL A   1      38.890  30.903  31.030  1.00  0.00     0.023 A 
ATOM     78  C   UNL A   1      38.732  30.482  32.365  1.00  0.00     0.012 A 
ATOM     79  C   UNL A   1      37.917  31.742  30.455  1.00  0.00     0.148 A 
ATOM     80  C   UNL A   1      37.608  30.858  33.101  1.00  0.00     0.002 A 
ATOM     81  C   UNL A   1      36.829  32.162  31.212  1.00  0.00     0.091 A 
ATOM     82  F   UNL A   1      38.080  32.125  29.181  1.00  0.00    -0.205 F 
ATOM     83  C   UNL A   1      36.663  31.706  32.529  1.00  0.00     0.022 A 
BRANCH  81  84
ATOM     84  S   UNL A   1      35.637  33.358  30.602  1.00  0.00     0.127 S 
ATOM     85  O   UNL A   1      36.215  33.726  29.312  1.00  0.00    -0.237 OA
ATOM     86  O   UNL A   1      34.416  32.555  30.526  1.00  0.00    -0.237 OA
ATOM     87  O   UNL A   1      35.595  34.417  31.602  1.00  0.00    -0.744 OA
ENDBRANCH  81  84
ENDBRANCH  53  77
BRANCH  65  88
ATOM     88  C   UNL A   1      45.014  33.947  29.603  1.00  0.00     0.023 A 
ATOM     89  C   UNL A   1      45.841  34.110  30.733  1.00  0.00     0.012 A 
ATOM     90  C   UNL A   1      44.790  35.042  28.745  1.00  0.00     0.148 A 
ATOM     91  C   UNL A   1      46.409  35.352  31.021  1.00  0.00     0.002 A 
ATOM     92  C   UNL A   1      45.401  36.261  29.010  1.00  0.00     0.091 A 
ATOM     93  F   UNL A   1      43.985  34.870  27.687  1.00  0.00    -0.205 F 
ATOM     94  C   UNL A   1      46.199  36.421  30.153  1.00  0.00     0.022 A 
BRANCH  92  95
ATOM     95  S   UNL A   1      45.268  37.666  27.899  1.00  0.00     0.127 S 
ATOM     96  O   UNL A   1      43.867  38.048  28.067  1.00  0.00    -0.237 OA
ATOM     97  O   UNL A   1      46.230  38.608  28.475  1.00  0.00    -0.237 OA
ATOM     98  O   UNL A   1      45.626  37.170  26.577  1.00  0.00    -0.744 OA
ENDBRANCH  92  95
ENDBRANCH  65  88
ENDBRANCH  39  40
ENDBRANCH  31  34
ENDBRANCH  29  30
ENDBRANCH  28  29
ENDBRANCH  27  28
ENDBRANCH   1  27
TORSDOF 21
ENDMDL
MODEL 3
REMARK VINA RESULT:     -11.3      3.185      5.216
REMARK SMILES CC(C)(C)OC(=O)N1C[C@@H](Oc2cccnc2)C[C@H]1C(=O)NCCCCCCNC(=O)c1ccc(-c2c3nc(c(-c4cccc(S(=O)(=O)[O-])c4F)c4ccc([nH]4)c(-c4cccc(S(=O)(=O)[O-])c4F)c4nc(c(-c5cccc(S(=O)(=O)[O-])c5F)c5ccc2[nH]5)C=C4)C=C3)cc1
REMARK SMILES IDX 25 1 24 2 23 3 22 4 20 5 21 6 19 8 8 9 9 10 10 11 18 12 6 13
REMARK SMILES IDX 7 14 5 15 2 16 1 17 3 18 4 19 11 20 12 21 13 22 17 23 14 24
REMARK SMILES IDX 16 25 15 26 26 27 27 28 28 29 29 30 30 31 31 33 32 34 33 35
REMARK SMILES IDX 94 36 34 37 93 38 35 39 36 40 37 41 87 42 38 43 92 44 86 45
REMARK SMILES IDX 88 46 39 47 91 48 85 49 84 50 40 52 72 53 52 54 71 55 53 56
REMARK SMILES IDX 56 57 70 58 89 59 54 60 55 61 69 63 90 64 57 65 41 66 42 67
REMARK SMILES IDX 50 68 43 69 45 70 51 71 44 72 46 73 47 74 48 75 49 76 73 77
REMARK SMILES IDX 74 78 82 79 75 80 77 81 83 82 76 83 78 84 79 85 80 86 81 87
REMARK SMILES IDX 58 88 59 89 67 90 60 91 62 92 68 93 61 94 63 95 64 96 65 97
REMARK SMILES IDX 66 98
REMARK H PARENT 22 7 29 32 88 51 56 62
REMARK Flexibility Score: inf
ROOT
ATOM      1  C   UNL A   1      34.868  31.477  28.228  1.00  0.00     0.002 C 
ENDROOT
BRANCH   1   2
ATOM      2  C   UNL A   1      35.638  30.261  27.712  1.00  0.00     0.021 C 
BRANCH   2   3
ATOM      3  C   UNL A   1      34.775  29.272  26.934  1.00  0.00     0.116 C 
BRANCH   3   4
ATOM      4  N   UNL A   1      33.500  29.866  26.581  1.00  0.00    -0.354 N 
ATOM      5  C   UNL A   1      32.627  29.631  25.569  1.00  0.00     0.243 C 
ATOM      6  O   UNL A   1      31.693  30.439  25.467  1.00  0.00    -0.273 OA
ATOM      7  H   UNL A   1      33.212  30.578  27.197  1.00  0.00     0.163 HD
BRANCH   5   8
ATOM      8  C   UNL A   1      32.631  28.371  24.665  1.00  0.00     0.181 C 
ATOM      9  N   UNL A   1      31.782  27.235  24.979  1.00  0.00    -0.292 N 
ATOM     10  C   UNL A   1      30.627  27.150  24.100  1.00  0.00     0.169 C 
ATOM     11  C   UNL A   1      31.061  27.891  22.840  1.00  0.00     0.195 C 
ATOM     12  C   UNL A   1      32.235  28.794  23.237  1.00  0.00     0.082 C 
BRANCH   9  13
ATOM     13  C   UNL A   1      32.121  26.351  25.979  1.00  0.00     0.411 C 
ATOM     14  O   UNL A   1      31.337  26.039  26.866  1.00  0.00    -0.224 OA
BRANCH  13  15
ATOM     15  O   UNL A   1      33.374  25.866  25.828  1.00  0.00    -0.444 OA
BRANCH  15  16
ATOM     16  C   UNL A   1      33.683  24.465  25.558  1.00  0.00     0.106 C 
ATOM     17  C   UNL A   1      35.173  24.455  25.189  1.00  0.00     0.056 C 
ATOM     18  C   UNL A   1      32.868  24.014  24.344  1.00  0.00     0.056 C 
ATOM     19  C   UNL A   1      33.469  23.500  26.731  1.00  0.00     0.056 C 
ENDBRANCH  15  16
ENDBRANCH  13  15
ENDBRANCH   9  13
BRANCH  11  20
ATOM     20  O   UNL A   1      30.023  28.478  22.061  1.00  0.00    -0.487 OA
BRANCH  20  21
ATOM     21  C   UNL A   1      29.212  29.478  22.493  1.00  0.00     0.138 A 
ATOM     22  C   UNL A   1      29.492  30.836  22.555  1.00  0.00     0.050 A 
ATOM     23  C   UNL A   1      27.947  29.084  22.924  1.00  0.00     0.157 A 
ATOM     24  C   UNL A   1      28.515  31.732  22.998  1.00  0.00     0.024 A 
ATOM     25  N   UNL A   1      26.974  29.924  23.362  1.00  0.00    -0.261 NA
ATOM     26  C   UNL A   1      27.284  31.234  23.387  1.00  0.00     0.111 A 
ENDBRANCH  20  21
ENDBRANCH  11  20
ENDBRANCH   5   8
ENDBRANCH   3   4
ENDBRANCH   2   3
ENDBRANCH   1   2
BRANCH   1  27
ATOM     27  C   UNL A   1      35.567  32.825  28.003  1.00  0.00     0.002 C 
BRANCH  27  28
ATOM     28  C   UNL A   1      34.635  34.034  27.864  1.00  0.00     0.021 C 
BRANCH  28  29
ATOM     29  C   UNL A   1      33.259  33.853  28.500  1.00  0.00     0.116 C 
BRANCH  29  30
ATOM     30  N   UNL A   1      33.010  34.851  29.529  1.00  0.00    -0.352 N 
ATOM     31  C   UNL A   1      33.529  34.950  30.795  1.00  0.00     0.251 C 
ATOM     32  H   UNL A   1      32.375  35.560  29.280  1.00  0.00     0.163 HD
ATOM     33  O   UNL A   1      33.012  35.710  31.608  1.00  0.00    -0.269 OA
BRANCH  31  34
ATOM     34  C   UNL A   1      34.705  34.140  31.180  1.00  0.00     0.039 A 
ATOM     35  C   UNL A   1      35.984  34.658  30.963  1.00  0.00     0.014 A 
ATOM     36  C   UNL A   1      34.547  32.860  31.718  1.00  0.00     0.014 A 
ATOM     37  C   UNL A   1      37.105  33.910  31.331  1.00  0.00     0.010 A 
ATOM     38  C   UNL A   1      35.662  32.147  32.150  1.00  0.00     0.010 A 
ATOM     39  C   UNL A   1      36.952  32.658  31.951  1.00  0.00    -0.014 A 
BRANCH  39  40
ATOM     40  C   UNL A   1      38.129  31.872  32.403  1.00  0.00     0.031 A 
ATOM     41  C   UNL A   1      38.813  32.209  33.701  1.00  0.00     0.074 A 
ATOM     42  C   UNL A   1      38.633  30.912  31.604  1.00  0.00     0.049 A 
ATOM     43  N   UNL A   1      39.888  31.681  34.226  1.00  0.00    -0.248 NA
ATOM     44  C   UNL A   1      38.230  33.298  34.500  1.00  0.00     0.031 C 
ATOM     45  C   UNL A   1      38.106  30.545  30.287  1.00  0.00     0.029 A 
ATOM     46  N   UNL A   1      39.719  30.088  31.767  1.00  0.00    -0.354 N 
ATOM     47  C   UNL A   1      40.129  32.391  35.396  1.00  0.00     0.074 A 
ATOM     48  C   UNL A   1      39.109  33.413  35.485  1.00  0.00     0.031 C 
ATOM     49  C   UNL A   1      38.869  29.574  29.762  1.00  0.00     0.029 A 
ATOM     50  C   UNL A   1      39.958  29.270  30.687  1.00  0.00     0.049 A 
ATOM     51  H   UNL A   1      40.276  30.085  32.579  1.00  0.00     0.167 HD
ATOM     52  C   UNL A   1      41.094  32.195  36.326  1.00  0.00     0.034 A 
ATOM     53  C   UNL A   1      40.947  28.384  30.461  1.00  0.00     0.034 A 
ATOM     54  C   UNL A   1      42.083  31.154  36.253  1.00  0.00     0.049 A 
ATOM     55  C   UNL A   1      41.985  28.160  31.527  1.00  0.00     0.074 A 
ATOM     56  C   UNL A   1      43.051  30.820  37.183  1.00  0.00     0.029 A 
ATOM     57  N   UNL A   1      42.238  30.283  35.185  1.00  0.00    -0.354 N 
ATOM     58  N   UNL A   1      42.105  28.739  32.696  1.00  0.00    -0.248 NA
ATOM     59  C   UNL A   1      43.003  27.134  31.258  1.00  0.00     0.031 C 
ATOM     60  C   UNL A   1      43.808  29.764  36.667  1.00  0.00     0.029 A 
ATOM     61  C   UNL A   1      43.291  29.419  35.428  1.00  0.00     0.049 A 
ATOM     62  H   UNL A   1      41.681  30.280  34.373  1.00  0.00     0.167 HD
ATOM     63  C   UNL A   1      43.186  28.124  33.318  1.00  0.00     0.074 A 
ATOM     64  C   UNL A   1      43.673  27.113  32.403  1.00  0.00     0.031 C 
ATOM     65  C   UNL A   1      43.733  28.381  34.531  1.00  0.00     0.034 A 
BRANCH  52  66
ATOM     66  C   UNL A   1      41.095  33.095  37.535  1.00  0.00     0.023 A 
ATOM     67  C   UNL A   1      40.314  32.753  38.659  1.00  0.00     0.012 A 
ATOM     68  C   UNL A   1      41.910  34.243  37.586  1.00  0.00     0.148 A 
ATOM     69  C   UNL A   1      40.315  33.557  39.798  1.00  0.00     0.002 A 
ATOM     70  C   UNL A   1      41.942  35.014  38.743  1.00  0.00     0.091 A 
ATOM     71  F   UNL A   1      42.631  34.564  36.502  1.00  0.00    -0.205 F 
ATOM     72  C   UNL A   1      41.136  34.680  39.843  1.00  0.00     0.022 A 
BRANCH  70  73
ATOM     73  S   UNL A   1      43.026  36.435  38.932  1.00  0.00     0.127 S 
ATOM     74  O   UNL A   1      44.344  35.799  38.954  1.00  0.00    -0.237 OA
ATOM     75  O   UNL A   1      42.740  37.203  37.720  1.00  0.00    -0.237 OA
ATOM     76  O   UNL A   1      42.625  37.083  40.173  1.00  0.00    -0.744 OA
ENDBRANCH  70  73
ENDBRANCH  52  66
BRANCH  53  77
ATOM     77  C   UNL A   1      40.970  27.603  29.191  1.00  0.00     0.023 A 
ATOM     78  C   UNL A   1      40.118  26.491  29.045  1.00  0.00     0.012 A 
ATOM     79  C   UNL A   1      41.807  27.973  28.123  1.00  0.00     0.148 A 
ATOM     80  C   UNL A   1      40.126  25.740  27.869  1.00  0.00     0.002 A 
ATOM     81  C   UNL A   1      41.769  27.256  26.932  1.00  0.00     0.091 A 
ATOM     82  F   UNL A   1      42.617  29.029  28.285  1.00  0.00    -0.205 F 
ATOM     83  C   UNL A   1      40.943  26.128  26.810  1.00  0.00     0.022 A 
BRANCH  81  84
ATOM     84  S   UNL A   1      42.684  27.764  25.473  1.00  0.00     0.127 S 
ATOM     85  O   UNL A   1      42.572  26.583  24.623  1.00  0.00    -0.237 OA
ATOM     86  O   UNL A   1      41.914  28.924  25.024  1.00  0.00    -0.237 OA
ATOM     87  O   UNL A   1      44.026  28.083  25.943  1.00  0.00    -0.744 OA
ENDBRANCH  81  84
ENDBRANCH  53  77
BRANCH  65  88
ATOM     88  C   UNL A   1      44.899  27.533  34.967  1.00  0.00     0.023 A 
ATOM     89  C   UNL A   1      46.216  28.006  34.798  1.00  0.00     0.012 A 
ATOM     90  C   UNL A   1      44.685  26.299  35.613  1.00  0.00     0.148 A 
ATOM     91  C   UNL A   1      47.302  27.248  35.235  1.00  0.00     0.002 A 
ATOM     92  C   UNL A   1      45.769  25.574  36.091  1.00  0.00     0.091 A 
ATOM     93  F   UNL A   1      43.426  25.859  35.747  1.00  0.00    -0.205 F 
ATOM     94  C   UNL A   1      47.078  26.040  35.892  1.00  0.00     0.022 A 
BRANCH  92  95
ATOM     95  S   UNL A   1      45.573  24.058  37.034  1.00  0.00     0.127 S 
ATOM     96  O   UNL A   1      46.961  23.720  37.346  1.00  0.00    -0.237 OA
ATOM     97  O   UNL A   1      44.783  24.507  38.181  1.00  0.00    -0.237 OA
ATOM     98  O   UNL A   1      44.885  23.123  36.155  1.00  0.00    -0.744 OA
ENDBRANCH  92  95
ENDBRANCH  65  88
ENDBRANCH  39  40
ENDBRANCH  31  34
ENDBRANCH  29  30
ENDBRANCH  28  29
ENDBRANCH  27  28
ENDBRANCH   1  27
TORSDOF 21
ENDMDL
