MODEL 1
REMARK VINA RESULT:     -11.1      0.000      0.000
REMARK SMILES CC(C)CCn1nc(C(=O)NCCCCCCNC(=O)c2ccc(-c3c4nc(c(-c5cccc(S(=O)(=O)[O-])c5F)c5ccc([nH]5)c(-c5cccc(S(=O)(=O)[O-])c5F)c5nc(c(-c6cccc(S(=O)(=O)[O-])c6F)c6ccc3[nH]6)C=C5)C=C4)cc2)c2c1CCN(C(=O)[C@@H]1CCc3nn(C)c(=O)n3C1)C2
REMARK SMILES IDX 14 1 13 2 12 3 11 4 9 5 10 6 8 8 6 9 7 10 85 11 84 12 86 13
REMARK SMILES IDX 102 14 87 15 88 16 5 17 4 18 2 19 1 20 3 21 89 22 90 23
REMARK SMILES IDX 91 24 92 25 101 26 93 27 100 28 94 29 98 30 95 31 96 32
REMARK SMILES IDX 99 33 97 34 15 35 16 36 17 37 18 38 19 39 20 41 21 42 22 43
REMARK SMILES IDX 83 44 23 45 82 46 24 47 25 48 26 49 76 50 27 51 81 52 75 53
REMARK SMILES IDX 77 54 28 55 80 56 74 57 73 58 29 60 61 61 41 62 60 63 42 64
REMARK SMILES IDX 45 65 59 66 78 67 43 68 44 69 58 71 79 72 46 73 30 74 31 75
REMARK SMILES IDX 39 76 32 77 34 78 40 79 33 80 35 81 36 82 37 83 38 84 62 85
REMARK SMILES IDX 63 86 71 87 64 88 66 89 72 90 65 91 67 92 68 93 69 94 70 95
REMARK SMILES IDX 47 96 48 97 56 98 49 99 51 100 57 101 50 102 52 103 53 104
REMARK SMILES IDX 54 105 55 106
REMARK H PARENT 11 7 18 40 77 59 45 70
REMARK Flexibility Score: inf
ROOT
ATOM      1  C   UNL A   1      38.726  28.974  28.073  1.00  0.00     0.002 C 
ENDROOT
BRANCH   1   2
ATOM      2  C   UNL A   1      39.473  27.954  28.925  1.00  0.00     0.021 C 
BRANCH   2   3
ATOM      3  C   UNL A   1      39.562  26.535  28.331  1.00  0.00     0.116 C 
BRANCH   3   4
ATOM      4  N   UNL A   1      40.464  26.475  27.192  1.00  0.00    -0.351 N 
ATOM      5  C   UNL A   1      40.790  25.523  26.248  1.00  0.00     0.272 C 
ATOM      6  O   UNL A   1      41.430  25.967  25.287  1.00  0.00    -0.267 OA
ATOM      7  H   UNL A   1      40.961  27.316  27.063  1.00  0.00     0.163 HD
BRANCH   5   8
ATOM      8  C   UNL A   1      40.378  24.099  26.318  1.00  0.00     0.155 A 
ATOM      9  N   UNL A   1      40.667  21.967  26.584  1.00  0.00    -0.268 N 
ATOM     10  N   UNL A   1      41.329  23.148  26.510  1.00  0.00    -0.167 NA
ATOM     11  C   UNL A   1      39.391  22.119  26.148  1.00  0.00     0.046 A 
ATOM     12  C   UNL A   1      39.108  23.465  26.249  1.00  0.00     0.026 A 
ATOM     13  C   UNL A   1      38.394  21.132  25.684  1.00  0.00     0.078 C 
ATOM     14  C   UNL A   1      37.721  23.987  26.149  1.00  0.00     0.159 C 
ATOM     15  C   UNL A   1      37.222  21.883  25.054  1.00  0.00     0.126 C 
ATOM     16  N   UNL A   1      36.726  22.935  25.928  1.00  0.00    -0.338 N 
BRANCH   9  17
ATOM     17  C   UNL A   1      41.407  20.814  27.078  1.00  0.00     0.145 C 
BRANCH  17  18
ATOM     18  C   UNL A   1      42.827  20.515  26.551  1.00  0.00     0.027 C 
BRANCH  18  19
ATOM     19  C   UNL A   1      43.009  19.207  25.758  1.00  0.00    -0.016 C 
ATOM     20  C   UNL A   1      44.114  19.241  24.711  1.00  0.00     0.007 C 
ATOM     21  C   UNL A   1      43.142  17.999  26.686  1.00  0.00     0.007 C 
ENDBRANCH  18  19
ENDBRANCH  17  18
ENDBRANCH   9  17
BRANCH  16  22
ATOM     22  C   UNL A   1      35.404  23.289  26.142  1.00  0.00     0.227 C 
ATOM     23  O   UNL A   1      34.931  23.161  27.282  1.00  0.00    -0.274 OA
BRANCH  22  24
ATOM     24  C   UNL A   1      34.470  23.851  25.050  1.00  0.00     0.099 C 
ATOM     25  C   UNL A   1      34.104  25.333  25.160  1.00  0.00     0.023 C 
ATOM     26  C   UNL A   1      33.271  22.987  24.685  1.00  0.00     0.142 C 
ATOM     27  C   UNL A   1      32.891  25.633  26.027  1.00  0.00     0.078 C 
ATOM     28  N   UNL A   1      32.051  23.401  25.341  1.00  0.00    -0.278 N 
ATOM     29  C   UNL A   1      31.847  24.557  26.006  1.00  0.00     0.133 A 
ATOM     30  C   UNL A   1      31.029  22.559  25.707  1.00  0.00     0.345 A 
ATOM     31  N   UNL A   1      30.782  24.567  26.760  1.00  0.00    -0.155 NA
ATOM     32  N   UNL A   1      30.240  23.314  26.580  1.00  0.00    -0.216 N 
ATOM     33  O   UNL A   1      30.926  21.367  25.466  1.00  0.00    -0.246 OA
ATOM     34  C   UNL A   1      29.226  22.782  27.445  1.00  0.00     0.179 C 
ENDBRANCH  22  24
ENDBRANCH  16  22
ENDBRANCH   5   8
ENDBRANCH   3   4
ENDBRANCH   2   3
ENDBRANCH   1   2
BRANCH   1  35
ATOM     35  C   UNL A   1      37.521  29.627  28.771  1.00  0.00     0.002 C 
BRANCH  35  36
ATOM     36  C   UNL A   1      36.498  30.355  27.880  1.00  0.00     0.021 C 
BRANCH  36  37
ATOM     37  C   UNL A   1      35.065  30.271  28.384  1.00  0.00     0.116 C 
BRANCH  37  38
ATOM     38  N   UNL A   1      34.539  31.573  28.808  1.00  0.00    -0.352 N 
ATOM     39  C   UNL A   1      34.853  32.299  29.938  1.00  0.00     0.251 C 
ATOM     40  H   UNL A   1      33.875  31.983  28.207  1.00  0.00     0.163 HD
ATOM     41  O   UNL A   1      34.118  33.212  30.320  1.00  0.00    -0.269 OA
BRANCH  39  42
ATOM     42  C   UNL A   1      36.078  31.966  30.681  1.00  0.00     0.039 A 
ATOM     43  C   UNL A   1      37.263  32.684  30.512  1.00  0.00     0.014 A 
ATOM     44  C   UNL A   1      36.011  30.921  31.597  1.00  0.00     0.014 A 
ATOM     45  C   UNL A   1      38.347  32.382  31.332  1.00  0.00     0.010 A 
ATOM     46  C   UNL A   1      36.995  30.769  32.535  1.00  0.00     0.010 A 
ATOM     47  C   UNL A   1      38.195  31.436  32.362  1.00  0.00    -0.014 A 
BRANCH  47  48
ATOM     48  C   UNL A   1      39.255  31.197  33.331  1.00  0.00     0.031 A 
ATOM     49  C   UNL A   1      39.200  32.089  34.514  1.00  0.00     0.074 A 
ATOM     50  C   UNL A   1      40.130  30.171  33.249  1.00  0.00     0.049 A 
ATOM     51  N   UNL A   1      39.961  33.107  34.736  1.00  0.00    -0.248 NA
ATOM     52  C   UNL A   1      38.078  31.965  35.454  1.00  0.00     0.031 C 
ATOM     53  C   UNL A   1      40.151  29.059  32.287  1.00  0.00     0.029 A 
ATOM     54  N   UNL A   1      41.144  29.845  34.096  1.00  0.00    -0.354 N 
ATOM     55  C   UNL A   1      39.582  33.595  35.980  1.00  0.00     0.074 A 
ATOM     56  C   UNL A   1      38.304  32.998  36.271  1.00  0.00     0.031 C 
ATOM     57  C   UNL A   1      40.953  28.073  32.746  1.00  0.00     0.029 A 
ATOM     58  C   UNL A   1      41.647  28.560  33.919  1.00  0.00     0.049 A 
ATOM     59  H   UNL A   1      41.492  30.467  34.775  1.00  0.00     0.167 HD
ATOM     60  C   UNL A   1      40.484  34.241  36.769  1.00  0.00     0.034 A 
ATOM     61  C   UNL A   1      42.572  27.938  34.688  1.00  0.00     0.034 A 
ATOM     62  C   UNL A   1      41.683  34.561  36.031  1.00  0.00     0.049 A 
ATOM     63  C   UNL A   1      43.359  29.001  35.347  1.00  0.00     0.074 A 
ATOM     64  C   UNL A   1      41.992  35.344  34.938  1.00  0.00     0.029 A 
ATOM     65  N   UNL A   1      42.727  33.681  36.185  1.00  0.00    -0.354 N 
ATOM     66  N   UNL A   1      44.117  29.833  34.688  1.00  0.00    -0.248 NA
ATOM     67  C   UNL A   1      42.971  29.428  36.679  1.00  0.00     0.031 C 
ATOM     68  C   UNL A   1      43.000  34.618  34.236  1.00  0.00     0.029 A 
ATOM     69  C   UNL A   1      43.301  33.463  34.962  1.00  0.00     0.049 A 
ATOM     70  H   UNL A   1      43.014  33.274  37.034  1.00  0.00     0.167 HD
ATOM     71  C   UNL A   1      43.894  31.056  35.304  1.00  0.00     0.074 A 
ATOM     72  C   UNL A   1      43.303  30.720  36.599  1.00  0.00     0.031 C 
ATOM     73  C   UNL A   1      43.939  32.218  34.586  1.00  0.00     0.034 A 
BRANCH  60  74
ATOM     74  C   UNL A   1      40.500  34.218  38.280  1.00  0.00     0.023 A 
ATOM     75  C   UNL A   1      41.001  33.049  38.897  1.00  0.00     0.012 A 
ATOM     76  C   UNL A   1      39.791  35.124  39.101  1.00  0.00     0.148 A 
ATOM     77  C   UNL A   1      40.750  32.763  40.243  1.00  0.00     0.002 A 
ATOM     78  C   UNL A   1      39.599  34.867  40.454  1.00  0.00     0.091 A 
ATOM     79  F   UNL A   1      39.178  36.179  38.559  1.00  0.00    -0.205 F 
ATOM     80  C   UNL A   1      40.050  33.674  41.023  1.00  0.00     0.022 A 
BRANCH  78  81
ATOM     81  S   UNL A   1      38.720  36.019  41.518  1.00  0.00     0.127 S 
ATOM     82  O   UNL A   1      39.651  36.149  42.636  1.00  0.00    -0.237 OA
ATOM     83  O   UNL A   1      38.615  37.196  40.656  1.00  0.00    -0.237 OA
ATOM     84  O   UNL A   1      37.444  35.383  41.823  1.00  0.00    -0.744 OA
ENDBRANCH  78  81
ENDBRANCH  60  74
BRANCH  61  85
ATOM     85  C   UNL A   1      42.659  26.517  35.086  1.00  0.00     0.023 A 
ATOM     86  C   UNL A   1      41.597  25.911  35.786  1.00  0.00     0.012 A 
ATOM     87  C   UNL A   1      43.650  25.686  34.518  1.00  0.00     0.148 A 
ATOM     88  C   UNL A   1      41.510  24.516  35.890  1.00  0.00     0.002 A 
ATOM     89  C   UNL A   1      43.556  24.302  34.620  1.00  0.00     0.091 A 
ATOM     90  F   UNL A   1      44.630  26.253  33.803  1.00  0.00    -0.205 F 
ATOM     91  C   UNL A   1      42.482  23.712  35.298  1.00  0.00     0.022 A 
BRANCH  89  92
ATOM     92  S   UNL A   1      44.740  23.197  33.837  1.00  0.00     0.127 S 
ATOM     93  O   UNL A   1      44.470  23.428  32.418  1.00  0.00    -0.237 OA
ATOM     94  O   UNL A   1      46.014  23.729  34.313  1.00  0.00    -0.237 OA
ATOM     95  O   UNL A   1      44.415  21.856  34.307  1.00  0.00    -0.744 OA
ENDBRANCH  89  92
ENDBRANCH  61  85
BRANCH  73  96
ATOM     96  C   UNL A   1      44.502  32.147  33.184  1.00  0.00     0.023 A 
ATOM     97  C   UNL A   1      45.888  32.133  32.922  1.00  0.00     0.012 A 
ATOM     98  C   UNL A   1      43.611  31.941  32.118  1.00  0.00     0.148 A 
ATOM     99  C   UNL A   1      46.374  31.945  31.624  1.00  0.00     0.002 A 
ATOM    100  C   UNL A   1      44.097  31.713  30.836  1.00  0.00     0.091 A 
ATOM    101  F   UNL A   1      42.296  31.946  32.386  1.00  0.00    -0.205 F 
ATOM    102  C   UNL A   1      45.477  31.725  30.582  1.00  0.00     0.022 A 
BRANCH 100 103
ATOM    103  S   UNL A   1      43.006  31.310  29.472  1.00  0.00     0.127 S 
ATOM    104  O   UNL A   1      42.896  29.857  29.588  1.00  0.00    -0.237 OA
ATOM    105  O   UNL A   1      41.789  32.046  29.817  1.00  0.00    -0.237 OA
ATOM    106  O   UNL A   1      43.671  31.789  28.266  1.00  0.00    -0.744 OA
ENDBRANCH 100 103
ENDBRANCH  73  96
ENDBRANCH  47  48
ENDBRANCH  39  42
ENDBRANCH  37  38
ENDBRANCH  36  37
ENDBRANCH  35  36
ENDBRANCH   1  35
TORSDOF 21
ENDMDL
MODEL 2
REMARK VINA RESULT:     -11.0      6.885     13.809
REMARK SMILES CC(C)CCn1nc(C(=O)NCCCCCCNC(=O)c2ccc(-c3c4nc(c(-c5cccc(S(=O)(=O)[O-])c5F)c5ccc([nH]5)c(-c5cccc(S(=O)(=O)[O-])c5F)c5nc(c(-c6cccc(S(=O)(=O)[O-])c6F)c6ccc3[nH]6)C=C5)C=C4)cc2)c2c1CCN(C(=O)[C@@H]1CCc3nn(C)c(=O)n3C1)C2
REMARK SMILES IDX 14 1 13 2 12 3 11 4 9 5 10 6 8 8 6 9 7 10 85 11 84 12 86 13
REMARK SMILES IDX 102 14 87 15 88 16 5 17 4 18 2 19 1 20 3 21 89 22 90 23
REMARK SMILES IDX 91 24 92 25 101 26 93 27 100 28 94 29 98 30 95 31 96 32
REMARK SMILES IDX 99 33 97 34 15 35 16 36 17 37 18 38 19 39 20 41 21 42 22 43
REMARK SMILES IDX 83 44 23 45 82 46 24 47 25 48 26 49 76 50 27 51 81 52 75 53
REMARK SMILES IDX 77 54 28 55 80 56 74 57 73 58 29 60 61 61 41 62 60 63 42 64
REMARK SMILES IDX 45 65 59 66 78 67 43 68 44 69 58 71 79 72 46 73 30 74 31 75
REMARK SMILES IDX 39 76 32 77 34 78 40 79 33 80 35 81 36 82 37 83 38 84 62 85
REMARK SMILES IDX 63 86 71 87 64 88 66 89 72 90 65 91 67 92 68 93 69 94 70 95
REMARK SMILES IDX 47 96 48 97 56 98 49 99 51 100 57 101 50 102 52 103 53 104
REMARK SMILES IDX 54 105 55 106
REMARK H PARENT 11 7 18 40 77 59 45 70
REMARK Flexibility Score: inf
ROOT
ATOM      1  C   UNL A   1      46.354  23.577  34.863  1.00  0.00     0.002 C 
ENDROOT
BRANCH   1   2
ATOM      2  C   UNL A   1      45.691  22.381  34.188  1.00  0.00     0.021 C 
BRANCH   2   3
ATOM      3  C   UNL A   1      44.938  21.424  35.132  1.00  0.00     0.116 C 
BRANCH   3   4
ATOM      4  N   UNL A   1      45.201  20.028  34.819  1.00  0.00    -0.351 N 
ATOM      5  C   UNL A   1      45.528  18.904  35.549  1.00  0.00     0.272 C 
ATOM      6  O   UNL A   1      45.418  17.846  34.918  1.00  0.00    -0.267 OA
ATOM      7  H   UNL A   1      45.128  19.841  33.854  1.00  0.00     0.163 HD
BRANCH   5   8
ATOM      8  C   UNL A   1      45.925  18.920  36.979  1.00  0.00     0.155 A 
ATOM      9  N   UNL A   1      46.973  19.643  38.733  1.00  0.00    -0.268 N 
ATOM     10  N   UNL A   1      46.850  19.823  37.395  1.00  0.00    -0.167 NA
ATOM     11  C   UNL A   1      46.388  18.476  39.103  1.00  0.00     0.046 A 
ATOM     12  C   UNL A   1      45.497  18.158  38.100  1.00  0.00     0.026 A 
ATOM     13  C   UNL A   1      46.546  17.647  40.316  1.00  0.00     0.078 C 
ATOM     14  C   UNL A   1      44.455  17.114  38.275  1.00  0.00     0.159 C 
ATOM     15  C   UNL A   1      45.854  16.305  40.081  1.00  0.00     0.126 C 
ATOM     16  N   UNL A   1      44.494  16.479  39.595  1.00  0.00    -0.338 N 
BRANCH   9  17
ATOM     17  C   UNL A   1      47.680  20.671  39.485  1.00  0.00     0.145 C 
BRANCH  17  18
ATOM     18  C   UNL A   1      49.196  20.541  39.747  1.00  0.00     0.027 C 
BRANCH  18  19
ATOM     19  C   UNL A   1      50.123  21.435  38.902  1.00  0.00    -0.016 C 
ATOM     20  C   UNL A   1      51.193  22.177  39.692  1.00  0.00     0.007 C 
ATOM     21  C   UNL A   1      50.718  20.670  37.718  1.00  0.00     0.007 C 
ENDBRANCH  18  19
ENDBRANCH  17  18
ENDBRANCH   9  17
BRANCH  16  22
ATOM     22  C   UNL A   1      43.379  15.740  39.951  1.00  0.00     0.227 C 
ATOM     23  O   UNL A   1      42.992  14.840  39.189  1.00  0.00    -0.274 OA
BRANCH  22  24
ATOM     24  C   UNL A   1      42.580  15.951  41.254  1.00  0.00     0.099 C 
ATOM     25  C   UNL A   1      43.374  16.427  42.473  1.00  0.00     0.023 C 
ATOM     26  C   UNL A   1      41.579  14.860  41.610  1.00  0.00     0.142 C 
ATOM     27  C   UNL A   1      43.998  15.320  43.307  1.00  0.00     0.078 C 
ATOM     28  N   UNL A   1      42.087  13.914  42.577  1.00  0.00    -0.278 N 
ATOM     29  C   UNL A   1      43.202  14.049  43.326  1.00  0.00     0.133 A 
ATOM     30  C   UNL A   1      41.737  12.587  42.640  1.00  0.00     0.345 A 
ATOM     31  N   UNL A   1      43.611  12.946  43.890  1.00  0.00    -0.155 NA
ATOM     32  N   UNL A   1      42.693  12.005  43.479  1.00  0.00    -0.216 N 
ATOM     33  O   UNL A   1      40.891  12.010  41.977  1.00  0.00    -0.246 OA
ATOM     34  C   UNL A   1      42.920  10.595  43.618  1.00  0.00     0.179 C 
ENDBRANCH  22  24
ENDBRANCH  16  22
ENDBRANCH   5   8
ENDBRANCH   3   4
ENDBRANCH   2   3
ENDBRANCH   1   2
BRANCH   1  35
ATOM     35  C   UNL A   1      47.324  23.211  35.998  1.00  0.00     0.002 C 
BRANCH  35  36
ATOM     36  C   UNL A   1      48.821  23.492  35.766  1.00  0.00     0.021 C 
BRANCH  36  37
ATOM     37  C   UNL A   1      49.176  24.970  35.723  1.00  0.00     0.116 C 
BRANCH  37  38
ATOM     38  N   UNL A   1      48.680  25.703  36.894  1.00  0.00    -0.352 N 
ATOM     39  C   UNL A   1      47.815  26.777  36.930  1.00  0.00     0.251 C 
ATOM     40  H   UNL A   1      49.006  25.387  37.767  1.00  0.00     0.163 HD
ATOM     41  O   UNL A   1      47.731  27.480  37.939  1.00  0.00    -0.269 OA
BRANCH  39  42
ATOM     42  C   UNL A   1      46.994  27.072  35.745  1.00  0.00     0.039 A 
ATOM     43  C   UNL A   1      47.562  27.489  34.539  1.00  0.00     0.014 A 
ATOM     44  C   UNL A   1      45.620  26.888  35.851  1.00  0.00     0.014 A 
ATOM     45  C   UNL A   1      46.733  27.640  33.431  1.00  0.00     0.010 A 
ATOM     46  C   UNL A   1      44.848  26.832  34.724  1.00  0.00     0.010 A 
ATOM     47  C   UNL A   1      45.375  27.284  33.527  1.00  0.00    -0.014 A 
BRANCH  47  48
ATOM     48  C   UNL A   1      44.508  27.287  32.357  1.00  0.00     0.031 A 
ATOM     49  C   UNL A   1      44.714  26.132  31.452  1.00  0.00     0.074 A 
ATOM     50  C   UNL A   1      43.506  28.174  32.168  1.00  0.00     0.049 A 
ATOM     51  N   UNL A   1      45.339  26.150  30.323  1.00  0.00    -0.248 NA
ATOM     52  C   UNL A   1      44.365  24.784  31.920  1.00  0.00     0.031 C 
ATOM     53  C   UNL A   1      43.011  29.208  33.090  1.00  0.00     0.029 A 
ATOM     54  N   UNL A   1      42.632  28.265  31.129  1.00  0.00    -0.354 N 
ATOM     55  C   UNL A   1      45.230  24.863  29.812  1.00  0.00     0.074 A 
ATOM     56  C   UNL A   1      44.816  24.031  30.911  1.00  0.00     0.031 C 
ATOM     57  C   UNL A   1      41.797  29.639  32.682  1.00  0.00     0.029 A 
ATOM     58  C   UNL A   1      41.523  29.064  31.382  1.00  0.00     0.049 A 
ATOM     59  H   UNL A   1      42.774  27.803  30.271  1.00  0.00     0.167 HD
ATOM     60  C   UNL A   1      45.237  24.655  28.467  1.00  0.00     0.034 A 
ATOM     61  C   UNL A   1      40.448  29.240  30.577  1.00  0.00     0.034 A 
ATOM     62  C   UNL A   1      45.645  25.847  27.760  1.00  0.00     0.049 A 
ATOM     63  C   UNL A   1      40.897  28.940  29.202  1.00  0.00     0.074 A 
ATOM     64  C   UNL A   1      46.784  26.623  27.704  1.00  0.00     0.029 A 
ATOM     65  N   UNL A   1      44.623  26.622  27.267  1.00  0.00    -0.354 N 
ATOM     66  N   UNL A   1      41.786  29.659  28.574  1.00  0.00    -0.248 NA
ATOM     67  C   UNL A   1      40.695  27.601  28.682  1.00  0.00     0.031 C 
ATOM     68  C   UNL A   1      46.312  27.964  27.578  1.00  0.00     0.029 A 
ATOM     69  C   UNL A   1      44.918  27.938  27.502  1.00  0.00     0.049 A 
ATOM     70  H   UNL A   1      43.813  26.286  26.819  1.00  0.00     0.167 HD
ATOM     71  C   UNL A   1      42.580  28.724  27.924  1.00  0.00     0.074 A 
ATOM     72  C   UNL A   1      41.779  27.501  27.907  1.00  0.00     0.031 C 
ATOM     73  C   UNL A   1      43.913  28.956  27.729  1.00  0.00     0.034 A 
BRANCH  60  74
ATOM     74  C   UNL A   1      44.489  23.557  27.746  1.00  0.00     0.023 A 
ATOM     75  C   UNL A   1      45.159  22.924  26.674  1.00  0.00     0.012 A 
ATOM     76  C   UNL A   1      43.099  23.331  27.858  1.00  0.00     0.148 A 
ATOM     77  C   UNL A   1      44.470  22.162  25.725  1.00  0.00     0.002 A 
ATOM     78  C   UNL A   1      42.429  22.519  26.950  1.00  0.00     0.091 A 
ATOM     79  F   UNL A   1      42.382  24.001  28.764  1.00  0.00    -0.205 F 
ATOM     80  C   UNL A   1      43.104  21.958  25.864  1.00  0.00     0.022 A 
BRANCH  78  81
ATOM     81  S   UNL A   1      40.665  22.200  27.092  1.00  0.00     0.127 S 
ATOM     82  O   UNL A   1      40.613  21.389  28.305  1.00  0.00    -0.237 OA
ATOM     83  O   UNL A   1      40.130  23.554  27.226  1.00  0.00    -0.237 OA
ATOM     84  O   UNL A   1      40.284  21.524  25.857  1.00  0.00    -0.744 OA
ENDBRANCH  78  81
ENDBRANCH  60  74
BRANCH  61  85
ATOM     85  C   UNL A   1      39.023  29.398  30.935  1.00  0.00     0.023 A 
ATOM     86  C   UNL A   1      38.479  28.675  32.014  1.00  0.00     0.012 A 
ATOM     87  C   UNL A   1      38.280  30.478  30.408  1.00  0.00     0.148 A 
ATOM     88  C   UNL A   1      37.245  29.037  32.572  1.00  0.00     0.002 A 
ATOM     89  C   UNL A   1      37.057  30.836  30.967  1.00  0.00     0.091 A 
ATOM     90  F   UNL A   1      38.818  31.206  29.420  1.00  0.00    -0.205 F 
ATOM     91  C   UNL A   1      36.540  30.123  32.057  1.00  0.00     0.022 A 
BRANCH  89  92
ATOM     92  S   UNL A   1      36.116  32.258  30.394  1.00  0.00     0.127 S 
ATOM     93  O   UNL A   1      35.873  31.910  28.994  1.00  0.00    -0.237 OA
ATOM     94  O   UNL A   1      34.936  32.208  31.253  1.00  0.00    -0.237 OA
ATOM     95  O   UNL A   1      36.976  33.418  30.591  1.00  0.00    -0.744 OA
ENDBRANCH  89  92
ENDBRANCH  61  85
BRANCH  73  96
ATOM     96  C   UNL A   1      44.421  30.355  27.994  1.00  0.00     0.023 A 
ATOM     97  C   UNL A   1      45.222  30.673  29.112  1.00  0.00     0.012 A 
ATOM     98  C   UNL A   1      44.206  31.339  27.016  1.00  0.00     0.148 A 
ATOM     99  C   UNL A   1      45.775  31.949  29.264  1.00  0.00     0.002 A 
ATOM    100  C   UNL A   1      44.790  32.594  27.148  1.00  0.00     0.091 A 
ATOM    101  F   UNL A   1      43.452  31.018  25.955  1.00  0.00    -0.205 F 
ATOM    102  C   UNL A   1      45.566  32.906  28.275  1.00  0.00     0.022 A 
BRANCH 100 103
ATOM    103  S   UNL A   1      44.659  33.835  25.861  1.00  0.00     0.127 S 
ATOM    104  O   UNL A   1      43.434  34.539  26.238  1.00  0.00    -0.237 OA
ATOM    105  O   UNL A   1      45.890  34.606  26.044  1.00  0.00    -0.237 OA
ATOM    106  O   UNL A   1      44.594  33.106  24.600  1.00  0.00    -0.744 OA
ENDBRANCH 100 103
ENDBRANCH  73  96
ENDBRANCH  47  48
ENDBRANCH  39  42
ENDBRANCH  37  38
ENDBRANCH  36  37
ENDBRANCH  35  36
ENDBRANCH   1  35
TORSDOF 21
ENDMDL
MODEL 3
REMARK VINA RESULT:     -10.8      4.934      9.052
REMARK SMILES CC(C)CCn1nc(C(=O)NCCCCCCNC(=O)c2ccc(-c3c4nc(c(-c5cccc(S(=O)(=O)[O-])c5F)c5ccc([nH]5)c(-c5cccc(S(=O)(=O)[O-])c5F)c5nc(c(-c6cccc(S(=O)(=O)[O-])c6F)c6ccc3[nH]6)C=C5)C=C4)cc2)c2c1CCN(C(=O)[C@@H]1CCc3nn(C)c(=O)n3C1)C2
REMARK SMILES IDX 14 1 13 2 12 3 11 4 9 5 10 6 8 8 6 9 7 10 85 11 84 12 86 13
REMARK SMILES IDX 102 14 87 15 88 16 5 17 4 18 2 19 1 20 3 21 89 22 90 23
REMARK SMILES IDX 91 24 92 25 101 26 93 27 100 28 94 29 98 30 95 31 96 32
REMARK SMILES IDX 99 33 97 34 15 35 16 36 17 37 18 38 19 39 20 41 21 42 22 43
REMARK SMILES IDX 83 44 23 45 82 46 24 47 25 48 26 49 76 50 27 51 81 52 75 53
REMARK SMILES IDX 77 54 28 55 80 56 74 57 73 58 29 60 61 61 41 62 60 63 42 64
REMARK SMILES IDX 45 65 59 66 78 67 43 68 44 69 58 71 79 72 46 73 30 74 31 75
REMARK SMILES IDX 39 76 32 77 34 78 40 79 33 80 35 81 36 82 37 83 38 84 62 85
REMARK SMILES IDX 63 86 71 87 64 88 66 89 72 90 65 91 67 92 68 93 69 94 70 95
REMARK SMILES IDX 47 96 48 97 56 98 49 99 51 100 57 101 50 102 52 103 53 104
REMARK SMILES IDX 54 105 55 106
REMARK H PARENT 11 7 18 40 77 59 45 70
REMARK Flexibility Score: inf
ROOT
ATOM      1  C   UNL A   1      39.928  23.307  26.192  1.00  0.00     0.002 C 
ENDROOT
BRANCH   1   2
ATOM      2  C   UNL A   1      38.711  24.010  26.785  1.00  0.00     0.021 C 
BRANCH   2   3
ATOM      3  C   UNL A   1      37.356  23.619  26.165  1.00  0.00     0.116 C 
BRANCH   3   4
ATOM      4  N   UNL A   1      37.472  23.312  24.749  1.00  0.00    -0.351 N 
ATOM      5  C   UNL A   1      36.588  22.982  23.741  1.00  0.00     0.272 C 
ATOM      6  O   UNL A   1      37.074  23.045  22.606  1.00  0.00    -0.267 OA
ATOM      7  H   UNL A   1      38.404  23.349  24.432  1.00  0.00     0.163 HD
BRANCH   5   8
ATOM      8  C   UNL A   1      35.162  22.632  23.959  1.00  0.00     0.155 A 
ATOM      9  N   UNL A   1      33.502  21.362  24.535  1.00  0.00    -0.268 N 
ATOM     10  N   UNL A   1      34.848  21.376  24.371  1.00  0.00    -0.167 NA
ATOM     11  C   UNL A   1      32.950  22.459  23.957  1.00  0.00     0.046 A 
ATOM     12  C   UNL A   1      33.963  23.388  23.849  1.00  0.00     0.026 A 
ATOM     13  C   UNL A   1      31.564  22.744  23.531  1.00  0.00     0.078 C 
ATOM     14  C   UNL A   1      33.692  24.816  23.541  1.00  0.00     0.159 C 
ATOM     15  C   UNL A   1      31.566  24.021  22.692  1.00  0.00     0.126 C 
ATOM     16  N   UNL A   1      32.268  25.104  23.365  1.00  0.00    -0.338 N 
BRANCH   9  17
ATOM     17  C   UNL A   1      32.926  20.232  25.250  1.00  0.00     0.145 C 
BRANCH  17  18
ATOM     18  C   UNL A   1      32.560  18.936  24.494  1.00  0.00     0.027 C 
BRANCH  18  19
ATOM     19  C   UNL A   1      33.536  17.753  24.636  1.00  0.00    -0.016 C 
ATOM     20  C   UNL A   1      33.090  16.668  25.608  1.00  0.00     0.007 C 
ATOM     21  C   UNL A   1      33.922  17.173  23.275  1.00  0.00     0.007 C 
ENDBRANCH  18  19
ENDBRANCH  17  18
ENDBRANCH   9  17
BRANCH  16  22
ATOM     22  C   UNL A   1      31.906  26.441  23.396  1.00  0.00     0.227 C 
ATOM     23  O   UNL A   1      32.535  27.245  22.690  1.00  0.00    -0.274 OA
BRANCH  22  24
ATOM     24  C   UNL A   1      30.751  27.006  24.248  1.00  0.00     0.099 C 
ATOM     25  C   UNL A   1      29.976  28.185  23.655  1.00  0.00     0.023 C 
ATOM     26  C   UNL A   1      31.043  27.197  25.731  1.00  0.00     0.142 C 
ATOM     27  C   UNL A   1      30.562  29.556  23.957  1.00  0.00     0.078 C 
ATOM     28  N   UNL A   1      31.393  28.557  26.071  1.00  0.00    -0.278 N 
ATOM     29  C   UNL A   1      31.248  29.646  25.287  1.00  0.00     0.133 A 
ATOM     30  C   UNL A   1      32.247  28.921  27.084  1.00  0.00     0.345 A 
ATOM     31  N   UNL A   1      31.907  30.696  25.692  1.00  0.00    -0.155 NA
ATOM     32  N   UNL A   1      32.542  30.266  26.836  1.00  0.00    -0.216 N 
ATOM     33  O   UNL A   1      32.771  28.193  27.911  1.00  0.00    -0.246 OA
ATOM     34  C   UNL A   1      33.611  31.002  27.448  1.00  0.00     0.179 C 
ENDBRANCH  22  24
ENDBRANCH  16  22
ENDBRANCH   5   8
ENDBRANCH   3   4
ENDBRANCH   2   3
ENDBRANCH   1   2
BRANCH   1  35
ATOM     35  C   UNL A   1      40.461  22.136  27.035  1.00  0.00     0.002 C 
BRANCH  35  36
ATOM     36  C   UNL A   1      41.394  21.130  26.335  1.00  0.00     0.021 C 
BRANCH  36  37
ATOM     37  C   UNL A   1      42.867  21.507  26.390  1.00  0.00     0.116 C 
BRANCH  37  38
ATOM     38  N   UNL A   1      43.496  21.517  25.065  1.00  0.00    -0.352 N 
ATOM     39  C   UNL A   1      44.129  22.561  24.422  1.00  0.00     0.251 C 
ATOM     40  H   UNL A   1      43.463  20.667  24.569  1.00  0.00     0.163 HD
ATOM     41  O   UNL A   1      44.331  22.519  23.207  1.00  0.00    -0.269 OA
BRANCH  39  42
ATOM     42  C   UNL A   1      44.556  23.728  25.210  1.00  0.00     0.039 A 
ATOM     43  C   UNL A   1      43.733  24.842  25.387  1.00  0.00     0.014 A 
ATOM     44  C   UNL A   1      45.809  23.674  25.812  1.00  0.00     0.014 A 
ATOM     45  C   UNL A   1      44.161  25.858  26.238  1.00  0.00     0.010 A 
ATOM     46  C   UNL A   1      46.132  24.563  26.800  1.00  0.00     0.010 A 
ATOM     47  C   UNL A   1      45.356  25.697  26.962  1.00  0.00    -0.014 A 
BRANCH  47  48
ATOM     48  C   UNL A   1      45.765  26.666  27.969  1.00  0.00     0.031 A 
ATOM     49  C   UNL A   1      45.128  26.464  29.292  1.00  0.00     0.074 A 
ATOM     50  C   UNL A   1      46.740  27.583  27.776  1.00  0.00     0.049 A 
ATOM     51  N   UNL A   1      44.162  27.163  29.787  1.00  0.00    -0.248 NA
ATOM     52  C   UNL A   1      45.456  25.262  30.069  1.00  0.00     0.031 C 
ATOM     53  C   UNL A   1      47.637  27.738  26.621  1.00  0.00     0.029 A 
ATOM     54  N   UNL A   1      47.210  28.521  28.641  1.00  0.00    -0.354 N 
ATOM     55  C   UNL A   1      43.938  26.647  31.057  1.00  0.00     0.074 A 
ATOM     56  C   UNL A   1      44.603  25.370  31.092  1.00  0.00     0.031 C 
ATOM     57  C   UNL A   1      48.681  28.527  26.958  1.00  0.00     0.029 A 
ATOM     58  C   UNL A   1      48.425  29.086  28.268  1.00  0.00     0.049 A 
ATOM     59  H   UNL A   1      46.731  28.778  29.462  1.00  0.00     0.167 HD
ATOM     60  C   UNL A   1      43.448  27.444  32.045  1.00  0.00     0.034 A 
ATOM     61  C   UNL A   1      49.173  29.954  28.990  1.00  0.00     0.034 A 
ATOM     62  C   UNL A   1      42.966  28.696  31.511  1.00  0.00     0.049 A 
ATOM     63  C   UNL A   1      48.249  30.634  29.922  1.00  0.00     0.074 A 
ATOM     64  C   UNL A   1      41.976  29.080  30.631  1.00  0.00     0.029 A 
ATOM     65  N   UNL A   1      43.842  29.752  31.594  1.00  0.00    -0.354 N 
ATOM     66  N   UNL A   1      47.291  31.421  29.520  1.00  0.00    -0.248 NA
ATOM     67  C   UNL A   1      48.103  30.104  31.265  1.00  0.00     0.031 C 
ATOM     68  C   UNL A   1      42.531  30.178  29.906  1.00  0.00     0.029 A 
ATOM     69  C   UNL A   1      43.802  30.449  30.417  1.00  0.00     0.049 A 
ATOM     70  H   UNL A   1      44.405  29.970  32.372  1.00  0.00     0.167 HD
ATOM     71  C   UNL A   1      46.218  31.094  30.339  1.00  0.00     0.074 A 
ATOM     72  C   UNL A   1      46.815  30.394  31.475  1.00  0.00     0.031 C 
ATOM     73  C   UNL A   1      44.936  31.166  29.871  1.00  0.00     0.034 A 
BRANCH  60  74
ATOM     74  C   UNL A   1      43.771  27.315  33.516  1.00  0.00     0.023 A 
ATOM     75  C   UNL A   1      45.134  27.172  33.861  1.00  0.00     0.012 A 
ATOM     76  C   UNL A   1      42.820  27.026  34.521  1.00  0.00     0.148 A 
ATOM     77  C   UNL A   1      45.528  26.700  35.118  1.00  0.00     0.002 A 
ATOM     78  C   UNL A   1      43.218  26.620  35.790  1.00  0.00     0.091 A 
ATOM     79  F   UNL A   1      41.518  27.011  34.226  1.00  0.00    -0.205 F 
ATOM     80  C   UNL A   1      44.569  26.426  36.084  1.00  0.00     0.022 A 
BRANCH  78  81
ATOM     81  S   UNL A   1      42.023  26.272  37.088  1.00  0.00     0.127 S 
ATOM     82  O   UNL A   1      41.599  24.919  36.736  1.00  0.00    -0.237 OA
ATOM     83  O   UNL A   1      42.853  26.371  38.288  1.00  0.00    -0.237 OA
ATOM     84  O   UNL A   1      41.003  27.307  36.976  1.00  0.00    -0.744 OA
ENDBRANCH  78  81
ENDBRANCH  60  74
BRANCH  61  85
ATOM     85  C   UNL A   1      50.643  30.054  29.108  1.00  0.00     0.023 A 
ATOM     86  C   UNL A   1      51.352  29.146  29.916  1.00  0.00     0.012 A 
ATOM     87  C   UNL A   1      51.370  30.850  28.194  1.00  0.00     0.148 A 
ATOM     88  C   UNL A   1      52.742  29.012  29.796  1.00  0.00     0.002 A 
ATOM     89  C   UNL A   1      52.749  30.711  28.076  1.00  0.00     0.091 A 
ATOM     90  F   UNL A   1      50.694  31.674  27.383  1.00  0.00    -0.205 F 
ATOM     91  C   UNL A   1      53.439  29.785  28.870  1.00  0.00     0.022 A 
BRANCH  89  92
ATOM     92  S   UNL A   1      53.709  31.633  26.865  1.00  0.00     0.127 S 
ATOM     93  O   UNL A   1      55.060  31.129  27.110  1.00  0.00    -0.237 OA
ATOM     94  O   UNL A   1      53.110  31.196  25.606  1.00  0.00    -0.237 OA
ATOM     95  O   UNL A   1      53.518  33.041  27.185  1.00  0.00    -0.744 OA
ENDBRANCH  89  92
ENDBRANCH  61  85
BRANCH  73  96
ATOM     96  C   UNL A   1      44.717  31.864  28.548  1.00  0.00     0.023 A 
ATOM     97  C   UNL A   1      44.809  31.191  27.311  1.00  0.00     0.012 A 
ATOM     98  C   UNL A   1      44.265  33.193  28.562  1.00  0.00     0.148 A 
ATOM     99  C   UNL A   1      44.483  31.837  26.113  1.00  0.00     0.002 A 
ATOM    100  C   UNL A   1      43.902  33.819  27.375  1.00  0.00     0.091 A 
ATOM    101  F   UNL A   1      44.172  33.815  29.746  1.00  0.00    -0.205 F 
ATOM    102  C   UNL A   1      44.020  33.149  26.147  1.00  0.00     0.022 A 
BRANCH 100 103
ATOM    103  S   UNL A   1      43.190  35.465  27.356  1.00  0.00     0.127 S 
ATOM    104  O   UNL A   1      42.818  35.621  25.951  1.00  0.00    -0.237 OA
ATOM    105  O   UNL A   1      42.061  35.327  28.277  1.00  0.00    -0.237 OA
ATOM    106  O   UNL A   1      44.236  36.364  27.827  1.00  0.00    -0.744 OA
ENDBRANCH 100 103
ENDBRANCH  73  96
ENDBRANCH  47  48
ENDBRANCH  39  42
ENDBRANCH  37  38
ENDBRANCH  36  37
ENDBRANCH  35  36
ENDBRANCH   1  35
TORSDOF 21
ENDMDL
