MODEL 1
REMARK VINA RESULT:     -11.3      0.000      0.000
REMARK SMILES O=C(NCCCCCCNC(=O)c1ccc(C(F)(F)F)nc1NC[C@@H]1CCOC1)c1ccc(-c2c3nc(c(-c4cccc(S(=O)(=O)[O-])c4F)c4ccc([nH]4)c(-c4cccc(S(=O)(=O)[O-])c4F)c4nc(c(-c5cccc(S(=O)(=O)[O-])c5F)c5ccc2[nH]5)C=C4)C=C3)cc1
REMARK SMILES IDX 6 1 5 2 4 3 3 4 1 5 2 6 30 8 31 9 92 10 32 11 91 12 33 13
REMARK SMILES IDX 34 14 35 15 85 16 36 17 90 18 84 19 86 20 37 21 89 22 83 23
REMARK SMILES IDX 82 24 38 26 70 27 50 28 69 29 51 30 54 31 68 32 87 33 52 34
REMARK SMILES IDX 53 35 67 37 88 38 55 39 39 40 40 41 48 42 41 43 43 44 49 45
REMARK SMILES IDX 42 46 44 47 45 48 46 49 47 50 71 51 72 52 80 53 73 54 75 55
REMARK SMILES IDX 81 56 74 57 76 58 77 59 78 60 79 61 56 62 57 63 65 64 58 65
REMARK SMILES IDX 60 66 66 67 59 68 61 69 62 70 63 71 64 72 7 73 8 74 9 75
REMARK SMILES IDX 10 76 11 77 12 79 13 80 14 81 22 82 15 83 21 84 16 85 23 86
REMARK SMILES IDX 24 88 25 89 26 90 29 91 27 92 28 93 17 94 18 95 19 96 20 97
REMARK H PARENT 3 7 86 25 54 36 10 78 23 87
REMARK Flexibility Score: inf
ROOT
ATOM      1  C   UNL A   1      31.932  27.870  25.014  1.00  0.00     0.002 C 
ENDROOT
BRANCH   1   2
ATOM      2  C   UNL A   1      32.636  28.016  26.364  1.00  0.00     0.021 C 
BRANCH   2   3
ATOM      3  C   UNL A   1      33.968  28.750  26.307  1.00  0.00     0.116 C 
BRANCH   3   4
ATOM      4  N   UNL A   1      33.839  30.143  26.693  1.00  0.00    -0.352 N 
ATOM      5  O   UNL A   1      34.239  31.970  27.949  1.00  0.00    -0.269 OA
ATOM      6  C   UNL A   1      34.609  30.861  27.573  1.00  0.00     0.251 C 
ATOM      7  H   UNL A   1      33.102  30.639  26.268  1.00  0.00     0.163 HD
BRANCH   6   8
ATOM      8  C   UNL A   1      35.874  30.278  28.072  1.00  0.00     0.039 A 
ATOM      9  C   UNL A   1      37.033  30.331  27.290  1.00  0.00     0.014 A 
ATOM     10  C   UNL A   1      35.904  29.688  29.337  1.00  0.00     0.014 A 
ATOM     11  C   UNL A   1      38.194  29.704  27.728  1.00  0.00     0.010 A 
ATOM     12  C   UNL A   1      37.094  29.129  29.810  1.00  0.00     0.010 A 
ATOM     13  C   UNL A   1      38.245  29.127  29.006  1.00  0.00    -0.014 A 
BRANCH  13  14
ATOM     14  C   UNL A   1      39.548  28.661  29.542  1.00  0.00     0.031 A 
ATOM     15  C   UNL A   1      40.248  29.388  30.653  1.00  0.00     0.074 A 
ATOM     16  C   UNL A   1      40.119  27.585  28.962  1.00  0.00     0.049 A 
ATOM     17  N   UNL A   1      41.406  29.122  31.200  1.00  0.00    -0.248 NA
ATOM     18  C   UNL A   1      39.574  30.566  31.221  1.00  0.00     0.031 C 
ATOM     19  C   UNL A   1      39.549  26.836  27.837  1.00  0.00     0.029 A 
ATOM     20  N   UNL A   1      41.308  26.949  29.213  1.00  0.00    -0.354 N 
ATOM     21  C   UNL A   1      41.625  30.121  32.140  1.00  0.00     0.074 A 
ATOM     22  C   UNL A   1      40.471  30.995  32.101  1.00  0.00     0.031 C 
ATOM     23  C   UNL A   1      40.388  25.851  27.492  1.00  0.00     0.029 A 
ATOM     24  C   UNL A   1      41.579  25.933  28.327  1.00  0.00     0.049 A 
ATOM     25  H   UNL A   1      41.907  27.197  29.954  1.00  0.00     0.167 HD
ATOM     26  C   UNL A   1      42.690  30.285  32.960  1.00  0.00     0.034 A 
ATOM     27  C   UNL A   1      42.682  25.178  28.170  1.00  0.00     0.034 A 
ATOM     28  C   UNL A   1      43.814  29.387  33.012  1.00  0.00     0.049 A 
ATOM     29  C   UNL A   1      43.841  25.386  29.100  1.00  0.00     0.074 A 
ATOM     30  C   UNL A   1      44.884  29.403  33.890  1.00  0.00     0.029 A 
ATOM     31  N   UNL A   1      44.033  28.335  32.136  1.00  0.00    -0.354 N 
ATOM     32  N   UNL A   1      43.947  26.218  30.107  1.00  0.00    -0.248 NA
ATOM     33  C   UNL A   1      45.023  24.539  28.889  1.00  0.00     0.031 C 
ATOM     34  C   UNL A   1      45.771  28.389  33.519  1.00  0.00     0.029 A 
ATOM     35  C   UNL A   1      45.240  27.720  32.428  1.00  0.00     0.049 A 
ATOM     36  H   UNL A   1      43.422  28.065  31.413  1.00  0.00     0.167 HD
ATOM     37  C   UNL A   1      45.199  25.986  30.659  1.00  0.00     0.074 A 
ATOM     38  C   UNL A   1      45.800  24.911  29.898  1.00  0.00     0.031 C 
ATOM     39  C   UNL A   1      45.807  26.623  31.688  1.00  0.00     0.034 A 
BRANCH  26  40
ATOM     40  C   UNL A   1      42.704  31.464  33.896  1.00  0.00     0.023 A 
ATOM     41  C   UNL A   1      43.198  32.706  33.451  1.00  0.00     0.012 A 
ATOM     42  C   UNL A   1      42.112  31.371  35.171  1.00  0.00     0.148 A 
ATOM     43  C   UNL A   1      43.112  33.835  34.265  1.00  0.00     0.002 A 
ATOM     44  C   UNL A   1      41.995  32.509  35.961  1.00  0.00     0.091 A 
ATOM     45  F   UNL A   1      41.662  30.176  35.580  1.00  0.00    -0.205 F 
ATOM     46  C   UNL A   1      42.500  33.739  35.512  1.00  0.00     0.022 A 
BRANCH  44  47
ATOM     47  S   UNL A   1      41.155  32.508  37.549  1.00  0.00     0.127 S 
ATOM     48  O   UNL A   1      42.014  31.623  38.335  1.00  0.00    -0.237 OA
ATOM     49  O   UNL A   1      41.222  33.918  37.931  1.00  0.00    -0.237 OA
ATOM     50  O   UNL A   1      39.812  32.006  37.296  1.00  0.00    -0.744 OA
ENDBRANCH  44  47
ENDBRANCH  26  40
BRANCH  27  51
ATOM     51  C   UNL A   1      42.737  24.161  27.082  1.00  0.00     0.023 A 
ATOM     52  C   UNL A   1      43.447  24.441  25.900  1.00  0.00     0.012 A 
ATOM     53  C   UNL A   1      42.110  22.908  27.228  1.00  0.00     0.148 A 
ATOM     54  C   UNL A   1      43.505  23.502  24.869  1.00  0.00     0.002 A 
ATOM     55  C   UNL A   1      42.224  21.954  26.223  1.00  0.00     0.091 A 
ATOM     56  F   UNL A   1      41.422  22.665  28.353  1.00  0.00    -0.205 F 
ATOM     57  C   UNL A   1      42.905  22.257  25.035  1.00  0.00     0.022 A 
BRANCH  55  58
ATOM     58  S   UNL A   1      41.606  20.280  26.425  1.00  0.00     0.127 S 
ATOM     59  O   UNL A   1      42.040  19.963  27.783  1.00  0.00    -0.237 OA
ATOM     60  O   UNL A   1      40.163  20.464  26.266  1.00  0.00    -0.237 OA
ATOM     61  O   UNL A   1      42.229  19.508  25.358  1.00  0.00    -0.744 OA
ENDBRANCH  55  58
ENDBRANCH  27  51
BRANCH  39  62
ATOM     62  C   UNL A   1      47.193  26.171  32.062  1.00  0.00     0.023 A 
ATOM     63  C   UNL A   1      48.307  26.714  31.391  1.00  0.00     0.012 A 
ATOM     64  C   UNL A   1      47.396  25.270  33.125  1.00  0.00     0.148 A 
ATOM     65  C   UNL A   1      49.600  26.346  31.753  1.00  0.00     0.002 A 
ATOM     66  C   UNL A   1      48.689  24.945  33.514  1.00  0.00     0.091 A 
ATOM     67  F   UNL A   1      46.320  24.754  33.739  1.00  0.00    -0.205 F 
ATOM     68  C   UNL A   1      49.792  25.473  32.822  1.00  0.00     0.022 A 
BRANCH  66  69
ATOM     69  S   UNL A   1      49.039  23.904  34.934  1.00  0.00     0.127 S 
ATOM     70  O   UNL A   1      48.348  24.621  36.007  1.00  0.00    -0.237 OA
ATOM     71  O   UNL A   1      48.418  22.637  34.549  1.00  0.00    -0.237 OA
ATOM     72  O   UNL A   1      50.489  23.857  35.056  1.00  0.00    -0.744 OA
ENDBRANCH  66  69
ENDBRANCH  39  62
ENDBRANCH  13  14
ENDBRANCH   6   8
ENDBRANCH   3   4
ENDBRANCH   2   3
ENDBRANCH   1   2
BRANCH   1  73
ATOM     73  C   UNL A   1      30.660  27.017  25.033  1.00  0.00     0.002 C 
BRANCH  73  74
ATOM     74  C   UNL A   1      30.336  26.292  23.721  1.00  0.00     0.021 C 
BRANCH  74  75
ATOM     75  C   UNL A   1      30.808  24.841  23.657  1.00  0.00     0.116 C 
BRANCH  75  76
ATOM     76  N   UNL A   1      30.306  24.070  24.780  1.00  0.00    -0.352 N 
ATOM     77  C   UNL A   1      30.983  23.205  25.599  1.00  0.00     0.255 C 
ATOM     78  H   UNL A   1      29.348  24.184  24.980  1.00  0.00     0.163 HD
ATOM     79  O   UNL A   1      30.358  22.419  26.306  1.00  0.00    -0.269 OA
BRANCH  77  80
ATOM     80  C   UNL A   1      32.461  23.210  25.619  1.00  0.00     0.082 A 
ATOM     81  C   UNL A   1      33.139  24.390  25.937  1.00  0.00     0.020 A 
ATOM     82  C   UNL A   1      33.180  22.030  25.393  1.00  0.00     0.139 A 
ATOM     83  C   UNL A   1      34.526  24.392  25.939  1.00  0.00     0.034 A 
ATOM     84  N   UNL A   1      34.533  22.037  25.396  1.00  0.00    -0.226 NA
ATOM     85  C   UNL A   1      35.200  23.207  25.647  1.00  0.00     0.146 A 
BRANCH  82  86
ATOM     86  N   UNL A   1      32.523  20.851  25.093  1.00  0.00    -0.369 N 
ATOM     87  H   UNL A   1      32.020  20.406  25.813  1.00  0.00     0.162 HD
BRANCH  86  88
ATOM     88  C   UNL A   1      32.528  20.236  23.786  1.00  0.00     0.120 C 
BRANCH  88  89
ATOM     89  C   UNL A   1      32.198  18.730  23.800  1.00  0.00     0.036 C 
ATOM     90  C   UNL A   1      33.025  17.855  24.724  1.00  0.00     0.036 C 
ATOM     91  C   UNL A   1      32.399  18.053  22.449  1.00  0.00     0.165 C 
ATOM     92  C   UNL A   1      34.131  17.342  23.828  1.00  0.00     0.160 C 
ATOM     93  O   UNL A   1      33.574  17.234  22.515  1.00  0.00    -0.381 OA
ENDBRANCH  88  89
ENDBRANCH  86  88
ENDBRANCH  82  86
BRANCH  85  94
ATOM     94  C   UNL A   1      36.723  23.206  25.605  1.00  0.00     0.433 C 
ATOM     95  F   UNL A   1      37.263  21.963  25.767  1.00  0.00    -0.165 F 
ATOM     96  F   UNL A   1      37.231  23.689  24.435  1.00  0.00    -0.165 F 
ATOM     97  F   UNL A   1      37.287  23.974  26.585  1.00  0.00    -0.165 F 
ENDBRANCH  85  94
ENDBRANCH  77  80
ENDBRANCH  75  76
ENDBRANCH  74  75
ENDBRANCH  73  74
ENDBRANCH   1  73
TORSDOF 20
ENDMDL
MODEL 2
REMARK VINA RESULT:     -11.3      3.604      8.930
REMARK SMILES O=C(NCCCCCCNC(=O)c1ccc(C(F)(F)F)nc1NC[C@@H]1CCOC1)c1ccc(-c2c3nc(c(-c4cccc(S(=O)(=O)[O-])c4F)c4ccc([nH]4)c(-c4cccc(S(=O)(=O)[O-])c4F)c4nc(c(-c5cccc(S(=O)(=O)[O-])c5F)c5ccc2[nH]5)C=C4)C=C3)cc1
REMARK SMILES IDX 6 1 5 2 4 3 3 4 1 5 2 6 30 8 31 9 92 10 32 11 91 12 33 13
REMARK SMILES IDX 34 14 35 15 85 16 36 17 90 18 84 19 86 20 37 21 89 22 83 23
REMARK SMILES IDX 82 24 38 26 70 27 50 28 69 29 51 30 54 31 68 32 87 33 52 34
REMARK SMILES IDX 53 35 67 37 88 38 55 39 39 40 40 41 48 42 41 43 43 44 49 45
REMARK SMILES IDX 42 46 44 47 45 48 46 49 47 50 71 51 72 52 80 53 73 54 75 55
REMARK SMILES IDX 81 56 74 57 76 58 77 59 78 60 79 61 56 62 57 63 65 64 58 65
REMARK SMILES IDX 60 66 66 67 59 68 61 69 62 70 63 71 64 72 7 73 8 74 9 75
REMARK SMILES IDX 10 76 11 77 12 79 13 80 14 81 22 82 15 83 21 84 16 85 23 86
REMARK SMILES IDX 24 88 25 89 26 90 29 91 27 92 28 93 17 94 18 95 19 96 20 97
REMARK H PARENT 3 7 86 25 54 36 10 78 23 87
REMARK Flexibility Score: inf
ROOT
ATOM      1  C   UNL A   1      31.403  30.264  25.955  1.00  0.00     0.002 C 
ENDROOT
BRANCH   1   2
ATOM      2  C   UNL A   1      31.270  31.735  26.354  1.00  0.00     0.021 C 
BRANCH   2   3
ATOM      3  C   UNL A   1      32.539  32.353  26.924  1.00  0.00     0.116 C 
BRANCH   3   4
ATOM      4  N   UNL A   1      32.338  33.732  27.327  1.00  0.00    -0.352 N 
ATOM      5  O   UNL A   1      32.537  35.524  28.678  1.00  0.00    -0.269 OA
ATOM      6  C   UNL A   1      32.971  34.432  28.325  1.00  0.00     0.251 C 
ATOM      7  H   UNL A   1      31.660  34.233  26.819  1.00  0.00     0.163 HD
BRANCH   6   8
ATOM      8  C   UNL A   1      34.163  33.847  28.976  1.00  0.00     0.039 A 
ATOM      9  C   UNL A   1      34.027  32.789  29.881  1.00  0.00     0.014 A 
ATOM     10  C   UNL A   1      35.429  34.349  28.666  1.00  0.00     0.014 A 
ATOM     11  C   UNL A   1      35.142  32.303  30.554  1.00  0.00     0.010 A 
ATOM     12  C   UNL A   1      36.558  33.805  29.283  1.00  0.00     0.010 A 
ATOM     13  C   UNL A   1      36.422  32.784  30.237  1.00  0.00    -0.014 A 
BRANCH  13  14
ATOM     14  C   UNL A   1      37.615  32.104  30.799  1.00  0.00     0.031 A 
ATOM     15  C   UNL A   1      38.361  31.054  30.028  1.00  0.00     0.074 A 
ATOM     16  C   UNL A   1      37.984  32.419  32.058  1.00  0.00     0.049 A 
ATOM     17  N   UNL A   1      39.396  30.348  30.402  1.00  0.00    -0.248 NA
ATOM     18  C   UNL A   1      37.886  30.748  28.669  1.00  0.00     0.031 C 
ATOM     19  C   UNL A   1      37.294  33.387  32.917  1.00  0.00     0.029 A 
ATOM     20  N   UNL A   1      39.004  31.949  32.844  1.00  0.00    -0.354 N 
ATOM     21  C   UNL A   1      39.671  29.482  29.351  1.00  0.00     0.074 A 
ATOM     22  C   UNL A   1      38.699  29.759  28.314  1.00  0.00     0.031 C 
ATOM     23  C   UNL A   1      37.905  33.434  34.109  1.00  0.00     0.029 A 
ATOM     24  C   UNL A   1      38.988  32.459  34.121  1.00  0.00     0.049 A 
ATOM     25  H   UNL A   1      39.681  31.309  32.525  1.00  0.00     0.167 HD
ATOM     26  C   UNL A   1      40.647  28.548  29.264  1.00  0.00     0.034 A 
ATOM     27  C   UNL A   1      39.730  32.149  35.199  1.00  0.00     0.034 A 
ATOM     28  C   UNL A   1      41.628  28.308  30.291  1.00  0.00     0.049 A 
ATOM     29  C   UNL A   1      40.806  31.111  35.063  1.00  0.00     0.074 A 
ATOM     30  C   UNL A   1      42.726  27.467  30.247  1.00  0.00     0.029 A 
ATOM     31  N   UNL A   1      41.615  28.881  31.553  1.00  0.00    -0.354 N 
ATOM     32  N   UNL A   1      41.168  30.438  33.999  1.00  0.00    -0.248 NA
ATOM     33  C   UNL A   1      41.589  30.805  36.268  1.00  0.00     0.031 C 
ATOM     34  C   UNL A   1      43.352  27.498  31.496  1.00  0.00     0.029 A 
ATOM     35  C   UNL A   1      42.662  28.382  32.309  1.00  0.00     0.049 A 
ATOM     36  H   UNL A   1      40.958  29.545  31.865  1.00  0.00     0.167 HD
ATOM     37  C   UNL A   1      42.229  29.638  34.400  1.00  0.00     0.074 A 
ATOM     38  C   UNL A   1      42.476  29.939  35.795  1.00  0.00     0.031 C 
ATOM     39  C   UNL A   1      42.922  28.721  33.684  1.00  0.00     0.034 A 
BRANCH  26  40
ATOM     40  C   UNL A   1      40.737  27.714  28.014  1.00  0.00     0.023 A 
ATOM     41  C   UNL A   1      41.392  28.226  26.877  1.00  0.00     0.012 A 
ATOM     42  C   UNL A   1      40.284  26.379  28.011  1.00  0.00     0.148 A 
ATOM     43  C   UNL A   1      41.586  27.425  25.751  1.00  0.00     0.002 A 
ATOM     44  C   UNL A   1      40.515  25.576  26.901  1.00  0.00     0.091 A 
ATOM     45  F   UNL A   1      39.649  25.919  29.099  1.00  0.00    -0.205 F 
ATOM     46  C   UNL A   1      41.160  26.099  25.769  1.00  0.00     0.022 A 
BRANCH  44  47
ATOM     47  S   UNL A   1      40.075  23.835  26.852  1.00  0.00     0.127 S 
ATOM     48  O   UNL A   1      39.963  23.520  28.275  1.00  0.00    -0.237 OA
ATOM     49  O   UNL A   1      38.801  23.862  26.133  1.00  0.00    -0.237 OA
ATOM     50  O   UNL A   1      41.158  23.163  26.149  1.00  0.00    -0.744 OA
ENDBRANCH  44  47
ENDBRANCH  26  40
BRANCH  27  51
ATOM     51  C   UNL A   1      39.472  32.829  36.500  1.00  0.00     0.023 A 
ATOM     52  C   UNL A   1      40.142  34.026  36.807  1.00  0.00     0.012 A 
ATOM     53  C   UNL A   1      38.544  32.303  37.421  1.00  0.00     0.148 A 
ATOM     54  C   UNL A   1      39.917  34.673  38.024  1.00  0.00     0.002 A 
ATOM     55  C   UNL A   1      38.278  32.985  38.602  1.00  0.00     0.091 A 
ATOM     56  F   UNL A   1      37.928  31.151  37.119  1.00  0.00    -0.205 F 
ATOM     57  C   UNL A   1      38.977  34.160  38.914  1.00  0.00     0.022 A 
BRANCH  55  58
ATOM     58  S   UNL A   1      36.977  32.467  39.727  1.00  0.00     0.127 S 
ATOM     59  O   UNL A   1      35.797  32.530  38.870  1.00  0.00    -0.237 OA
ATOM     60  O   UNL A   1      37.405  31.115  40.090  1.00  0.00    -0.237 OA
ATOM     61  O   UNL A   1      37.019  33.420  40.828  1.00  0.00    -0.744 OA
ENDBRANCH  55  58
ENDBRANCH  27  51
BRANCH  39  62
ATOM     62  C   UNL A   1      44.023  27.976  34.391  1.00  0.00     0.023 A 
ATOM     63  C   UNL A   1      45.325  28.512  34.409  1.00  0.00     0.012 A 
ATOM     64  C   UNL A   1      43.751  26.790  35.100  1.00  0.00     0.148 A 
ATOM     65  C   UNL A   1      46.347  27.864  35.098  1.00  0.00     0.002 A 
ATOM     66  C   UNL A   1      44.763  26.176  35.827  1.00  0.00     0.091 A 
ATOM     67  F   UNL A   1      42.506  26.291  35.057  1.00  0.00    -0.205 F 
ATOM     68  C   UNL A   1      46.064  26.705  35.817  1.00  0.00     0.022 A 
BRANCH  66  69
ATOM     69  S   UNL A   1      44.475  24.734  36.857  1.00  0.00     0.127 S 
ATOM     70  O   UNL A   1      45.540  24.861  37.852  1.00  0.00    -0.237 OA
ATOM     71  O   UNL A   1      43.128  24.984  37.370  1.00  0.00    -0.237 OA
ATOM     72  O   UNL A   1      44.585  23.578  35.977  1.00  0.00    -0.744 OA
ENDBRANCH  66  69
ENDBRANCH  39  62
ENDBRANCH  13  14
ENDBRANCH   6   8
ENDBRANCH   3   4
ENDBRANCH   2   3
ENDBRANCH   1   2
BRANCH   1  73
ATOM     73  C   UNL A   1      32.026  29.356  27.020  1.00  0.00     0.002 C 
BRANCH  73  74
ATOM     74  C   UNL A   1      33.286  28.600  26.583  1.00  0.00     0.021 C 
BRANCH  74  75
ATOM     75  C   UNL A   1      33.827  28.993  25.210  1.00  0.00     0.116 C 
BRANCH  75  76
ATOM     76  N   UNL A   1      34.029  27.829  24.367  1.00  0.00    -0.352 N 
ATOM     77  C   UNL A   1      33.102  27.117  23.652  1.00  0.00     0.255 C 
ATOM     78  H   UNL A   1      34.957  27.507  24.300  1.00  0.00     0.163 HD
ATOM     79  O   UNL A   1      33.385  25.998  23.233  1.00  0.00    -0.269 OA
BRANCH  77  80
ATOM     80  C   UNL A   1      31.763  27.690  23.400  1.00  0.00     0.082 A 
ATOM     81  C   UNL A   1      31.642  28.820  22.589  1.00  0.00     0.020 A 
ATOM     82  C   UNL A   1      30.616  27.068  23.909  1.00  0.00     0.139 A 
ATOM     83  C   UNL A   1      30.384  29.362  22.368  1.00  0.00     0.034 A 
ATOM     84  N   UNL A   1      29.391  27.601  23.691  1.00  0.00    -0.226 NA
ATOM     85  C   UNL A   1      29.276  28.745  22.947  1.00  0.00     0.146 A 
BRANCH  82  86
ATOM     86  N   UNL A   1      30.719  25.940  24.700  1.00  0.00    -0.369 N 
ATOM     87  H   UNL A   1      30.599  25.061  24.272  1.00  0.00     0.162 HD
BRANCH  86  88
ATOM     88  C   UNL A   1      30.994  25.972  26.118  1.00  0.00     0.120 C 
BRANCH  88  89
ATOM     89  C   UNL A   1      31.473  24.626  26.696  1.00  0.00     0.036 C 
ATOM     90  C   UNL A   1      32.835  24.131  26.243  1.00  0.00     0.036 C 
ATOM     91  C   UNL A   1      30.567  23.454  26.336  1.00  0.00     0.165 C 
ATOM     92  C   UNL A   1      32.510  23.221  25.078  1.00  0.00     0.160 C 
ATOM     93  O   UNL A   1      31.232  22.643  25.359  1.00  0.00    -0.381 OA
ENDBRANCH  88  89
ENDBRANCH  86  88
ENDBRANCH  82  86
BRANCH  85  94
ATOM     94  C   UNL A   1      27.894  29.354  22.747  1.00  0.00     0.433 C 
ATOM     95  F   UNL A   1      27.685  30.468  23.506  1.00  0.00    -0.165 F 
ATOM     96  F   UNL A   1      27.648  29.722  21.458  1.00  0.00    -0.165 F 
ATOM     97  F   UNL A   1      26.879  28.499  23.076  1.00  0.00    -0.165 F 
ENDBRANCH  85  94
ENDBRANCH  77  80
ENDBRANCH  75  76
ENDBRANCH  74  75
ENDBRANCH  73  74
ENDBRANCH   1  73
TORSDOF 20
ENDMDL
MODEL 3
REMARK VINA RESULT:     -11.2      4.763      9.808
REMARK SMILES O=C(NCCCCCCNC(=O)c1ccc(C(F)(F)F)nc1NC[C@@H]1CCOC1)c1ccc(-c2c3nc(c(-c4cccc(S(=O)(=O)[O-])c4F)c4ccc([nH]4)c(-c4cccc(S(=O)(=O)[O-])c4F)c4nc(c(-c5cccc(S(=O)(=O)[O-])c5F)c5ccc2[nH]5)C=C4)C=C3)cc1
REMARK SMILES IDX 6 1 5 2 4 3 3 4 1 5 2 6 30 8 31 9 92 10 32 11 91 12 33 13
REMARK SMILES IDX 34 14 35 15 85 16 36 17 90 18 84 19 86 20 37 21 89 22 83 23
REMARK SMILES IDX 82 24 38 26 70 27 50 28 69 29 51 30 54 31 68 32 87 33 52 34
REMARK SMILES IDX 53 35 67 37 88 38 55 39 39 40 40 41 48 42 41 43 43 44 49 45
REMARK SMILES IDX 42 46 44 47 45 48 46 49 47 50 71 51 72 52 80 53 73 54 75 55
REMARK SMILES IDX 81 56 74 57 76 58 77 59 78 60 79 61 56 62 57 63 65 64 58 65
REMARK SMILES IDX 60 66 66 67 59 68 61 69 62 70 63 71 64 72 7 73 8 74 9 75
REMARK SMILES IDX 10 76 11 77 12 79 13 80 14 81 22 82 15 83 21 84 16 85 23 86
REMARK SMILES IDX 24 88 25 89 26 90 29 91 27 92 28 93 17 94 18 95 19 96 20 97
REMARK H PARENT 3 7 86 25 54 36 10 78 23 87
REMARK Flexibility Score: inf
ROOT
ATOM      1  C   UNL A   1      34.614  22.989  24.797  1.00  0.00     0.002 C 
ENDROOT
BRANCH   1   2
ATOM      2  C   UNL A   1      36.109  23.006  24.477  1.00  0.00     0.021 C 
BRANCH   2   3
ATOM      3  C   UNL A   1      36.992  23.516  25.608  1.00  0.00     0.116 C 
BRANCH   3   4
ATOM      4  N   UNL A   1      37.985  22.536  26.006  1.00  0.00    -0.352 N 
ATOM      5  O   UNL A   1      40.030  21.825  26.627  1.00  0.00    -0.269 OA
ATOM      6  C   UNL A   1      39.230  22.752  26.543  1.00  0.00     0.251 C 
ATOM      7  H   UNL A   1      37.734  21.594  25.875  1.00  0.00     0.163 HD
BRANCH   6   8
ATOM      8  C   UNL A   1      39.597  24.110  26.999  1.00  0.00     0.039 A 
ATOM      9  C   UNL A   1      39.382  24.492  28.328  1.00  0.00     0.014 A 
ATOM     10  C   UNL A   1      40.176  25.004  26.095  1.00  0.00     0.014 A 
ATOM     11  C   UNL A   1      39.648  25.796  28.727  1.00  0.00     0.010 A 
ATOM     12  C   UNL A   1      40.518  26.290  26.519  1.00  0.00     0.010 A 
ATOM     13  C   UNL A   1      40.250  26.698  27.835  1.00  0.00    -0.014 A 
BRANCH  13  14
ATOM     14  C   UNL A   1      40.728  28.009  28.339  1.00  0.00     0.031 A 
ATOM     15  C   UNL A   1      42.190  28.300  28.518  1.00  0.00     0.074 A 
ATOM     16  C   UNL A   1      39.801  28.926  28.685  1.00  0.00     0.049 A 
ATOM     17  N   UNL A   1      42.756  29.383  28.982  1.00  0.00    -0.248 NA
ATOM     18  C   UNL A   1      43.141  27.243  28.139  1.00  0.00     0.031 C 
ATOM     19  C   UNL A   1      38.350  28.726  28.603  1.00  0.00     0.029 A 
ATOM     20  N   UNL A   1      39.931  30.192  29.198  1.00  0.00    -0.354 N 
ATOM     21  C   UNL A   1      44.121  29.128  28.997  1.00  0.00     0.074 A 
ATOM     22  C   UNL A   1      44.303  27.787  28.482  1.00  0.00     0.031 C 
ATOM     23  C   UNL A   1      37.727  29.823  29.054  1.00  0.00     0.029 A 
ATOM     24  C   UNL A   1      38.727  30.778  29.513  1.00  0.00     0.049 A 
ATOM     25  H   UNL A   1      40.800  30.635  29.328  1.00  0.00     0.167 HD
ATOM     26  C   UNL A   1      45.125  29.942  29.400  1.00  0.00     0.034 A 
ATOM     27  C   UNL A   1      38.453  31.935  30.142  1.00  0.00     0.034 A 
ATOM     28  C   UNL A   1      44.931  31.287  29.877  1.00  0.00     0.049 A 
ATOM     29  C   UNL A   1      39.592  32.813  30.570  1.00  0.00     0.074 A 
ATOM     30  C   UNL A   1      45.892  32.230  30.197  1.00  0.00     0.029 A 
ATOM     31  N   UNL A   1      43.700  31.870  30.133  1.00  0.00    -0.354 N 
ATOM     32  N   UNL A   1      40.879  32.631  30.403  1.00  0.00    -0.248 NA
ATOM     33  C   UNL A   1      39.244  34.066  31.254  1.00  0.00     0.031 C 
ATOM     34  C   UNL A   1      45.244  33.367  30.687  1.00  0.00     0.029 A 
ATOM     35  C   UNL A   1      43.877  33.145  30.644  1.00  0.00     0.049 A 
ATOM     36  H   UNL A   1      42.827  31.441  29.976  1.00  0.00     0.167 HD
ATOM     37  C   UNL A   1      41.494  33.749  30.947  1.00  0.00     0.074 A 
ATOM     38  C   UNL A   1      40.438  34.622  31.416  1.00  0.00     0.031 C 
ATOM     39  C   UNL A   1      42.816  34.020  31.069  1.00  0.00     0.034 A 
BRANCH  26  40
ATOM     40  C   UNL A   1      46.539  29.431  29.332  1.00  0.00     0.023 A 
ATOM     41  C   UNL A   1      47.083  28.729  30.425  1.00  0.00     0.012 A 
ATOM     42  C   UNL A   1      47.280  29.538  28.138  1.00  0.00     0.148 A 
ATOM     43  C   UNL A   1      48.349  28.149  30.334  1.00  0.00     0.002 A 
ATOM     44  C   UNL A   1      48.524  28.924  28.043  1.00  0.00     0.091 A 
ATOM     45  F   UNL A   1      46.748  30.223  27.116  1.00  0.00    -0.205 F 
ATOM     46  C   UNL A   1      49.062  28.236  29.141  1.00  0.00     0.022 A 
BRANCH  44  47
ATOM     47  S   UNL A   1      49.488  28.911  26.526  1.00  0.00     0.127 S 
ATOM     48  O   UNL A   1      49.896  30.312  26.426  1.00  0.00    -0.237 OA
ATOM     49  O   UNL A   1      50.569  27.984  26.859  1.00  0.00    -0.237 OA
ATOM     50  O   UNL A   1      48.588  28.450  25.479  1.00  0.00    -0.744 OA
ENDBRANCH  44  47
ENDBRANCH  26  40
BRANCH  27  51
ATOM     51  C   UNL A   1      37.038  32.321  30.406  1.00  0.00     0.023 A 
ATOM     52  C   UNL A   1      36.476  32.086  31.674  1.00  0.00     0.012 A 
ATOM     53  C   UNL A   1      36.258  32.943  29.412  1.00  0.00     0.148 A 
ATOM     54  C   UNL A   1      35.151  32.436  31.937  1.00  0.00     0.002 A 
ATOM     55  C   UNL A   1      34.960  33.345  29.700  1.00  0.00     0.091 A 
ATOM     56  F   UNL A   1      36.804  33.142  28.203  1.00  0.00    -0.205 F 
ATOM     57  C   UNL A   1      34.398  33.075  30.956  1.00  0.00     0.022 A 
BRANCH  55  58
ATOM     58  S   UNL A   1      33.980  34.304  28.540  1.00  0.00     0.127 S 
ATOM     59  O   UNL A   1      33.771  33.344  27.459  1.00  0.00    -0.237 OA
ATOM     60  O   UNL A   1      32.787  34.616  29.328  1.00  0.00    -0.237 OA
ATOM     61  O   UNL A   1      34.797  35.465  28.213  1.00  0.00    -0.744 OA
ENDBRANCH  55  58
ENDBRANCH  27  51
BRANCH  39  62
ATOM     62  C   UNL A   1      43.201  35.316  31.729  1.00  0.00     0.023 A 
ATOM     63  C   UNL A   1      43.327  35.372  33.131  1.00  0.00     0.012 A 
ATOM     64  C   UNL A   1      43.510  36.454  30.959  1.00  0.00     0.148 A 
ATOM     65  C   UNL A   1      43.729  36.549  33.759  1.00  0.00     0.002 A 
ATOM     66  C   UNL A   1      43.958  37.609  31.588  1.00  0.00     0.091 A 
ATOM     67  F   UNL A   1      43.367  36.382  29.627  1.00  0.00    -0.205 F 
ATOM     68  C   UNL A   1      44.056  37.662  32.988  1.00  0.00     0.022 A 
BRANCH  66  69
ATOM     69  S   UNL A   1      44.491  39.061  30.676  1.00  0.00     0.127 S 
ATOM     70  O   UNL A   1      45.045  39.896  31.743  1.00  0.00    -0.237 OA
ATOM     71  O   UNL A   1      45.485  38.503  29.760  1.00  0.00    -0.237 OA
ATOM     72  O   UNL A   1      43.300  39.594  30.029  1.00  0.00    -0.744 OA
ENDBRANCH  66  69
ENDBRANCH  39  62
ENDBRANCH  13  14
ENDBRANCH   6   8
ENDBRANCH   3   4
ENDBRANCH   2   3
ENDBRANCH   1   2
BRANCH   1  73
ATOM     73  C   UNL A   1      33.713  22.482  23.667  1.00  0.00     0.002 C 
BRANCH  73  74
ATOM     74  C   UNL A   1      32.206  22.568  23.938  1.00  0.00     0.021 C 
BRANCH  74  75
ATOM     75  C   UNL A   1      31.470  23.639  23.136  1.00  0.00     0.116 C 
BRANCH  75  76
ATOM     76  N   UNL A   1      32.363  24.318  22.214  1.00  0.00    -0.352 N 
ATOM     77  C   UNL A   1      32.853  25.596  22.280  1.00  0.00     0.255 C 
ATOM     78  H   UNL A   1      32.655  23.789  21.436  1.00  0.00     0.163 HD
ATOM     79  O   UNL A   1      33.353  26.108  21.282  1.00  0.00    -0.269 OA
BRANCH  77  80
ATOM     80  C   UNL A   1      32.769  26.356  23.544  1.00  0.00     0.082 A 
ATOM     81  C   UNL A   1      33.836  26.314  24.444  1.00  0.00     0.020 A 
ATOM     82  C   UNL A   1      31.661  27.170  23.812  1.00  0.00     0.139 A 
ATOM     83  C   UNL A   1      33.744  27.017  25.636  1.00  0.00     0.034 A 
ATOM     84  N   UNL A   1      31.576  27.855  24.976  1.00  0.00    -0.226 NA
ATOM     85  C   UNL A   1      32.595  27.766  25.887  1.00  0.00     0.146 A 
BRANCH  82  86
ATOM     86  N   UNL A   1      30.604  27.235  22.924  1.00  0.00    -0.369 N 
ATOM     87  H   UNL A   1      30.693  26.765  22.063  1.00  0.00     0.162 HD
BRANCH  86  88
ATOM     88  C   UNL A   1      29.375  27.950  23.184  1.00  0.00     0.120 C 
BRANCH  88  89
ATOM     89  C   UNL A   1      29.506  29.482  23.080  1.00  0.00     0.036 C 
ATOM     90  C   UNL A   1      28.234  30.293  23.252  1.00  0.00     0.036 C 
ATOM     91  C   UNL A   1      30.010  29.957  21.721  1.00  0.00     0.165 C 
ATOM     92  C   UNL A   1      27.750  30.495  21.832  1.00  0.00     0.160 C 
ATOM     93  O   UNL A   1      28.919  30.554  21.009  1.00  0.00    -0.381 OA
ENDBRANCH  88  89
ENDBRANCH  86  88
ENDBRANCH  82  86
BRANCH  85  94
ATOM     94  C   UNL A   1      32.463  28.509  27.210  1.00  0.00     0.433 C 
ATOM     95  F   UNL A   1      32.148  29.828  27.054  1.00  0.00    -0.165 F 
ATOM     96  F   UNL A   1      31.507  27.986  28.030  1.00  0.00    -0.165 F 
ATOM     97  F   UNL A   1      33.614  28.499  27.948  1.00  0.00    -0.165 F 
ENDBRANCH  85  94
ENDBRANCH  77  80
ENDBRANCH  75  76
ENDBRANCH  74  75
ENDBRANCH  73  74
ENDBRANCH   1  73
TORSDOF 20
ENDMDL
