MODEL 1
REMARK VINA RESULT:     -10.4      0.000      0.000
REMARK SMILES O=C(NCCCCCCNC(=O)c1ccc(-c2c3nc(c(-c4cccc(S(=O)(=O)[O-])c4F)c4ccc([nH]4)c(-c4cccc(S(=O)(=O)[O-])c4F)c4nc(c(-c5cccc(S(=O)(=O)[O-])c5F)c5ccc2[nH]5)C=C4)C=C3)cc1)C1=NN=C2C=CC=C[C@@H]21
REMARK SMILES IDX 8 1 7 2 6 3 5 4 4 5 3 6 1 7 2 8 76 10 77 11 84 12 78 13
REMARK SMILES IDX 79 14 83 15 80 16 82 17 81 18 9 19 10 20 11 21 12 23 13 24
REMARK SMILES IDX 14 25 75 26 15 27 74 28 16 29 17 30 18 31 68 32 19 33 73 34
REMARK SMILES IDX 67 35 69 36 20 37 72 38 66 39 65 40 21 42 53 43 33 44 52 45
REMARK SMILES IDX 34 46 37 47 51 48 70 49 35 50 36 51 50 53 71 54 38 55 22 56
REMARK SMILES IDX 23 57 31 58 24 59 26 60 32 61 25 62 27 63 28 64 29 65 30 66
REMARK SMILES IDX 54 67 55 68 63 69 56 70 58 71 64 72 57 73 59 74 60 75 61 76
REMARK SMILES IDX 62 77 39 78 40 79 48 80 41 81 43 82 49 83 42 84 44 85 45 86
REMARK SMILES IDX 46 87 47 88
REMARK H PARENT 3 9 10 22 69 41 37 52
REMARK Flexibility Score: inf
ROOT
ATOM      1  C   UNL A   1      33.749  33.931  27.997  1.00  0.00     0.021 C 
ENDROOT
BRANCH   1   2
ATOM      2  C   UNL A   1      33.510  34.538  29.381  1.00  0.00     0.002 C 
BRANCH   2   3
ATOM      3  C   UNL A   1      33.387  36.063  29.426  1.00  0.00     0.002 C 
BRANCH   3   4
ATOM      4  C   UNL A   1      33.087  36.663  30.797  1.00  0.00     0.021 C 
BRANCH   4   5
ATOM      5  C   UNL A   1      32.594  35.689  31.856  1.00  0.00     0.116 C 
BRANCH   5   6
ATOM      6  N   UNL A   1      33.259  35.800  33.142  1.00  0.00    -0.351 N 
ATOM      7  O   UNL A   1      34.930  35.418  34.638  1.00  0.00    -0.268 OA
ATOM      8  C   UNL A   1      34.402  35.155  33.565  1.00  0.00     0.268 C 
ATOM      9  H   UNL A   1      32.844  36.412  33.791  1.00  0.00     0.163 HD
BRANCH   8  10
ATOM     10  C   UNL A   1      35.000  34.087  32.696  1.00  0.00     0.140 C 
ATOM     11  N   UNL A   1      34.457  32.918  32.514  1.00  0.00    -0.148 NA
ATOM     12  C   UNL A   1      36.183  34.350  31.838  1.00  0.00     0.120 C 
ATOM     13  N   UNL A   1      35.230  32.223  31.516  1.00  0.00    -0.154 NA
ATOM     14  C   UNL A   1      36.202  32.999  31.159  1.00  0.00     0.076 C 
ATOM     15  C   UNL A   1      37.569  34.592  32.324  1.00  0.00    -0.010 C 
ATOM     16  C   UNL A   1      37.239  32.764  30.131  1.00  0.00     0.027 C 
ATOM     17  C   UNL A   1      38.544  34.333  31.432  1.00  0.00    -0.003 C 
ATOM     18  C   UNL A   1      38.212  33.693  30.162  1.00  0.00     0.002 C 
ENDBRANCH   8  10
ENDBRANCH   5   6
ENDBRANCH   4   5
ENDBRANCH   3   4
ENDBRANCH   2   3
ENDBRANCH   1   2
BRANCH   1  19
ATOM     19  C   UNL A   1      34.683  32.726  27.970  1.00  0.00     0.116 C 
BRANCH  19  20
ATOM     20  N   UNL A   1      33.988  31.496  27.628  1.00  0.00    -0.352 N 
ATOM     21  C   UNL A   1      34.468  30.206  27.561  1.00  0.00     0.251 C 
ATOM     22  H   UNL A   1      33.033  31.600  27.412  1.00  0.00     0.163 HD
ATOM     23  O   UNL A   1      33.788  29.326  27.072  1.00  0.00    -0.269 OA
BRANCH  21  24
ATOM     24  C   UNL A   1      35.829  29.907  28.071  1.00  0.00     0.039 A 
ATOM     25  C   UNL A   1      35.964  29.401  29.366  1.00  0.00     0.014 A 
ATOM     26  C   UNL A   1      36.960  30.123  27.280  1.00  0.00     0.014 A 
ATOM     27  C   UNL A   1      37.231  29.055  29.842  1.00  0.00     0.010 A 
ATOM     28  C   UNL A   1      38.208  29.695  27.724  1.00  0.00     0.010 A 
ATOM     29  C   UNL A   1      38.360  29.163  29.012  1.00  0.00    -0.014 A 
BRANCH  29  30
ATOM     30  C   UNL A   1      39.697  28.708  29.474  1.00  0.00     0.031 A 
ATOM     31  C   UNL A   1      40.412  29.437  30.579  1.00  0.00     0.074 A 
ATOM     32  C   UNL A   1      40.298  27.673  28.852  1.00  0.00     0.049 A 
ATOM     33  N   UNL A   1      41.593  29.200  31.092  1.00  0.00    -0.248 NA
ATOM     34  C   UNL A   1      39.723  30.592  31.177  1.00  0.00     0.031 C 
ATOM     35  C   UNL A   1      39.736  26.918  27.729  1.00  0.00     0.029 A 
ATOM     36  N   UNL A   1      41.520  27.084  29.066  1.00  0.00    -0.354 N 
ATOM     37  C   UNL A   1      41.801  30.190  32.044  1.00  0.00     0.074 A 
ATOM     38  C   UNL A   1      40.640  31.051  32.017  1.00  0.00     0.031 C 
ATOM     39  C   UNL A   1      40.597  25.955  27.370  1.00  0.00     0.029 A 
ATOM     40  C   UNL A   1      41.794  26.052  28.198  1.00  0.00     0.049 A 
ATOM     41  H   UNL A   1      42.141  27.373  29.773  1.00  0.00     0.167 HD
ATOM     42  C   UNL A   1      42.853  30.356  32.879  1.00  0.00     0.034 A 
ATOM     43  C   UNL A   1      42.891  25.279  28.071  1.00  0.00     0.034 A 
ATOM     44  C   UNL A   1      44.000  29.489  32.914  1.00  0.00     0.049 A 
ATOM     45  C   UNL A   1      44.050  25.495  29.006  1.00  0.00     0.074 A 
ATOM     46  C   UNL A   1      45.083  29.535  33.774  1.00  0.00     0.029 A 
ATOM     47  N   UNL A   1      44.228  28.439  32.040  1.00  0.00    -0.354 N 
ATOM     48  N   UNL A   1      44.171  26.356  29.986  1.00  0.00    -0.248 NA
ATOM     49  C   UNL A   1      45.212  24.610  28.838  1.00  0.00     0.031 C 
ATOM     50  C   UNL A   1      45.994  28.550  33.382  1.00  0.00     0.029 A 
ATOM     51  C   UNL A   1      45.446  27.844  32.323  1.00  0.00     0.049 A 
ATOM     52  H   UNL A   1      43.615  28.156  31.323  1.00  0.00     0.167 HD
ATOM     53  C   UNL A   1      45.400  26.088  30.579  1.00  0.00     0.074 A 
ATOM     54  C   UNL A   1      45.977  24.974  29.857  1.00  0.00     0.031 C 
ATOM     55  C   UNL A   1      45.997  26.712  31.624  1.00  0.00     0.034 A 
BRANCH  42  56
ATOM     56  C   UNL A   1      42.813  31.516  33.842  1.00  0.00     0.023 A 
ATOM     57  C   UNL A   1      43.303  32.778  33.451  1.00  0.00     0.012 A 
ATOM     58  C   UNL A   1      42.218  31.369  35.112  1.00  0.00     0.148 A 
ATOM     59  C   UNL A   1      43.236  33.866  34.320  1.00  0.00     0.002 A 
ATOM     60  C   UNL A   1      42.106  32.470  35.951  1.00  0.00     0.091 A 
ATOM     61  F   UNL A   1      41.771  30.157  35.471  1.00  0.00    -0.205 F 
ATOM     62  C   UNL A   1      42.627  33.716  35.563  1.00  0.00     0.022 A 
BRANCH  60  63
ATOM     63  S   UNL A   1      41.267  32.400  37.536  1.00  0.00     0.127 S 
ATOM     64  O   UNL A   1      39.987  31.797  37.166  1.00  0.00    -0.237 OA
ATOM     65  O   UNL A   1      42.150  31.528  38.310  1.00  0.00    -0.237 OA
ATOM     66  O   UNL A   1      41.189  33.773  38.014  1.00  0.00    -0.744 OA
ENDBRANCH  60  63
ENDBRANCH  42  56
BRANCH  43  67
ATOM     67  C   UNL A   1      42.935  24.200  27.044  1.00  0.00     0.023 A 
ATOM     68  C   UNL A   1      43.661  24.401  25.854  1.00  0.00     0.012 A 
ATOM     69  C   UNL A   1      42.264  22.978  27.241  1.00  0.00     0.148 A 
ATOM     70  C   UNL A   1      43.683  23.421  24.861  1.00  0.00     0.002 A 
ATOM     71  C   UNL A   1      42.339  21.983  26.274  1.00  0.00     0.091 A 
ATOM     72  F   UNL A   1      41.576  22.809  28.379  1.00  0.00    -0.205 F 
ATOM     73  C   UNL A   1      43.030  22.210  25.074  1.00  0.00     0.022 A 
BRANCH  71  74
ATOM     74  S   UNL A   1      41.631  20.351  26.513  1.00  0.00     0.127 S 
ATOM     75  O   UNL A   1      42.212  19.957  27.794  1.00  0.00    -0.237 OA
ATOM     76  O   UNL A   1      40.199  20.650  26.551  1.00  0.00    -0.237 OA
ATOM     77  O   UNL A   1      42.052  19.562  25.364  1.00  0.00    -0.744 OA
ENDBRANCH  71  74
ENDBRANCH  43  67
BRANCH  55  78
ATOM     78  C   UNL A   1      47.322  26.172  32.101  1.00  0.00     0.023 A 
ATOM     79  C   UNL A   1      48.528  26.654  31.554  1.00  0.00     0.012 A 
ATOM     80  C   UNL A   1      47.364  25.228  33.146  1.00  0.00     0.148 A 
ATOM     81  C   UNL A   1      49.754  26.171  32.012  1.00  0.00     0.002 A 
ATOM     82  C   UNL A   1      48.590  24.796  33.637  1.00  0.00     0.091 A 
ATOM     83  F   UNL A   1      46.206  24.772  33.643  1.00  0.00    -0.205 F 
ATOM     84  C   UNL A   1      49.786  25.254  33.059  1.00  0.00     0.022 A 
BRANCH  82  85
ATOM     85  S   UNL A   1      48.732  23.694  35.046  1.00  0.00     0.127 S 
ATOM     86  O   UNL A   1      48.050  24.457  36.091  1.00  0.00    -0.237 OA
ATOM     87  O   UNL A   1      48.008  22.510  34.585  1.00  0.00    -0.237 OA
ATOM     88  O   UNL A   1      50.159  23.490  35.259  1.00  0.00    -0.744 OA
ENDBRANCH  82  85
ENDBRANCH  55  78
ENDBRANCH  29  30
ENDBRANCH  21  24
ENDBRANCH  19  20
ENDBRANCH   1  19
TORSDOF 16
ENDMDL
MODEL 2
REMARK VINA RESULT:     -10.4      6.141     11.301
REMARK SMILES O=C(NCCCCCCNC(=O)c1ccc(-c2c3nc(c(-c4cccc(S(=O)(=O)[O-])c4F)c4ccc([nH]4)c(-c4cccc(S(=O)(=O)[O-])c4F)c4nc(c(-c5cccc(S(=O)(=O)[O-])c5F)c5ccc2[nH]5)C=C4)C=C3)cc1)C1=NN=C2C=CC=C[C@@H]21
REMARK SMILES IDX 8 1 7 2 6 3 5 4 4 5 3 6 1 7 2 8 76 10 77 11 84 12 78 13
REMARK SMILES IDX 79 14 83 15 80 16 82 17 81 18 9 19 10 20 11 21 12 23 13 24
REMARK SMILES IDX 14 25 75 26 15 27 74 28 16 29 17 30 18 31 68 32 19 33 73 34
REMARK SMILES IDX 67 35 69 36 20 37 72 38 66 39 65 40 21 42 53 43 33 44 52 45
REMARK SMILES IDX 34 46 37 47 51 48 70 49 35 50 36 51 50 53 71 54 38 55 22 56
REMARK SMILES IDX 23 57 31 58 24 59 26 60 32 61 25 62 27 63 28 64 29 65 30 66
REMARK SMILES IDX 54 67 55 68 63 69 56 70 58 71 64 72 57 73 59 74 60 75 61 76
REMARK SMILES IDX 62 77 39 78 40 79 48 80 41 81 43 82 49 83 42 84 44 85 45 86
REMARK SMILES IDX 46 87 47 88
REMARK H PARENT 3 9 10 22 69 41 37 52
REMARK Flexibility Score: inf
ROOT
ATOM      1  C   UNL A   1      35.962  22.280  24.979  1.00  0.00     0.021 C 
ENDROOT
BRANCH   1   2
ATOM      2  C   UNL A   1      35.520  23.707  25.308  1.00  0.00     0.002 C 
BRANCH   2   3
ATOM      3  C   UNL A   1      34.870  24.482  24.158  1.00  0.00     0.002 C 
BRANCH   3   4
ATOM      4  C   UNL A   1      33.581  25.222  24.505  1.00  0.00     0.021 C 
BRANCH   4   5
ATOM      5  C   UNL A   1      33.289  25.394  25.988  1.00  0.00     0.116 C 
BRANCH   5   6
ATOM      6  N   UNL A   1      31.918  25.118  26.374  1.00  0.00    -0.351 N 
ATOM      7  O   UNL A   1      30.217  23.829  27.163  1.00  0.00    -0.268 OA
ATOM      8  C   UNL A   1      31.367  23.911  26.750  1.00  0.00     0.268 C 
ATOM      9  H   UNL A   1      31.304  25.888  26.367  1.00  0.00     0.163 HD
BRANCH   8  10
ATOM     10  C   UNL A   1      32.194  22.664  26.629  1.00  0.00     0.140 C 
ATOM     11  N   UNL A   1      33.060  22.284  27.523  1.00  0.00    -0.148 NA
ATOM     12  C   UNL A   1      31.962  21.675  25.546  1.00  0.00     0.120 C 
ATOM     13  N   UNL A   1      33.548  20.984  27.139  1.00  0.00    -0.154 NA
ATOM     14  C   UNL A   1      32.966  20.654  26.032  1.00  0.00     0.076 C 
ATOM     15  C   UNL A   1      32.250  21.889  24.102  1.00  0.00    -0.010 C 
ATOM     16  C   UNL A   1      33.093  19.399  25.262  1.00  0.00     0.027 C 
ATOM     17  C   UNL A   1      32.429  20.766  23.379  1.00  0.00    -0.003 C 
ATOM     18  C   UNL A   1      32.501  19.475  24.055  1.00  0.00     0.002 C 
ENDBRANCH   8  10
ENDBRANCH   5   6
ENDBRANCH   4   5
ENDBRANCH   3   4
ENDBRANCH   2   3
ENDBRANCH   1   2
BRANCH   1  19
ATOM     19  C   UNL A   1      37.424  22.132  24.571  1.00  0.00     0.116 C 
BRANCH  19  20
ATOM     20  N   UNL A   1      38.094  21.063  25.295  1.00  0.00    -0.352 N 
ATOM     21  C   UNL A   1      39.163  21.127  26.163  1.00  0.00     0.251 C 
ATOM     22  H   UNL A   1      37.730  20.162  25.142  1.00  0.00     0.163 HD
ATOM     23  O   UNL A   1      39.712  20.107  26.529  1.00  0.00    -0.269 OA
BRANCH  21  24
ATOM     24  C   UNL A   1      39.647  22.449  26.628  1.00  0.00     0.039 A 
ATOM     25  C   UNL A   1      40.704  22.495  27.539  1.00  0.00     0.014 A 
ATOM     26  C   UNL A   1      39.063  23.633  26.169  1.00  0.00     0.014 A 
ATOM     27  C   UNL A   1      41.215  23.731  27.941  1.00  0.00     0.010 A 
ATOM     28  C   UNL A   1      39.632  24.860  26.503  1.00  0.00     0.010 A 
ATOM     29  C   UNL A   1      40.709  24.924  27.399  1.00  0.00    -0.014 A 
BRANCH  29  30
ATOM     30  C   UNL A   1      41.307  26.240  27.745  1.00  0.00     0.031 A 
ATOM     31  C   UNL A   1      42.722  26.562  27.347  1.00  0.00     0.074 A 
ATOM     32  C   UNL A   1      40.595  27.123  28.474  1.00  0.00     0.049 A 
ATOM     33  N   UNL A   1      43.418  27.644  27.587  1.00  0.00    -0.248 NA
ATOM     34  C   UNL A   1      43.462  25.531  26.600  1.00  0.00     0.031 C 
ATOM     35  C   UNL A   1      39.234  26.908  28.970  1.00  0.00     0.029 A 
ATOM     36  N   UNL A   1      40.921  28.373  28.938  1.00  0.00    -0.354 N 
ATOM     37  C   UNL A   1      44.679  27.414  27.052  1.00  0.00     0.074 A 
ATOM     38  C   UNL A   1      44.666  26.076  26.503  1.00  0.00     0.031 C 
ATOM     39  C   UNL A   1      38.834  27.995  29.646  1.00  0.00     0.029 A 
ATOM     40  C   UNL A   1      39.924  28.965  29.678  1.00  0.00     0.049 A 
ATOM     41  H   UNL A   1      41.788  28.806  28.757  1.00  0.00     0.167 HD
ATOM     42  C   UNL A   1      45.745  28.247  27.003  1.00  0.00     0.034 A 
ATOM     43  C   UNL A   1      39.893  30.147  30.324  1.00  0.00     0.034 A 
ATOM     44  C   UNL A   1      45.751  29.582  27.535  1.00  0.00     0.049 A 
ATOM     45  C   UNL A   1      41.097  31.047  30.261  1.00  0.00     0.074 A 
ATOM     46  C   UNL A   1      46.759  30.527  27.470  1.00  0.00     0.029 A 
ATOM     47  N   UNL A   1      44.713  30.155  28.252  1.00  0.00    -0.354 N 
ATOM     48  N   UNL A   1      42.235  30.862  29.638  1.00  0.00    -0.248 NA
ATOM     49  C   UNL A   1      41.002  32.334  30.965  1.00  0.00     0.031 C 
ATOM     50  C   UNL A   1      46.355  31.650  28.198  1.00  0.00     0.029 A 
ATOM     51  C   UNL A   1      45.066  31.431  28.656  1.00  0.00     0.049 A 
ATOM     52  H   UNL A   1      43.851  29.720  28.445  1.00  0.00     0.167 HD
ATOM     53  C   UNL A   1      42.972  32.024  29.837  1.00  0.00     0.074 A 
ATOM     54  C   UNL A   1      42.145  32.913  30.625  1.00  0.00     0.031 C 
ATOM     55  C   UNL A   1      44.222  32.325  29.408  1.00  0.00     0.034 A 
BRANCH  42  56
ATOM     56  C   UNL A   1      47.001  27.746  26.334  1.00  0.00     0.023 A 
ATOM     57  C   UNL A   1      47.948  27.008  27.072  1.00  0.00     0.012 A 
ATOM     58  C   UNL A   1      47.203  27.945  24.954  1.00  0.00     0.148 A 
ATOM     59  C   UNL A   1      49.095  26.507  26.455  1.00  0.00     0.002 A 
ATOM     60  C   UNL A   1      48.320  27.398  24.336  1.00  0.00     0.091 A 
ATOM     61  F   UNL A   1      46.299  28.663  24.273  1.00  0.00    -0.205 F 
ATOM     62  C   UNL A   1      49.274  26.691  25.087  1.00  0.00     0.022 A 
BRANCH  60  63
ATOM     63  S   UNL A   1      48.602  27.509  22.566  1.00  0.00     0.127 S 
ATOM     64  O   UNL A   1      48.620  26.098  22.182  1.00  0.00    -0.237 OA
ATOM     65  O   UNL A   1      47.423  28.248  22.117  1.00  0.00    -0.237 OA
ATOM     66  O   UNL A   1      49.866  28.212  22.400  1.00  0.00    -0.744 OA
ENDBRANCH  60  63
ENDBRANCH  42  56
BRANCH  43  67
ATOM     67  C   UNL A   1      38.666  30.572  31.055  1.00  0.00     0.023 A 
ATOM     68  C   UNL A   1      38.534  30.276  32.425  1.00  0.00     0.012 A 
ATOM     69  C   UNL A   1      37.631  31.268  30.400  1.00  0.00     0.148 A 
ATOM     70  C   UNL A   1      37.377  30.628  33.121  1.00  0.00     0.002 A 
ATOM     71  C   UNL A   1      36.507  31.668  31.112  1.00  0.00     0.091 A 
ATOM     72  F   UNL A   1      37.775  31.536  29.095  1.00  0.00    -0.205 F 
ATOM     73  C   UNL A   1      36.368  31.330  32.468  1.00  0.00     0.022 A 
BRANCH  71  74
ATOM     74  S   UNL A   1      35.214  32.679  30.385  1.00  0.00     0.127 S 
ATOM     75  O   UNL A   1      35.952  33.879  30.003  1.00  0.00    -0.237 OA
ATOM     76  O   UNL A   1      34.774  31.841  29.268  1.00  0.00    -0.237 OA
ATOM     77  O   UNL A   1      34.217  32.862  31.430  1.00  0.00    -0.744 OA
ENDBRANCH  71  74
ENDBRANCH  43  67
BRANCH  55  78
ATOM     78  C   UNL A   1      44.762  33.696  29.725  1.00  0.00     0.023 A 
ATOM     79  C   UNL A   1      45.494  33.921  30.908  1.00  0.00     0.012 A 
ATOM     80  C   UNL A   1      44.594  34.751  28.805  1.00  0.00     0.148 A 
ATOM     81  C   UNL A   1      46.013  35.185  31.189  1.00  0.00     0.002 A 
ATOM     82  C   UNL A   1      45.165  35.990  29.064  1.00  0.00     0.091 A 
ATOM     83  F   UNL A   1      43.883  34.520  27.692  1.00  0.00    -0.205 F 
ATOM     84  C   UNL A   1      45.860  36.214  30.264  1.00  0.00     0.022 A 
BRANCH  82  85
ATOM     85  S   UNL A   1      45.105  37.345  27.888  1.00  0.00     0.127 S 
ATOM     86  O   UNL A   1      43.688  37.705  27.922  1.00  0.00    -0.237 OA
ATOM     87  O   UNL A   1      45.999  38.326  28.503  1.00  0.00    -0.237 OA
ATOM     88  O   UNL A   1      45.576  36.803  26.620  1.00  0.00    -0.744 OA
ENDBRANCH  82  85
ENDBRANCH  55  78
ENDBRANCH  29  30
ENDBRANCH  21  24
ENDBRANCH  19  20
ENDBRANCH   1  19
TORSDOF 16
ENDMDL
MODEL 3
REMARK VINA RESULT:     -10.3      3.834      6.419
REMARK SMILES O=C(NCCCCCCNC(=O)c1ccc(-c2c3nc(c(-c4cccc(S(=O)(=O)[O-])c4F)c4ccc([nH]4)c(-c4cccc(S(=O)(=O)[O-])c4F)c4nc(c(-c5cccc(S(=O)(=O)[O-])c5F)c5ccc2[nH]5)C=C4)C=C3)cc1)C1=NN=C2C=CC=C[C@@H]21
REMARK SMILES IDX 8 1 7 2 6 3 5 4 4 5 3 6 1 7 2 8 76 10 77 11 84 12 78 13
REMARK SMILES IDX 79 14 83 15 80 16 82 17 81 18 9 19 10 20 11 21 12 23 13 24
REMARK SMILES IDX 14 25 75 26 15 27 74 28 16 29 17 30 18 31 68 32 19 33 73 34
REMARK SMILES IDX 67 35 69 36 20 37 72 38 66 39 65 40 21 42 53 43 33 44 52 45
REMARK SMILES IDX 34 46 37 47 51 48 70 49 35 50 36 51 50 53 71 54 38 55 22 56
REMARK SMILES IDX 23 57 31 58 24 59 26 60 32 61 25 62 27 63 28 64 29 65 30 66
REMARK SMILES IDX 54 67 55 68 63 69 56 70 58 71 64 72 57 73 59 74 60 75 61 76
REMARK SMILES IDX 62 77 39 78 40 79 48 80 41 81 43 82 49 83 42 84 44 85 45 86
REMARK SMILES IDX 46 87 47 88
REMARK H PARENT 3 9 10 22 69 41 37 52
REMARK Flexibility Score: inf
ROOT
ATOM      1  C   UNL A   1      31.922  28.534  26.303  1.00  0.00     0.021 C 
ENDROOT
BRANCH   1   2
ATOM      2  C   UNL A   1      30.985  27.913  25.266  1.00  0.00     0.002 C 
BRANCH   2   3
ATOM      3  C   UNL A   1      30.975  28.586  23.891  1.00  0.00     0.002 C 
BRANCH   3   4
ATOM      4  C   UNL A   1      30.222  27.840  22.794  1.00  0.00     0.021 C 
BRANCH   4   5
ATOM      5  C   UNL A   1      30.752  26.458  22.443  1.00  0.00     0.116 C 
BRANCH   5   6
ATOM      6  N   UNL A   1      31.640  26.420  21.296  1.00  0.00    -0.351 N 
ATOM      7  O   UNL A   1      33.253  25.522  19.966  1.00  0.00    -0.268 OA
ATOM      8  C   UNL A   1      32.644  25.513  21.028  1.00  0.00     0.268 C 
ATOM      9  H   UNL A   1      31.510  27.129  20.626  1.00  0.00     0.163 HD
BRANCH   8  10
ATOM     10  C   UNL A   1      33.011  24.503  22.076  1.00  0.00     0.140 C 
ATOM     11  N   UNL A   1      32.674  23.247  22.017  1.00  0.00    -0.148 NA
ATOM     12  C   UNL A   1      33.941  24.833  23.187  1.00  0.00     0.120 C 
ATOM     13  N   UNL A   1      33.320  22.566  23.110  1.00  0.00    -0.154 NA
ATOM     14  C   UNL A   1      33.999  23.442  23.777  1.00  0.00     0.076 C 
ATOM     15  C   UNL A   1      33.645  25.754  24.318  1.00  0.00    -0.010 C 
ATOM     16  C   UNL A   1      34.870  23.234  24.953  1.00  0.00     0.027 C 
ATOM     17  C   UNL A   1      34.381  25.556  25.428  1.00  0.00    -0.003 C 
ATOM     18  C   UNL A   1      35.260  24.393  25.515  1.00  0.00     0.002 C 
ENDBRANCH   8  10
ENDBRANCH   5   6
ENDBRANCH   4   5
ENDBRANCH   3   4
ENDBRANCH   2   3
ENDBRANCH   1   2
BRANCH   1  19
ATOM     19  C   UNL A   1      32.926  29.540  25.749  1.00  0.00     0.116 C 
BRANCH  19  20
ATOM     20  N   UNL A   1      32.630  30.901  26.164  1.00  0.00    -0.352 N 
ATOM     21  C   UNL A   1      33.245  31.682  27.119  1.00  0.00     0.251 C 
ATOM     22  H   UNL A   1      31.879  31.329  25.692  1.00  0.00     0.163 HD
ATOM     23  O   UNL A   1      32.743  32.732  27.466  1.00  0.00    -0.269 OA
BRANCH  21  24
ATOM     24  C   UNL A   1      34.513  31.217  27.733  1.00  0.00     0.039 A 
ATOM     25  C   UNL A   1      35.478  32.166  28.081  1.00  0.00     0.014 A 
ATOM     26  C   UNL A   1      34.749  29.860  27.964  1.00  0.00     0.014 A 
ATOM     27  C   UNL A   1      36.651  31.755  28.716  1.00  0.00     0.010 A 
ATOM     28  C   UNL A   1      35.878  29.464  28.676  1.00  0.00     0.010 A 
ATOM     29  C   UNL A   1      36.846  30.405  29.054  1.00  0.00    -0.014 A 
BRANCH  29  30
ATOM     30  C   UNL A   1      38.046  29.970  29.816  1.00  0.00     0.031 A 
ATOM     31  C   UNL A   1      38.293  30.484  31.208  1.00  0.00     0.074 A 
ATOM     32  C   UNL A   1      38.947  29.157  29.228  1.00  0.00     0.049 A 
ATOM     33  N   UNL A   1      39.297  30.236  32.010  1.00  0.00    -0.248 NA
ATOM     34  C   UNL A   1      37.297  31.412  31.769  1.00  0.00     0.031 C 
ATOM     35  C   UNL A   1      38.853  28.634  27.863  1.00  0.00     0.029 A 
ATOM     36  N   UNL A   1      40.129  28.638  29.698  1.00  0.00    -0.354 N 
ATOM     37  C   UNL A   1      39.072  30.997  33.150  1.00  0.00     0.074 A 
ATOM     38  C   UNL A   1      37.853  31.742  32.925  1.00  0.00     0.031 C 
ATOM     39  C   UNL A   1      39.914  27.853  27.615  1.00  0.00     0.029 A 
ATOM     40  C   UNL A   1      40.793  27.858  28.781  1.00  0.00     0.049 A 
ATOM     41  H   UNL A   1      40.469  28.809  30.607  1.00  0.00     0.167 HD
ATOM     42  C   UNL A   1      39.801  31.056  34.289  1.00  0.00     0.034 A 
ATOM     43  C   UNL A   1      41.981  27.228  28.859  1.00  0.00     0.034 A 
ATOM     44  C   UNL A   1      41.004  30.302  34.517  1.00  0.00     0.049 A 
ATOM     45  C   UNL A   1      42.775  27.321  30.134  1.00  0.00     0.074 A 
ATOM     46  C   UNL A   1      41.773  30.241  35.665  1.00  0.00     0.029 A 
ATOM     47  N   UNL A   1      41.629  29.501  33.574  1.00  0.00    -0.354 N 
ATOM     48  N   UNL A   1      42.478  27.943  31.248  1.00  0.00    -0.248 NA
ATOM     49  C   UNL A   1      44.055  26.598  30.173  1.00  0.00     0.031 C 
ATOM     50  C   UNL A   1      42.895  29.450  35.398  1.00  0.00     0.029 A 
ATOM     51  C   UNL A   1      42.787  28.961  34.107  1.00  0.00     0.049 A 
ATOM     52  H   UNL A   1      41.298  29.339  32.661  1.00  0.00     0.167 HD
ATOM     53  C   UNL A   1      43.509  27.651  32.134  1.00  0.00     0.074 A 
ATOM     54  C   UNL A   1      44.430  26.782  31.432  1.00  0.00     0.031 C 
ATOM     55  C   UNL A   1      43.679  28.067  33.413  1.00  0.00     0.034 A 
BRANCH  42  56
ATOM     56  C   UNL A   1      39.311  31.958  35.394  1.00  0.00     0.023 A 
ATOM     57  C   UNL A   1      38.404  31.470  36.356  1.00  0.00     0.012 A 
ATOM     58  C   UNL A   1      39.811  33.270  35.519  1.00  0.00     0.148 A 
ATOM     59  C   UNL A   1      37.974  32.284  37.404  1.00  0.00     0.002 A 
ATOM     60  C   UNL A   1      39.420  34.056  36.595  1.00  0.00     0.091 A 
ATOM     61  F   UNL A   1      40.661  33.720  34.585  1.00  0.00    -0.205 F 
ATOM     62  C   UNL A   1      38.491  33.570  37.530  1.00  0.00     0.022 A 
BRANCH  60  63
ATOM     63  S   UNL A   1      40.089  35.695  36.893  1.00  0.00     0.127 S 
ATOM     64  O   UNL A   1      39.610  36.426  35.720  1.00  0.00    -0.237 OA
ATOM     65  O   UNL A   1      39.439  36.065  38.149  1.00  0.00    -0.237 OA
ATOM     66  O   UNL A   1      41.534  35.534  36.974  1.00  0.00    -0.744 OA
ENDBRANCH  60  63
ENDBRANCH  42  56
BRANCH  43  67
ATOM     67  C   UNL A   1      42.481  26.419  27.711  1.00  0.00     0.023 A 
ATOM     68  C   UNL A   1      43.365  27.000  26.782  1.00  0.00     0.012 A 
ATOM     69  C   UNL A   1      42.086  25.078  27.538  1.00  0.00     0.148 A 
ATOM     70  C   UNL A   1      43.813  26.275  25.678  1.00  0.00     0.002 A 
ATOM     71  C   UNL A   1      42.583  24.343  26.470  1.00  0.00     0.091 A 
ATOM     72  F   UNL A   1      41.242  24.546  28.433  1.00  0.00    -0.205 F 
ATOM     73  C   UNL A   1      43.430  24.946  25.525  1.00  0.00     0.022 A 
BRANCH  71  74
ATOM     74  S   UNL A   1      42.240  22.593  26.260  1.00  0.00     0.127 S 
ATOM     75  O   UNL A   1      42.823  22.027  27.474  1.00  0.00    -0.237 OA
ATOM     76  O   UNL A   1      40.777  22.580  26.213  1.00  0.00    -0.237 OA
ATOM     77  O   UNL A   1      42.887  22.207  25.014  1.00  0.00    -0.744 OA
ENDBRANCH  71  74
ENDBRANCH  43  67
BRANCH  55  78
ATOM     78  C   UNL A   1      44.874  27.546  34.169  1.00  0.00     0.023 A 
ATOM     79  C   UNL A   1      46.070  28.290  34.217  1.00  0.00     0.012 A 
ATOM     80  C   UNL A   1      44.782  26.338  34.889  1.00  0.00     0.148 A 
ATOM     81  C   UNL A   1      47.168  27.818  34.936  1.00  0.00     0.002 A 
ATOM     82  C   UNL A   1      45.859  25.904  35.651  1.00  0.00     0.091 A 
ATOM     83  F   UNL A   1      43.641  25.638  34.820  1.00  0.00    -0.205 F 
ATOM     84  C   UNL A   1      47.060  26.634  35.662  1.00  0.00     0.022 A 
BRANCH  82  85
ATOM     85  S   UNL A   1      45.779  24.446  36.695  1.00  0.00     0.127 S 
ATOM     86  O   UNL A   1      47.192  24.217  36.995  1.00  0.00    -0.237 OA
ATOM     87  O   UNL A   1      44.983  24.921  37.826  1.00  0.00    -0.237 OA
ATOM     88  O   UNL A   1      45.140  23.409  35.895  1.00  0.00    -0.744 OA
ENDBRANCH  82  85
ENDBRANCH  55  78
ENDBRANCH  29  30
ENDBRANCH  21  24
ENDBRANCH  19  20
ENDBRANCH   1  19
TORSDOF 16
ENDMDL
