MODEL 1
REMARK VINA RESULT:     -13.0      0.000      0.000
REMARK SMILES Cc1ccc(NC(=O)c2ccccc2NC(=O)[C@H]2CCCC[C@H]2C(=O)NCCCCCCNC(=O)c2ccc(-c3c4nc(c(-c5cccc(S(=O)(=O)[O-])c5F)c5ccc([nH]5)c(-c5cccc(S(=O)(=O)[O-])c5F)c5nc(c(-c6cccc(S(=O)(=O)[O-])c6F)c6ccc3[nH]6)C=C5)C=C4)cc2)cc1
REMARK SMILES IDX 29 1 28 2 27 3 26 4 24 5 25 6 23 8 18 9 19 10 20 11 22 12
REMARK SMILES IDX 21 13 16 14 15 15 17 17 14 18 9 19 10 20 11 21 13 22 12 23
REMARK SMILES IDX 7 24 6 25 8 27 5 28 1 29 2 30 3 31 100 32 4 33 99 34 30 35
REMARK SMILES IDX 31 36 32 37 33 38 34 39 35 41 36 42 37 43 98 44 38 45 97 46
REMARK SMILES IDX 39 47 40 48 41 49 91 50 42 51 96 52 90 53 92 54 43 55 95 56
REMARK SMILES IDX 89 57 88 58 44 60 76 61 56 62 75 63 57 64 60 65 74 66 93 67
REMARK SMILES IDX 58 68 59 69 73 71 94 72 61 73 45 74 46 75 54 76 47 77 49 78
REMARK SMILES IDX 55 79 48 80 50 81 51 82 52 83 53 84 77 85 78 86 86 87 79 88
REMARK SMILES IDX 81 89 87 90 80 91 82 92 83 93 84 94 85 95 62 96 63 97 71 98
REMARK SMILES IDX 64 99 66 100 72 101 65 102 67 103 68 104 69 105 70 106
REMARK H PARENT 26 7 15 16 6 26 33 40 92 59 60 70
REMARK Flexibility Score: inf
ROOT
ATOM      1  C   UNL A   1      35.584  23.379  23.594  1.00  0.00     0.002 C 
ENDROOT
BRANCH   1   2
ATOM      2  C   UNL A   1      34.488  22.579  22.884  1.00  0.00     0.021 C 
BRANCH   2   3
ATOM      3  C   UNL A   1      33.606  23.372  21.910  1.00  0.00     0.116 C 
BRANCH   3   4
ATOM      4  N   UNL A   1      32.231  23.459  22.367  1.00  0.00    -0.356 N 
ATOM      5  C   UNL A   1      31.634  23.302  23.572  1.00  0.00     0.223 C 
ATOM      6  O   UNL A   1      30.405  23.456  23.591  1.00  0.00    -0.275 OA
ATOM      7  H   UNL A   1      31.598  23.680  21.647  1.00  0.00     0.163 HD
BRANCH   5   8
ATOM      8  C   UNL A   1      32.337  22.908  24.875  1.00  0.00     0.091 C 
ATOM      9  C   UNL A   1      32.624  24.113  25.793  1.00  0.00     0.091 C 
ATOM     10  C   UNL A   1      33.456  23.708  27.024  1.00  0.00     0.014 C 
ATOM     11  C   UNL A   1      32.955  22.436  27.716  1.00  0.00     0.001 C 
ATOM     12  C   UNL A   1      31.860  21.638  25.581  1.00  0.00     0.014 C 
ATOM     13  C   UNL A   1      32.790  21.276  26.741  1.00  0.00     0.001 C 
BRANCH   9  14
ATOM     14  C   UNL A   1      31.360  24.783  26.269  1.00  0.00     0.228 C 
ATOM     15  N   UNL A   1      31.166  26.120  26.303  1.00  0.00    -0.325 N 
ATOM     16  H   UNL A   1      30.209  26.328  26.393  1.00  0.00     0.169 HD
ATOM     17  O   UNL A   1      30.406  24.084  26.633  1.00  0.00    -0.274 OA
BRANCH  15  18
ATOM     18  C   UNL A   1      31.923  27.305  26.245  1.00  0.00     0.054 A 
ATOM     19  C   UNL A   1      32.378  27.769  24.983  1.00  0.00     0.063 A 
ATOM     20  C   UNL A   1      33.219  28.899  24.906  1.00  0.00     0.016 A 
ATOM     21  C   UNL A   1      33.582  29.598  26.050  1.00  0.00     0.001 A 
ATOM     22  C   UNL A   1      32.233  28.079  27.368  1.00  0.00     0.027 A 
ATOM     23  C   UNL A   1      33.075  29.197  27.278  1.00  0.00     0.002 A 
BRANCH  19  24
ATOM     24  C   UNL A   1      32.206  27.070  23.682  1.00  0.00     0.257 C 
ATOM     25  N   UNL A   1      31.241  27.357  22.743  1.00  0.00    -0.322 N 
ATOM     26  H   UNL A   1      31.254  26.741  21.976  1.00  0.00     0.170 HD
ATOM     27  O   UNL A   1      32.943  26.099  23.489  1.00  0.00    -0.269 OA
BRANCH  25  28
ATOM     28  C   UNL A   1      30.243  28.339  22.645  1.00  0.00     0.041 A 
ATOM     29  C   UNL A   1      27.261  31.343  23.439  1.00  0.00     0.044 C 
ATOM     30  C   UNL A   1      28.250  30.279  23.061  1.00  0.00    -0.051 A 
ATOM     31  C   UNL A   1      29.461  30.618  22.441  1.00  0.00     0.005 A 
ATOM     32  C   UNL A   1      28.009  28.945  23.388  1.00  0.00     0.005 A 
ATOM     33  C   UNL A   1      30.453  29.650  22.224  1.00  0.00     0.026 A 
ATOM     34  C   UNL A   1      28.996  27.983  23.170  1.00  0.00     0.026 A 
ENDBRANCH  25  28
ENDBRANCH  19  24
ENDBRANCH  15  18
ENDBRANCH   9  14
ENDBRANCH   5   8
ENDBRANCH   3   4
ENDBRANCH   2   3
ENDBRANCH   1   2
BRANCH   1  35
ATOM     35  C   UNL A   1      37.019  22.852  23.458  1.00  0.00     0.002 C 
BRANCH  35  36
ATOM     36  C   UNL A   1      37.480  21.872  24.538  1.00  0.00     0.021 C 
BRANCH  36  37
ATOM     37  C   UNL A   1      37.864  22.525  25.859  1.00  0.00     0.116 C 
BRANCH  37  38
ATOM     38  N   UNL A   1      39.282  22.386  26.162  1.00  0.00    -0.352 N 
ATOM     39  C   UNL A   1      40.243  23.349  26.372  1.00  0.00     0.251 C 
ATOM     40  H   UNL A   1      39.604  21.458  26.225  1.00  0.00     0.163 HD
ATOM     41  O   UNL A   1      41.427  23.017  26.390  1.00  0.00    -0.269 OA
BRANCH  39  42
ATOM     42  C   UNL A   1      39.839  24.737  26.699  1.00  0.00     0.039 A 
ATOM     43  C   UNL A   1      40.618  25.784  26.185  1.00  0.00     0.014 A 
ATOM     44  C   UNL A   1      38.848  25.006  27.638  1.00  0.00     0.014 A 
ATOM     45  C   UNL A   1      40.587  27.036  26.796  1.00  0.00     0.010 A 
ATOM     46  C   UNL A   1      38.849  26.228  28.272  1.00  0.00     0.010 A 
ATOM     47  C   UNL A   1      39.777  27.207  27.910  1.00  0.00    -0.014 A 
BRANCH  47  48
ATOM     48  C   UNL A   1      39.850  28.333  28.825  1.00  0.00     0.031 A 
ATOM     49  C   UNL A   1      38.977  29.503  28.643  1.00  0.00     0.074 A 
ATOM     50  C   UNL A   1      40.568  28.185  29.960  1.00  0.00     0.049 A 
ATOM     51  N   UNL A   1      39.198  30.658  29.170  1.00  0.00    -0.248 NA
ATOM     52  C   UNL A   1      37.770  29.445  27.830  1.00  0.00     0.031 C 
ATOM     53  C   UNL A   1      40.471  28.974  31.182  1.00  0.00     0.029 A 
ATOM     54  N   UNL A   1      41.693  27.379  30.160  1.00  0.00    -0.354 N 
ATOM     55  C   UNL A   1      38.050  31.401  29.004  1.00  0.00     0.074 A 
ATOM     56  C   UNL A   1      37.219  30.630  28.108  1.00  0.00     0.031 C 
ATOM     57  C   UNL A   1      41.614  28.839  31.870  1.00  0.00     0.029 A 
ATOM     58  C   UNL A   1      42.536  28.104  31.022  1.00  0.00     0.049 A 
ATOM     59  H   UNL A   1      41.861  26.488  29.778  1.00  0.00     0.167 HD
ATOM     60  C   UNL A   1      37.846  32.508  29.773  1.00  0.00     0.034 A 
ATOM     61  C   UNL A   1      43.792  28.518  30.678  1.00  0.00     0.034 A 
ATOM     62  C   UNL A   1      38.967  32.730  30.692  1.00  0.00     0.049 A 
ATOM     63  C   UNL A   1      43.967  30.023  30.773  1.00  0.00     0.074 A 
ATOM     64  C   UNL A   1      39.175  32.363  32.013  1.00  0.00     0.029 A 
ATOM     65  N   UNL A   1      40.201  33.130  30.197  1.00  0.00    -0.354 N 
ATOM     66  N   UNL A   1      42.983  30.863  30.943  1.00  0.00    -0.248 NA
ATOM     67  C   UNL A   1      45.254  30.705  30.663  1.00  0.00     0.031 C 
ATOM     68  C   UNL A   1      40.564  32.465  32.285  1.00  0.00     0.029 A 
ATOM     69  C   UNL A   1      41.196  32.921  31.140  1.00  0.00     0.049 A 
ATOM     70  H   UNL A   1      40.349  33.510  29.301  1.00  0.00     0.167 HD
ATOM     71  C   UNL A   1      43.443  32.151  30.858  1.00  0.00     0.074 A 
ATOM     72  C   UNL A   1      44.884  31.996  30.753  1.00  0.00     0.031 C 
ATOM     73  C   UNL A   1      42.589  33.223  30.830  1.00  0.00     0.034 A 
BRANCH  60  74
ATOM     74  C   UNL A   1      36.482  33.145  29.938  1.00  0.00     0.023 A 
ATOM     75  C   UNL A   1      35.945  33.845  28.835  1.00  0.00     0.012 A 
ATOM     76  C   UNL A   1      35.719  33.166  31.126  1.00  0.00     0.148 A 
ATOM     77  C   UNL A   1      34.782  34.615  28.930  1.00  0.00     0.002 A 
ATOM     78  C   UNL A   1      34.600  33.996  31.247  1.00  0.00     0.091 A 
ATOM     79  F   UNL A   1      36.037  32.334  32.128  1.00  0.00    -0.205 F 
ATOM     80  C   UNL A   1      34.131  34.725  30.149  1.00  0.00     0.022 A 
BRANCH  78  81
ATOM     81  S   UNL A   1      33.786  34.290  32.827  1.00  0.00     0.127 S 
ATOM     82  O   UNL A   1      32.738  35.250  32.466  1.00  0.00    -0.237 OA
ATOM     83  O   UNL A   1      33.294  32.961  33.181  1.00  0.00    -0.237 OA
ATOM     84  O   UNL A   1      34.813  34.844  33.700  1.00  0.00    -0.744 OA
ENDBRANCH  78  81
ENDBRANCH  60  74
BRANCH  61  85
ATOM     85  C   UNL A   1      44.468  27.622  29.694  1.00  0.00     0.023 A 
ATOM     86  C   UNL A   1      44.658  26.276  30.093  1.00  0.00     0.012 A 
ATOM     87  C   UNL A   1      44.529  27.938  28.326  1.00  0.00     0.148 A 
ATOM     88  C   UNL A   1      44.749  25.254  29.147  1.00  0.00     0.002 A 
ATOM     89  C   UNL A   1      44.629  26.911  27.387  1.00  0.00     0.091 A 
ATOM     90  F   UNL A   1      44.404  29.220  27.957  1.00  0.00    -0.205 F 
ATOM     91  C   UNL A   1      44.695  25.568  27.794  1.00  0.00     0.022 A 
BRANCH  89  92
ATOM     92  S   UNL A   1      44.546  27.243  25.622  1.00  0.00     0.127 S 
ATOM     93  O   UNL A   1      45.854  27.840  25.374  1.00  0.00    -0.237 OA
ATOM     94  O   UNL A   1      44.365  25.908  25.054  1.00  0.00    -0.237 OA
ATOM     95  O   UNL A   1      43.394  28.118  25.465  1.00  0.00    -0.744 OA
ENDBRANCH  89  92
ENDBRANCH  61  85
BRANCH  73  96
ATOM     96  C   UNL A   1      42.974  34.657  30.510  1.00  0.00     0.023 A 
ATOM     97  C   UNL A   1      43.460  35.542  31.489  1.00  0.00     0.012 A 
ATOM     98  C   UNL A   1      43.002  35.119  29.166  1.00  0.00     0.148 A 
ATOM     99  C   UNL A   1      43.898  36.834  31.170  1.00  0.00     0.002 A 
ATOM    100  C   UNL A   1      43.544  36.360  28.841  1.00  0.00     0.091 A 
ATOM    101  F   UNL A   1      42.481  34.364  28.187  1.00  0.00    -0.205 F 
ATOM    102  C   UNL A   1      43.964  37.235  29.843  1.00  0.00     0.022 A 
BRANCH 100 103
ATOM    103  S   UNL A   1      43.870  36.808  27.129  1.00  0.00     0.127 S 
ATOM    104  O   UNL A   1      44.524  38.107  27.271  1.00  0.00    -0.237 OA
ATOM    105  O   UNL A   1      44.756  35.729  26.683  1.00  0.00    -0.237 OA
ATOM    106  O   UNL A   1      42.565  36.809  26.483  1.00  0.00    -0.744 OA
ENDBRANCH 100 103
ENDBRANCH  73  96
ENDBRANCH  47  48
ENDBRANCH  39  42
ENDBRANCH  37  38
ENDBRANCH  36  37
ENDBRANCH  35  36
ENDBRANCH   1  35
TORSDOF 20
ENDMDL
MODEL 2
REMARK VINA RESULT:     -12.3      4.177      6.662
REMARK SMILES Cc1ccc(NC(=O)c2ccccc2NC(=O)[C@H]2CCCC[C@H]2C(=O)NCCCCCCNC(=O)c2ccc(-c3c4nc(c(-c5cccc(S(=O)(=O)[O-])c5F)c5ccc([nH]5)c(-c5cccc(S(=O)(=O)[O-])c5F)c5nc(c(-c6cccc(S(=O)(=O)[O-])c6F)c6ccc3[nH]6)C=C5)C=C4)cc2)cc1
REMARK SMILES IDX 29 1 28 2 27 3 26 4 24 5 25 6 23 8 18 9 19 10 20 11 22 12
REMARK SMILES IDX 21 13 16 14 15 15 17 17 14 18 9 19 10 20 11 21 13 22 12 23
REMARK SMILES IDX 7 24 6 25 8 27 5 28 1 29 2 30 3 31 100 32 4 33 99 34 30 35
REMARK SMILES IDX 31 36 32 37 33 38 34 39 35 41 36 42 37 43 98 44 38 45 97 46
REMARK SMILES IDX 39 47 40 48 41 49 91 50 42 51 96 52 90 53 92 54 43 55 95 56
REMARK SMILES IDX 89 57 88 58 44 60 76 61 56 62 75 63 57 64 60 65 74 66 93 67
REMARK SMILES IDX 58 68 59 69 73 71 94 72 61 73 45 74 46 75 54 76 47 77 49 78
REMARK SMILES IDX 55 79 48 80 50 81 51 82 52 83 53 84 77 85 78 86 86 87 79 88
REMARK SMILES IDX 81 89 87 90 80 91 82 92 83 93 84 94 85 95 62 96 63 97 71 98
REMARK SMILES IDX 64 99 66 100 72 101 65 102 67 103 68 104 69 105 70 106
REMARK H PARENT 26 7 15 16 6 26 33 40 92 59 60 70
REMARK Flexibility Score: inf
ROOT
ATOM      1  C   UNL A   1      39.311  25.926  27.922  1.00  0.00     0.002 C 
ENDROOT
BRANCH   1   2
ATOM      2  C   UNL A   1      39.396  25.032  26.682  1.00  0.00     0.021 C 
BRANCH   2   3
ATOM      3  C   UNL A   1      38.297  23.970  26.547  1.00  0.00     0.116 C 
BRANCH   3   4
ATOM      4  N   UNL A   1      37.982  23.684  25.159  1.00  0.00    -0.356 N 
ATOM      5  C   UNL A   1      36.925  23.111  24.539  1.00  0.00     0.223 C 
ATOM      6  O   UNL A   1      36.999  23.030  23.305  1.00  0.00    -0.275 OA
ATOM      7  H   UNL A   1      38.690  23.968  24.536  1.00  0.00     0.163 HD
BRANCH   5   8
ATOM      8  C   UNL A   1      35.691  22.522  25.232  1.00  0.00     0.091 C 
ATOM      9  C   UNL A   1      34.661  23.594  25.640  1.00  0.00     0.091 C 
ATOM     10  C   UNL A   1      33.505  22.992  26.460  1.00  0.00     0.014 C 
ATOM     11  C   UNL A   1      32.935  21.699  25.866  1.00  0.00     0.001 C 
ATOM     12  C   UNL A   1      35.109  21.229  24.663  1.00  0.00     0.014 C 
ATOM     13  C   UNL A   1      34.021  20.668  25.582  1.00  0.00     0.001 C 
BRANCH   9  14
ATOM     14  C   UNL A   1      34.080  24.312  24.448  1.00  0.00     0.228 C 
ATOM     15  N   UNL A   1      33.473  25.519  24.500  1.00  0.00    -0.325 N 
ATOM     16  H   UNL A   1      33.406  25.911  23.600  1.00  0.00     0.169 HD
ATOM     17  O   UNL A   1      34.176  23.797  23.327  1.00  0.00    -0.274 OA
BRANCH  15  18
ATOM     18  C   UNL A   1      32.909  26.384  25.456  1.00  0.00     0.054 A 
ATOM     19  C   UNL A   1      31.513  26.317  25.704  1.00  0.00     0.063 A 
ATOM     20  C   UNL A   1      30.906  27.238  26.584  1.00  0.00     0.016 A 
ATOM     21  C   UNL A   1      31.663  28.192  27.252  1.00  0.00     0.001 A 
ATOM     22  C   UNL A   1      33.656  27.297  26.207  1.00  0.00     0.027 A 
ATOM     23  C   UNL A   1      33.039  28.210  27.075  1.00  0.00     0.002 A 
BRANCH  19  24
ATOM     24  C   UNL A   1      30.537  25.461  24.979  1.00  0.00     0.257 C 
ATOM     25  N   UNL A   1      29.539  25.916  24.147  1.00  0.00    -0.322 N 
ATOM     26  H   UNL A   1      28.959  25.195  23.812  1.00  0.00     0.170 HD
ATOM     27  O   UNL A   1      30.589  24.253  25.228  1.00  0.00    -0.269 OA
BRANCH  25  28
ATOM     28  C   UNL A   1      29.171  27.185  23.676  1.00  0.00     0.041 A 
ATOM     29  C   UNL A   1      28.215  30.613  21.249  1.00  0.00     0.044 C 
ATOM     30  C   UNL A   1      28.568  29.490  22.181  1.00  0.00    -0.051 A 
ATOM     31  C   UNL A   1      27.572  28.833  22.916  1.00  0.00     0.005 A 
ATOM     32  C   UNL A   1      29.885  29.038  22.273  1.00  0.00     0.005 A 
ATOM     33  C   UNL A   1      27.872  27.688  23.669  1.00  0.00     0.026 A 
ATOM     34  C   UNL A   1      30.181  27.901  23.024  1.00  0.00     0.026 A 
ENDBRANCH  25  28
ENDBRANCH  19  24
ENDBRANCH  15  18
ENDBRANCH   9  14
ENDBRANCH   5   8
ENDBRANCH   3   4
ENDBRANCH   2   3
ENDBRANCH   1   2
BRANCH   1  35
ATOM     35  C   UNL A   1      40.575  26.719  28.287  1.00  0.00     0.002 C 
BRANCH  35  36
ATOM     36  C   UNL A   1      40.373  27.910  29.223  1.00  0.00     0.021 C 
BRANCH  36  37
ATOM     37  C   UNL A   1      40.351  29.264  28.526  1.00  0.00     0.116 C 
BRANCH  37  38
ATOM     38  N   UNL A   1      39.070  29.546  27.890  1.00  0.00    -0.352 N 
ATOM     39  C   UNL A   1      37.984  30.250  28.357  1.00  0.00     0.251 C 
ATOM     40  H   UNL A   1      38.966  29.174  26.984  1.00  0.00     0.163 HD
ATOM     41  O   UNL A   1      36.919  30.176  27.747  1.00  0.00    -0.269 OA
BRANCH  39  42
ATOM     42  C   UNL A   1      38.141  31.180  29.500  1.00  0.00     0.039 A 
ATOM     43  C   UNL A   1      38.237  32.550  29.220  1.00  0.00     0.014 A 
ATOM     44  C   UNL A   1      38.386  30.716  30.788  1.00  0.00     0.014 A 
ATOM     45  C   UNL A   1      38.825  33.409  30.148  1.00  0.00     0.010 A 
ATOM     46  C   UNL A   1      39.009  31.552  31.688  1.00  0.00     0.010 A 
ATOM     47  C   UNL A   1      39.308  32.869  31.333  1.00  0.00    -0.014 A 
BRANCH  47  48
ATOM     48  C   UNL A   1      40.196  33.554  32.257  1.00  0.00     0.031 A 
ATOM     49  C   UNL A   1      39.662  34.210  33.459  1.00  0.00     0.074 A 
ATOM     50  C   UNL A   1      41.528  33.383  32.103  1.00  0.00     0.049 A 
ATOM     51  N   UNL A   1      40.294  35.108  34.134  1.00  0.00    -0.248 NA
ATOM     52  C   UNL A   1      38.344  33.889  33.992  1.00  0.00     0.031 C 
ATOM     53  C   UNL A   1      42.571  33.612  33.095  1.00  0.00     0.029 A 
ATOM     54  N   UNL A   1      42.227  33.137  30.919  1.00  0.00    -0.354 N 
ATOM     55  C   UNL A   1      39.609  35.280  35.316  1.00  0.00     0.074 A 
ATOM     56  C   UNL A   1      38.370  34.553  35.152  1.00  0.00     0.031 C 
ATOM     57  C   UNL A   1      43.738  33.781  32.455  1.00  0.00     0.029 A 
ATOM     58  C   UNL A   1      43.439  33.842  31.035  1.00  0.00     0.049 A 
ATOM     59  H   UNL A   1      41.933  32.585  30.158  1.00  0.00     0.167 HD
ATOM     60  C   UNL A   1      40.228  35.873  36.375  1.00  0.00     0.034 A 
ATOM     61  C   UNL A   1      43.811  34.852  30.193  1.00  0.00     0.034 A 
ATOM     62  C   UNL A   1      41.603  36.259  36.038  1.00  0.00     0.049 A 
ATOM     63  C   UNL A   1      44.069  36.161  30.916  1.00  0.00     0.074 A 
ATOM     64  C   UNL A   1      42.820  35.620  36.218  1.00  0.00     0.029 A 
ATOM     65  N   UNL A   1      41.832  37.296  35.144  1.00  0.00    -0.354 N 
ATOM     66  N   UNL A   1      43.761  36.379  32.165  1.00  0.00    -0.248 NA
ATOM     67  C   UNL A   1      44.672  37.335  30.289  1.00  0.00     0.031 C 
ATOM     68  C   UNL A   1      43.769  36.230  35.357  1.00  0.00     0.029 A 
ATOM     69  C   UNL A   1      43.137  37.257  34.676  1.00  0.00     0.049 A 
ATOM     70  H   UNL A   1      41.161  37.966  34.879  1.00  0.00     0.167 HD
ATOM     71  C   UNL A   1      43.998  37.690  32.487  1.00  0.00     0.074 A 
ATOM     72  C   UNL A   1      44.636  38.227  31.297  1.00  0.00     0.031 C 
ATOM     73  C   UNL A   1      43.601  38.222  33.685  1.00  0.00     0.034 A 
BRANCH  60  74
ATOM     74  C   UNL A   1      39.710  35.755  37.793  1.00  0.00     0.023 A 
ATOM     75  C   UNL A   1      39.420  36.950  38.489  1.00  0.00     0.012 A 
ATOM     76  C   UNL A   1      39.553  34.553  38.518  1.00  0.00     0.148 A 
ATOM     77  C   UNL A   1      39.106  36.966  39.852  1.00  0.00     0.002 A 
ATOM     78  C   UNL A   1      39.316  34.571  39.896  1.00  0.00     0.091 A 
ATOM     79  F   UNL A   1      39.571  33.383  37.864  1.00  0.00    -0.205 F 
ATOM     80  C   UNL A   1      39.095  35.778  40.566  1.00  0.00     0.022 A 
BRANCH  78  81
ATOM     81  S   UNL A   1      39.417  33.084  40.908  1.00  0.00     0.127 S 
ATOM     82  O   UNL A   1      40.554  32.376  40.313  1.00  0.00    -0.237 OA
ATOM     83  O   UNL A   1      39.671  33.625  42.241  1.00  0.00    -0.237 OA
ATOM     84  O   UNL A   1      38.142  32.400  40.729  1.00  0.00    -0.744 OA
ENDBRANCH  78  81
ENDBRANCH  60  74
BRANCH  61  85
ATOM     85  C   UNL A   1      43.259  34.711  28.813  1.00  0.00     0.023 A 
ATOM     86  C   UNL A   1      42.236  35.620  28.446  1.00  0.00     0.012 A 
ATOM     87  C   UNL A   1      43.965  34.040  27.799  1.00  0.00     0.148 A 
ATOM     88  C   UNL A   1      42.030  35.967  27.110  1.00  0.00     0.002 A 
ATOM     89  C   UNL A   1      43.746  34.386  26.465  1.00  0.00     0.091 A 
ATOM     90  F   UNL A   1      44.892  33.140  28.150  1.00  0.00    -0.205 F 
ATOM     91  C   UNL A   1      42.813  35.379  26.123  1.00  0.00     0.022 A 
BRANCH  89  92
ATOM     92  S   UNL A   1      44.735  33.680  25.139  1.00  0.00     0.127 S 
ATOM     93  O   UNL A   1      43.954  34.050  23.963  1.00  0.00    -0.237 OA
ATOM     94  O   UNL A   1      46.006  34.388  25.277  1.00  0.00    -0.237 OA
ATOM     95  O   UNL A   1      44.807  32.260  25.449  1.00  0.00    -0.744 OA
ENDBRANCH  89  92
ENDBRANCH  61  85
BRANCH  73  96
ATOM     96  C   UNL A   1      43.606  39.697  34.048  1.00  0.00     0.023 A 
ATOM     97  C   UNL A   1      44.275  40.191  35.183  1.00  0.00     0.012 A 
ATOM     98  C   UNL A   1      43.060  40.665  33.162  1.00  0.00     0.148 A 
ATOM     99  C   UNL A   1      44.352  41.561  35.462  1.00  0.00     0.002 A 
ATOM    100  C   UNL A   1      43.239  42.029  33.384  1.00  0.00     0.091 A 
ATOM    101  F   UNL A   1      42.340  40.272  32.100  1.00  0.00    -0.205 F 
ATOM    102  C   UNL A   1      43.856  42.482  34.549  1.00  0.00     0.022 A 
BRANCH 100 103
ATOM    103  S   UNL A   1      42.832  43.235  32.112  1.00  0.00     0.127 S 
ATOM    104  O   UNL A   1      42.169  44.282  32.885  1.00  0.00    -0.237 OA
ATOM    105  O   UNL A   1      44.151  43.606  31.594  1.00  0.00    -0.237 OA
ATOM    106  O   UNL A   1      42.002  42.512  31.158  1.00  0.00    -0.744 OA
ENDBRANCH 100 103
ENDBRANCH  73  96
ENDBRANCH  47  48
ENDBRANCH  39  42
ENDBRANCH  37  38
ENDBRANCH  36  37
ENDBRANCH  35  36
ENDBRANCH   1  35
TORSDOF 20
ENDMDL
MODEL 3
REMARK VINA RESULT:     -11.9      5.877     10.744
REMARK SMILES Cc1ccc(NC(=O)c2ccccc2NC(=O)[C@H]2CCCC[C@H]2C(=O)NCCCCCCNC(=O)c2ccc(-c3c4nc(c(-c5cccc(S(=O)(=O)[O-])c5F)c5ccc([nH]5)c(-c5cccc(S(=O)(=O)[O-])c5F)c5nc(c(-c6cccc(S(=O)(=O)[O-])c6F)c6ccc3[nH]6)C=C5)C=C4)cc2)cc1
REMARK SMILES IDX 29 1 28 2 27 3 26 4 24 5 25 6 23 8 18 9 19 10 20 11 22 12
REMARK SMILES IDX 21 13 16 14 15 15 17 17 14 18 9 19 10 20 11 21 13 22 12 23
REMARK SMILES IDX 7 24 6 25 8 27 5 28 1 29 2 30 3 31 100 32 4 33 99 34 30 35
REMARK SMILES IDX 31 36 32 37 33 38 34 39 35 41 36 42 37 43 98 44 38 45 97 46
REMARK SMILES IDX 39 47 40 48 41 49 91 50 42 51 96 52 90 53 92 54 43 55 95 56
REMARK SMILES IDX 89 57 88 58 44 60 76 61 56 62 75 63 57 64 60 65 74 66 93 67
REMARK SMILES IDX 58 68 59 69 73 71 94 72 61 73 45 74 46 75 54 76 47 77 49 78
REMARK SMILES IDX 55 79 48 80 50 81 51 82 52 83 53 84 77 85 78 86 86 87 79 88
REMARK SMILES IDX 81 89 87 90 80 91 82 92 83 93 84 94 85 95 62 96 63 97 71 98
REMARK SMILES IDX 64 99 66 100 72 101 65 102 67 103 68 104 69 105 70 106
REMARK H PARENT 26 7 15 16 6 26 33 40 92 59 60 70
REMARK Flexibility Score: inf
ROOT
ATOM      1  C   UNL A   1      40.365  21.147  27.042  1.00  0.00     0.002 C 
ENDROOT
BRANCH   1   2
ATOM      2  C   UNL A   1      39.567  21.494  25.781  1.00  0.00     0.021 C 
BRANCH   2   3
ATOM      3  C   UNL A   1      38.041  21.431  25.917  1.00  0.00     0.116 C 
BRANCH   3   4
ATOM      4  N   UNL A   1      37.411  22.698  25.592  1.00  0.00    -0.356 N 
ATOM      5  C   UNL A   1      36.124  23.103  25.487  1.00  0.00     0.223 C 
ATOM      6  O   UNL A   1      35.954  24.292  25.183  1.00  0.00    -0.275 OA
ATOM      7  H   UNL A   1      38.060  23.416  25.410  1.00  0.00     0.163 HD
BRANCH   5   8
ATOM      8  C   UNL A   1      34.888  22.214  25.660  1.00  0.00     0.091 C 
ATOM      9  C   UNL A   1      33.588  23.022  25.850  1.00  0.00     0.091 C 
ATOM     10  C   UNL A   1      32.389  22.108  26.165  1.00  0.00     0.014 C 
ATOM     11  C   UNL A   1      32.294  20.878  25.255  1.00  0.00     0.001 C 
ATOM     12  C   UNL A   1      34.774  20.977  24.770  1.00  0.00     0.014 C 
ATOM     13  C   UNL A   1      33.602  20.096  25.206  1.00  0.00     0.001 C 
BRANCH   9  14
ATOM     14  C   UNL A   1      33.250  23.853  24.638  1.00  0.00     0.228 C 
ATOM     15  N   UNL A   1      33.084  25.195  24.650  1.00  0.00    -0.325 N 
ATOM     16  H   UNL A   1      33.130  25.557  23.736  1.00  0.00     0.169 HD
ATOM     17  O   UNL A   1      33.140  23.300  23.537  1.00  0.00    -0.274 OA
BRANCH  15  18
ATOM     18  C   UNL A   1      32.867  26.230  25.579  1.00  0.00     0.054 A 
ATOM     19  C   UNL A   1      31.583  26.365  26.169  1.00  0.00     0.063 A 
ATOM     20  C   UNL A   1      31.310  27.450  27.027  1.00  0.00     0.016 A 
ATOM     21  C   UNL A   1      32.296  28.377  27.341  1.00  0.00     0.001 A 
ATOM     22  C   UNL A   1      33.861  27.127  25.981  1.00  0.00     0.027 A 
ATOM     23  C   UNL A   1      33.574  28.205  26.831  1.00  0.00     0.002 A 
BRANCH  19  24
ATOM     24  C   UNL A   1      30.381  25.555  25.839  1.00  0.00     0.257 C 
ATOM     25  N   UNL A   1      29.469  25.845  24.850  1.00  0.00    -0.322 N 
ATOM     26  H   UNL A   1      28.709  25.221  24.830  1.00  0.00     0.170 HD
ATOM     27  O   UNL A   1      30.154  24.597  26.584  1.00  0.00    -0.269 OA
BRANCH  25  28
ATOM     28  C   UNL A   1      29.390  26.841  23.864  1.00  0.00     0.041 A 
ATOM     29  C   UNL A   1      28.921  30.536  21.702  1.00  0.00     0.044 C 
ATOM     30  C   UNL A   1      29.063  29.194  22.357  1.00  0.00    -0.051 A 
ATOM     31  C   UNL A   1      30.319  28.581  22.464  1.00  0.00     0.005 A 
ATOM     32  C   UNL A   1      27.957  28.571  22.934  1.00  0.00     0.005 A 
ATOM     33  C   UNL A   1      30.483  27.402  23.208  1.00  0.00     0.026 A 
ATOM     34  C   UNL A   1      28.121  27.398  23.671  1.00  0.00     0.026 A 
ENDBRANCH  25  28
ENDBRANCH  19  24
ENDBRANCH  15  18
ENDBRANCH   9  14
ENDBRANCH   5   8
ENDBRANCH   3   4
ENDBRANCH   2   3
ENDBRANCH   1   2
BRANCH   1  35
ATOM     35  C   UNL A   1      41.878  21.399  26.989  1.00  0.00     0.002 C 
BRANCH  35  36
ATOM     36  C   UNL A   1      42.428  21.906  25.656  1.00  0.00     0.021 C 
BRANCH  36  37
ATOM     37  C   UNL A   1      42.646  23.412  25.594  1.00  0.00     0.116 C 
BRANCH  37  38
ATOM     38  N   UNL A   1      41.410  24.165  25.762  1.00  0.00    -0.352 N 
ATOM     39  C   UNL A   1      40.967  24.917  26.826  1.00  0.00     0.251 C 
ATOM     40  H   UNL A   1      40.795  24.128  24.994  1.00  0.00     0.163 HD
ATOM     41  O   UNL A   1      39.793  25.284  26.849  1.00  0.00    -0.269 OA
BRANCH  39  42
ATOM     42  C   UNL A   1      41.928  25.380  27.854  1.00  0.00     0.039 A 
ATOM     43  C   UNL A   1      42.337  26.720  27.811  1.00  0.00     0.014 A 
ATOM     44  C   UNL A   1      42.562  24.488  28.713  1.00  0.00     0.014 A 
ATOM     45  C   UNL A   1      43.532  27.101  28.420  1.00  0.00     0.010 A 
ATOM     46  C   UNL A   1      43.765  24.851  29.277  1.00  0.00     0.010 A 
ATOM     47  C   UNL A   1      44.289  26.126  29.055  1.00  0.00    -0.014 A 
BRANCH  47  48
ATOM     48  C   UNL A   1      45.671  26.288  29.472  1.00  0.00     0.031 A 
ATOM     49  C   UNL A   1      46.773  25.870  28.592  1.00  0.00     0.074 A 
ATOM     50  C   UNL A   1      45.919  27.028  30.576  1.00  0.00     0.049 A 
ATOM     51  N   UNL A   1      47.978  25.657  28.994  1.00  0.00    -0.248 NA
ATOM     52  C   UNL A   1      46.580  25.659  27.163  1.00  0.00     0.031 C 
ATOM     53  C   UNL A   1      47.176  27.659  30.957  1.00  0.00     0.029 A 
ATOM     54  N   UNL A   1      45.097  27.197  31.693  1.00  0.00    -0.354 N 
ATOM     55  C   UNL A   1      48.766  25.553  27.869  1.00  0.00     0.074 A 
ATOM     56  C   UNL A   1      47.842  25.493  26.758  1.00  0.00     0.031 C 
ATOM     57  C   UNL A   1      47.156  27.887  32.279  1.00  0.00     0.029 A 
ATOM     58  C   UNL A   1      45.962  27.248  32.802  1.00  0.00     0.049 A 
ATOM     59  H   UNL A   1      44.115  27.266  31.704  1.00  0.00     0.167 HD
ATOM     60  C   UNL A   1      50.116  25.702  27.975  1.00  0.00     0.034 A 
ATOM     61  C   UNL A   1      45.936  26.341  33.824  1.00  0.00     0.034 A 
ATOM     62  C   UNL A   1      50.516  25.950  29.363  1.00  0.00     0.049 A 
ATOM     63  C   UNL A   1      47.260  25.625  34.015  1.00  0.00     0.074 A 
ATOM     64  C   UNL A   1      50.751  27.120  30.071  1.00  0.00     0.029 A 
ATOM     65  N   UNL A   1      50.414  24.936  30.306  1.00  0.00    -0.354 N 
ATOM     66  N   UNL A   1      48.254  25.688  33.170  1.00  0.00    -0.248 NA
ATOM     67  C   UNL A   1      47.568  24.764  35.154  1.00  0.00     0.031 C 
ATOM     68  C   UNL A   1      50.705  26.813  31.455  1.00  0.00     0.029 A 
ATOM     69  C   UNL A   1      50.471  25.455  31.590  1.00  0.00     0.049 A 
ATOM     70  H   UNL A   1      50.315  23.979  30.092  1.00  0.00     0.167 HD
ATOM     71  C   UNL A   1      49.255  24.835  33.554  1.00  0.00     0.074 A 
ATOM     72  C   UNL A   1      48.804  24.334  34.842  1.00  0.00     0.031 C 
ATOM     73  C   UNL A   1      50.337  24.583  32.752  1.00  0.00     0.034 A 
BRANCH  60  74
ATOM     74  C   UNL A   1      51.000  25.991  26.779  1.00  0.00     0.023 A 
ATOM     75  C   UNL A   1      51.840  24.953  26.316  1.00  0.00     0.012 A 
ATOM     76  C   UNL A   1      51.116  27.234  26.119  1.00  0.00     0.148 A 
ATOM     77  C   UNL A   1      52.818  25.161  25.338  1.00  0.00     0.002 A 
ATOM     78  C   UNL A   1      52.144  27.465  25.198  1.00  0.00     0.091 A 
ATOM     79  F   UNL A   1      50.194  28.182  26.334  1.00  0.00    -0.205 F 
ATOM     80  C   UNL A   1      52.999  26.429  24.809  1.00  0.00     0.022 A 
BRANCH  78  81
ATOM     81  S   UNL A   1      52.520  29.110  24.570  1.00  0.00     0.127 S 
ATOM     82  O   UNL A   1      53.477  29.613  25.559  1.00  0.00    -0.237 OA
ATOM     83  O   UNL A   1      53.097  28.825  23.258  1.00  0.00    -0.237 OA
ATOM     84  O   UNL A   1      51.250  29.828  24.566  1.00  0.00    -0.744 OA
ENDBRANCH  78  81
ENDBRANCH  60  74
BRANCH  61  85
ATOM     85  C   UNL A   1      44.585  25.755  34.068  1.00  0.00     0.023 A 
ATOM     86  C   UNL A   1      44.422  24.386  33.741  1.00  0.00     0.012 A 
ATOM     87  C   UNL A   1      43.664  26.357  34.943  1.00  0.00     0.148 A 
ATOM     88  C   UNL A   1      43.466  23.603  34.390  1.00  0.00     0.002 A 
ATOM     89  C   UNL A   1      42.706  25.569  35.580  1.00  0.00     0.091 A 
ATOM     90  F   UNL A   1      43.788  27.665  35.205  1.00  0.00    -0.205 F 
ATOM     91  C   UNL A   1      42.634  24.187  35.338  1.00  0.00     0.022 A 
BRANCH  89  92
ATOM     92  S   UNL A   1      41.610  26.253  36.831  1.00  0.00     0.127 S 
ATOM     93  O   UNL A   1      42.504  26.352  37.981  1.00  0.00    -0.237 OA
ATOM     94  O   UNL A   1      41.220  27.536  36.247  1.00  0.00    -0.237 OA
ATOM     95  O   UNL A   1      40.523  25.292  36.936  1.00  0.00    -0.744 OA
ENDBRANCH  89  92
ENDBRANCH  61  85
BRANCH  73  96
ATOM     96  C   UNL A   1      51.373  23.496  32.975  1.00  0.00     0.023 A 
ATOM     97  C   UNL A   1      52.756  23.743  32.881  1.00  0.00     0.012 A 
ATOM     98  C   UNL A   1      50.989  22.209  33.441  1.00  0.00     0.148 A 
ATOM     99  C   UNL A   1      53.707  22.759  33.177  1.00  0.00     0.002 A 
ATOM    100  C   UNL A   1      51.940  21.274  33.842  1.00  0.00     0.091 A 
ATOM    101  F   UNL A   1      49.692  21.871  33.481  1.00  0.00    -0.205 F 
ATOM    102  C   UNL A   1      53.301  21.532  33.681  1.00  0.00     0.022 A 
BRANCH 100 103
ATOM    103  S   UNL A   1      51.456  19.782  34.724  1.00  0.00     0.127 S 
ATOM    104  O   UNL A   1      52.537  18.860  34.385  1.00  0.00    -0.237 OA
ATOM    105  O   UNL A   1      51.453  20.226  36.120  1.00  0.00    -0.237 OA
ATOM    106  O   UNL A   1      50.136  19.448  34.205  1.00  0.00    -0.744 OA
ENDBRANCH 100 103
ENDBRANCH  73  96
ENDBRANCH  47  48
ENDBRANCH  39  42
ENDBRANCH  37  38
ENDBRANCH  36  37
ENDBRANCH  35  36
ENDBRANCH   1  35
TORSDOF 20
ENDMDL
