MODEL 1
REMARK VINA RESULT:     -10.7      0.000      0.000
REMARK SMILES O=C(NCCCCCCNC(=O)[C@@H]1CCCC[C@H]1C(=O)Nc1ccc(NC(=O)c2ccco2)cc1)c1ccc(-c2c3nc(c(-c4cccc(S(=O)(=O)[O-])c4F)c4ccc([nH]4)c(-c4cccc(S(=O)(=O)[O-])c4F)c4nc(c(-c5cccc(S(=O)(=O)[O-])c5F)c5ccc2[nH]5)C=C4)C=C3)cc1
REMARK SMILES IDX 7 1 6 2 5 3 4 4 3 5 1 6 2 7 36 9 37 10 98 11 38 12 97 13
REMARK SMILES IDX 39 14 40 15 41 16 91 17 42 18 96 19 90 20 92 21 43 22 95 23
REMARK SMILES IDX 89 24 88 25 44 27 76 28 56 29 75 30 57 31 60 32 74 33 93 34
REMARK SMILES IDX 58 35 59 36 73 38 94 39 61 40 45 41 46 42 54 43 47 44 49 45
REMARK SMILES IDX 55 46 48 47 50 48 51 49 52 50 53 51 77 52 78 53 86 54 79 55
REMARK SMILES IDX 81 56 87 57 80 58 82 59 83 60 84 61 85 62 62 63 63 64 71 65
REMARK SMILES IDX 64 66 66 67 72 68 65 69 67 70 68 71 69 72 70 73 8 74 9 75
REMARK SMILES IDX 10 76 11 77 12 79 13 80 14 81 18 82 15 83 17 84 16 85 19 86
REMARK SMILES IDX 20 87 21 88 22 90 23 91 35 92 24 93 34 94 25 95 26 96 27 97
REMARK SMILES IDX 28 99 29 100 30 101 33 102 31 103 32 104
REMARK H PARENT 3 8 92 26 60 37 10 78 21 89 26 98
REMARK Flexibility Score: inf
ROOT
ATOM      1  C   UNL A   1      38.648  23.832  26.034  1.00  0.00     0.002 C 
ENDROOT
BRANCH   1   2
ATOM      2  C   UNL A   1      39.446  22.843  26.888  1.00  0.00     0.002 C 
BRANCH   2   3
ATOM      3  C   UNL A   1      39.712  21.494  26.222  1.00  0.00     0.021 C 
BRANCH   3   4
ATOM      4  C   UNL A   1      40.589  20.558  27.042  1.00  0.00     0.116 C 
BRANCH   4   5
ATOM      5  N   UNL A   1      41.708  20.050  26.266  1.00  0.00    -0.352 N 
ATOM      6  O   UNL A   1      43.525  20.216  24.943  1.00  0.00    -0.269 OA
ATOM      7  C   UNL A   1      42.798  20.733  25.774  1.00  0.00     0.251 C 
ATOM      8  H   UNL A   1      41.683  19.087  26.064  1.00  0.00     0.163 HD
BRANCH   7   9
ATOM      9  C   UNL A   1      43.053  22.109  26.256  1.00  0.00     0.039 A 
ATOM     10  C   UNL A   1      43.318  22.340  27.608  1.00  0.00     0.014 A 
ATOM     11  C   UNL A   1      43.009  23.174  25.354  1.00  0.00     0.014 A 
ATOM     12  C   UNL A   1      43.382  23.642  28.084  1.00  0.00     0.010 A 
ATOM     13  C   UNL A   1      43.170  24.481  25.823  1.00  0.00     0.010 A 
ATOM     14  C   UNL A   1      43.322  24.730  27.196  1.00  0.00    -0.014 A 
BRANCH  14  15
ATOM     15  C   UNL A   1      43.482  26.106  27.730  1.00  0.00     0.031 A 
ATOM     16  C   UNL A   1      44.821  26.792  27.745  1.00  0.00     0.074 A 
ATOM     17  C   UNL A   1      42.389  26.746  28.190  1.00  0.00     0.049 A 
ATOM     18  N   UNL A   1      45.112  28.012  28.121  1.00  0.00    -0.248 NA
ATOM     19  C   UNL A   1      45.985  26.013  27.293  1.00  0.00     0.031 C 
ATOM     20  C   UNL A   1      41.046  26.163  28.269  1.00  0.00     0.029 A 
ATOM     21  N   UNL A   1      42.224  28.021  28.667  1.00  0.00    -0.354 N 
ATOM     22  C   UNL A   1      46.491  28.133  27.999  1.00  0.00     0.074 A 
ATOM     23  C   UNL A   1      46.982  26.859  27.517  1.00  0.00     0.031 C 
ATOM     24  C   UNL A   1      40.189  27.089  28.720  1.00  0.00     0.029 A 
ATOM     25  C   UNL A   1      40.926  28.311  29.014  1.00  0.00     0.049 A 
ATOM     26  H   UNL A   1      42.963  28.664  28.752  1.00  0.00     0.167 HD
ATOM     27  C   UNL A   1      47.274  29.209  28.255  1.00  0.00     0.034 A 
ATOM     28  C   UNL A   1      40.385  29.436  29.518  1.00  0.00     0.034 A 
ATOM     29  C   UNL A   1      46.772  30.486  28.689  1.00  0.00     0.049 A 
ATOM     30  C   UNL A   1      41.271  30.626  29.746  1.00  0.00     0.074 A 
ATOM     31  C   UNL A   1      47.473  31.661  28.898  1.00  0.00     0.029 A 
ATOM     32  N   UNL A   1      45.445  30.757  28.989  1.00  0.00    -0.354 N 
ATOM     33  N   UNL A   1      42.550  30.762  29.492  1.00  0.00    -0.248 NA
ATOM     34  C   UNL A   1      40.636  31.827  30.302  1.00  0.00     0.031 C 
ATOM     35  C   UNL A   1      46.574  32.636  29.344  1.00  0.00     0.029 A 
ATOM     36  C   UNL A   1      45.308  32.076  29.391  1.00  0.00     0.049 A 
ATOM     37  H   UNL A   1      44.708  30.107  28.925  1.00  0.00     0.167 HD
ATOM     38  C   UNL A   1      42.867  32.071  29.830  1.00  0.00     0.074 A 
ATOM     39  C   UNL A   1      41.639  32.694  30.282  1.00  0.00     0.031 C 
ATOM     40  C   UNL A   1      44.070  32.696  29.788  1.00  0.00     0.034 A 
BRANCH  27  41
ATOM     41  C   UNL A   1      48.760  29.069  28.038  1.00  0.00     0.023 A 
ATOM     42  C   UNL A   1      49.317  29.392  26.785  1.00  0.00     0.012 A 
ATOM     43  C   UNL A   1      49.611  28.686  29.094  1.00  0.00     0.148 A 
ATOM     44  C   UNL A   1      50.695  29.306  26.576  1.00  0.00     0.002 A 
ATOM     45  C   UNL A   1      50.986  28.643  28.891  1.00  0.00     0.091 A 
ATOM     46  F   UNL A   1      49.062  28.362  30.274  1.00  0.00    -0.205 F 
ATOM     47  C   UNL A   1      51.529  28.943  27.630  1.00  0.00     0.022 A 
BRANCH  45  48
ATOM     48  S   UNL A   1      52.147  28.262  30.208  1.00  0.00     0.127 S 
ATOM     49  O   UNL A   1      53.431  28.466  29.539  1.00  0.00    -0.237 OA
ATOM     50  O   UNL A   1      51.817  29.271  31.215  1.00  0.00    -0.237 OA
ATOM     51  O   UNL A   1      51.858  26.891  30.609  1.00  0.00    -0.744 OA
ENDBRANCH  45  48
ENDBRANCH  27  41
BRANCH  28  52
ATOM     52  C   UNL A   1      38.919  29.502  29.773  1.00  0.00     0.023 A 
ATOM     53  C   UNL A   1      38.426  29.181  31.052  1.00  0.00     0.012 A 
ATOM     54  C   UNL A   1      38.019  29.926  28.777  1.00  0.00     0.148 A 
ATOM     55  C   UNL A   1      37.061  29.260  31.329  1.00  0.00     0.002 A 
ATOM     56  C   UNL A   1      36.669  30.060  29.075  1.00  0.00     0.091 A 
ATOM     57  F   UNL A   1      38.507  30.211  27.560  1.00  0.00    -0.205 F 
ATOM     58  C   UNL A   1      36.185  29.712  30.345  1.00  0.00     0.022 A 
BRANCH  56  59
ATOM     59  S   UNL A   1      35.499  30.769  27.913  1.00  0.00     0.127 S 
ATOM     60  O   UNL A   1      34.233  30.594  28.619  1.00  0.00    -0.237 OA
ATOM     61  O   UNL A   1      35.965  32.153  27.817  1.00  0.00    -0.237 OA
ATOM     62  O   UNL A   1      35.655  30.001  26.685  1.00  0.00    -0.744 OA
ENDBRANCH  56  59
ENDBRANCH  28  52
BRANCH  40  63
ATOM     63  C   UNL A   1      44.112  34.140  30.212  1.00  0.00     0.023 A 
ATOM     64  C   UNL A   1      44.400  34.467  31.552  1.00  0.00     0.012 A 
ATOM     65  C   UNL A   1      43.918  35.171  29.273  1.00  0.00     0.148 A 
ATOM     66  C   UNL A   1      44.459  35.800  31.958  1.00  0.00     0.002 A 
ATOM     67  C   UNL A   1      44.027  36.497  29.675  1.00  0.00     0.091 A 
ATOM     68  F   UNL A   1      43.621  34.839  28.008  1.00  0.00    -0.205 F 
ATOM     69  C   UNL A   1      44.284  36.814  31.019  1.00  0.00     0.022 A 
BRANCH  67  70
ATOM     70  S   UNL A   1      43.908  37.858  28.511  1.00  0.00     0.127 S 
ATOM     71  O   UNL A   1      42.526  37.742  28.051  1.00  0.00    -0.237 OA
ATOM     72  O   UNL A   1      44.172  39.022  29.359  1.00  0.00    -0.237 OA
ATOM     73  O   UNL A   1      44.931  37.608  27.502  1.00  0.00    -0.744 OA
ENDBRANCH  67  70
ENDBRANCH  40  63
ENDBRANCH  14  15
ENDBRANCH   7   9
ENDBRANCH   4   5
ENDBRANCH   3   4
ENDBRANCH   2   3
ENDBRANCH   1   2
BRANCH   1  74
ATOM     74  C   UNL A   1      37.133  23.618  26.054  1.00  0.00     0.021 C 
BRANCH  74  75
ATOM     75  C   UNL A   1      36.518  23.391  24.676  1.00  0.00     0.116 C 
BRANCH  75  76
ATOM     76  N   UNL A   1      36.100  22.013  24.529  1.00  0.00    -0.356 N 
ATOM     77  C   UNL A   1      34.976  21.380  24.942  1.00  0.00     0.223 C 
ATOM     78  H   UNL A   1      36.741  21.438  24.050  1.00  0.00     0.163 HD
ATOM     79  O   UNL A   1      34.936  20.151  24.832  1.00  0.00    -0.275 OA
BRANCH  77  80
ATOM     80  C   UNL A   1      33.766  22.133  25.475  1.00  0.00     0.091 C 
ATOM     81  C   UNL A   1      33.620  22.009  26.997  1.00  0.00     0.014 C 
ATOM     82  C   UNL A   1      32.454  21.912  24.715  1.00  0.00     0.091 C 
ATOM     83  C   UNL A   1      32.519  22.941  27.499  1.00  0.00     0.001 C 
ATOM     84  C   UNL A   1      31.317  22.785  25.274  1.00  0.00     0.014 C 
ATOM     85  C   UNL A   1      31.196  22.653  26.796  1.00  0.00     0.001 C 
BRANCH  82  86
ATOM     86  C   UNL A   1      32.518  21.922  23.178  1.00  0.00     0.228 C 
ATOM     87  O   UNL A   1      32.369  20.851  22.572  1.00  0.00    -0.274 OA
ATOM     88  N   UNL A   1      32.579  23.024  22.384  1.00  0.00    -0.326 N 
ATOM     89  H   UNL A   1      32.618  22.830  21.420  1.00  0.00     0.169 HD
BRANCH  88  90
ATOM     90  C   UNL A   1      32.596  24.379  22.699  1.00  0.00     0.041 A 
ATOM     91  C   UNL A   1      31.416  25.093  22.534  1.00  0.00     0.028 A 
ATOM     92  C   UNL A   1      33.725  25.050  23.137  1.00  0.00     0.028 A 
ATOM     93  C   UNL A   1      31.317  26.392  23.035  1.00  0.00     0.028 A 
ATOM     94  C   UNL A   1      33.614  26.328  23.690  1.00  0.00     0.028 A 
ATOM     95  C   UNL A   1      32.377  26.972  23.729  1.00  0.00     0.041 A 
BRANCH  95  96
ATOM     96  N   UNL A   1      32.302  28.154  24.488  1.00  0.00    -0.319 N 
ATOM     97  C   UNL A   1      31.470  29.256  24.427  1.00  0.00     0.291 C 
ATOM     98  H   UNL A   1      32.976  28.207  25.203  1.00  0.00     0.170 HD
ATOM     99  O   UNL A   1      31.658  30.150  25.257  1.00  0.00    -0.265 OA
BRANCH  97 100
ATOM    100  C   UNL A   1      30.414  29.315  23.450  1.00  0.00     0.191 A 
ATOM    101  C   UNL A   1      30.367  29.795  22.153  1.00  0.00     0.056 A 
ATOM    102  O   UNL A   1      29.173  28.871  23.819  1.00  0.00    -0.459 OA
ATOM    103  C   UNL A   1      29.017  29.689  21.733  1.00  0.00     0.043 A 
ATOM    104  C   UNL A   1      28.335  29.112  22.778  1.00  0.00     0.196 A 
ENDBRANCH  97 100
ENDBRANCH  95  96
ENDBRANCH  88  90
ENDBRANCH  82  86
ENDBRANCH  77  80
ENDBRANCH  75  76
ENDBRANCH  74  75
ENDBRANCH   1  74
TORSDOF 20
ENDMDL
MODEL 2
REMARK VINA RESULT:     -10.6      5.060      9.248
REMARK SMILES O=C(NCCCCCCNC(=O)[C@@H]1CCCC[C@H]1C(=O)Nc1ccc(NC(=O)c2ccco2)cc1)c1ccc(-c2c3nc(c(-c4cccc(S(=O)(=O)[O-])c4F)c4ccc([nH]4)c(-c4cccc(S(=O)(=O)[O-])c4F)c4nc(c(-c5cccc(S(=O)(=O)[O-])c5F)c5ccc2[nH]5)C=C4)C=C3)cc1
REMARK SMILES IDX 7 1 6 2 5 3 4 4 3 5 1 6 2 7 36 9 37 10 98 11 38 12 97 13
REMARK SMILES IDX 39 14 40 15 41 16 91 17 42 18 96 19 90 20 92 21 43 22 95 23
REMARK SMILES IDX 89 24 88 25 44 27 76 28 56 29 75 30 57 31 60 32 74 33 93 34
REMARK SMILES IDX 58 35 59 36 73 38 94 39 61 40 45 41 46 42 54 43 47 44 49 45
REMARK SMILES IDX 55 46 48 47 50 48 51 49 52 50 53 51 77 52 78 53 86 54 79 55
REMARK SMILES IDX 81 56 87 57 80 58 82 59 83 60 84 61 85 62 62 63 63 64 71 65
REMARK SMILES IDX 64 66 66 67 72 68 65 69 67 70 68 71 69 72 70 73 8 74 9 75
REMARK SMILES IDX 10 76 11 77 12 79 13 80 14 81 18 82 15 83 17 84 16 85 19 86
REMARK SMILES IDX 20 87 21 88 22 90 23 91 35 92 24 93 34 94 25 95 26 96 27 97
REMARK SMILES IDX 28 99 29 100 30 101 33 102 31 103 32 104
REMARK H PARENT 3 8 92 26 60 37 10 78 21 89 26 98
REMARK Flexibility Score: inf
ROOT
ATOM      1  C   UNL A   1      47.563  26.537  24.174  1.00  0.00     0.002 C 
ENDROOT
BRANCH   1   2
ATOM      2  C   UNL A   1      48.777  27.469  24.159  1.00  0.00     0.002 C 
BRANCH   2   3
ATOM      3  C   UNL A   1      50.070  26.826  23.658  1.00  0.00     0.021 C 
BRANCH   3   4
ATOM      4  C   UNL A   1      51.313  27.243  24.433  1.00  0.00     0.116 C 
BRANCH   4   5
ATOM      5  N   UNL A   1      51.954  26.108  25.075  1.00  0.00    -0.352 N 
ATOM      6  O   UNL A   1      52.563  24.815  26.818  1.00  0.00    -0.269 OA
ATOM      7  C   UNL A   1      51.781  25.627  26.354  1.00  0.00     0.251 C 
ATOM      8  H   UNL A   1      52.599  25.615  24.519  1.00  0.00     0.163 HD
BRANCH   7   9
ATOM      9  C   UNL A   1      50.644  26.131  27.156  1.00  0.00     0.039 A 
ATOM     10  C   UNL A   1      49.417  25.464  27.129  1.00  0.00     0.014 A 
ATOM     11  C   UNL A   1      50.801  27.288  27.923  1.00  0.00     0.014 A 
ATOM     12  C   UNL A   1      48.309  26.035  27.740  1.00  0.00     0.010 A 
ATOM     13  C   UNL A   1      49.706  27.809  28.617  1.00  0.00     0.010 A 
ATOM     14  C   UNL A   1      48.441  27.208  28.503  1.00  0.00    -0.014 A 
BRANCH  14  15
ATOM     15  C   UNL A   1      47.253  27.743  29.214  1.00  0.00     0.031 A 
ATOM     16  C   UNL A   1      46.573  29.008  28.769  1.00  0.00     0.074 A 
ATOM     17  C   UNL A   1      46.775  27.054  30.270  1.00  0.00     0.049 A 
ATOM     18  N   UNL A   1      45.492  29.569  29.247  1.00  0.00    -0.248 NA
ATOM     19  C   UNL A   1      47.185  29.748  27.653  1.00  0.00     0.031 C 
ATOM     20  C   UNL A   1      47.380  25.838  30.823  1.00  0.00     0.029 A 
ATOM     21  N   UNL A   1      45.675  27.263  31.060  1.00  0.00    -0.354 N 
ATOM     22  C   UNL A   1      45.320  30.748  28.530  1.00  0.00     0.074 A 
ATOM     23  C   UNL A   1      46.412  30.824  27.583  1.00  0.00     0.031 C 
ATOM     24  C   UNL A   1      46.621  25.386  31.830  1.00  0.00     0.029 A 
ATOM     25  C   UNL A   1      45.508  26.304  32.031  1.00  0.00     0.049 A 
ATOM     26  H   UNL A   1      45.065  28.026  30.944  1.00  0.00     0.167 HD
ATOM     27  C   UNL A   1      44.337  31.673  28.642  1.00  0.00     0.034 A 
ATOM     28  C   UNL A   1      44.565  26.177  32.984  1.00  0.00     0.034 A 
ATOM     29  C   UNL A   1      43.228  31.566  29.554  1.00  0.00     0.049 A 
ATOM     30  C   UNL A   1      43.463  27.194  33.051  1.00  0.00     0.074 A 
ATOM     31  C   UNL A   1      42.139  32.409  29.688  1.00  0.00     0.029 A 
ATOM     32  N   UNL A   1      43.069  30.557  30.493  1.00  0.00    -0.354 N 
ATOM     33  N   UNL A   1      43.244  28.225  32.272  1.00  0.00    -0.248 NA
ATOM     34  C   UNL A   1      42.463  27.016  34.112  1.00  0.00     0.031 C 
ATOM     35  C   UNL A   1      41.332  31.923  30.723  1.00  0.00     0.029 A 
ATOM     36  C   UNL A   1      41.905  30.762  31.217  1.00  0.00     0.049 A 
ATOM     37  H   UNL A   1      43.690  29.806  30.626  1.00  0.00     0.167 HD
ATOM     38  C   UNL A   1      42.066  28.802  32.727  1.00  0.00     0.074 A 
ATOM     39  C   UNL A   1      41.605  27.989  33.835  1.00  0.00     0.031 C 
ATOM     40  C   UNL A   1      41.433  29.915  32.282  1.00  0.00     0.034 A 
BRANCH  27  41
ATOM     41  C   UNL A   1      44.390  32.874  27.732  1.00  0.00     0.023 A 
ATOM     42  C   UNL A   1      43.936  32.764  26.402  1.00  0.00     0.012 A 
ATOM     43  C   UNL A   1      44.823  34.126  28.211  1.00  0.00     0.148 A 
ATOM     44  C   UNL A   1      43.941  33.873  25.555  1.00  0.00     0.002 A 
ATOM     45  C   UNL A   1      44.786  35.236  27.375  1.00  0.00     0.091 A 
ATOM     46  F   UNL A   1      45.273  34.209  29.473  1.00  0.00    -0.205 F 
ATOM     47  C   UNL A   1      44.355  35.110  26.044  1.00  0.00     0.022 A 
BRANCH  45  48
ATOM     48  S   UNL A   1      45.226  36.885  27.936  1.00  0.00     0.127 S 
ATOM     49  O   UNL A   1      44.355  37.044  29.099  1.00  0.00    -0.237 OA
ATOM     50  O   UNL A   1      46.647  36.737  28.255  1.00  0.00    -0.237 OA
ATOM     51  O   UNL A   1      44.948  37.774  26.816  1.00  0.00    -0.744 OA
ENDBRANCH  45  48
ENDBRANCH  27  41
BRANCH  28  52
ATOM     52  C   UNL A   1      44.594  25.004  33.900  1.00  0.00     0.023 A 
ATOM     53  C   UNL A   1      44.082  23.769  33.457  1.00  0.00     0.012 A 
ATOM     54  C   UNL A   1      45.169  25.089  35.183  1.00  0.00     0.148 A 
ATOM     55  C   UNL A   1      44.121  22.645  34.283  1.00  0.00     0.002 A 
ATOM     56  C   UNL A   1      45.258  23.953  35.978  1.00  0.00     0.091 A 
ATOM     57  F   UNL A   1      45.635  26.278  35.593  1.00  0.00    -0.205 F 
ATOM     58  C   UNL A   1      44.720  22.734  35.537  1.00  0.00     0.022 A 
BRANCH  56  59
ATOM     59  S   UNL A   1      46.141  23.947  37.542  1.00  0.00     0.127 S 
ATOM     60  O   UNL A   1      46.030  22.547  37.942  1.00  0.00    -0.237 OA
ATOM     61  O   UNL A   1      47.482  24.368  37.136  1.00  0.00    -0.237 OA
ATOM     62  O   UNL A   1      45.443  24.908  38.386  1.00  0.00    -0.744 OA
ENDBRANCH  56  59
ENDBRANCH  28  52
BRANCH  40  63
ATOM     63  C   UNL A   1      40.152  30.302  32.972  1.00  0.00     0.023 A 
ATOM     64  C   UNL A   1      38.927  29.773  32.521  1.00  0.00     0.012 A 
ATOM     65  C   UNL A   1      40.169  31.148  34.099  1.00  0.00     0.148 A 
ATOM     66  C   UNL A   1      37.733  30.109  33.159  1.00  0.00     0.002 A 
ATOM     67  C   UNL A   1      38.981  31.438  34.759  1.00  0.00     0.091 A 
ATOM     68  F   UNL A   1      41.342  31.661  34.498  1.00  0.00    -0.205 F 
ATOM     69  C   UNL A   1      37.761  30.931  34.283  1.00  0.00     0.022 A 
BRANCH  67  70
ATOM     70  S   UNL A   1      38.943  32.412  36.267  1.00  0.00     0.127 S 
ATOM     71  O   UNL A   1      39.361  33.727  35.787  1.00  0.00    -0.237 OA
ATOM     72  O   UNL A   1      37.535  32.326  36.661  1.00  0.00    -0.237 OA
ATOM     73  O   UNL A   1      39.863  31.755  37.187  1.00  0.00    -0.744 OA
ENDBRANCH  67  70
ENDBRANCH  40  63
ENDBRANCH  14  15
ENDBRANCH   7   9
ENDBRANCH   4   5
ENDBRANCH   3   4
ENDBRANCH   2   3
ENDBRANCH   1   2
BRANCH   1  74
ATOM     74  C   UNL A   1      46.322  27.112  24.859  1.00  0.00     0.021 C 
BRANCH  74  75
ATOM     75  C   UNL A   1      45.312  26.060  25.304  1.00  0.00     0.116 C 
BRANCH  75  76
ATOM     76  N   UNL A   1      43.960  26.553  25.140  1.00  0.00    -0.356 N 
ATOM     77  C   UNL A   1      42.772  26.013  25.500  1.00  0.00     0.223 C 
ATOM     78  H   UNL A   1      43.894  27.427  24.690  1.00  0.00     0.163 HD
ATOM     79  O   UNL A   1      41.744  26.566  25.096  1.00  0.00    -0.275 OA
BRANCH  77  80
ATOM     80  C   UNL A   1      42.671  24.801  26.416  1.00  0.00     0.091 C 
ATOM     81  C   UNL A   1      41.774  23.700  25.836  1.00  0.00     0.014 C 
ATOM     82  C   UNL A   1      42.394  25.103  27.893  1.00  0.00     0.091 C 
ATOM     83  C   UNL A   1      41.869  22.438  26.692  1.00  0.00     0.001 C 
ATOM     84  C   UNL A   1      42.401  23.823  28.746  1.00  0.00     0.014 C 
ATOM     85  C   UNL A   1      41.508  22.733  28.145  1.00  0.00     0.001 C 
BRANCH  82  86
ATOM     86  C   UNL A   1      43.178  26.258  28.537  1.00  0.00     0.228 C 
ATOM     87  O   UNL A   1      44.413  26.172  28.602  1.00  0.00    -0.274 OA
ATOM     88  N   UNL A   1      42.667  27.458  28.924  1.00  0.00    -0.326 N 
ATOM     89  H   UNL A   1      43.326  28.072  29.322  1.00  0.00     0.169 HD
BRANCH  88  90
ATOM     90  C   UNL A   1      41.374  27.967  28.854  1.00  0.00     0.041 A 
ATOM     91  C   UNL A   1      41.102  28.900  27.863  1.00  0.00     0.028 A 
ATOM     92  C   UNL A   1      40.364  27.615  29.733  1.00  0.00     0.028 A 
ATOM     93  C   UNL A   1      39.783  29.279  27.612  1.00  0.00     0.028 A 
ATOM     94  C   UNL A   1      39.037  27.947  29.449  1.00  0.00     0.028 A 
ATOM     95  C   UNL A   1      38.728  28.708  28.321  1.00  0.00     0.041 A 
BRANCH  95  96
ATOM     96  N   UNL A   1      37.367  28.818  27.985  1.00  0.00    -0.319 N 
ATOM     97  C   UNL A   1      36.404  29.766  28.275  1.00  0.00     0.291 C 
ATOM     98  H   UNL A   1      37.035  28.073  27.435  1.00  0.00     0.170 HD
ATOM     99  O   UNL A   1      35.273  29.577  27.819  1.00  0.00    -0.265 OA
BRANCH  97 100
ATOM    100  C   UNL A   1      36.743  30.932  29.049  1.00  0.00     0.191 A 
ATOM    101  C   UNL A   1      37.951  31.441  29.492  1.00  0.00     0.056 A 
ATOM    102  O   UNL A   1      35.720  31.713  29.515  1.00  0.00    -0.459 OA
ATOM    103  C   UNL A   1      37.643  32.555  30.313  1.00  0.00     0.043 A 
ATOM    104  C   UNL A   1      36.274  32.684  30.285  1.00  0.00     0.196 A 
ENDBRANCH  97 100
ENDBRANCH  95  96
ENDBRANCH  88  90
ENDBRANCH  82  86
ENDBRANCH  77  80
ENDBRANCH  75  76
ENDBRANCH  74  75
ENDBRANCH   1  74
TORSDOF 20
ENDMDL
MODEL 3
REMARK VINA RESULT:     -10.6      2.207      7.419
REMARK SMILES O=C(NCCCCCCNC(=O)[C@@H]1CCCC[C@H]1C(=O)Nc1ccc(NC(=O)c2ccco2)cc1)c1ccc(-c2c3nc(c(-c4cccc(S(=O)(=O)[O-])c4F)c4ccc([nH]4)c(-c4cccc(S(=O)(=O)[O-])c4F)c4nc(c(-c5cccc(S(=O)(=O)[O-])c5F)c5ccc2[nH]5)C=C4)C=C3)cc1
REMARK SMILES IDX 7 1 6 2 5 3 4 4 3 5 1 6 2 7 36 9 37 10 98 11 38 12 97 13
REMARK SMILES IDX 39 14 40 15 41 16 91 17 42 18 96 19 90 20 92 21 43 22 95 23
REMARK SMILES IDX 89 24 88 25 44 27 76 28 56 29 75 30 57 31 60 32 74 33 93 34
REMARK SMILES IDX 58 35 59 36 73 38 94 39 61 40 45 41 46 42 54 43 47 44 49 45
REMARK SMILES IDX 55 46 48 47 50 48 51 49 52 50 53 51 77 52 78 53 86 54 79 55
REMARK SMILES IDX 81 56 87 57 80 58 82 59 83 60 84 61 85 62 62 63 63 64 71 65
REMARK SMILES IDX 64 66 66 67 72 68 65 69 67 70 68 71 69 72 70 73 8 74 9 75
REMARK SMILES IDX 10 76 11 77 12 79 13 80 14 81 18 82 15 83 17 84 16 85 19 86
REMARK SMILES IDX 20 87 21 88 22 90 23 91 35 92 24 93 34 94 25 95 26 96 27 97
REMARK SMILES IDX 28 99 29 100 30 101 33 102 31 103 32 104
REMARK H PARENT 3 8 92 26 60 37 10 78 21 89 26 98
REMARK Flexibility Score: inf
ROOT
ATOM      1  C   UNL A   1      38.420  23.433  25.855  1.00  0.00     0.002 C 
ENDROOT
BRANCH   1   2
ATOM      2  C   UNL A   1      39.326  22.436  26.581  1.00  0.00     0.002 C 
BRANCH   2   3
ATOM      3  C   UNL A   1      39.470  21.082  25.887  1.00  0.00     0.021 C 
BRANCH   3   4
ATOM      4  C   UNL A   1      39.882  19.948  26.817  1.00  0.00     0.116 C 
BRANCH   4   5
ATOM      5  N   UNL A   1      41.005  19.195  26.283  1.00  0.00    -0.352 N 
ATOM      6  O   UNL A   1      42.964  18.931  25.201  1.00  0.00    -0.269 OA
ATOM      7  C   UNL A   1      42.223  19.659  25.839  1.00  0.00     0.251 C 
ATOM      8  H   UNL A   1      40.876  18.221  26.231  1.00  0.00     0.163 HD
BRANCH   7   9
ATOM      9  C   UNL A   1      42.601  21.060  26.131  1.00  0.00     0.039 A 
ATOM     10  C   UNL A   1      42.837  21.461  27.448  1.00  0.00     0.014 A 
ATOM     11  C   UNL A   1      42.700  21.979  25.085  1.00  0.00     0.014 A 
ATOM     12  C   UNL A   1      43.018  22.807  27.735  1.00  0.00     0.010 A 
ATOM     13  C   UNL A   1      42.978  23.319  25.369  1.00  0.00     0.010 A 
ATOM     14  C   UNL A   1      43.104  23.752  26.699  1.00  0.00    -0.014 A 
BRANCH  14  15
ATOM     15  C   UNL A   1      43.386  25.170  27.037  1.00  0.00     0.031 A 
ATOM     16  C   UNL A   1      42.339  26.052  27.661  1.00  0.00     0.074 A 
ATOM     17  C   UNL A   1      44.619  25.655  26.791  1.00  0.00     0.049 A 
ATOM     18  N   UNL A   1      42.449  27.290  28.071  1.00  0.00    -0.248 NA
ATOM     19  C   UNL A   1      40.994  25.482  27.840  1.00  0.00     0.031 C 
ATOM     20  C   UNL A   1      45.702  24.906  26.145  1.00  0.00     0.029 A 
ATOM     21  N   UNL A   1      45.177  26.878  27.058  1.00  0.00    -0.354 N 
ATOM     22  C   UNL A   1      41.184  27.665  28.509  1.00  0.00     0.074 A 
ATOM     23  C   UNL A   1      40.318  26.522  28.312  1.00  0.00     0.031 C 
ATOM     24  C   UNL A   1      46.803  25.668  26.107  1.00  0.00     0.029 A 
ATOM     25  C   UNL A   1      46.494  26.974  26.674  1.00  0.00     0.049 A 
ATOM     26  H   UNL A   1      44.683  27.615  27.482  1.00  0.00     0.167 HD
ATOM     27  C   UNL A   1      40.785  28.847  29.036  1.00  0.00     0.034 A 
ATOM     28  C   UNL A   1      47.360  28.001  26.762  1.00  0.00     0.034 A 
ATOM     29  C   UNL A   1      41.664  29.963  29.272  1.00  0.00     0.049 A 
ATOM     30  C   UNL A   1      46.899  29.283  27.395  1.00  0.00     0.074 A 
ATOM     31  C   UNL A   1      41.374  31.175  29.876  1.00  0.00     0.029 A 
ATOM     32  N   UNL A   1      43.002  30.009  28.911  1.00  0.00    -0.354 N 
ATOM     33  N   UNL A   1      45.736  29.567  27.929  1.00  0.00    -0.248 NA
ATOM     34  C   UNL A   1      47.878  30.375  27.463  1.00  0.00     0.031 C 
ATOM     35  C   UNL A   1      42.532  31.961  29.860  1.00  0.00     0.029 A 
ATOM     36  C   UNL A   1      43.550  31.230  29.268  1.00  0.00     0.049 A 
ATOM     37  H   UNL A   1      43.492  29.280  28.466  1.00  0.00     0.167 HD
ATOM     38  C   UNL A   1      45.851  30.859  28.423  1.00  0.00     0.074 A 
ATOM     39  C   UNL A   1      47.207  31.292  28.147  1.00  0.00     0.031 C 
ATOM     40  C   UNL A   1      44.915  31.627  29.033  1.00  0.00     0.034 A 
BRANCH  27  41
ATOM     41  C   UNL A   1      39.337  28.992  29.432  1.00  0.00     0.023 A 
ATOM     42  C   UNL A   1      38.943  28.712  30.756  1.00  0.00     0.012 A 
ATOM     43  C   UNL A   1      38.381  29.470  28.514  1.00  0.00     0.148 A 
ATOM     44  C   UNL A   1      37.614  28.876  31.151  1.00  0.00     0.002 A 
ATOM     45  C   UNL A   1      37.069  29.670  28.926  1.00  0.00     0.091 A 
ATOM     46  F   UNL A   1      38.769  29.710  27.252  1.00  0.00    -0.205 F 
ATOM     47  C   UNL A   1      36.681  29.366  30.241  1.00  0.00     0.022 A 
BRANCH  45  48
ATOM     48  S   UNL A   1      35.813  30.369  27.847  1.00  0.00     0.127 S 
ATOM     49  O   UNL A   1      36.066  29.655  26.597  1.00  0.00    -0.237 OA
ATOM     50  O   UNL A   1      34.573  29.989  28.526  1.00  0.00    -0.237 OA
ATOM     51  O   UNL A   1      36.069  31.803  27.815  1.00  0.00    -0.744 OA
ENDBRANCH  45  48
ENDBRANCH  27  41
BRANCH  28  52
ATOM     52  C   UNL A   1      48.764  27.827  26.299  1.00  0.00     0.023 A 
ATOM     53  C   UNL A   1      49.771  27.543  27.240  1.00  0.00     0.012 A 
ATOM     54  C   UNL A   1      49.098  27.889  24.932  1.00  0.00     0.148 A 
ATOM     55  C   UNL A   1      51.091  27.346  26.832  1.00  0.00     0.002 A 
ATOM     56  C   UNL A   1      50.402  27.635  24.526  1.00  0.00     0.091 A 
ATOM     57  F   UNL A   1      48.127  28.178  24.053  1.00  0.00    -0.205 F 
ATOM     58  C   UNL A   1      51.403  27.379  25.475  1.00  0.00     0.022 A 
BRANCH  56  59
ATOM     59  S   UNL A   1      50.858  27.515  22.794  1.00  0.00     0.127 S 
ATOM     60  O   UNL A   1      49.772  26.702  22.254  1.00  0.00    -0.237 OA
ATOM     61  O   UNL A   1      50.844  28.918  22.377  1.00  0.00    -0.237 OA
ATOM     62  O   UNL A   1      52.180  26.902  22.781  1.00  0.00    -0.744 OA
ENDBRANCH  56  59
ENDBRANCH  28  52
BRANCH  40  63
ATOM     63  C   UNL A   1      45.332  33.004  29.475  1.00  0.00     0.023 A 
ATOM     64  C   UNL A   1      45.933  33.182  30.736  1.00  0.00     0.012 A 
ATOM     65  C   UNL A   1      45.177  34.112  28.619  1.00  0.00     0.148 A 
ATOM     66  C   UNL A   1      46.340  34.448  31.154  1.00  0.00     0.002 A 
ATOM     67  C   UNL A   1      45.630  35.362  29.023  1.00  0.00     0.091 A 
ATOM     68  F   UNL A   1      44.581  33.927  27.432  1.00  0.00    -0.205 F 
ATOM     69  C   UNL A   1      46.200  35.535  30.295  1.00  0.00     0.022 A 
BRANCH  67  70
ATOM     70  S   UNL A   1      45.572  36.792  27.939  1.00  0.00     0.127 S 
ATOM     71  O   UNL A   1      46.157  37.832  28.782  1.00  0.00    -0.237 OA
ATOM     72  O   UNL A   1      46.413  36.372  26.817  1.00  0.00    -0.237 OA
ATOM     73  O   UNL A   1      44.166  36.974  27.598  1.00  0.00    -0.744 OA
ENDBRANCH  67  70
ENDBRANCH  40  63
ENDBRANCH  14  15
ENDBRANCH   7   9
ENDBRANCH   4   5
ENDBRANCH   3   4
ENDBRANCH   2   3
ENDBRANCH   1   2
BRANCH   1  74
ATOM     74  C   UNL A   1      36.947  23.024  25.782  1.00  0.00     0.021 C 
BRANCH  74  75
ATOM     75  C   UNL A   1      36.485  22.608  24.389  1.00  0.00     0.116 C 
BRANCH  75  76
ATOM     76  N   UNL A   1      35.892  21.288  24.425  1.00  0.00    -0.356 N 
ATOM     77  C   UNL A   1      34.676  20.876  24.856  1.00  0.00     0.223 C 
ATOM     78  H   UNL A   1      36.470  20.568  24.080  1.00  0.00     0.163 HD
ATOM     79  O   UNL A   1      34.475  19.660  24.931  1.00  0.00    -0.275 OA
BRANCH  77  80
ATOM     80  C   UNL A   1      33.557  21.851  25.192  1.00  0.00     0.091 C 
ATOM     81  C   UNL A   1      33.253  21.903  26.694  1.00  0.00     0.014 C 
ATOM     82  C   UNL A   1      32.302  21.753  24.317  1.00  0.00     0.091 C 
ATOM     83  C   UNL A   1      32.271  23.035  26.995  1.00  0.00     0.001 C 
ATOM     84  C   UNL A   1      31.272  22.837  24.675  1.00  0.00     0.014 C 
ATOM     85  C   UNL A   1      30.990  22.879  26.181  1.00  0.00     0.001 C 
BRANCH  82  86
ATOM     86  C   UNL A   1      32.509  21.599  22.800  1.00  0.00     0.228 C 
ATOM     87  O   UNL A   1      32.157  20.541  22.259  1.00  0.00    -0.274 OA
ATOM     88  N   UNL A   1      32.913  22.574  21.942  1.00  0.00    -0.326 N 
ATOM     89  H   UNL A   1      32.992  22.283  21.005  1.00  0.00     0.169 HD
BRANCH  88  90
ATOM     90  C   UNL A   1      33.234  23.909  22.160  1.00  0.00     0.041 A 
ATOM     91  C   UNL A   1      32.634  24.858  21.342  1.00  0.00     0.028 A 
ATOM     92  C   UNL A   1      34.134  24.334  23.123  1.00  0.00     0.028 A 
ATOM     93  C   UNL A   1      32.750  26.213  21.652  1.00  0.00     0.028 A 
ATOM     94  C   UNL A   1      34.206  25.684  23.471  1.00  0.00     0.028 A 
ATOM     95  C   UNL A   1      33.434  26.628  22.794  1.00  0.00     0.041 A 
BRANCH  95  96
ATOM     96  N   UNL A   1      33.398  27.925  23.337  1.00  0.00    -0.319 N 
ATOM     97  C   UNL A   1      32.664  28.492  24.362  1.00  0.00     0.291 C 
ATOM     98  H   UNL A   1      34.017  28.553  22.900  1.00  0.00     0.170 HD
ATOM     99  O   UNL A   1      32.868  29.683  24.608  1.00  0.00    -0.265 OA
BRANCH  97 100
ATOM    100  C   UNL A   1      31.733  27.693  25.116  1.00  0.00     0.191 A 
ATOM    101  C   UNL A   1      31.755  27.205  26.411  1.00  0.00     0.056 A 
ATOM    102  O   UNL A   1      30.604  27.251  24.480  1.00  0.00    -0.459 OA
ATOM    103  C   UNL A   1      30.609  26.381  26.550  1.00  0.00     0.043 A 
ATOM    104  C   UNL A   1      29.939  26.451  25.352  1.00  0.00     0.196 A 
ENDBRANCH  97 100
ENDBRANCH  95  96
ENDBRANCH  88  90
ENDBRANCH  82  86
ENDBRANCH  77  80
ENDBRANCH  75  76
ENDBRANCH  74  75
ENDBRANCH   1  74
TORSDOF 20
ENDMDL
