MODEL 1
REMARK VINA RESULT:     -11.5      0.000      0.000
REMARK SMILES CC[C@](C)(NS(=O)(=O)c1ccc(C(=O)OC)cc1)C(=O)NCCCCCCNC(=O)c1ccc(-c2c3nc(c(-c4cccc(S(=O)(=O)[O-])c4F)c4ccc([nH]4)c(-c4cccc(S(=O)(=O)[O-])c4F)c4nc(c(-c5cccc(S(=O)(=O)[O-])c5F)c5ccc2[nH]5)C=C4)C=C3)cc1
REMARK SMILES IDX 23 1 22 2 21 3 19 4 20 5 3 7 4 8 2 9 1 10 5 11 6 13 7 14
REMARK SMILES IDX 8 15 9 16 10 17 18 18 11 19 17 20 12 21 13 22 14 23 15 24
REMARK SMILES IDX 16 25 24 26 25 27 26 28 27 29 28 30 29 31 30 33 31 34 32 35
REMARK SMILES IDX 93 36 33 37 92 38 34 39 35 40 36 41 86 42 37 43 91 44 85 45
REMARK SMILES IDX 87 46 38 47 90 48 84 49 83 50 39 52 71 53 51 54 70 55 52 56
REMARK SMILES IDX 55 57 69 58 88 59 53 60 54 61 68 63 89 64 56 65 40 66 41 67
REMARK SMILES IDX 49 68 42 69 44 70 50 71 43 72 45 73 46 74 47 75 48 76 72 77
REMARK SMILES IDX 73 78 81 79 74 80 76 81 82 82 75 83 77 84 78 85 79 86 80 87
REMARK SMILES IDX 57 88 58 89 66 90 59 91 61 92 67 93 60 94 62 95 63 96 64 97
REMARK SMILES IDX 65 98
REMARK H PARENT 21 6 5 12 28 32 87 51 55 62
REMARK Flexibility Score: inf
ROOT
ATOM      1  C   UNL A   1      31.405  28.110  26.712  1.00  0.00     0.021 C 
ENDROOT
BRANCH   1   2
ATOM      2  C   UNL A   1      32.188  26.803  26.693  1.00  0.00     0.116 C 
BRANCH   2   3
ATOM      3  N   UNL A   1      31.362  25.633  26.938  1.00  0.00    -0.354 N 
ATOM      4  C   UNL A   1      31.396  24.339  26.539  1.00  0.00     0.241 C 
ATOM      5  O   UNL A   1      30.550  23.616  27.090  1.00  0.00    -0.273 OA
ATOM      6  H   UNL A   1      30.601  25.826  27.531  1.00  0.00     0.163 HD
BRANCH   4   7
ATOM      7  C   UNL A   1      32.365  23.749  25.488  1.00  0.00     0.108 C 
ATOM      8  C   UNL A   1      32.085  22.203  25.410  1.00  0.00     0.040 C 
BRANCH   7   9
ATOM      9  C   UNL A   1      33.845  23.882  25.933  1.00  0.00     0.030 C 
ATOM     10  C   UNL A   1      34.374  22.636  26.657  1.00  0.00     0.006 C 
ENDBRANCH   7   9
BRANCH   7  11
ATOM     11  N   UNL A   1      32.158  24.125  24.070  1.00  0.00    -0.196 NA
ATOM     12  H   UNL A   1      31.144  24.083  23.967  1.00  0.00     0.142 HD
BRANCH  11  13
ATOM     13  S   UNL A   1      32.575  25.445  23.164  1.00  0.00     0.241 S 
ATOM     14  O   UNL A   1      33.851  25.902  23.661  1.00  0.00    -0.207 OA
ATOM     15  O   UNL A   1      32.447  24.982  21.797  1.00  0.00    -0.207 OA
BRANCH  13  16
ATOM     16  C   UNL A   1      31.383  26.762  23.329  1.00  0.00     0.082 A 
ATOM     17  C   UNL A   1      30.063  26.404  23.639  1.00  0.00     0.022 A 
ATOM     18  C   UNL A   1      31.676  28.089  23.027  1.00  0.00     0.022 A 
ATOM     19  C   UNL A   1      29.024  27.329  23.476  1.00  0.00     0.017 A 
ATOM     20  C   UNL A   1      30.629  28.998  22.797  1.00  0.00     0.017 A 
ATOM     21  C   UNL A   1      29.294  28.607  22.970  1.00  0.00     0.060 A 
BRANCH  21  22
ATOM     22  C   UNL A   1      28.140  29.448  22.540  1.00  0.00     0.337 C 
ATOM     23  O   UNL A   1      27.159  29.651  23.242  1.00  0.00    -0.246 OA
BRANCH  22  24
ATOM     24  O   UNL A   1      28.288  29.862  21.256  1.00  0.00    -0.465 OA
ATOM     25  C   UNL A   1      28.159  31.277  21.081  1.00  0.00     0.282 C 
ENDBRANCH  22  24
ENDBRANCH  21  22
ENDBRANCH  13  16
ENDBRANCH  11  13
ENDBRANCH   7  11
ENDBRANCH   4   7
ENDBRANCH   2   3
ENDBRANCH   1   2
BRANCH   1  26
ATOM     26  C   UNL A   1      32.209  29.383  26.976  1.00  0.00     0.002 C 
BRANCH  26  27
ATOM     27  C   UNL A   1      31.877  30.552  26.059  1.00  0.00     0.002 C 
BRANCH  27  28
ATOM     28  C   UNL A   1      31.621  31.873  26.786  1.00  0.00     0.021 C 
BRANCH  28  29
ATOM     29  C   UNL A   1      32.877  32.602  27.257  1.00  0.00     0.116 C 
BRANCH  29  30
ATOM     30  N   UNL A   1      32.626  34.014  27.504  1.00  0.00    -0.352 N 
ATOM     31  C   UNL A   1      33.117  34.786  28.529  1.00  0.00     0.251 C 
ATOM     32  H   UNL A   1      32.035  34.469  26.862  1.00  0.00     0.163 HD
ATOM     33  O   UNL A   1      32.645  35.890  28.777  1.00  0.00    -0.269 OA
BRANCH  31  34
ATOM     34  C   UNL A   1      34.226  34.245  29.341  1.00  0.00     0.039 A 
ATOM     35  C   UNL A   1      33.942  33.440  30.444  1.00  0.00     0.014 A 
ATOM     36  C   UNL A   1      35.548  34.494  28.958  1.00  0.00     0.014 A 
ATOM     37  C   UNL A   1      34.995  32.846  31.142  1.00  0.00     0.010 A 
ATOM     38  C   UNL A   1      36.585  33.829  29.600  1.00  0.00     0.010 A 
ATOM     39  C   UNL A   1      36.323  33.017  30.714  1.00  0.00    -0.014 A 
BRANCH  39  40
ATOM     40  C   UNL A   1      37.456  32.396  31.447  1.00  0.00     0.031 A 
ATOM     41  C   UNL A   1      38.199  31.242  30.825  1.00  0.00     0.074 A 
ATOM     42  C   UNL A   1      37.779  32.824  32.684  1.00  0.00     0.049 A 
ATOM     43  N   UNL A   1      39.178  30.529  31.317  1.00  0.00    -0.248 NA
ATOM     44  C   UNL A   1      37.767  30.813  29.481  1.00  0.00     0.031 C 
ATOM     45  C   UNL A   1      37.085  33.877  33.427  1.00  0.00     0.029 A 
ATOM     46  N   UNL A   1      38.764  32.406  33.545  1.00  0.00    -0.354 N 
ATOM     47  C   UNL A   1      39.460  29.560  30.361  1.00  0.00     0.074 A 
ATOM     48  C   UNL A   1      38.512  29.736  29.285  1.00  0.00     0.031 C 
ATOM     49  C   UNL A   1      37.666  34.025  34.630  1.00  0.00     0.029 A 
ATOM     50  C   UNL A   1      38.755  33.062  34.755  1.00  0.00     0.049 A 
ATOM     51  H   UNL A   1      39.415  31.703  33.318  1.00  0.00     0.167 HD
ATOM     52  C   UNL A   1      40.448  28.633  30.354  1.00  0.00     0.034 A 
ATOM     53  C   UNL A   1      39.534  32.897  35.843  1.00  0.00     0.034 A 
ATOM     54  C   UNL A   1      41.414  28.486  31.406  1.00  0.00     0.049 A 
ATOM     55  C   UNL A   1      40.649  31.884  35.793  1.00  0.00     0.074 A 
ATOM     56  C   UNL A   1      42.483  27.610  31.475  1.00  0.00     0.029 A 
ATOM     57  N   UNL A   1      41.435  29.238  32.569  1.00  0.00    -0.354 N 
ATOM     58  N   UNL A   1      40.978  31.065  34.823  1.00  0.00    -0.248 NA
ATOM     59  C   UNL A   1      41.529  31.804  36.967  1.00  0.00     0.031 C 
ATOM     60  C   UNL A   1      43.143  27.826  32.689  1.00  0.00     0.029 A 
ATOM     61  C   UNL A   1      42.505  28.858  33.357  1.00  0.00     0.049 A 
ATOM     62  H   UNL A   1      40.784  29.940  32.799  1.00  0.00     0.167 HD
ATOM     63  C   UNL A   1      42.130  30.412  35.249  1.00  0.00     0.074 A 
ATOM     64  C   UNL A   1      42.451  30.945  36.557  1.00  0.00     0.031 C 
ATOM     65  C   UNL A   1      42.850  29.451  34.623  1.00  0.00     0.034 A 
BRANCH  52  66
ATOM     66  C   UNL A   1      40.574  27.755  29.136  1.00  0.00     0.023 A 
ATOM     67  C   UNL A   1      39.714  26.646  28.991  1.00  0.00     0.012 A 
ATOM     68  C   UNL A   1      41.489  28.058  28.109  1.00  0.00     0.148 A 
ATOM     69  C   UNL A   1      39.783  25.835  27.861  1.00  0.00     0.002 A 
ATOM     70  C   UNL A   1      41.518  27.273  26.963  1.00  0.00     0.091 A 
ATOM     71  F   UNL A   1      42.309  29.106  28.273  1.00  0.00    -0.205 F 
ATOM     72  C   UNL A   1      40.676  26.155  26.842  1.00  0.00     0.022 A 
BRANCH  70  73
ATOM     73  S   UNL A   1      42.571  27.643  25.555  1.00  0.00     0.127 S 
ATOM     74  O   UNL A   1      42.336  26.483  24.697  1.00  0.00    -0.237 OA
ATOM     75  O   UNL A   1      41.993  28.894  25.063  1.00  0.00    -0.237 OA
ATOM     76  O   UNL A   1      43.924  27.760  26.081  1.00  0.00    -0.744 OA
ENDBRANCH  70  73
ENDBRANCH  52  66
BRANCH  53  77
ATOM     77  C   UNL A   1      39.332  33.742  37.056  1.00  0.00     0.023 A 
ATOM     78  C   UNL A   1      39.836  35.058  37.084  1.00  0.00     0.012 A 
ATOM     79  C   UNL A   1      38.660  33.243  38.188  1.00  0.00     0.148 A 
ATOM     80  C   UNL A   1      39.725  35.839  38.235  1.00  0.00     0.002 A 
ATOM     81  C   UNL A   1      38.501  34.048  39.310  1.00  0.00     0.091 A 
ATOM     82  F   UNL A   1      38.195  31.987  38.150  1.00  0.00    -0.205 F 
ATOM     83  C   UNL A   1      39.052  35.339  39.345  1.00  0.00     0.022 A 
BRANCH  81  84
ATOM     84  S   UNL A   1      37.534  33.529  40.732  1.00  0.00     0.127 S 
ATOM     85  O   UNL A   1      36.375  32.909  40.097  1.00  0.00    -0.237 OA
ATOM     86  O   UNL A   1      38.446  32.597  41.396  1.00  0.00    -0.237 OA
ATOM     87  O   UNL A   1      37.270  34.745  41.489  1.00  0.00    -0.744 OA
ENDBRANCH  81  84
ENDBRANCH  53  77
BRANCH  65  88
ATOM     88  C   UNL A   1      44.104  28.963  35.299  1.00  0.00     0.023 A 
ATOM     89  C   UNL A   1      45.349  29.547  34.996  1.00  0.00     0.012 A 
ATOM     90  C   UNL A   1      44.031  27.964  36.291  1.00  0.00     0.148 A 
ATOM     91  C   UNL A   1      46.509  29.114  35.639  1.00  0.00     0.002 A 
ATOM     92  C   UNL A   1      45.181  27.576  36.965  1.00  0.00     0.091 A 
ATOM     93  F   UNL A   1      42.838  27.409  36.553  1.00  0.00    -0.205 F 
ATOM     94  C   UNL A   1      46.422  28.139  36.631  1.00  0.00     0.022 A 
BRANCH  92  95
ATOM     95  S   UNL A   1      45.147  26.403  38.325  1.00  0.00     0.127 S 
ATOM     96  O   UNL A   1      44.719  27.250  39.437  1.00  0.00    -0.237 OA
ATOM     97  O   UNL A   1      44.145  25.435  37.874  1.00  0.00    -0.237 OA
ATOM     98  O   UNL A   1      46.497  25.869  38.428  1.00  0.00    -0.744 OA
ENDBRANCH  92  95
ENDBRANCH  65  88
ENDBRANCH  39  40
ENDBRANCH  31  34
ENDBRANCH  29  30
ENDBRANCH  28  29
ENDBRANCH  27  28
ENDBRANCH  26  27
ENDBRANCH   1  26
TORSDOF 22
ENDMDL
MODEL 2
REMARK VINA RESULT:     -10.8      3.848      8.853
REMARK SMILES CC[C@](C)(NS(=O)(=O)c1ccc(C(=O)OC)cc1)C(=O)NCCCCCCNC(=O)c1ccc(-c2c3nc(c(-c4cccc(S(=O)(=O)[O-])c4F)c4ccc([nH]4)c(-c4cccc(S(=O)(=O)[O-])c4F)c4nc(c(-c5cccc(S(=O)(=O)[O-])c5F)c5ccc2[nH]5)C=C4)C=C3)cc1
REMARK SMILES IDX 23 1 22 2 21 3 19 4 20 5 3 7 4 8 2 9 1 10 5 11 6 13 7 14
REMARK SMILES IDX 8 15 9 16 10 17 18 18 11 19 17 20 12 21 13 22 14 23 15 24
REMARK SMILES IDX 16 25 24 26 25 27 26 28 27 29 28 30 29 31 30 33 31 34 32 35
REMARK SMILES IDX 93 36 33 37 92 38 34 39 35 40 36 41 86 42 37 43 91 44 85 45
REMARK SMILES IDX 87 46 38 47 90 48 84 49 83 50 39 52 71 53 51 54 70 55 52 56
REMARK SMILES IDX 55 57 69 58 88 59 53 60 54 61 68 63 89 64 56 65 40 66 41 67
REMARK SMILES IDX 49 68 42 69 44 70 50 71 43 72 45 73 46 74 47 75 48 76 72 77
REMARK SMILES IDX 73 78 81 79 74 80 76 81 82 82 75 83 77 84 78 85 79 86 80 87
REMARK SMILES IDX 57 88 58 89 66 90 59 91 61 92 67 93 60 94 62 95 63 96 64 97
REMARK SMILES IDX 65 98
REMARK H PARENT 21 6 5 12 28 32 87 51 55 62
REMARK Flexibility Score: inf
ROOT
ATOM      1  C   UNL A   1      35.596  24.461  25.329  1.00  0.00     0.021 C 
ENDROOT
BRANCH   1   2
ATOM      2  C   UNL A   1      35.331  23.488  24.186  1.00  0.00     0.116 C 
BRANCH   2   3
ATOM      3  N   UNL A   1      35.600  22.103  24.534  1.00  0.00    -0.354 N 
ATOM      4  C   UNL A   1      34.834  21.029  24.843  1.00  0.00     0.241 C 
ATOM      5  O   UNL A   1      35.471  19.969  24.959  1.00  0.00    -0.273 OA
ATOM      6  H   UNL A   1      36.563  21.898  24.549  1.00  0.00     0.163 HD
BRANCH   4   7
ATOM      7  C   UNL A   1      33.303  21.051  25.060  1.00  0.00     0.108 C 
ATOM      8  C   UNL A   1      32.911  19.698  25.759  1.00  0.00     0.040 C 
BRANCH   7   9
ATOM      9  C   UNL A   1      32.533  21.063  23.714  1.00  0.00     0.030 C 
ATOM     10  C   UNL A   1      32.270  19.658  23.154  1.00  0.00     0.006 C 
ENDBRANCH   7   9
BRANCH   7  11
ATOM     11  N   UNL A   1      32.759  22.019  26.039  1.00  0.00    -0.196 NA
ATOM     12  H   UNL A   1      33.362  22.834  25.918  1.00  0.00     0.142 HD
BRANCH  11  13
ATOM     13  S   UNL A   1      31.265  22.689  26.277  1.00  0.00     0.241 S 
ATOM     14  O   UNL A   1      30.300  21.733  25.789  1.00  0.00    -0.207 OA
ATOM     15  O   UNL A   1      31.272  23.070  27.674  1.00  0.00    -0.207 OA
BRANCH  13  16
ATOM     16  C   UNL A   1      31.074  24.215  25.373  1.00  0.00     0.082 A 
ATOM     17  C   UNL A   1      30.631  25.338  26.088  1.00  0.00     0.022 A 
ATOM     18  C   UNL A   1      31.206  24.298  23.990  1.00  0.00     0.022 A 
ATOM     19  C   UNL A   1      30.160  26.468  25.407  1.00  0.00     0.017 A 
ATOM     20  C   UNL A   1      30.672  25.402  23.303  1.00  0.00     0.017 A 
ATOM     21  C   UNL A   1      30.098  26.469  24.008  1.00  0.00     0.060 A 
BRANCH  21  22
ATOM     22  C   UNL A   1      29.328  27.560  23.342  1.00  0.00     0.337 C 
ATOM     23  O   UNL A   1      28.107  27.567  23.261  1.00  0.00    -0.246 OA
BRANCH  22  24
ATOM     24  O   UNL A   1      30.160  28.466  22.770  1.00  0.00    -0.465 OA
ATOM     25  C   UNL A   1      29.485  29.522  22.077  1.00  0.00     0.282 C 
ENDBRANCH  22  24
ENDBRANCH  21  22
ENDBRANCH  13  16
ENDBRANCH  11  13
ENDBRANCH   7  11
ENDBRANCH   4   7
ENDBRANCH   2   3
ENDBRANCH   1   2
BRANCH   1  26
ATOM     26  C   UNL A   1      34.383  25.212  25.879  1.00  0.00     0.002 C 
BRANCH  26  27
ATOM     27  C   UNL A   1      33.983  26.448  25.086  1.00  0.00     0.002 C 
BRANCH  27  28
ATOM     28  C   UNL A   1      33.624  27.662  25.945  1.00  0.00     0.021 C 
BRANCH  28  29
ATOM     29  C   UNL A   1      34.643  28.798  25.908  1.00  0.00     0.116 C 
BRANCH  29  30
ATOM     30  N   UNL A   1      34.131  30.008  26.534  1.00  0.00    -0.352 N 
ATOM     31  C   UNL A   1      34.595  30.625  27.670  1.00  0.00     0.251 C 
ATOM     32  H   UNL A   1      33.361  30.434  26.091  1.00  0.00     0.163 HD
ATOM     33  O   UNL A   1      33.936  31.489  28.239  1.00  0.00    -0.269 OA
BRANCH  31  34
ATOM     34  C   UNL A   1      35.908  30.211  28.203  1.00  0.00     0.039 A 
ATOM     35  C   UNL A   1      35.977  29.575  29.443  1.00  0.00     0.014 A 
ATOM     36  C   UNL A   1      37.059  30.403  27.433  1.00  0.00     0.014 A 
ATOM     37  C   UNL A   1      37.207  29.090  29.892  1.00  0.00     0.010 A 
ATOM     38  C   UNL A   1      38.261  29.840  27.842  1.00  0.00     0.010 A 
ATOM     39  C   UNL A   1      38.354  29.199  29.087  1.00  0.00    -0.014 A 
BRANCH  39  40
ATOM     40  C   UNL A   1      39.672  28.694  29.550  1.00  0.00     0.031 A 
ATOM     41  C   UNL A   1      40.402  29.422  30.649  1.00  0.00     0.074 A 
ATOM     42  C   UNL A   1      40.236  27.624  28.954  1.00  0.00     0.049 A 
ATOM     43  N   UNL A   1      41.580  29.178  31.161  1.00  0.00    -0.248 NA
ATOM     44  C   UNL A   1      39.733  30.600  31.232  1.00  0.00     0.031 C 
ATOM     45  C   UNL A   1      39.668  26.882  27.827  1.00  0.00     0.029 A 
ATOM     46  N   UNL A   1      41.429  26.990  29.199  1.00  0.00    -0.354 N 
ATOM     47  C   UNL A   1      41.801  30.178  32.101  1.00  0.00     0.074 A 
ATOM     48  C   UNL A   1      40.663  31.068  32.050  1.00  0.00     0.031 C 
ATOM     49  C   UNL A   1      40.509  25.893  27.481  1.00  0.00     0.029 A 
ATOM     50  C   UNL A   1      41.687  25.945  28.340  1.00  0.00     0.049 A 
ATOM     51  H   UNL A   1      42.042  27.257  29.921  1.00  0.00     0.167 HD
ATOM     52  C   UNL A   1      42.835  30.322  32.964  1.00  0.00     0.034 A 
ATOM     53  C   UNL A   1      42.757  25.130  28.254  1.00  0.00     0.034 A 
ATOM     54  C   UNL A   1      43.945  29.414  33.042  1.00  0.00     0.049 A 
ATOM     55  C   UNL A   1      43.876  25.290  29.251  1.00  0.00     0.074 A 
ATOM     56  C   UNL A   1      45.021  29.442  33.911  1.00  0.00     0.029 A 
ATOM     57  N   UNL A   1      44.119  28.309  32.223  1.00  0.00    -0.354 N 
ATOM     58  N   UNL A   1      44.001  26.166  30.219  1.00  0.00    -0.248 NA
ATOM     59  C   UNL A   1      44.977  24.320  29.177  1.00  0.00     0.031 C 
ATOM     60  C   UNL A   1      45.852  28.360  33.609  1.00  0.00     0.029 A 
ATOM     61  C   UNL A   1      45.275  27.640  32.575  1.00  0.00     0.049 A 
ATOM     62  H   UNL A   1      43.508  28.041  31.500  1.00  0.00     0.167 HD
ATOM     63  C   UNL A   1      45.166  25.822  30.896  1.00  0.00     0.074 A 
ATOM     64  C   UNL A   1      45.698  24.646  30.240  1.00  0.00     0.031 C 
ATOM     65  C   UNL A   1      45.749  26.429  31.958  1.00  0.00     0.034 A 
BRANCH  52  66
ATOM     66  C   UNL A   1      42.774  31.465  33.944  1.00  0.00     0.023 A 
ATOM     67  C   UNL A   1      43.464  32.661  33.653  1.00  0.00     0.012 A 
ATOM     68  C   UNL A   1      41.990  31.387  35.110  1.00  0.00     0.148 A 
ATOM     69  C   UNL A   1      43.401  33.748  34.522  1.00  0.00     0.002 A 
ATOM     70  C   UNL A   1      41.892  32.492  35.947  1.00  0.00     0.091 A 
ATOM     71  F   UNL A   1      41.355  30.237  35.377  1.00  0.00    -0.205 F 
ATOM     72  C   UNL A   1      42.606  33.668  35.661  1.00  0.00     0.022 A 
BRANCH  70  73
ATOM     73  S   UNL A   1      40.832  32.526  37.397  1.00  0.00     0.127 S 
ATOM     74  O   UNL A   1      40.465  33.940  37.461  1.00  0.00    -0.237 OA
ATOM     75  O   UNL A   1      39.746  31.631  37.000  1.00  0.00    -0.237 OA
ATOM     76  O   UNL A   1      41.646  32.046  38.504  1.00  0.00    -0.744 OA
ENDBRANCH  70  73
ENDBRANCH  52  66
BRANCH  53  77
ATOM     77  C   UNL A   1      42.807  24.051  27.224  1.00  0.00     0.023 A 
ATOM     78  C   UNL A   1      43.481  24.278  26.007  1.00  0.00     0.012 A 
ATOM     79  C   UNL A   1      42.177  22.811  27.436  1.00  0.00     0.148 A 
ATOM     80  C   UNL A   1      43.476  23.312  24.999  1.00  0.00     0.002 A 
ATOM     81  C   UNL A   1      42.227  21.830  26.452  1.00  0.00     0.091 A 
ATOM     82  F   UNL A   1      41.533  22.614  28.595  1.00  0.00    -0.205 F 
ATOM     83  C   UNL A   1      42.856  22.086  25.223  1.00  0.00     0.022 A 
BRANCH  81  84
ATOM     84  S   UNL A   1      41.569  20.180  26.710  1.00  0.00     0.127 S 
ATOM     85  O   UNL A   1      40.150  20.451  26.920  1.00  0.00    -0.237 OA
ATOM     86  O   UNL A   1      41.891  19.521  25.444  1.00  0.00    -0.237 OA
ATOM     87  O   UNL A   1      42.291  19.648  27.859  1.00  0.00    -0.744 OA
ENDBRANCH  81  84
ENDBRANCH  53  77
BRANCH  65  88
ATOM     88  C   UNL A   1      46.988  25.794  32.533  1.00  0.00     0.023 A 
ATOM     89  C   UNL A   1      46.895  24.928  33.640  1.00  0.00     0.012 A 
ATOM     90  C   UNL A   1      48.242  26.009  31.926  1.00  0.00     0.148 A 
ATOM     91  C   UNL A   1      48.036  24.319  34.160  1.00  0.00     0.002 A 
ATOM     92  C   UNL A   1      49.365  25.357  32.415  1.00  0.00     0.091 A 
ATOM     93  F   UNL A   1      48.312  26.851  30.884  1.00  0.00    -0.205 F 
ATOM     94  C   UNL A   1      49.268  24.524  33.541  1.00  0.00     0.022 A 
BRANCH  92  95
ATOM     95  S   UNL A   1      50.970  25.482  31.619  1.00  0.00     0.127 S 
ATOM     96  O   UNL A   1      50.671  25.004  30.270  1.00  0.00    -0.237 OA
ATOM     97  O   UNL A   1      51.251  26.916  31.711  1.00  0.00    -0.237 OA
ATOM     98  O   UNL A   1      51.871  24.641  32.396  1.00  0.00    -0.744 OA
ENDBRANCH  92  95
ENDBRANCH  65  88
ENDBRANCH  39  40
ENDBRANCH  31  34
ENDBRANCH  29  30
ENDBRANCH  28  29
ENDBRANCH  27  28
ENDBRANCH  26  27
ENDBRANCH   1  26
TORSDOF 22
ENDMDL
MODEL 3
REMARK VINA RESULT:     -10.7      1.368      7.574
REMARK SMILES CC[C@](C)(NS(=O)(=O)c1ccc(C(=O)OC)cc1)C(=O)NCCCCCCNC(=O)c1ccc(-c2c3nc(c(-c4cccc(S(=O)(=O)[O-])c4F)c4ccc([nH]4)c(-c4cccc(S(=O)(=O)[O-])c4F)c4nc(c(-c5cccc(S(=O)(=O)[O-])c5F)c5ccc2[nH]5)C=C4)C=C3)cc1
REMARK SMILES IDX 23 1 22 2 21 3 19 4 20 5 3 7 4 8 2 9 1 10 5 11 6 13 7 14
REMARK SMILES IDX 8 15 9 16 10 17 18 18 11 19 17 20 12 21 13 22 14 23 15 24
REMARK SMILES IDX 16 25 24 26 25 27 26 28 27 29 28 30 29 31 30 33 31 34 32 35
REMARK SMILES IDX 93 36 33 37 92 38 34 39 35 40 36 41 86 42 37 43 91 44 85 45
REMARK SMILES IDX 87 46 38 47 90 48 84 49 83 50 39 52 71 53 51 54 70 55 52 56
REMARK SMILES IDX 55 57 69 58 88 59 53 60 54 61 68 63 89 64 56 65 40 66 41 67
REMARK SMILES IDX 49 68 42 69 44 70 50 71 43 72 45 73 46 74 47 75 48 76 72 77
REMARK SMILES IDX 73 78 81 79 74 80 76 81 82 82 75 83 77 84 78 85 79 86 80 87
REMARK SMILES IDX 57 88 58 89 66 90 59 91 61 92 67 93 60 94 62 95 63 96 64 97
REMARK SMILES IDX 65 98
REMARK H PARENT 21 6 5 12 28 32 87 51 55 62
REMARK Flexibility Score: inf
ROOT
ATOM      1  C   UNL A   1      31.438  28.113  26.471  1.00  0.00     0.021 C 
ENDROOT
BRANCH   1   2
ATOM      2  C   UNL A   1      32.231  26.851  26.788  1.00  0.00     0.116 C 
BRANCH   2   3
ATOM      3  N   UNL A   1      31.394  25.683  27.003  1.00  0.00    -0.354 N 
ATOM      4  C   UNL A   1      31.372  24.420  26.514  1.00  0.00     0.241 C 
ATOM      5  O   UNL A   1      30.545  23.677  27.067  1.00  0.00    -0.273 OA
ATOM      6  H   UNL A   1      30.676  25.848  27.657  1.00  0.00     0.163 HD
BRANCH   4   7
ATOM      7  C   UNL A   1      32.259  23.886  25.365  1.00  0.00     0.108 C 
ATOM      8  C   UNL A   1      32.001  22.339  25.256  1.00  0.00     0.040 C 
BRANCH   7   9
ATOM      9  C   UNL A   1      33.768  24.036  25.688  1.00  0.00     0.030 C 
ATOM     10  C   UNL A   1      34.236  23.122  26.830  1.00  0.00     0.006 C 
ENDBRANCH   7   9
BRANCH   7  11
ATOM     11  N   UNL A   1      31.925  24.306  23.985  1.00  0.00    -0.196 NA
ATOM     12  H   UNL A   1      30.907  24.365  24.001  1.00  0.00     0.142 HD
BRANCH  11  13
ATOM     13  S   UNL A   1      32.361  25.596  23.044  1.00  0.00     0.241 S 
ATOM     14  O   UNL A   1      33.663  26.021  23.501  1.00  0.00    -0.207 OA
ATOM     15  O   UNL A   1      32.185  25.114  21.689  1.00  0.00    -0.207 OA
BRANCH  13  16
ATOM     16  C   UNL A   1      31.217  26.954  23.214  1.00  0.00     0.082 A 
ATOM     17  C   UNL A   1      29.947  26.667  23.735  1.00  0.00     0.022 A 
ATOM     18  C   UNL A   1      31.479  28.230  22.725  1.00  0.00     0.022 A 
ATOM     19  C   UNL A   1      28.905  27.594  23.607  1.00  0.00     0.017 A 
ATOM     20  C   UNL A   1      30.420  29.135  22.533  1.00  0.00     0.017 A 
ATOM     21  C   UNL A   1      29.117  28.799  22.926  1.00  0.00     0.060 A 
BRANCH  21  22
ATOM     22  C   UNL A   1      27.924  29.616  22.560  1.00  0.00     0.337 C 
ATOM     23  O   UNL A   1      26.801  29.147  22.433  1.00  0.00    -0.246 OA
BRANCH  22  24
ATOM     24  O   UNL A   1      28.273  30.902  22.298  1.00  0.00    -0.465 OA
ATOM     25  C   UNL A   1      28.013  31.314  20.953  1.00  0.00     0.282 C 
ENDBRANCH  22  24
ENDBRANCH  21  22
ENDBRANCH  13  16
ENDBRANCH  11  13
ENDBRANCH   7  11
ENDBRANCH   4   7
ENDBRANCH   2   3
ENDBRANCH   1   2
BRANCH   1  26
ATOM     26  C   UNL A   1      31.959  29.416  27.077  1.00  0.00     0.002 C 
BRANCH  26  27
ATOM     27  C   UNL A   1      31.759  30.651  26.210  1.00  0.00     0.002 C 
BRANCH  27  28
ATOM     28  C   UNL A   1      31.607  31.956  26.993  1.00  0.00     0.021 C 
BRANCH  28  29
ATOM     29  C   UNL A   1      32.830  32.869  26.962  1.00  0.00     0.116 C 
BRANCH  29  30
ATOM     30  N   UNL A   1      32.604  34.105  27.697  1.00  0.00    -0.352 N 
ATOM     31  C   UNL A   1      33.209  34.509  28.863  1.00  0.00     0.251 C 
ATOM     32  H   UNL A   1      31.940  34.723  27.316  1.00  0.00     0.163 HD
ATOM     33  O   UNL A   1      32.764  35.443  29.520  1.00  0.00    -0.269 OA
BRANCH  31  34
ATOM     34  C   UNL A   1      34.407  33.775  29.318  1.00  0.00     0.039 A 
ATOM     35  C   UNL A   1      35.674  34.272  29.013  1.00  0.00     0.014 A 
ATOM     36  C   UNL A   1      34.258  32.627  30.103  1.00  0.00     0.014 A 
ATOM     37  C   UNL A   1      36.800  33.633  29.537  1.00  0.00     0.010 A 
ATOM     38  C   UNL A   1      35.376  32.051  30.695  1.00  0.00     0.010 A 
ATOM     39  C   UNL A   1      36.660  32.532  30.399  1.00  0.00    -0.014 A 
BRANCH  39  40
ATOM     40  C   UNL A   1      37.847  31.838  30.962  1.00  0.00     0.031 A 
ATOM     41  C   UNL A   1      38.279  32.134  32.375  1.00  0.00     0.074 A 
ATOM     42  C   UNL A   1      38.565  30.992  30.196  1.00  0.00     0.049 A 
ATOM     43  N   UNL A   1      39.311  31.678  33.036  1.00  0.00    -0.248 NA
ATOM     44  C   UNL A   1      37.459  33.092  33.140  1.00  0.00     0.031 C 
ATOM     45  C   UNL A   1      38.297  30.684  28.790  1.00  0.00     0.029 A 
ATOM     46  N   UNL A   1      39.685  30.253  30.488  1.00  0.00    -0.354 N 
ATOM     47  C   UNL A   1      39.277  32.308  34.274  1.00  0.00     0.074 A 
ATOM     48  C   UNL A   1      38.158  33.222  34.256  1.00  0.00     0.031 C 
ATOM     49  C   UNL A   1      39.223  29.819  28.343  1.00  0.00     0.029 A 
ATOM     50  C   UNL A   1      40.166  29.531  29.419  1.00  0.00     0.049 A 
ATOM     51  H   UNL A   1      40.104  30.241  31.378  1.00  0.00     0.167 HD
ATOM     52  C   UNL A   1      40.076  32.112  35.350  1.00  0.00     0.034 A 
ATOM     53  C   UNL A   1      41.248  28.734  29.320  1.00  0.00     0.034 A 
ATOM     54  C   UNL A   1      41.162  31.173  35.381  1.00  0.00     0.049 A 
ATOM     55  C   UNL A   1      42.098  28.506  30.545  1.00  0.00     0.074 A 
ATOM     56  C   UNL A   1      42.003  30.865  36.435  1.00  0.00     0.029 A 
ATOM     57  N   UNL A   1      41.553  30.385  34.311  1.00  0.00    -0.354 N 
ATOM     58  N   UNL A   1      41.969  29.015  31.747  1.00  0.00    -0.248 NA
ATOM     59  C   UNL A   1      43.213  27.558  30.413  1.00  0.00     0.031 C 
ATOM     60  C   UNL A   1      42.912  29.897  35.997  1.00  0.00     0.029 A 
ATOM     61  C   UNL A   1      42.614  29.580  34.681  1.00  0.00     0.049 A 
ATOM     62  H   UNL A   1      41.137  30.397  33.419  1.00  0.00     0.167 HD
ATOM     63  C   UNL A   1      42.952  28.412  32.524  1.00  0.00     0.074 A 
ATOM     64  C   UNL A   1      43.655  27.486  31.661  1.00  0.00     0.031 C 
ATOM     65  C   UNL A   1      43.254  28.612  33.829  1.00  0.00     0.034 A 
BRANCH  52  66
ATOM     66  C   UNL A   1      39.756  32.879  36.608  1.00  0.00     0.023 A 
ATOM     67  C   UNL A   1      40.374  34.126  36.833  1.00  0.00     0.012 A 
ATOM     68  C   UNL A   1      38.802  32.405  37.529  1.00  0.00     0.148 A 
ATOM     69  C   UNL A   1      40.074  34.875  37.969  1.00  0.00     0.002 A 
ATOM     70  C   UNL A   1      38.472  33.180  38.635  1.00  0.00     0.091 A 
ATOM     71  F   UNL A   1      38.237  31.210  37.307  1.00  0.00    -0.205 F 
ATOM     72  C   UNL A   1      39.115  34.408  38.862  1.00  0.00     0.022 A 
BRANCH  70  73
ATOM     73  S   UNL A   1      37.192  32.713  39.805  1.00  0.00     0.127 S 
ATOM     74  O   UNL A   1      36.025  32.592  38.932  1.00  0.00    -0.237 OA
ATOM     75  O   UNL A   1      37.701  31.443  40.322  1.00  0.00    -0.237 OA
ATOM     76  O   UNL A   1      37.125  33.789  40.783  1.00  0.00    -0.744 OA
ENDBRANCH  70  73
ENDBRANCH  52  66
BRANCH  53  77
ATOM     77  C   UNL A   1      41.569  28.046  28.036  1.00  0.00     0.023 A 
ATOM     78  C   UNL A   1      42.025  28.797  26.935  1.00  0.00     0.012 A 
ATOM     79  C   UNL A   1      41.407  26.655  27.895  1.00  0.00     0.148 A 
ATOM     80  C   UNL A   1      42.257  28.185  25.702  1.00  0.00     0.002 A 
ATOM     81  C   UNL A   1      41.699  26.043  26.681  1.00  0.00     0.091 A 
ATOM     82  F   UNL A   1      40.964  25.955  28.949  1.00  0.00    -0.205 F 
ATOM     83  C   UNL A   1      42.102  26.809  25.576  1.00  0.00     0.022 A 
BRANCH  81  84
ATOM     84  S   UNL A   1      41.651  24.259  26.472  1.00  0.00     0.127 S 
ATOM     85  O   UNL A   1      40.218  24.010  26.342  1.00  0.00    -0.237 OA
ATOM     86  O   UNL A   1      42.424  24.076  25.243  1.00  0.00    -0.237 OA
ATOM     87  O   UNL A   1      42.286  23.711  27.663  1.00  0.00    -0.744 OA
ENDBRANCH  81  84
ENDBRANCH  53  77
BRANCH  65  88
ATOM     88  C   UNL A   1      44.340  27.764  34.435  1.00  0.00     0.023 A 
ATOM     89  C   UNL A   1      45.672  28.223  34.456  1.00  0.00     0.012 A 
ATOM     90  C   UNL A   1      44.023  26.535  35.046  1.00  0.00     0.148 A 
ATOM     91  C   UNL A   1      46.677  27.452  35.039  1.00  0.00     0.002 A 
ATOM     92  C   UNL A   1      45.019  25.798  35.672  1.00  0.00     0.091 A 
ATOM     93  F   UNL A   1      42.752  26.108  35.000  1.00  0.00    -0.205 F 
ATOM     94  C   UNL A   1      46.348  26.247  35.656  1.00  0.00     0.022 A 
BRANCH  92  95
ATOM     95  S   UNL A   1      44.670  24.288  36.580  1.00  0.00     0.127 S 
ATOM     96  O   UNL A   1      44.113  24.812  37.826  1.00  0.00    -0.237 OA
ATOM     97  O   UNL A   1      43.698  23.622  35.710  1.00  0.00    -0.237 OA
ATOM     98  O   UNL A   1      45.942  23.592  36.706  1.00  0.00    -0.744 OA
ENDBRANCH  92  95
ENDBRANCH  65  88
ENDBRANCH  39  40
ENDBRANCH  31  34
ENDBRANCH  29  30
ENDBRANCH  28  29
ENDBRANCH  27  28
ENDBRANCH  26  27
ENDBRANCH   1  26
TORSDOF 22
ENDMDL
