MODEL 1
REMARK VINA RESULT:     -13.1      0.000      0.000
REMARK SMILES Cc1cc(C(=O)NCCCCCCNC(=O)c2ccc(-c3c4nc(c(-c5cccc(S(=O)(=O)[O-])c5F)c5ccc([nH]5)c(-c5cccc(S(=O)(=O)[O-])c5F)c5nc(c(-c6cccc(S(=O)(=O)[O-])c6F)c6ccc3[nH]6)C=C5)C=C4)cc2)ccc1NS(=O)(=O)c1c(F)cccc1F
REMARK SMILES IDX 10 1 9 2 8 3 7 4 5 5 6 6 4 8 1 9 2 10 3 11 82 12 81 13 80 14
REMARK SMILES IDX 83 15 84 17 85 18 86 19 87 20 88 21 93 22 89 23 90 24 92 25
REMARK SMILES IDX 94 26 91 27 11 28 12 29 13 30 14 31 15 32 16 34 17 35 18 36
REMARK SMILES IDX 79 37 19 38 78 39 20 40 21 41 22 42 72 43 23 44 77 45 71 46
REMARK SMILES IDX 73 47 24 48 76 49 70 50 69 51 25 53 57 54 37 55 56 56 38 57
REMARK SMILES IDX 41 58 55 59 74 60 39 61 40 62 54 64 75 65 42 66 26 67 27 68
REMARK SMILES IDX 35 69 28 70 30 71 36 72 29 73 31 74 32 75 33 76 34 77 58 78
REMARK SMILES IDX 59 79 67 80 60 81 62 82 68 83 61 84 63 85 64 86 65 87 66 88
REMARK SMILES IDX 43 89 44 90 52 91 45 92 47 93 53 94 46 95 48 96 49 97 50 98
REMARK SMILES IDX 51 99
REMARK H PARENT 7 7 83 16 14 33 73 52 41 63
REMARK Flexibility Score: inf
ROOT
ATOM      1  C   UNL A   1      33.031  28.942  23.599  1.00  0.00     0.002 C 
ENDROOT
BRANCH   1   2
ATOM      2  C   UNL A   1      31.684  28.822  22.877  1.00  0.00     0.021 C 
BRANCH   2   3
ATOM      3  C   UNL A   1      31.207  27.414  22.515  1.00  0.00     0.116 C 
BRANCH   3   4
ATOM      4  N   UNL A   1      31.762  26.896  21.279  1.00  0.00    -0.352 N 
ATOM      5  C   UNL A   1      32.548  25.793  21.036  1.00  0.00     0.251 C 
ATOM      6  O   UNL A   1      32.910  25.570  19.881  1.00  0.00    -0.269 OA
ATOM      7  H   UNL A   1      31.539  27.423  20.478  1.00  0.00     0.163 HD
BRANCH   5   8
ATOM      8  C   UNL A   1      33.039  24.904  22.127  1.00  0.00     0.040 A 
ATOM      9  C   UNL A   1      34.318  25.442  25.659  1.00  0.00     0.046 C 
ATOM     10  C   UNL A   1      33.735  24.744  24.461  1.00  0.00    -0.026 A 
ATOM     11  C   UNL A   1      33.447  25.512  23.321  1.00  0.00     0.019 A 
ATOM     12  C   UNL A   1      33.510  23.360  24.414  1.00  0.00     0.052 A 
ATOM     13  C   UNL A   1      33.391  22.745  23.168  1.00  0.00     0.028 A 
ATOM     14  C   UNL A   1      33.147  23.518  22.023  1.00  0.00     0.016 A 
BRANCH  12  15
ATOM     15  N   UNL A   1      33.241  22.698  25.649  1.00  0.00    -0.279 N 
ATOM     16  H   UNL A   1      32.509  23.072  26.189  1.00  0.00     0.180 HD
BRANCH  15  17
ATOM     17  S   UNL A   1      34.020  21.364  26.293  1.00  0.00     0.267 S 
ATOM     18  O   UNL A   1      34.107  21.610  27.718  1.00  0.00    -0.201 OA
ATOM     19  O   UNL A   1      33.295  20.221  25.774  1.00  0.00    -0.201 OA
BRANCH  17  20
ATOM     20  C   UNL A   1      35.652  21.256  25.668  1.00  0.00     0.158 A 
ATOM     21  C   UNL A   1      36.002  20.088  24.998  1.00  0.00     0.146 A 
ATOM     22  C   UNL A   1      36.634  22.201  25.928  1.00  0.00     0.146 A 
ATOM     23  F   UNL A   1      35.073  19.190  24.642  1.00  0.00    -0.205 F 
ATOM     24  C   UNL A   1      37.330  19.814  24.679  1.00  0.00     0.041 A 
ATOM     25  C   UNL A   1      37.974  21.925  25.643  1.00  0.00     0.041 A 
ATOM     26  F   UNL A   1      36.343  23.377  26.498  1.00  0.00    -0.205 F 
ATOM     27  C   UNL A   1      38.327  20.720  25.034  1.00  0.00     0.006 A 
ENDBRANCH  17  20
ENDBRANCH  15  17
ENDBRANCH  12  15
ENDBRANCH   5   8
ENDBRANCH   3   4
ENDBRANCH   2   3
ENDBRANCH   1   2
BRANCH   1  28
ATOM     28  C   UNL A   1      33.016  28.959  25.135  1.00  0.00     0.002 C 
BRANCH  28  29
ATOM     29  C   UNL A   1      34.272  29.476  25.837  1.00  0.00     0.021 C 
BRANCH  29  30
ATOM     30  C   UNL A   1      34.015  30.225  27.134  1.00  0.00     0.116 C 
BRANCH  30  31
ATOM     31  N   UNL A   1      34.978  31.274  27.408  1.00  0.00    -0.352 N 
ATOM     32  C   UNL A   1      36.221  31.193  28.009  1.00  0.00     0.251 C 
ATOM     33  H   UNL A   1      34.707  32.178  27.127  1.00  0.00     0.163 HD
ATOM     34  O   UNL A   1      36.766  32.236  28.364  1.00  0.00    -0.269 OA
BRANCH  32  35
ATOM     35  C   UNL A   1      36.936  29.892  28.078  1.00  0.00     0.039 A 
ATOM     36  C   UNL A   1      37.037  29.270  29.330  1.00  0.00     0.014 A 
ATOM     37  C   UNL A   1      37.691  29.415  27.011  1.00  0.00     0.014 A 
ATOM     38  C   UNL A   1      38.086  28.386  29.578  1.00  0.00     0.010 A 
ATOM     39  C   UNL A   1      38.779  28.614  27.270  1.00  0.00     0.010 A 
ATOM     40  C   UNL A   1      39.022  28.174  28.572  1.00  0.00    -0.014 A 
BRANCH  40  41
ATOM     41  C   UNL A   1      40.300  27.508  28.740  1.00  0.00     0.031 A 
ATOM     42  C   UNL A   1      40.378  26.047  28.555  1.00  0.00     0.074 A 
ATOM     43  C   UNL A   1      41.415  28.270  28.834  1.00  0.00     0.049 A 
ATOM     44  N   UNL A   1      41.429  25.344  28.789  1.00  0.00    -0.248 NA
ATOM     45  C   UNL A   1      39.246  25.261  28.081  1.00  0.00     0.031 C 
ATOM     46  C   UNL A   1      42.798  27.851  28.636  1.00  0.00     0.029 A 
ATOM     47  N   UNL A   1      41.543  29.575  29.322  1.00  0.00    -0.354 N 
ATOM     48  C   UNL A   1      41.215  24.080  28.285  1.00  0.00     0.074 A 
ATOM     49  C   UNL A   1      39.819  24.064  27.915  1.00  0.00     0.031 C 
ATOM     50  C   UNL A   1      43.604  28.715  29.276  1.00  0.00     0.029 A 
ATOM     51  C   UNL A   1      42.739  29.571  30.067  1.00  0.00     0.049 A 
ATOM     52  H   UNL A   1      40.930  30.332  29.176  1.00  0.00     0.167 HD
ATOM     53  C   UNL A   1      42.290  23.253  28.142  1.00  0.00     0.034 A 
ATOM     54  C   UNL A   1      42.764  29.662  31.436  1.00  0.00     0.034 A 
ATOM     55  C   UNL A   1      43.480  23.840  28.785  1.00  0.00     0.049 A 
ATOM     56  C   UNL A   1      43.412  28.456  32.123  1.00  0.00     0.074 A 
ATOM     57  C   UNL A   1      44.571  24.575  28.352  1.00  0.00     0.029 A 
ATOM     58  N   UNL A   1      43.474  23.953  30.164  1.00  0.00    -0.354 N 
ATOM     59  N   UNL A   1      43.898  27.415  31.498  1.00  0.00    -0.248 NA
ATOM     60  C   UNL A   1      43.470  28.293  33.578  1.00  0.00     0.031 C 
ATOM     61  C   UNL A   1      45.165  25.199  29.496  1.00  0.00     0.029 A 
ATOM     62  C   UNL A   1      44.457  24.813  30.622  1.00  0.00     0.049 A 
ATOM     63  H   UNL A   1      42.842  23.478  30.751  1.00  0.00     0.167 HD
ATOM     64  C   UNL A   1      44.157  26.417  32.402  1.00  0.00     0.074 A 
ATOM     65  C   UNL A   1      43.912  27.029  33.696  1.00  0.00     0.031 C 
ATOM     66  C   UNL A   1      44.482  25.136  32.045  1.00  0.00     0.034 A 
BRANCH  53  67
ATOM     67  C   UNL A   1      42.356  22.008  27.272  1.00  0.00     0.023 A 
ATOM     68  C   UNL A   1      41.365  21.022  27.488  1.00  0.00     0.012 A 
ATOM     69  C   UNL A   1      43.340  21.684  26.309  1.00  0.00     0.148 A 
ATOM     70  C   UNL A   1      41.393  19.771  26.857  1.00  0.00     0.002 A 
ATOM     71  C   UNL A   1      43.403  20.417  25.720  1.00  0.00     0.091 A 
ATOM     72  F   UNL A   1      44.197  22.613  25.889  1.00  0.00    -0.205 F 
ATOM     73  C   UNL A   1      42.429  19.457  25.993  1.00  0.00     0.022 A 
BRANCH  71  74
ATOM     74  S   UNL A   1      44.760  19.916  24.640  1.00  0.00     0.127 S 
ATOM     75  O   UNL A   1      44.498  18.485  24.470  1.00  0.00    -0.237 OA
ATOM     76  O   UNL A   1      44.527  20.723  23.445  1.00  0.00    -0.237 OA
ATOM     77  O   UNL A   1      45.992  20.211  25.364  1.00  0.00    -0.744 OA
ENDBRANCH  71  74
ENDBRANCH  53  67
BRANCH  54  78
ATOM     78  C   UNL A   1      41.613  30.444  31.994  1.00  0.00     0.023 A 
ATOM     79  C   UNL A   1      41.469  31.783  31.552  1.00  0.00     0.012 A 
ATOM     80  C   UNL A   1      40.508  29.812  32.587  1.00  0.00     0.148 A 
ATOM     81  C   UNL A   1      40.213  32.390  31.509  1.00  0.00     0.002 A 
ATOM     82  C   UNL A   1      39.265  30.443  32.580  1.00  0.00     0.091 A 
ATOM     83  F   UNL A   1      40.655  28.584  33.099  1.00  0.00    -0.205 F 
ATOM     84  C   UNL A   1      39.103  31.702  31.984  1.00  0.00     0.022 A 
BRANCH  82  85
ATOM     85  S   UNL A   1      37.816  29.612  33.243  1.00  0.00     0.127 S 
ATOM     86  O   UNL A   1      37.920  29.932  34.662  1.00  0.00    -0.237 OA
ATOM     87  O   UNL A   1      36.717  30.274  32.542  1.00  0.00    -0.237 OA
ATOM     88  O   UNL A   1      37.999  28.216  32.874  1.00  0.00    -0.744 OA
ENDBRANCH  82  85
ENDBRANCH  54  78
BRANCH  66  89
ATOM     89  C   UNL A   1      44.855  24.077  33.062  1.00  0.00     0.023 A 
ATOM     90  C   UNL A   1      43.883  23.160  33.511  1.00  0.00     0.012 A 
ATOM     91  C   UNL A   1      46.114  24.050  33.713  1.00  0.00     0.148 A 
ATOM     92  C   UNL A   1      44.162  22.223  34.511  1.00  0.00     0.002 A 
ATOM     93  C   UNL A   1      46.349  23.191  34.781  1.00  0.00     0.091 A 
ATOM     94  F   UNL A   1      47.113  24.819  33.265  1.00  0.00    -0.205 F 
ATOM     95  C   UNL A   1      45.387  22.253  35.162  1.00  0.00     0.022 A 
BRANCH  93  96
ATOM     96  S   UNL A   1      47.818  23.330  35.812  1.00  0.00     0.127 S 
ATOM     97  O   UNL A   1      48.880  22.975  34.867  1.00  0.00    -0.237 OA
ATOM     98  O   UNL A   1      47.787  24.740  36.192  1.00  0.00    -0.237 OA
ATOM     99  O   UNL A   1      47.635  22.371  36.891  1.00  0.00    -0.744 OA
ENDBRANCH  93  96
ENDBRANCH  66  89
ENDBRANCH  40  41
ENDBRANCH  32  35
ENDBRANCH  30  31
ENDBRANCH  29  30
ENDBRANCH  28  29
ENDBRANCH   1  28
TORSDOF 19
ENDMDL
MODEL 2
REMARK VINA RESULT:     -12.7      1.359      1.999
REMARK SMILES Cc1cc(C(=O)NCCCCCCNC(=O)c2ccc(-c3c4nc(c(-c5cccc(S(=O)(=O)[O-])c5F)c5ccc([nH]5)c(-c5cccc(S(=O)(=O)[O-])c5F)c5nc(c(-c6cccc(S(=O)(=O)[O-])c6F)c6ccc3[nH]6)C=C5)C=C4)cc2)ccc1NS(=O)(=O)c1c(F)cccc1F
REMARK SMILES IDX 10 1 9 2 8 3 7 4 5 5 6 6 4 8 1 9 2 10 3 11 82 12 81 13 80 14
REMARK SMILES IDX 83 15 84 17 85 18 86 19 87 20 88 21 93 22 89 23 90 24 92 25
REMARK SMILES IDX 94 26 91 27 11 28 12 29 13 30 14 31 15 32 16 34 17 35 18 36
REMARK SMILES IDX 79 37 19 38 78 39 20 40 21 41 22 42 72 43 23 44 77 45 71 46
REMARK SMILES IDX 73 47 24 48 76 49 70 50 69 51 25 53 57 54 37 55 56 56 38 57
REMARK SMILES IDX 41 58 55 59 74 60 39 61 40 62 54 64 75 65 42 66 26 67 27 68
REMARK SMILES IDX 35 69 28 70 30 71 36 72 29 73 31 74 32 75 33 76 34 77 58 78
REMARK SMILES IDX 59 79 67 80 60 81 62 82 68 83 61 84 63 85 64 86 65 87 66 88
REMARK SMILES IDX 43 89 44 90 52 91 45 92 47 93 53 94 46 95 48 96 49 97 50 98
REMARK SMILES IDX 51 99
REMARK H PARENT 7 7 83 16 14 33 73 52 41 63
REMARK Flexibility Score: inf
ROOT
ATOM      1  C   UNL A   1      33.380  27.987  25.157  1.00  0.00     0.002 C 
ENDROOT
BRANCH   1   2
ATOM      2  C   UNL A   1      32.750  29.163  24.402  1.00  0.00     0.021 C 
BRANCH   2   3
ATOM      3  C   UNL A   1      31.487  29.783  25.002  1.00  0.00     0.116 C 
BRANCH   3   4
ATOM      4  N   UNL A   1      30.436  30.047  24.037  1.00  0.00    -0.352 N 
ATOM      5  C   UNL A   1      29.761  29.203  23.185  1.00  0.00     0.251 C 
ATOM      6  O   UNL A   1      28.908  29.679  22.437  1.00  0.00    -0.269 OA
ATOM      7  H   UNL A   1      30.159  30.990  23.983  1.00  0.00     0.163 HD
BRANCH   5   8
ATOM      8  C   UNL A   1      30.079  27.751  23.080  1.00  0.00     0.040 A 
ATOM      9  C   UNL A   1      32.462  25.668  20.985  1.00  0.00     0.046 C 
ATOM     10  C   UNL A   1      31.546  26.055  22.113  1.00  0.00    -0.026 A 
ATOM     11  C   UNL A   1      31.047  27.368  22.142  1.00  0.00     0.019 A 
ATOM     12  C   UNL A   1      31.131  25.157  23.108  1.00  0.00     0.052 A 
ATOM     13  C   UNL A   1      29.979  25.452  23.836  1.00  0.00     0.028 A 
ATOM     14  C   UNL A   1      29.456  26.753  23.827  1.00  0.00     0.016 A 
BRANCH  12  15
ATOM     15  N   UNL A   1      32.016  24.084  23.431  1.00  0.00    -0.279 N 
ATOM     16  H   UNL A   1      32.426  23.618  22.668  1.00  0.00     0.180 HD
BRANCH  15  17
ATOM     17  S   UNL A   1      32.439  23.522  24.948  1.00  0.00     0.267 S 
ATOM     18  O   UNL A   1      32.313  24.658  25.838  1.00  0.00    -0.201 OA
ATOM     19  O   UNL A   1      31.640  22.329  25.142  1.00  0.00    -0.201 OA
BRANCH  17  20
ATOM     20  C   UNL A   1      34.117  23.018  24.961  1.00  0.00     0.158 A 
ATOM     21  C   UNL A   1      34.436  21.888  25.707  1.00  0.00     0.146 A 
ATOM     22  C   UNL A   1      35.141  23.758  24.390  1.00  0.00     0.146 A 
ATOM     23  F   UNL A   1      33.479  21.090  26.199  1.00  0.00    -0.205 F 
ATOM     24  C   UNL A   1      35.764  21.554  25.969  1.00  0.00     0.041 A 
ATOM     25  C   UNL A   1      36.476  23.452  24.671  1.00  0.00     0.041 A 
ATOM     26  F   UNL A   1      34.892  24.808  23.597  1.00  0.00    -0.205 F 
ATOM     27  C   UNL A   1      36.789  22.359  25.478  1.00  0.00     0.006 A 
ENDBRANCH  17  20
ENDBRANCH  15  17
ENDBRANCH  12  15
ENDBRANCH   5   8
ENDBRANCH   3   4
ENDBRANCH   2   3
ENDBRANCH   1   2
BRANCH   1  28
ATOM     28  C   UNL A   1      33.847  28.236  26.599  1.00  0.00     0.002 C 
BRANCH  28  29
ATOM     29  C   UNL A   1      34.869  29.352  26.817  1.00  0.00     0.021 C 
BRANCH  29  30
ATOM     30  C   UNL A   1      34.380  30.504  27.681  1.00  0.00     0.116 C 
BRANCH  30  31
ATOM     31  N   UNL A   1      35.376  31.535  27.905  1.00  0.00    -0.352 N 
ATOM     32  C   UNL A   1      36.675  31.418  28.363  1.00  0.00     0.251 C 
ATOM     33  H   UNL A   1      35.083  32.452  27.702  1.00  0.00     0.163 HD
ATOM     34  O   UNL A   1      37.264  32.440  28.712  1.00  0.00    -0.269 OA
BRANCH  32  35
ATOM     35  C   UNL A   1      37.383  30.114  28.285  1.00  0.00     0.039 A 
ATOM     36  C   UNL A   1      37.367  29.296  29.423  1.00  0.00     0.014 A 
ATOM     37  C   UNL A   1      38.237  29.806  27.230  1.00  0.00     0.014 A 
ATOM     38  C   UNL A   1      38.390  28.369  29.620  1.00  0.00     0.010 A 
ATOM     39  C   UNL A   1      39.297  28.959  27.455  1.00  0.00     0.010 A 
ATOM     40  C   UNL A   1      39.416  28.311  28.686  1.00  0.00    -0.014 A 
BRANCH  40  41
ATOM     41  C   UNL A   1      40.675  27.609  28.861  1.00  0.00     0.031 A 
ATOM     42  C   UNL A   1      40.719  26.151  28.644  1.00  0.00     0.074 A 
ATOM     43  C   UNL A   1      41.806  28.340  28.993  1.00  0.00     0.049 A 
ATOM     44  N   UNL A   1      41.748  25.417  28.880  1.00  0.00    -0.248 NA
ATOM     45  C   UNL A   1      39.578  25.404  28.131  1.00  0.00     0.031 C 
ATOM     46  C   UNL A   1      43.182  27.891  28.810  1.00  0.00     0.029 A 
ATOM     47  N   UNL A   1      41.957  29.631  29.513  1.00  0.00    -0.354 N 
ATOM     48  C   UNL A   1      41.513  24.170  28.343  1.00  0.00     0.074 A 
ATOM     49  C   UNL A   1      40.124  24.198  27.948  1.00  0.00     0.031 C 
ATOM     50  C   UNL A   1      43.996  28.719  29.484  1.00  0.00     0.029 A 
ATOM     51  C   UNL A   1      43.138  29.579  30.279  1.00  0.00     0.049 A 
ATOM     52  H   UNL A   1      41.366  30.406  29.373  1.00  0.00     0.167 HD
ATOM     53  C   UNL A   1      42.569  23.319  28.201  1.00  0.00     0.034 A 
ATOM     54  C   UNL A   1      43.140  29.638  31.650  1.00  0.00     0.034 A 
ATOM     55  C   UNL A   1      43.761  23.862  28.879  1.00  0.00     0.049 A 
ATOM     56  C   UNL A   1      43.745  28.401  32.321  1.00  0.00     0.074 A 
ATOM     57  C   UNL A   1      44.878  24.579  28.483  1.00  0.00     0.029 A 
ATOM     58  N   UNL A   1      43.732  23.944  30.260  1.00  0.00    -0.354 N 
ATOM     59  N   UNL A   1      44.217  27.363  31.681  1.00  0.00    -0.248 NA
ATOM     60  C   UNL A   1      43.771  28.204  33.773  1.00  0.00     0.031 C 
ATOM     61  C   UNL A   1      45.465  25.162  29.652  1.00  0.00     0.029 A 
ATOM     62  C   UNL A   1      44.727  24.768  30.755  1.00  0.00     0.049 A 
ATOM     63  H   UNL A   1      43.078  23.471  30.824  1.00  0.00     0.167 HD
ATOM     64  C   UNL A   1      44.433  26.338  32.566  1.00  0.00     0.074 A 
ATOM     65  C   UNL A   1      44.180  26.927  33.869  1.00  0.00     0.031 C 
ATOM     66  C   UNL A   1      44.734  25.058  32.186  1.00  0.00     0.034 A 
BRANCH  53  67
ATOM     67  C   UNL A   1      42.621  22.093  27.304  1.00  0.00     0.023 A 
ATOM     68  C   UNL A   1      41.637  21.100  27.519  1.00  0.00     0.012 A 
ATOM     69  C   UNL A   1      43.587  21.793  26.315  1.00  0.00     0.148 A 
ATOM     70  C   UNL A   1      41.655  19.863  26.861  1.00  0.00     0.002 A 
ATOM     71  C   UNL A   1      43.641  20.539  25.698  1.00  0.00     0.091 A 
ATOM     72  F   UNL A   1      44.432  22.732  25.898  1.00  0.00    -0.205 F 
ATOM     73  C   UNL A   1      42.674  19.570  25.970  1.00  0.00     0.022 A 
BRANCH  71  74
ATOM     74  S   UNL A   1      44.977  20.064  24.581  1.00  0.00     0.127 S 
ATOM     75  O   UNL A   1      44.736  18.629  24.414  1.00  0.00    -0.237 OA
ATOM     76  O   UNL A   1      44.697  20.869  23.394  1.00  0.00    -0.237 OA
ATOM     77  O   UNL A   1      46.222  20.380  25.272  1.00  0.00    -0.744 OA
ENDBRANCH  71  74
ENDBRANCH  53  67
BRANCH  54  78
ATOM     78  C   UNL A   1      41.998  30.437  32.205  1.00  0.00     0.023 A 
ATOM     79  C   UNL A   1      41.892  31.786  31.786  1.00  0.00     0.012 A 
ATOM     80  C   UNL A   1      40.870  29.819  32.770  1.00  0.00     0.148 A 
ATOM     81  C   UNL A   1      40.650  32.423  31.735  1.00  0.00     0.002 A 
ATOM     82  C   UNL A   1      39.642  30.478  32.756  1.00  0.00     0.091 A 
ATOM     83  F   UNL A   1      40.982  28.579  33.262  1.00  0.00    -0.205 F 
ATOM     84  C   UNL A   1      39.517  31.751  32.180  1.00  0.00     0.022 A 
BRANCH  82  85
ATOM     85  S   UNL A   1      38.165  29.668  33.381  1.00  0.00     0.127 S 
ATOM     86  O   UNL A   1      37.114  30.394  32.676  1.00  0.00    -0.237 OA
ATOM     87  O   UNL A   1      38.351  28.284  32.951  1.00  0.00    -0.237 OA
ATOM     88  O   UNL A   1      38.232  29.856  34.823  1.00  0.00    -0.744 OA
ENDBRANCH  82  85
ENDBRANCH  54  78
BRANCH  66  89
ATOM     89  C   UNL A   1      45.061  23.967  33.185  1.00  0.00     0.023 A 
ATOM     90  C   UNL A   1      44.054  23.077  33.609  1.00  0.00     0.012 A 
ATOM     91  C   UNL A   1      46.313  23.884  33.844  1.00  0.00     0.148 A 
ATOM     92  C   UNL A   1      44.292  22.111  34.593  1.00  0.00     0.002 A 
ATOM     93  C   UNL A   1      46.509  22.996  34.897  1.00  0.00     0.091 A 
ATOM     94  F   UNL A   1      47.342  24.626  33.419  1.00  0.00    -0.205 F 
ATOM     95  C   UNL A   1      45.512  22.086  35.253  1.00  0.00     0.022 A 
BRANCH  93  96
ATOM     96  S   UNL A   1      47.974  23.064  35.941  1.00  0.00     0.127 S 
ATOM     97  O   UNL A   1      47.606  22.158  37.032  1.00  0.00    -0.237 OA
ATOM     98  O   UNL A   1      49.006  22.549  35.044  1.00  0.00    -0.237 OA
ATOM     99  O   UNL A   1      48.110  24.456  36.342  1.00  0.00    -0.744 OA
ENDBRANCH  93  96
ENDBRANCH  66  89
ENDBRANCH  40  41
ENDBRANCH  32  35
ENDBRANCH  30  31
ENDBRANCH  29  30
ENDBRANCH  28  29
ENDBRANCH   1  28
TORSDOF 19
ENDMDL
MODEL 3
REMARK VINA RESULT:     -12.5      1.642      2.267
REMARK SMILES Cc1cc(C(=O)NCCCCCCNC(=O)c2ccc(-c3c4nc(c(-c5cccc(S(=O)(=O)[O-])c5F)c5ccc([nH]5)c(-c5cccc(S(=O)(=O)[O-])c5F)c5nc(c(-c6cccc(S(=O)(=O)[O-])c6F)c6ccc3[nH]6)C=C5)C=C4)cc2)ccc1NS(=O)(=O)c1c(F)cccc1F
REMARK SMILES IDX 10 1 9 2 8 3 7 4 5 5 6 6 4 8 1 9 2 10 3 11 82 12 81 13 80 14
REMARK SMILES IDX 83 15 84 17 85 18 86 19 87 20 88 21 93 22 89 23 90 24 92 25
REMARK SMILES IDX 94 26 91 27 11 28 12 29 13 30 14 31 15 32 16 34 17 35 18 36
REMARK SMILES IDX 79 37 19 38 78 39 20 40 21 41 22 42 72 43 23 44 77 45 71 46
REMARK SMILES IDX 73 47 24 48 76 49 70 50 69 51 25 53 57 54 37 55 56 56 38 57
REMARK SMILES IDX 41 58 55 59 74 60 39 61 40 62 54 64 75 65 42 66 26 67 27 68
REMARK SMILES IDX 35 69 28 70 30 71 36 72 29 73 31 74 32 75 33 76 34 77 58 78
REMARK SMILES IDX 59 79 67 80 60 81 62 82 68 83 61 84 63 85 64 86 65 87 66 88
REMARK SMILES IDX 43 89 44 90 52 91 45 92 47 93 53 94 46 95 48 96 49 97 50 98
REMARK SMILES IDX 51 99
REMARK H PARENT 7 7 83 16 14 33 73 52 41 63
REMARK Flexibility Score: inf
ROOT
ATOM      1  C   UNL A   1      33.754  28.798  25.239  1.00  0.00     0.002 C 
ENDROOT
BRANCH   1   2
ATOM      2  C   UNL A   1      33.789  27.926  23.979  1.00  0.00     0.021 C 
BRANCH   2   3
ATOM      3  C   UNL A   1      33.480  28.610  22.646  1.00  0.00     0.116 C 
BRANCH   3   4
ATOM      4  N   UNL A   1      32.068  28.669  22.320  1.00  0.00    -0.352 N 
ATOM      5  C   UNL A   1      31.067  27.736  22.468  1.00  0.00     0.251 C 
ATOM      6  O   UNL A   1      29.931  28.025  22.094  1.00  0.00    -0.269 OA
ATOM      7  H   UNL A   1      31.775  29.523  21.926  1.00  0.00     0.163 HD
BRANCH   5   8
ATOM      8  C   UNL A   1      31.324  26.365  22.992  1.00  0.00     0.040 A 
ATOM      9  C   UNL A   1      33.216  23.322  21.741  1.00  0.00     0.046 C 
ATOM     10  C   UNL A   1      32.539  24.268  22.694  1.00  0.00    -0.026 A 
ATOM     11  C   UNL A   1      32.087  25.501  22.196  1.00  0.00     0.019 A 
ATOM     12  C   UNL A   1      32.299  23.959  24.041  1.00  0.00     0.052 A 
ATOM     13  C   UNL A   1      31.313  24.671  24.724  1.00  0.00     0.028 A 
ATOM     14  C   UNL A   1      30.830  25.880  24.202  1.00  0.00     0.016 A 
BRANCH  12  15
ATOM     15  N   UNL A   1      33.203  23.055  24.677  1.00  0.00    -0.279 N 
ATOM     16  H   UNL A   1      33.022  22.097  24.540  1.00  0.00     0.180 HD
BRANCH  15  17
ATOM     17  S   UNL A   1      34.529  23.424  25.626  1.00  0.00     0.267 S 
ATOM     18  O   UNL A   1      35.112  24.615  25.042  1.00  0.00    -0.201 OA
ATOM     19  O   UNL A   1      34.027  23.427  26.986  1.00  0.00    -0.201 OA
BRANCH  17  20
ATOM     20  C   UNL A   1      35.720  22.143  25.527  1.00  0.00     0.158 A 
ATOM     21  C   UNL A   1      37.054  22.500  25.696  1.00  0.00     0.146 A 
ATOM     22  C   UNL A   1      35.413  20.843  25.154  1.00  0.00     0.146 A 
ATOM     23  F   UNL A   1      37.394  23.716  26.145  1.00  0.00    -0.205 F 
ATOM     24  C   UNL A   1      38.079  21.603  25.400  1.00  0.00     0.041 A 
ATOM     25  C   UNL A   1      36.431  19.944  24.823  1.00  0.00     0.041 A 
ATOM     26  F   UNL A   1      34.147  20.421  25.052  1.00  0.00    -0.205 F 
ATOM     27  C   UNL A   1      37.768  20.330  24.927  1.00  0.00     0.006 A 
ENDBRANCH  17  20
ENDBRANCH  15  17
ENDBRANCH  12  15
ENDBRANCH   5   8
ENDBRANCH   3   4
ENDBRANCH   2   3
ENDBRANCH   1   2
BRANCH   1  28
ATOM     28  C   UNL A   1      32.664  29.877  25.328  1.00  0.00     0.002 C 
BRANCH  28  29
ATOM     29  C   UNL A   1      32.573  30.668  26.633  1.00  0.00     0.021 C 
BRANCH  29  30
ATOM     30  C   UNL A   1      33.699  30.402  27.619  1.00  0.00     0.116 C 
BRANCH  30  31
ATOM     31  N   UNL A   1      34.640  31.499  27.749  1.00  0.00    -0.352 N 
ATOM     32  C   UNL A   1      35.933  31.496  28.235  1.00  0.00     0.251 C 
ATOM     33  H   UNL A   1      34.307  32.374  27.446  1.00  0.00     0.163 HD
ATOM     34  O   UNL A   1      36.465  32.577  28.484  1.00  0.00    -0.269 OA
BRANCH  32  35
ATOM     35  C   UNL A   1      36.705  30.228  28.306  1.00  0.00     0.039 A 
ATOM     36  C   UNL A   1      36.818  29.604  29.556  1.00  0.00     0.014 A 
ATOM     37  C   UNL A   1      37.494  29.792  27.247  1.00  0.00     0.014 A 
ATOM     38  C   UNL A   1      37.902  28.765  29.812  1.00  0.00     0.010 A 
ATOM     39  C   UNL A   1      38.613  29.038  27.515  1.00  0.00     0.010 A 
ATOM     40  C   UNL A   1      38.859  28.602  28.818  1.00  0.00    -0.014 A 
BRANCH  40  41
ATOM     41  C   UNL A   1      40.164  27.992  28.998  1.00  0.00     0.031 A 
ATOM     42  C   UNL A   1      40.330  26.555  28.712  1.00  0.00     0.074 A 
ATOM     43  C   UNL A   1      41.229  28.801  29.200  1.00  0.00     0.049 A 
ATOM     44  N   UNL A   1      41.407  25.892  28.944  1.00  0.00    -0.248 NA
ATOM     45  C   UNL A   1      39.266  25.749  28.128  1.00  0.00     0.031 C 
ATOM     46  C   UNL A   1      42.641  28.471  29.039  1.00  0.00     0.029 A 
ATOM     47  N   UNL A   1      41.263  30.072  29.786  1.00  0.00    -0.354 N 
ATOM     48  C   UNL A   1      41.285  24.660  28.341  1.00  0.00     0.074 A 
ATOM     49  C   UNL A   1      39.910  24.600  27.904  1.00  0.00     0.031 C 
ATOM     50  C   UNL A   1      43.368  29.325  29.778  1.00  0.00     0.029 A 
ATOM     51  C   UNL A   1      42.423  30.074  30.586  1.00  0.00     0.049 A 
ATOM     52  H   UNL A   1      40.617  30.805  29.667  1.00  0.00     0.167 HD
ATOM     53  C   UNL A   1      42.410  23.902  28.191  1.00  0.00     0.034 A 
ATOM     54  C   UNL A   1      42.383  30.063  31.958  1.00  0.00     0.034 A 
ATOM     55  C   UNL A   1      43.536  24.501  28.930  1.00  0.00     0.049 A 
ATOM     56  C   UNL A   1      43.066  28.844  32.586  1.00  0.00     0.074 A 
ATOM     57  C   UNL A   1      44.602  25.322  28.604  1.00  0.00     0.029 A 
ATOM     58  N   UNL A   1      43.463  24.510  30.312  1.00  0.00    -0.354 N 
ATOM     59  N   UNL A   1      43.636  27.880  31.912  1.00  0.00    -0.248 NA
ATOM     60  C   UNL A   1      43.068  28.577  34.027  1.00  0.00     0.031 C 
ATOM     61  C   UNL A   1      45.110  25.889  29.818  1.00  0.00     0.029 A 
ATOM     62  C   UNL A   1      44.375  25.383  30.878  1.00  0.00     0.049 A 
ATOM     63  H   UNL A   1      42.833  23.960  30.832  1.00  0.00     0.167 HD
ATOM     64  C   UNL A   1      43.909  26.832  32.752  1.00  0.00     0.074 A 
ATOM     65  C   UNL A   1      43.574  27.332  34.074  1.00  0.00     0.031 C 
ATOM     66  C   UNL A   1      44.321  25.600  32.320  1.00  0.00     0.034 A 
BRANCH  53  67
ATOM     67  C   UNL A   1      42.582  22.731  27.237  1.00  0.00     0.023 A 
ATOM     68  C   UNL A   1      41.790  21.585  27.479  1.00  0.00     0.012 A 
ATOM     69  C   UNL A   1      43.501  22.624  26.166  1.00  0.00     0.148 A 
ATOM     70  C   UNL A   1      41.951  20.390  26.766  1.00  0.00     0.002 A 
ATOM     71  C   UNL A   1      43.704  21.416  25.490  1.00  0.00     0.091 A 
ATOM     72  F   UNL A   1      44.150  23.701  25.730  1.00  0.00    -0.205 F 
ATOM     73  C   UNL A   1      42.929  20.295  25.789  1.00  0.00     0.022 A 
BRANCH  71  74
ATOM     74  S   UNL A   1      45.004  21.201  24.257  1.00  0.00     0.127 S 
ATOM     75  O   UNL A   1      44.673  22.245  23.283  1.00  0.00    -0.237 OA
ATOM     76  O   UNL A   1      46.217  21.454  25.030  1.00  0.00    -0.237 OA
ATOM     77  O   UNL A   1      44.861  19.844  23.742  1.00  0.00    -0.744 OA
ENDBRANCH  71  74
ENDBRANCH  53  67
BRANCH  54  78
ATOM     78  C   UNL A   1      41.167  30.741  32.515  1.00  0.00     0.023 A 
ATOM     79  C   UNL A   1      40.037  29.926  32.773  1.00  0.00     0.012 A 
ATOM     80  C   UNL A   1      41.239  32.001  33.131  1.00  0.00     0.148 A 
ATOM     81  C   UNL A   1      39.125  30.266  33.773  1.00  0.00     0.002 A 
ATOM     82  C   UNL A   1      40.299  32.352  34.098  1.00  0.00     0.091 A 
ATOM     83  F   UNL A   1      42.249  32.823  32.820  1.00  0.00    -0.205 F 
ATOM     84  C   UNL A   1      39.282  31.461  34.466  1.00  0.00     0.022 A 
BRANCH  82  85
ATOM     85  S   UNL A   1      40.430  33.917  34.972  1.00  0.00     0.127 S 
ATOM     86  O   UNL A   1      41.704  33.759  35.663  1.00  0.00    -0.237 OA
ATOM     87  O   UNL A   1      40.438  34.893  33.883  1.00  0.00    -0.237 OA
ATOM     88  O   UNL A   1      39.238  33.967  35.804  1.00  0.00    -0.744 OA
ENDBRANCH  82  85
ENDBRANCH  54  78
BRANCH  66  89
ATOM     89  C   UNL A   1      44.706  24.489  33.274  1.00  0.00     0.023 A 
ATOM     90  C   UNL A   1      43.711  23.652  33.818  1.00  0.00     0.012 A 
ATOM     91  C   UNL A   1      46.021  24.335  33.779  1.00  0.00     0.148 A 
ATOM     92  C   UNL A   1      44.012  22.670  34.769  1.00  0.00     0.002 A 
ATOM     93  C   UNL A   1      46.294  23.433  34.802  1.00  0.00     0.091 A 
ATOM     94  F   UNL A   1      47.030  25.022  33.231  1.00  0.00    -0.205 F 
ATOM     95  C   UNL A   1      45.300  22.576  35.277  1.00  0.00     0.022 A 
BRANCH  93  96
ATOM     96  S   UNL A   1      47.876  23.417  35.663  1.00  0.00     0.127 S 
ATOM     97  O   UNL A   1      47.949  24.785  36.180  1.00  0.00    -0.237 OA
ATOM     98  O   UNL A   1      47.654  22.392  36.679  1.00  0.00    -0.237 OA
ATOM     99  O   UNL A   1      48.873  23.108  34.649  1.00  0.00    -0.744 OA
ENDBRANCH  93  96
ENDBRANCH  66  89
ENDBRANCH  40  41
ENDBRANCH  32  35
ENDBRANCH  30  31
ENDBRANCH  29  30
ENDBRANCH  28  29
ENDBRANCH   1  28
TORSDOF 19
ENDMDL
