MODEL 1
REMARK VINA RESULT:     -11.3      0.000      0.000
REMARK SMILES Cc1ccc(Nc2c(F)cccc2Cl)c(CC(=O)NCCCCCCNC(=O)c2ccc(-c3c4nc(c(-c5cccc(S(=O)(=O)[O-])c5F)c5ccc([nH]5)c(-c5cccc(S(=O)(=O)[O-])c5F)c5nc(c(-c6cccc(S(=O)(=O)[O-])c6F)c6ccc3[nH]6)C=C5)C=C4)cc2)c1
REMARK SMILES IDX 22 1 21 2 20 3 19 4 17 5 18 6 16 8 15 9 1 10 2 11 3 12 92 13
REMARK SMILES IDX 4 14 5 15 6 16 7 18 8 19 13 20 9 21 10 22 12 23 14 24 11 25
REMARK SMILES IDX 23 26 24 27 25 28 26 29 27 30 28 32 29 33 30 34 91 35 31 36
REMARK SMILES IDX 90 37 32 38 33 39 34 40 84 41 35 42 89 43 83 44 85 45 36 46
REMARK SMILES IDX 88 47 82 48 81 49 37 51 69 52 49 53 68 54 50 55 53 56 67 57
REMARK SMILES IDX 86 58 51 59 52 60 66 62 87 63 54 64 38 65 39 66 47 67 40 68
REMARK SMILES IDX 42 69 48 70 41 71 43 72 44 73 45 74 46 75 70 76 71 77 79 78
REMARK SMILES IDX 72 79 74 80 80 81 73 82 75 83 76 84 77 85 78 86 55 87 56 88
REMARK SMILES IDX 64 89 57 90 59 91 65 92 58 93 60 94 61 95 62 96 63 97
REMARK H PARENT 19 7 6 17 26 31 85 50 53 61
REMARK Flexibility Score: inf
ROOT
ATOM      1  C   UNL A   1      33.971  31.409  28.289  1.00  0.00     0.002 C 
ENDROOT
BRANCH   1   2
ATOM      2  C   UNL A   1      35.168  30.613  27.751  1.00  0.00     0.021 C 
BRANCH   2   3
ATOM      3  C   UNL A   1      34.832  29.204  27.257  1.00  0.00     0.116 C 
BRANCH   3   4
ATOM      4  N   UNL A   1      34.692  29.153  25.818  1.00  0.00    -0.356 N 
ATOM      5  C   UNL A   1      33.565  28.961  25.080  1.00  0.00     0.224 C 
ATOM      6  O   UNL A   1      33.675  28.829  23.858  1.00  0.00    -0.275 OA
ATOM      7  H   UNL A   1      35.522  29.273  25.304  1.00  0.00     0.163 HD
BRANCH   5   8
ATOM      8  C   UNL A   1      32.201  28.906  25.743  1.00  0.00     0.137 C 
BRANCH   8   9
ATOM      9  C   UNL A   1      31.092  28.393  24.850  1.00  0.00    -0.015 A 
ATOM     10  C   UNL A   1      28.718  29.950  22.276  1.00  0.00     0.044 C 
ATOM     11  C   UNL A   1      29.408  28.950  23.156  1.00  0.00    -0.051 A 
ATOM     12  C   UNL A   1      28.959  27.635  23.198  1.00  0.00     0.005 A 
ATOM     13  C   UNL A   1      30.492  29.312  23.957  1.00  0.00     0.009 A 
ATOM     14  C   UNL A   1      29.575  26.705  24.039  1.00  0.00     0.026 A 
ATOM     15  C   UNL A   1      30.634  27.059  24.892  1.00  0.00     0.042 A 
BRANCH  15  16
ATOM     16  N   UNL A   1      31.240  26.102  25.737  1.00  0.00    -0.352 N 
ATOM     17  H   UNL A   1      31.541  26.436  26.613  1.00  0.00     0.167 HD
BRANCH  16  18
ATOM     18  C   UNL A   1      31.474  24.729  25.492  1.00  0.00     0.094 A 
ATOM     19  C   UNL A   1      30.686  23.727  26.079  1.00  0.00     0.148 A 
ATOM     20  C   UNL A   1      32.582  24.315  24.730  1.00  0.00     0.067 A 
ATOM     21  F   UNL A   1      29.598  24.052  26.794  1.00  0.00    -0.205 F 
ATOM     22  C   UNL A   1      30.986  22.373  25.929  1.00  0.00     0.041 A 
ATOM     23  C   UNL A   1      32.894  22.958  24.581  1.00  0.00     0.023 A 
ATOM     24  Cl  UNL A   1      33.623  25.474  23.973  1.00  0.00    -0.082 Cl
ATOM     25  C   UNL A   1      32.098  21.987  25.187  1.00  0.00     0.005 A 
ENDBRANCH  16  18
ENDBRANCH  15  16
ENDBRANCH   8   9
ENDBRANCH   5   8
ENDBRANCH   3   4
ENDBRANCH   2   3
ENDBRANCH   1   2
BRANCH   1  26
ATOM     26  C   UNL A   1      33.694  32.760  27.610  1.00  0.00     0.002 C 
BRANCH  26  27
ATOM     27  C   UNL A   1      33.538  33.959  28.548  1.00  0.00     0.021 C 
BRANCH  27  28
ATOM     28  C   UNL A   1      34.827  34.721  28.807  1.00  0.00     0.116 C 
BRANCH  28  29
ATOM     29  N   UNL A   1      35.141  34.833  30.219  1.00  0.00    -0.352 N 
ATOM     30  C   UNL A   1      35.675  33.907  31.090  1.00  0.00     0.251 C 
ATOM     31  H   UNL A   1      34.939  35.709  30.619  1.00  0.00     0.163 HD
ATOM     32  O   UNL A   1      35.630  34.161  32.294  1.00  0.00    -0.269 OA
BRANCH  30  33
ATOM     33  C   UNL A   1      36.431  32.729  30.588  1.00  0.00     0.039 A 
ATOM     34  C   UNL A   1      36.235  31.510  31.255  1.00  0.00     0.014 A 
ATOM     35  C   UNL A   1      37.476  32.850  29.677  1.00  0.00     0.014 A 
ATOM     36  C   UNL A   1      37.234  30.539  31.236  1.00  0.00     0.010 A 
ATOM     37  C   UNL A   1      38.502  31.932  29.715  1.00  0.00     0.010 A 
ATOM     38  C   UNL A   1      38.417  30.828  30.568  1.00  0.00    -0.014 A 
BRANCH  38  39
ATOM     39  C   UNL A   1      39.682  30.150  30.783  1.00  0.00     0.031 A 
ATOM     40  C   UNL A   1      39.979  28.881  30.099  1.00  0.00     0.074 A 
ATOM     41  C   UNL A   1      40.675  30.869  31.359  1.00  0.00     0.049 A 
ATOM     42  N   UNL A   1      41.077  28.232  30.268  1.00  0.00    -0.248 NA
ATOM     43  C   UNL A   1      39.053  28.222  29.182  1.00  0.00     0.031 C 
ATOM     44  C   UNL A   1      42.115  30.664  31.236  1.00  0.00     0.029 A 
ATOM     45  N   UNL A   1      40.563  31.828  32.373  1.00  0.00    -0.354 N 
ATOM     46  C   UNL A   1      41.152  27.299  29.266  1.00  0.00     0.074 A 
ATOM     47  C   UNL A   1      39.821  27.230  28.717  1.00  0.00     0.031 C 
ATOM     48  C   UNL A   1      42.721  31.215  32.299  1.00  0.00     0.029 A 
ATOM     49  C   UNL A   1      41.670  31.611  33.218  1.00  0.00     0.049 A 
ATOM     50  H   UNL A   1      39.860  32.509  32.474  1.00  0.00     0.167 HD
ATOM     51  C   UNL A   1      42.378  26.812  28.933  1.00  0.00     0.034 A 
ATOM     52  C   UNL A   1      41.542  31.168  34.505  1.00  0.00     0.034 A 
ATOM     53  C   UNL A   1      43.374  27.127  29.969  1.00  0.00     0.049 A 
ATOM     54  C   UNL A   1      42.232  29.830  34.765  1.00  0.00     0.074 A 
ATOM     55  C   UNL A   1      44.473  27.960  30.076  1.00  0.00     0.029 A 
ATOM     56  N   UNL A   1      43.130  26.658  31.249  1.00  0.00    -0.354 N 
ATOM     57  N   UNL A   1      42.969  29.182  33.901  1.00  0.00    -0.248 NA
ATOM     58  C   UNL A   1      42.056  29.075  36.007  1.00  0.00     0.031 C 
ATOM     59  C   UNL A   1      44.824  28.045  31.464  1.00  0.00     0.029 A 
ATOM     60  C   UNL A   1      43.970  27.228  32.186  1.00  0.00     0.049 A 
ATOM     61  H   UNL A   1      42.437  25.994  31.467  1.00  0.00     0.167 HD
ATOM     62  C   UNL A   1      43.194  27.907  34.359  1.00  0.00     0.074 A 
ATOM     63  C   UNL A   1      42.648  27.907  35.706  1.00  0.00     0.031 C 
ATOM     64  C   UNL A   1      43.738  26.913  33.591  1.00  0.00     0.034 A 
BRANCH  51  65
ATOM     65  C   UNL A   1      42.727  26.129  27.630  1.00  0.00     0.023 A 
ATOM     66  C   UNL A   1      43.175  26.950  26.570  1.00  0.00     0.012 A 
ATOM     67  C   UNL A   1      42.546  24.757  27.322  1.00  0.00     0.148 A 
ATOM     68  C   UNL A   1      43.426  26.449  25.288  1.00  0.00     0.002 A 
ATOM     69  C   UNL A   1      42.867  24.244  26.061  1.00  0.00     0.091 A 
ATOM     70  F   UNL A   1      41.960  23.941  28.203  1.00  0.00    -0.205 F 
ATOM     71  C   UNL A   1      43.292  25.091  25.037  1.00  0.00     0.022 A 
BRANCH  69  72
ATOM     72  S   UNL A   1      42.763  22.483  25.690  1.00  0.00     0.127 S 
ATOM     73  O   UNL A   1      43.266  22.429  24.317  1.00  0.00    -0.237 OA
ATOM     74  O   UNL A   1      43.657  21.894  26.689  1.00  0.00    -0.237 OA
ATOM     75  O   UNL A   1      41.361  22.119  25.857  1.00  0.00    -0.744 OA
ENDBRANCH  69  72
ENDBRANCH  51  65
BRANCH  52  76
ATOM     76  C   UNL A   1      40.277  31.627  35.158  1.00  0.00     0.023 A 
ATOM     77  C   UNL A   1      39.105  30.881  34.882  1.00  0.00     0.012 A 
ATOM     78  C   UNL A   1      40.288  32.476  36.279  1.00  0.00     0.148 A 
ATOM     79  C   UNL A   1      38.031  30.875  35.774  1.00  0.00     0.002 A 
ATOM     80  C   UNL A   1      39.205  32.475  37.156  1.00  0.00     0.091 A 
ATOM     81  F   UNL A   1      41.383  33.208  36.520  1.00  0.00    -0.205 F 
ATOM     82  C   UNL A   1      38.096  31.646  36.928  1.00  0.00     0.022 A 
BRANCH  80  83
ATOM     83  S   UNL A   1      39.234  33.429  38.680  1.00  0.00     0.127 S 
ATOM     84  O   UNL A   1      37.889  33.193  39.196  1.00  0.00    -0.237 OA
ATOM     85  O   UNL A   1      40.308  32.784  39.435  1.00  0.00    -0.237 OA
ATOM     86  O   UNL A   1      39.537  34.790  38.264  1.00  0.00    -0.744 OA
ENDBRANCH  80  83
ENDBRANCH  52  76
BRANCH  64  87
ATOM     87  C   UNL A   1      44.053  25.527  34.127  1.00  0.00     0.023 A 
ATOM     88  C   UNL A   1      43.009  24.660  34.507  1.00  0.00     0.012 A 
ATOM     89  C   UNL A   1      45.375  25.094  34.407  1.00  0.00     0.148 A 
ATOM     90  C   UNL A   1      43.259  23.404  35.074  1.00  0.00     0.002 A 
ATOM     91  C   UNL A   1      45.616  23.887  35.059  1.00  0.00     0.091 A 
ATOM     92  F   UNL A   1      46.417  25.831  34.005  1.00  0.00    -0.205 F 
ATOM     93  C   UNL A   1      44.562  23.025  35.366  1.00  0.00     0.022 A 
BRANCH  91  94
ATOM     94  S   UNL A   1      47.252  23.415  35.647  1.00  0.00     0.127 S 
ATOM     95  O   UNL A   1      46.983  22.113  36.259  1.00  0.00    -0.237 OA
ATOM     96  O   UNL A   1      48.014  23.358  34.401  1.00  0.00    -0.237 OA
ATOM     97  O   UNL A   1      47.657  24.449  36.588  1.00  0.00    -0.744 OA
ENDBRANCH  91  94
ENDBRANCH  64  87
ENDBRANCH  38  39
ENDBRANCH  30  33
ENDBRANCH  28  29
ENDBRANCH  27  28
ENDBRANCH  26  27
ENDBRANCH   1  26
TORSDOF 19
ENDMDL
MODEL 2
REMARK VINA RESULT:     -11.3      6.262     10.648
REMARK SMILES Cc1ccc(Nc2c(F)cccc2Cl)c(CC(=O)NCCCCCCNC(=O)c2ccc(-c3c4nc(c(-c5cccc(S(=O)(=O)[O-])c5F)c5ccc([nH]5)c(-c5cccc(S(=O)(=O)[O-])c5F)c5nc(c(-c6cccc(S(=O)(=O)[O-])c6F)c6ccc3[nH]6)C=C5)C=C4)cc2)c1
REMARK SMILES IDX 22 1 21 2 20 3 19 4 17 5 18 6 16 8 15 9 1 10 2 11 3 12 92 13
REMARK SMILES IDX 4 14 5 15 6 16 7 18 8 19 13 20 9 21 10 22 12 23 14 24 11 25
REMARK SMILES IDX 23 26 24 27 25 28 26 29 27 30 28 32 29 33 30 34 91 35 31 36
REMARK SMILES IDX 90 37 32 38 33 39 34 40 84 41 35 42 89 43 83 44 85 45 36 46
REMARK SMILES IDX 88 47 82 48 81 49 37 51 69 52 49 53 68 54 50 55 53 56 67 57
REMARK SMILES IDX 86 58 51 59 52 60 66 62 87 63 54 64 38 65 39 66 47 67 40 68
REMARK SMILES IDX 42 69 48 70 41 71 43 72 44 73 45 74 46 75 70 76 71 77 79 78
REMARK SMILES IDX 72 79 74 80 80 81 73 82 75 83 76 84 77 85 78 86 55 87 56 88
REMARK SMILES IDX 64 89 57 90 59 91 65 92 58 93 60 94 61 95 62 96 63 97
REMARK H PARENT 19 7 6 17 26 31 85 50 53 61
REMARK Flexibility Score: inf
ROOT
ATOM      1  C   UNL A   1      38.644  24.205  26.727  1.00  0.00     0.002 C 
ENDROOT
BRANCH   1   2
ATOM      2  C   UNL A   1      39.159  22.781  26.478  1.00  0.00     0.021 C 
BRANCH   2   3
ATOM      3  C   UNL A   1      38.163  21.850  25.785  1.00  0.00     0.116 C 
BRANCH   3   4
ATOM      4  N   UNL A   1      37.753  22.358  24.494  1.00  0.00    -0.356 N 
ATOM      5  C   UNL A   1      36.503  22.685  24.066  1.00  0.00     0.224 C 
ATOM      6  O   UNL A   1      36.346  22.989  22.880  1.00  0.00    -0.275 OA
ATOM      7  H   UNL A   1      38.474  22.484  23.836  1.00  0.00     0.163 HD
BRANCH   5   8
ATOM      8  C   UNL A   1      35.326  22.673  25.024  1.00  0.00     0.137 C 
BRANCH   8   9
ATOM      9  C   UNL A   1      34.371  21.516  24.824  1.00  0.00    -0.015 A 
ATOM     10  C   UNL A   1      34.724  17.723  24.408  1.00  0.00     0.044 C 
ATOM     11  C   UNL A   1      34.126  19.093  24.529  1.00  0.00    -0.051 A 
ATOM     12  C   UNL A   1      32.757  19.272  24.364  1.00  0.00     0.005 A 
ATOM     13  C   UNL A   1      34.918  20.212  24.790  1.00  0.00     0.009 A 
ATOM     14  C   UNL A   1      32.196  20.549  24.443  1.00  0.00     0.026 A 
ATOM     15  C   UNL A   1      32.981  21.695  24.654  1.00  0.00     0.042 A 
BRANCH  15  16
ATOM     16  N   UNL A   1      32.393  22.977  24.728  1.00  0.00    -0.352 N 
ATOM     17  H   UNL A   1      31.704  23.091  25.423  1.00  0.00     0.167 HD
BRANCH  16  18
ATOM     18  C   UNL A   1      32.660  24.120  23.938  1.00  0.00     0.094 A 
ATOM     19  C   UNL A   1      32.851  24.034  22.551  1.00  0.00     0.148 A 
ATOM     20  C   UNL A   1      32.851  25.378  24.540  1.00  0.00     0.067 A 
ATOM     21  F   UNL A   1      32.655  22.871  21.911  1.00  0.00    -0.205 F 
ATOM     22  C   UNL A   1      33.226  25.141  21.790  1.00  0.00     0.041 A 
ATOM     23  C   UNL A   1      33.235  26.492  23.783  1.00  0.00     0.023 A 
ATOM     24  Cl  UNL A   1      32.651  25.587  26.247  1.00  0.00    -0.082 Cl
ATOM     25  C   UNL A   1      33.428  26.371  22.408  1.00  0.00     0.005 A 
ENDBRANCH  16  18
ENDBRANCH  15  16
ENDBRANCH   8   9
ENDBRANCH   5   8
ENDBRANCH   3   4
ENDBRANCH   2   3
ENDBRANCH   1   2
BRANCH   1  26
ATOM     26  C   UNL A   1      39.709  25.311  26.790  1.00  0.00     0.002 C 
BRANCH  26  27
ATOM     27  C   UNL A   1      40.603  25.309  28.031  1.00  0.00     0.021 C 
BRANCH  27  28
ATOM     28  C   UNL A   1      40.134  26.238  29.140  1.00  0.00     0.116 C 
BRANCH  28  29
ATOM     29  N   UNL A   1      39.008  27.063  28.743  1.00  0.00    -0.352 N 
ATOM     30  C   UNL A   1      38.951  28.408  28.444  1.00  0.00     0.251 C 
ATOM     31  H   UNL A   1      38.149  26.587  28.679  1.00  0.00     0.163 HD
ATOM     32  O   UNL A   1      37.838  28.929  28.362  1.00  0.00    -0.269 OA
BRANCH  30  33
ATOM     33  C   UNL A   1      40.174  29.162  28.063  1.00  0.00     0.039 A 
ATOM     34  C   UNL A   1      40.682  28.949  26.772  1.00  0.00     0.014 A 
ATOM     35  C   UNL A   1      40.946  29.848  28.996  1.00  0.00     0.014 A 
ATOM     36  C   UNL A   1      42.036  29.151  26.516  1.00  0.00     0.010 A 
ATOM     37  C   UNL A   1      42.299  29.977  28.777  1.00  0.00     0.010 A 
ATOM     38  C   UNL A   1      42.852  29.539  27.570  1.00  0.00    -0.014 A 
BRANCH  38  39
ATOM     39  C   UNL A   1      44.297  29.395  27.603  1.00  0.00     0.031 A 
ATOM     40  C   UNL A   1      45.169  30.476  27.117  1.00  0.00     0.074 A 
ATOM     41  C   UNL A   1      44.799  28.399  28.371  1.00  0.00     0.049 A 
ATOM     42  N   UNL A   1      46.453  30.392  27.108  1.00  0.00    -0.248 NA
ATOM     43  C   UNL A   1      44.668  31.738  26.579  1.00  0.00     0.031 C 
ATOM     44  C   UNL A   1      46.117  28.328  28.993  1.00  0.00     0.029 A 
ATOM     45  N   UNL A   1      44.270  27.119  28.570  1.00  0.00    -0.354 N 
ATOM     46  C   UNL A   1      46.938  31.659  26.904  1.00  0.00     0.074 A 
ATOM     47  C   UNL A   1      45.809  32.423  26.436  1.00  0.00     0.031 C 
ATOM     48  C   UNL A   1      46.414  27.041  29.226  1.00  0.00     0.029 A 
ATOM     49  C   UNL A   1      45.380  26.252  28.582  1.00  0.00     0.049 A 
ATOM     50  H   UNL A   1      43.322  26.875  28.679  1.00  0.00     0.167 HD
ATOM     51  C   UNL A   1      48.209  31.931  27.304  1.00  0.00     0.034 A 
ATOM     52  C   UNL A   1      45.596  25.313  27.612  1.00  0.00     0.034 A 
ATOM     53  C   UNL A   1      48.960  30.694  27.569  1.00  0.00     0.049 A 
ATOM     54  C   UNL A   1      46.904  25.510  26.847  1.00  0.00     0.074 A 
ATOM     55  C   UNL A   1      49.459  30.048  28.686  1.00  0.00     0.029 A 
ATOM     56  N   UNL A   1      49.091  29.793  26.524  1.00  0.00    -0.354 N 
ATOM     57  N   UNL A   1      47.809  26.412  27.123  1.00  0.00    -0.248 NA
ATOM     58  C   UNL A   1      47.240  24.750  25.642  1.00  0.00     0.031 C 
ATOM     59  C   UNL A   1      49.808  28.712  28.301  1.00  0.00     0.029 A 
ATOM     60  C   UNL A   1      49.567  28.567  26.945  1.00  0.00     0.049 A 
ATOM     61  H   UNL A   1      48.869  30.004  25.589  1.00  0.00     0.167 HD
ATOM     62  C   UNL A   1      48.704  26.492  26.085  1.00  0.00     0.074 A 
ATOM     63  C   UNL A   1      48.336  25.395  25.207  1.00  0.00     0.031 C 
ATOM     64  C   UNL A   1      49.635  27.490  25.964  1.00  0.00     0.034 A 
BRANCH  51  65
ATOM     65  C   UNL A   1      48.774  33.311  27.558  1.00  0.00     0.023 A 
ATOM     66  C   UNL A   1      49.113  33.635  28.891  1.00  0.00     0.012 A 
ATOM     67  C   UNL A   1      48.896  34.359  26.611  1.00  0.00     0.148 A 
ATOM     68  C   UNL A   1      49.543  34.912  29.266  1.00  0.00     0.002 A 
ATOM     69  C   UNL A   1      49.395  35.614  26.973  1.00  0.00     0.091 A 
ATOM     70  F   UNL A   1      48.433  34.201  25.368  1.00  0.00    -0.205 F 
ATOM     71  C   UNL A   1      49.705  35.899  28.304  1.00  0.00     0.022 A 
BRANCH  69  72
ATOM     72  S   UNL A   1      49.677  36.918  25.761  1.00  0.00     0.127 S 
ATOM     73  O   UNL A   1      50.400  37.917  26.547  1.00  0.00    -0.237 OA
ATOM     74  O   UNL A   1      50.486  36.241  24.745  1.00  0.00    -0.237 OA
ATOM     75  O   UNL A   1      48.357  37.325  25.294  1.00  0.00    -0.744 OA
ENDBRANCH  69  72
ENDBRANCH  51  65
BRANCH  52  76
ATOM     76  C   UNL A   1      44.329  24.775  27.028  1.00  0.00     0.023 A 
ATOM     77  C   UNL A   1      43.739  25.521  25.977  1.00  0.00     0.012 A 
ATOM     78  C   UNL A   1      43.945  23.434  27.201  1.00  0.00     0.148 A 
ATOM     79  C   UNL A   1      42.900  24.908  25.046  1.00  0.00     0.002 A 
ATOM     80  C   UNL A   1      43.094  22.833  26.275  1.00  0.00     0.091 A 
ATOM     81  F   UNL A   1      44.476  22.739  28.215  1.00  0.00    -0.205 F 
ATOM     82  C   UNL A   1      42.605  23.556  25.175  1.00  0.00     0.022 A 
BRANCH  80  83
ATOM     83  S   UNL A   1      42.692  21.083  26.368  1.00  0.00     0.127 S 
ATOM     84  O   UNL A   1      43.967  20.473  26.001  1.00  0.00    -0.237 OA
ATOM     85  O   UNL A   1      42.312  20.922  27.771  1.00  0.00    -0.237 OA
ATOM     86  O   UNL A   1      41.595  20.901  25.431  1.00  0.00    -0.744 OA
ENDBRANCH  80  83
ENDBRANCH  52  76
BRANCH  64  87
ATOM     87  C   UNL A   1      50.671  27.530  24.853  1.00  0.00     0.023 A 
ATOM     88  C   UNL A   1      52.041  27.411  25.159  1.00  0.00     0.012 A 
ATOM     89  C   UNL A   1      50.341  27.830  23.506  1.00  0.00     0.148 A 
ATOM     90  C   UNL A   1      53.031  27.517  24.173  1.00  0.00     0.002 A 
ATOM     91  C   UNL A   1      51.332  28.030  22.548  1.00  0.00     0.091 A 
ATOM     92  F   UNL A   1      49.058  27.881  23.129  1.00  0.00    -0.205 F 
ATOM     93  C   UNL A   1      52.677  27.844  22.871  1.00  0.00     0.022 A 
BRANCH  91  94
ATOM     94  S   UNL A   1      50.968  28.645  20.894  1.00  0.00     0.127 S 
ATOM     95  O   UNL A   1      50.234  27.520  20.314  1.00  0.00    -0.237 OA
ATOM     96  O   UNL A   1      50.152  29.822  21.184  1.00  0.00    -0.237 OA
ATOM     97  O   UNL A   1      52.256  28.908  20.269  1.00  0.00    -0.744 OA
ENDBRANCH  91  94
ENDBRANCH  64  87
ENDBRANCH  38  39
ENDBRANCH  30  33
ENDBRANCH  28  29
ENDBRANCH  27  28
ENDBRANCH  26  27
ENDBRANCH   1  26
TORSDOF 19
ENDMDL
MODEL 3
REMARK VINA RESULT:     -10.9      1.946      2.525
REMARK SMILES Cc1ccc(Nc2c(F)cccc2Cl)c(CC(=O)NCCCCCCNC(=O)c2ccc(-c3c4nc(c(-c5cccc(S(=O)(=O)[O-])c5F)c5ccc([nH]5)c(-c5cccc(S(=O)(=O)[O-])c5F)c5nc(c(-c6cccc(S(=O)(=O)[O-])c6F)c6ccc3[nH]6)C=C5)C=C4)cc2)c1
REMARK SMILES IDX 22 1 21 2 20 3 19 4 17 5 18 6 16 8 15 9 1 10 2 11 3 12 92 13
REMARK SMILES IDX 4 14 5 15 6 16 7 18 8 19 13 20 9 21 10 22 12 23 14 24 11 25
REMARK SMILES IDX 23 26 24 27 25 28 26 29 27 30 28 32 29 33 30 34 91 35 31 36
REMARK SMILES IDX 90 37 32 38 33 39 34 40 84 41 35 42 89 43 83 44 85 45 36 46
REMARK SMILES IDX 88 47 82 48 81 49 37 51 69 52 49 53 68 54 50 55 53 56 67 57
REMARK SMILES IDX 86 58 51 59 52 60 66 62 87 63 54 64 38 65 39 66 47 67 40 68
REMARK SMILES IDX 42 69 48 70 41 71 43 72 44 73 45 74 46 75 70 76 71 77 79 78
REMARK SMILES IDX 72 79 74 80 80 81 73 82 75 83 76 84 77 85 78 86 55 87 56 88
REMARK SMILES IDX 64 89 57 90 59 91 65 92 58 93 60 94 61 95 62 96 63 97
REMARK H PARENT 19 7 6 17 26 31 85 50 53 61
REMARK Flexibility Score: inf
ROOT
ATOM      1  C   UNL A   1      33.261  31.829  27.728  1.00  0.00     0.002 C 
ENDROOT
BRANCH   1   2
ATOM      2  C   UNL A   1      34.481  30.926  27.498  1.00  0.00     0.021 C 
BRANCH   2   3
ATOM      3  C   UNL A   1      34.154  29.527  26.971  1.00  0.00     0.116 C 
BRANCH   3   4
ATOM      4  N   UNL A   1      34.082  29.495  25.526  1.00  0.00    -0.356 N 
ATOM      5  C   UNL A   1      32.997  29.281  24.733  1.00  0.00     0.224 C 
ATOM      6  O   UNL A   1      33.168  29.172  23.516  1.00  0.00    -0.275 OA
ATOM      7  H   UNL A   1      34.932  29.647  25.054  1.00  0.00     0.163 HD
BRANCH   5   8
ATOM      8  C   UNL A   1      31.606  29.175  25.331  1.00  0.00     0.137 C 
BRANCH   8   9
ATOM      9  C   UNL A   1      30.485  29.213  24.315  1.00  0.00    -0.015 A 
ATOM     10  C   UNL A   1      28.331  31.956  22.726  1.00  0.00     0.044 C 
ATOM     11  C   UNL A   1      28.906  30.612  23.063  1.00  0.00    -0.051 A 
ATOM     12  C   UNL A   1      28.346  29.460  22.521  1.00  0.00     0.005 A 
ATOM     13  C   UNL A   1      29.992  30.482  23.930  1.00  0.00     0.009 A 
ATOM     14  C   UNL A   1      28.855  28.203  22.855  1.00  0.00     0.026 A 
ATOM     15  C   UNL A   1      29.913  28.046  23.765  1.00  0.00     0.042 A 
BRANCH  15  16
ATOM     16  N   UNL A   1      30.411  26.763  24.090  1.00  0.00    -0.352 N 
ATOM     17  H   UNL A   1      29.830  26.213  24.665  1.00  0.00     0.167 HD
BRANCH  16  18
ATOM     18  C   UNL A   1      31.631  26.163  23.700  1.00  0.00     0.094 A 
ATOM     19  C   UNL A   1      31.971  25.984  22.350  1.00  0.00     0.148 A 
ATOM     20  C   UNL A   1      32.504  25.624  24.663  1.00  0.00     0.067 A 
ATOM     21  F   UNL A   1      31.197  26.500  21.383  1.00  0.00    -0.205 F 
ATOM     22  C   UNL A   1      33.119  25.292  21.967  1.00  0.00     0.041 A 
ATOM     23  C   UNL A   1      33.654  24.920  24.285  1.00  0.00     0.023 A 
ATOM     24  Cl  UNL A   1      32.168  25.781  26.355  1.00  0.00    -0.082 Cl
ATOM     25  C   UNL A   1      33.958  24.750  22.935  1.00  0.00     0.005 A 
ENDBRANCH  16  18
ENDBRANCH  15  16
ENDBRANCH   8   9
ENDBRANCH   5   8
ENDBRANCH   3   4
ENDBRANCH   2   3
ENDBRANCH   1   2
BRANCH   1  26
ATOM     26  C   UNL A   1      33.557  33.268  28.179  1.00  0.00     0.002 C 
BRANCH  26  27
ATOM     27  C   UNL A   1      34.959  33.793  27.862  1.00  0.00     0.021 C 
BRANCH  27  28
ATOM     28  C   UNL A   1      35.705  34.347  29.065  1.00  0.00     0.116 C 
BRANCH  28  29
ATOM     29  N   UNL A   1      34.830  34.636  30.186  1.00  0.00    -0.352 N 
ATOM     30  C   UNL A   1      34.508  33.871  31.287  1.00  0.00     0.251 C 
ATOM     31  H   UNL A   1      34.396  35.519  30.154  1.00  0.00     0.163 HD
ATOM     32  O   UNL A   1      33.561  34.238  31.983  1.00  0.00    -0.269 OA
BRANCH  30  33
ATOM     33  C   UNL A   1      35.378  32.744  31.717  1.00  0.00     0.039 A 
ATOM     34  C   UNL A   1      36.247  32.980  32.794  1.00  0.00     0.014 A 
ATOM     35  C   UNL A   1      35.534  31.591  30.953  1.00  0.00     0.014 A 
ATOM     36  C   UNL A   1      37.420  32.239  32.915  1.00  0.00     0.010 A 
ATOM     37  C   UNL A   1      36.726  30.905  31.017  1.00  0.00     0.010 A 
ATOM     38  C   UNL A   1      37.704  31.295  31.937  1.00  0.00    -0.014 A 
BRANCH  38  39
ATOM     39  C   UNL A   1      39.020  30.746  31.666  1.00  0.00     0.031 A 
ATOM     40  C   UNL A   1      39.176  29.341  31.257  1.00  0.00     0.074 A 
ATOM     41  C   UNL A   1      40.031  31.629  31.491  1.00  0.00     0.049 A 
ATOM     42  N   UNL A   1      40.321  28.801  31.023  1.00  0.00    -0.248 NA
ATOM     43  C   UNL A   1      38.057  28.416  31.100  1.00  0.00     0.031 C 
ATOM     44  C   UNL A   1      41.266  31.438  30.737  1.00  0.00     0.029 A 
ATOM     45  N   UNL A   1      40.239  32.840  32.162  1.00  0.00    -0.354 N 
ATOM     46  C   UNL A   1      40.082  27.617  30.373  1.00  0.00     0.074 A 
ATOM     47  C   UNL A   1      38.679  27.353  30.577  1.00  0.00     0.031 C 
ATOM     48  C   UNL A   1      42.190  32.293  31.198  1.00  0.00     0.029 A 
ATOM     49  C   UNL A   1      41.628  32.912  32.385  1.00  0.00     0.049 A 
ATOM     50  H   UNL A   1      39.558  33.501  32.424  1.00  0.00     0.167 HD
ATOM     51  C   UNL A   1      41.080  27.088  29.615  1.00  0.00     0.034 A 
ATOM     52  C   UNL A   1      42.181  32.864  33.634  1.00  0.00     0.034 A 
ATOM     53  C   UNL A   1      42.373  27.721  29.922  1.00  0.00     0.049 A 
ATOM     54  C   UNL A   1      43.124  31.681  33.843  1.00  0.00     0.074 A 
ATOM     55  C   UNL A   1      43.243  28.579  29.274  1.00  0.00     0.029 A 
ATOM     56  N   UNL A   1      42.825  27.642  31.229  1.00  0.00    -0.354 N 
ATOM     57  N   UNL A   1      43.480  30.828  32.917  1.00  0.00    -0.248 NA
ATOM     58  C   UNL A   1      43.666  31.319  35.154  1.00  0.00     0.031 C 
ATOM     59  C   UNL A   1      44.171  29.078  30.246  1.00  0.00     0.029 A 
ATOM     60  C   UNL A   1      43.893  28.485  31.467  1.00  0.00     0.049 A 
ATOM     61  H   UNL A   1      42.430  27.052  31.911  1.00  0.00     0.167 HD
ATOM     62  C   UNL A   1      44.099  29.751  33.502  1.00  0.00     0.074 A 
ATOM     63  C   UNL A   1      44.239  30.131  34.898  1.00  0.00     0.031 C 
ATOM     64  C   UNL A   1      44.386  28.590  32.835  1.00  0.00     0.034 A 
BRANCH  51  65
ATOM     65  C   UNL A   1      40.902  26.062  28.518  1.00  0.00     0.023 A 
ATOM     66  C   UNL A   1      39.703  26.118  27.772  1.00  0.00     0.012 A 
ATOM     67  C   UNL A   1      41.765  24.975  28.232  1.00  0.00     0.148 A 
ATOM     68  C   UNL A   1      39.377  25.161  26.805  1.00  0.00     0.002 A 
ATOM     69  C   UNL A   1      41.473  24.060  27.216  1.00  0.00     0.091 A 
ATOM     70  F   UNL A   1      42.830  24.740  29.004  1.00  0.00    -0.205 F 
ATOM     71  C   UNL A   1      40.271  24.141  26.511  1.00  0.00     0.022 A 
BRANCH  69  72
ATOM     72  S   UNL A   1      42.618  22.747  26.752  1.00  0.00     0.127 S 
ATOM     73  O   UNL A   1      43.860  23.486  26.529  1.00  0.00    -0.237 OA
ATOM     74  O   UNL A   1      42.622  21.893  27.941  1.00  0.00    -0.237 OA
ATOM     75  O   UNL A   1      42.045  22.116  25.568  1.00  0.00    -0.744 OA
ENDBRANCH  69  72
ENDBRANCH  51  65
BRANCH  52  76
ATOM     76  C   UNL A   1      41.299  33.458  34.686  1.00  0.00     0.023 A 
ATOM     77  C   UNL A   1      41.133  34.865  34.665  1.00  0.00     0.012 A 
ATOM     78  C   UNL A   1      40.373  32.680  35.402  1.00  0.00     0.148 A 
ATOM     79  C   UNL A   1      40.000  35.462  35.220  1.00  0.00     0.002 A 
ATOM     80  C   UNL A   1      39.253  33.287  35.968  1.00  0.00     0.091 A 
ATOM     81  F   UNL A   1      40.550  31.354  35.453  1.00  0.00    -0.205 F 
ATOM     82  C   UNL A   1      39.044  34.669  35.842  1.00  0.00     0.022 A 
BRANCH  80  83
ATOM     83  S   UNL A   1      37.964  32.317  36.764  1.00  0.00     0.127 S 
ATOM     84  O   UNL A   1      38.543  32.094  38.086  1.00  0.00    -0.237 OA
ATOM     85  O   UNL A   1      36.821  33.229  36.735  1.00  0.00    -0.237 OA
ATOM     86  O   UNL A   1      37.807  31.141  35.921  1.00  0.00    -0.744 OA
ENDBRANCH  80  83
ENDBRANCH  52  76
BRANCH  64  87
ATOM     87  C   UNL A   1      45.138  27.432  33.469  1.00  0.00     0.023 A 
ATOM     88  C   UNL A   1      46.494  27.212  33.154  1.00  0.00     0.012 A 
ATOM     89  C   UNL A   1      44.502  26.450  34.271  1.00  0.00     0.148 A 
ATOM     90  C   UNL A   1      47.201  26.113  33.659  1.00  0.00     0.002 A 
ATOM     91  C   UNL A   1      45.182  25.309  34.691  1.00  0.00     0.091 A 
ATOM     92  F   UNL A   1      43.238  26.633  34.671  1.00  0.00    -0.205 F 
ATOM     93  C   UNL A   1      46.541  25.153  34.413  1.00  0.00     0.022 A 
BRANCH  91  94
ATOM     94  S   UNL A   1      44.352  23.931  35.500  1.00  0.00     0.127 S 
ATOM     95  O   UNL A   1      43.776  24.582  36.678  1.00  0.00    -0.237 OA
ATOM     96  O   UNL A   1      43.378  23.530  34.488  1.00  0.00    -0.237 OA
ATOM     97  O   UNL A   1      45.389  22.955  35.800  1.00  0.00    -0.744 OA
ENDBRANCH  91  94
ENDBRANCH  64  87
ENDBRANCH  38  39
ENDBRANCH  30  33
ENDBRANCH  28  29
ENDBRANCH  27  28
ENDBRANCH  26  27
ENDBRANCH   1  26
TORSDOF 19
ENDMDL
