MODEL 1
REMARK VINA RESULT:     -11.4      0.000      0.000
REMARK SMILES O=C(NCCCCCCNC(=O)c1cncc(OCCCc2ccccc2)n1)c1ccc(-c2c3nc(c(-c4cccc(S(=O)(=O)[O-])c4F)c4ccc([nH]4)c(-c4cccc(S(=O)(=O)[O-])c4F)c4nc(c(-c5cccc(S(=O)(=O)[O-])c5F)c5ccc2[nH]5)C=C4)C=C3)cc1
REMARK SMILES IDX 7 1 6 2 5 3 4 4 3 5 1 6 2 7 29 9 30 10 91 11 31 12 90 13
REMARK SMILES IDX 32 14 33 15 34 16 84 17 35 18 89 19 83 20 85 21 36 22 88 23
REMARK SMILES IDX 82 24 81 25 37 27 69 28 49 29 68 30 50 31 53 32 67 33 86 34
REMARK SMILES IDX 51 35 52 36 66 38 87 39 54 40 38 41 39 42 47 43 40 44 42 45
REMARK SMILES IDX 48 46 41 47 43 48 44 49 45 50 46 51 70 52 71 53 79 54 72 55
REMARK SMILES IDX 74 56 80 57 73 58 75 59 76 60 77 61 78 62 55 63 56 64 64 65
REMARK SMILES IDX 57 66 59 67 65 68 58 69 60 70 61 71 62 72 63 73 8 74 9 75
REMARK SMILES IDX 10 76 11 77 12 79 13 80 14 81 28 82 15 83 17 84 16 85 18 86
REMARK SMILES IDX 19 87 20 88 21 89 22 90 23 91 27 92 24 93 26 94 25 95
REMARK H PARENT 3 8 85 26 53 37 10 78
REMARK Flexibility Score: inf
ROOT
ATOM      1  C   UNL A   1      31.974  29.649  27.220  1.00  0.00     0.002 C 
ENDROOT
BRANCH   1   2
ATOM      2  C   UNL A   1      31.528  30.622  26.124  1.00  0.00     0.002 C 
BRANCH   2   3
ATOM      3  C   UNL A   1      31.451  32.094  26.538  1.00  0.00     0.021 C 
BRANCH   3   4
ATOM      4  C   UNL A   1      32.716  32.649  27.184  1.00  0.00     0.116 C 
BRANCH   4   5
ATOM      5  N   UNL A   1      32.532  34.003  27.670  1.00  0.00    -0.352 N 
ATOM      6  O   UNL A   1      32.725  35.725  29.104  1.00  0.00    -0.269 OA
ATOM      7  C   UNL A   1      33.162  34.651  28.706  1.00  0.00     0.251 C 
ATOM      8  H   UNL A   1      31.857  34.536  27.189  1.00  0.00     0.163 HD
BRANCH   7   9
ATOM      9  C   UNL A   1      34.350  34.042  29.348  1.00  0.00     0.039 A 
ATOM     10  C   UNL A   1      34.211  33.109  30.382  1.00  0.00     0.014 A 
ATOM     11  C   UNL A   1      35.620  34.392  28.886  1.00  0.00     0.014 A 
ATOM     12  C   UNL A   1      35.340  32.621  31.034  1.00  0.00     0.010 A 
ATOM     13  C   UNL A   1      36.752  33.845  29.494  1.00  0.00     0.010 A 
ATOM     14  C   UNL A   1      36.622  32.975  30.590  1.00  0.00    -0.014 A 
BRANCH  14  15
ATOM     15  C   UNL A   1      37.831  32.393  31.228  1.00  0.00     0.031 A 
ATOM     16  C   UNL A   1      38.556  31.243  30.591  1.00  0.00     0.074 A 
ATOM     17  C   UNL A   1      38.230  32.864  32.424  1.00  0.00     0.049 A 
ATOM     18  N   UNL A   1      39.560  30.543  31.055  1.00  0.00    -0.248 NA
ATOM     19  C   UNL A   1      38.085  30.812  29.266  1.00  0.00     0.031 C 
ATOM     20  C   UNL A   1      37.584  33.957  33.155  1.00  0.00     0.029 A 
ATOM     21  N   UNL A   1      39.245  32.460  33.255  1.00  0.00    -0.354 N 
ATOM     22  C   UNL A   1      39.810  29.559  30.107  1.00  0.00     0.074 A 
ATOM     23  C   UNL A   1      38.849  29.752  29.040  1.00  0.00     0.031 C 
ATOM     24  C   UNL A   1      38.203  34.123  34.332  1.00  0.00     0.029 A 
ATOM     25  C   UNL A   1      39.248  33.114  34.465  1.00  0.00     0.049 A 
ATOM     26  H   UNL A   1      39.903  31.771  33.011  1.00  0.00     0.167 HD
ATOM     27  C   UNL A   1      40.754  28.588  30.121  1.00  0.00     0.034 A 
ATOM     28  C   UNL A   1      39.977  32.900  35.577  1.00  0.00     0.034 A 
ATOM     29  C   UNL A   1      41.712  28.413  31.181  1.00  0.00     0.049 A 
ATOM     30  C   UNL A   1      41.016  31.817  35.576  1.00  0.00     0.074 A 
ATOM     31  C   UNL A   1      42.756  27.508  31.256  1.00  0.00     0.029 A 
ATOM     32  N   UNL A   1      41.729  29.142  32.362  1.00  0.00    -0.354 N 
ATOM     33  N   UNL A   1      41.322  30.975  34.620  1.00  0.00    -0.248 NA
ATOM     34  C   UNL A   1      41.830  31.671  36.790  1.00  0.00     0.031 C 
ATOM     35  C   UNL A   1      43.376  27.660  32.501  1.00  0.00     0.029 A 
ATOM     36  C   UNL A   1      42.752  28.694  33.180  1.00  0.00     0.049 A 
ATOM     37  H   UNL A   1      41.105  29.870  32.585  1.00  0.00     0.167 HD
ATOM     38  C   UNL A   1      42.390  30.225  35.098  1.00  0.00     0.074 A 
ATOM     39  C   UNL A   1      42.679  30.715  36.430  1.00  0.00     0.031 C 
ATOM     40  C   UNL A   1      43.065  29.223  34.485  1.00  0.00     0.034 A 
BRANCH  27  41
ATOM     41  C   UNL A   1      40.799  27.638  28.951  1.00  0.00     0.023 A 
ATOM     42  C   UNL A   1      39.874  26.578  28.865  1.00  0.00     0.012 A 
ATOM     43  C   UNL A   1      41.740  27.816  27.916  1.00  0.00     0.148 A 
ATOM     44  C   UNL A   1      39.915  25.682  27.797  1.00  0.00     0.002 A 
ATOM     45  C   UNL A   1      41.745  26.946  26.830  1.00  0.00     0.091 A 
ATOM     46  F   UNL A   1      42.626  28.816  28.019  1.00  0.00    -0.205 F 
ATOM     47  C   UNL A   1      40.844  25.871  26.778  1.00  0.00     0.022 A 
BRANCH  45  48
ATOM     48  S   UNL A   1      42.848  27.160  25.430  1.00  0.00     0.127 S 
ATOM     49  O   UNL A   1      42.701  25.880  24.741  1.00  0.00    -0.237 OA
ATOM     50  O   UNL A   1      42.248  28.299  24.733  1.00  0.00    -0.237 OA
ATOM     51  O   UNL A   1      44.164  27.425  25.996  1.00  0.00    -0.744 OA
ENDBRANCH  45  48
ENDBRANCH  27  41
BRANCH  28  52
ATOM     52  C   UNL A   1      39.746  33.761  36.770  1.00  0.00     0.023 A 
ATOM     53  C   UNL A   1      40.115  35.117  36.732  1.00  0.00     0.012 A 
ATOM     54  C   UNL A   1      39.081  33.257  37.906  1.00  0.00     0.148 A 
ATOM     55  C   UNL A   1      39.838  35.957  37.812  1.00  0.00     0.002 A 
ATOM     56  C   UNL A   1      38.757  34.111  38.952  1.00  0.00     0.091 A 
ATOM     57  F   UNL A   1      38.741  31.960  37.918  1.00  0.00    -0.205 F 
ATOM     58  C   UNL A   1      39.148  35.458  38.914  1.00  0.00     0.022 A 
BRANCH  56  59
ATOM     59  S   UNL A   1      37.751  33.595  40.348  1.00  0.00     0.127 S 
ATOM     60  O   UNL A   1      36.530  33.144  39.685  1.00  0.00    -0.237 OA
ATOM     61  O   UNL A   1      38.569  32.528  40.925  1.00  0.00    -0.237 OA
ATOM     62  O   UNL A   1      37.608  34.772  41.193  1.00  0.00    -0.744 OA
ENDBRANCH  56  59
ENDBRANCH  28  52
BRANCH  40  63
ATOM     63  C   UNL A   1      44.235  28.612  35.210  1.00  0.00     0.023 A 
ATOM     64  C   UNL A   1      45.535  29.116  35.011  1.00  0.00     0.012 A 
ATOM     65  C   UNL A   1      44.019  27.613  36.180  1.00  0.00     0.148 A 
ATOM     66  C   UNL A   1      46.605  28.622  35.759  1.00  0.00     0.002 A 
ATOM     67  C   UNL A   1      45.078  27.164  36.957  1.00  0.00     0.091 A 
ATOM     68  F   UNL A   1      42.775  27.136  36.337  1.00  0.00    -0.205 F 
ATOM     69  C   UNL A   1      46.375  27.660  36.741  1.00  0.00     0.022 A 
BRANCH  67  70
ATOM     70  S   UNL A   1      44.859  26.006  38.312  1.00  0.00     0.127 S 
ATOM     71  O   UNL A   1      43.890  25.067  37.747  1.00  0.00    -0.237 OA
ATOM     72  O   UNL A   1      46.208  25.464  38.475  1.00  0.00    -0.237 OA
ATOM     73  O   UNL A   1      44.376  26.788  39.441  1.00  0.00    -0.744 OA
ENDBRANCH  67  70
ENDBRANCH  40  63
ENDBRANCH  14  15
ENDBRANCH   7   9
ENDBRANCH   4   5
ENDBRANCH   3   4
ENDBRANCH   2   3
ENDBRANCH   1   2
BRANCH   1  74
ATOM     74  C   UNL A   1      32.417  28.263  26.741  1.00  0.00     0.021 C 
BRANCH  74  75
ATOM     75  C   UNL A   1      31.371  27.450  25.981  1.00  0.00     0.116 C 
BRANCH  75  76
ATOM     76  N   UNL A   1      30.978  26.230  26.663  1.00  0.00    -0.351 N 
ATOM     77  C   UNL A   1      31.442  24.949  26.470  1.00  0.00     0.271 C 
ATOM     78  H   UNL A   1      30.286  26.333  27.355  1.00  0.00     0.163 HD
ATOM     79  O   UNL A   1      31.040  24.035  27.184  1.00  0.00    -0.267 OA
BRANCH  77  80
ATOM     80  C   UNL A   1      32.383  24.664  25.363  1.00  0.00     0.150 A 
ATOM     81  C   UNL A   1      32.050  24.945  24.051  1.00  0.00     0.145 A 
ATOM     82  N   UNL A   1      33.581  24.135  25.721  1.00  0.00    -0.205 NA
ATOM     83  N   UNL A   1      32.902  24.688  23.027  1.00  0.00    -0.257 NA
ATOM     84  C   UNL A   1      34.440  23.905  24.716  1.00  0.00     0.233 A 
ATOM     85  C   UNL A   1      34.107  24.175  23.394  1.00  0.00     0.179 A 
BRANCH  84  86
ATOM     86  O   UNL A   1      35.715  23.478  25.002  1.00  0.00    -0.477 OA
BRANCH  86  87
ATOM     87  C   UNL A   1      36.164  22.362  24.218  1.00  0.00     0.232 C 
BRANCH  87  88
ATOM     88  C   UNL A   1      36.061  21.019  24.955  1.00  0.00     0.046 C 
BRANCH  88  89
ATOM     89  C   UNL A   1      34.643  20.548  25.314  1.00  0.00     0.039 C 
BRANCH  89  90
ATOM     90  C   UNL A   1      34.153  19.322  24.576  1.00  0.00    -0.048 A 
ATOM     91  C   UNL A   1      32.914  19.331  23.925  1.00  0.00     0.004 A 
ATOM     92  C   UNL A   1      34.903  18.142  24.556  1.00  0.00     0.004 A 
ATOM     93  C   UNL A   1      32.421  18.194  23.284  1.00  0.00     0.000 A 
ATOM     94  C   UNL A   1      34.411  17.000  23.916  1.00  0.00     0.000 A 
ATOM     95  C   UNL A   1      33.169  17.025  23.284  1.00  0.00     0.000 A 
ENDBRANCH  89  90
ENDBRANCH  88  89
ENDBRANCH  87  88
ENDBRANCH  86  87
ENDBRANCH  84  86
ENDBRANCH  77  80
ENDBRANCH  75  76
ENDBRANCH  74  75
ENDBRANCH   1  74
TORSDOF 21
ENDMDL
MODEL 2
REMARK VINA RESULT:     -11.3      1.673      3.476
REMARK SMILES O=C(NCCCCCCNC(=O)c1cncc(OCCCc2ccccc2)n1)c1ccc(-c2c3nc(c(-c4cccc(S(=O)(=O)[O-])c4F)c4ccc([nH]4)c(-c4cccc(S(=O)(=O)[O-])c4F)c4nc(c(-c5cccc(S(=O)(=O)[O-])c5F)c5ccc2[nH]5)C=C4)C=C3)cc1
REMARK SMILES IDX 7 1 6 2 5 3 4 4 3 5 1 6 2 7 29 9 30 10 91 11 31 12 90 13
REMARK SMILES IDX 32 14 33 15 34 16 84 17 35 18 89 19 83 20 85 21 36 22 88 23
REMARK SMILES IDX 82 24 81 25 37 27 69 28 49 29 68 30 50 31 53 32 67 33 86 34
REMARK SMILES IDX 51 35 52 36 66 38 87 39 54 40 38 41 39 42 47 43 40 44 42 45
REMARK SMILES IDX 48 46 41 47 43 48 44 49 45 50 46 51 70 52 71 53 79 54 72 55
REMARK SMILES IDX 74 56 80 57 73 58 75 59 76 60 77 61 78 62 55 63 56 64 64 65
REMARK SMILES IDX 57 66 59 67 65 68 58 69 60 70 61 71 62 72 63 73 8 74 9 75
REMARK SMILES IDX 10 76 11 77 12 79 13 80 14 81 28 82 15 83 17 84 16 85 18 86
REMARK SMILES IDX 19 87 20 88 21 89 22 90 23 91 27 92 24 93 26 94 25 95
REMARK H PARENT 3 8 85 26 53 37 10 78
REMARK Flexibility Score: inf
ROOT
ATOM      1  C   UNL A   1      32.369  29.234  26.353  1.00  0.00     0.002 C 
ENDROOT
BRANCH   1   2
ATOM      2  C   UNL A   1      31.642  30.461  25.792  1.00  0.00     0.002 C 
BRANCH   2   3
ATOM      3  C   UNL A   1      31.469  31.628  26.766  1.00  0.00     0.021 C 
BRANCH   3   4
ATOM      4  C   UNL A   1      32.763  32.317  27.184  1.00  0.00     0.116 C 
BRANCH   4   5
ATOM      5  N   UNL A   1      32.546  33.698  27.574  1.00  0.00    -0.352 N 
ATOM      6  O   UNL A   1      32.725  35.530  28.866  1.00  0.00    -0.269 OA
ATOM      7  C   UNL A   1      33.188  34.445  28.533  1.00  0.00     0.251 C 
ATOM      8  H   UNL A   1      31.835  34.168  27.080  1.00  0.00     0.163 HD
BRANCH   7   9
ATOM      9  C   UNL A   1      34.420  33.928  29.172  1.00  0.00     0.039 A 
ATOM     10  C   UNL A   1      35.677  34.444  28.837  1.00  0.00     0.014 A 
ATOM     11  C   UNL A   1      34.310  32.929  30.141  1.00  0.00     0.014 A 
ATOM     12  C   UNL A   1      36.829  33.879  29.379  1.00  0.00     0.010 A 
ATOM     13  C   UNL A   1      35.462  32.414  30.738  1.00  0.00     0.010 A 
ATOM     14  C   UNL A   1      36.732  32.866  30.343  1.00  0.00    -0.014 A 
BRANCH  14  15
ATOM     15  C   UNL A   1      37.953  32.316  30.985  1.00  0.00     0.031 A 
ATOM     16  C   UNL A   1      38.680  31.149  30.381  1.00  0.00     0.074 A 
ATOM     17  C   UNL A   1      38.364  32.833  32.159  1.00  0.00     0.049 A 
ATOM     18  N   UNL A   1      39.695  30.474  30.856  1.00  0.00    -0.248 NA
ATOM     19  C   UNL A   1      38.195  30.667  29.078  1.00  0.00     0.031 C 
ATOM     20  C   UNL A   1      37.719  33.946  32.858  1.00  0.00     0.029 A 
ATOM     21  N   UNL A   1      39.392  32.466  32.990  1.00  0.00    -0.354 N 
ATOM     22  C   UNL A   1      39.940  29.458  29.940  1.00  0.00     0.074 A 
ATOM     23  C   UNL A   1      38.965  29.606  28.880  1.00  0.00     0.031 C 
ATOM     24  C   UNL A   1      38.352  34.159  34.021  1.00  0.00     0.029 A 
ATOM     25  C   UNL A   1      39.406  33.163  34.176  1.00  0.00     0.049 A 
ATOM     26  H   UNL A   1      40.053  31.773  32.762  1.00  0.00     0.167 HD
ATOM     27  C   UNL A   1      40.892  28.495  29.978  1.00  0.00     0.034 A 
ATOM     28  C   UNL A   1      40.151  32.994  35.286  1.00  0.00     0.034 A 
ATOM     29  C   UNL A   1      41.865  28.366  31.031  1.00  0.00     0.049 A 
ATOM     30  C   UNL A   1      41.198  31.920  35.310  1.00  0.00     0.074 A 
ATOM     31  C   UNL A   1      42.916  27.472  31.124  1.00  0.00     0.029 A 
ATOM     32  N   UNL A   1      41.891  29.136  32.184  1.00  0.00    -0.354 N 
ATOM     33  N   UNL A   1      41.498  31.046  34.380  1.00  0.00    -0.248 NA
ATOM     34  C   UNL A   1      42.029  31.823  36.517  1.00  0.00     0.031 C 
ATOM     35  C   UNL A   1      43.551  27.672  32.354  1.00  0.00     0.029 A 
ATOM     36  C   UNL A   1      42.928  28.725  33.004  1.00  0.00     0.049 A 
ATOM     37  H   UNL A   1      41.264  29.867  32.389  1.00  0.00     0.167 HD
ATOM     38  C   UNL A   1      42.578  30.322  34.871  1.00  0.00     0.074 A 
ATOM     39  C   UNL A   1      42.880  30.861  36.181  1.00  0.00     0.031 C 
ATOM     40  C   UNL A   1      43.253  29.303  34.286  1.00  0.00     0.034 A 
BRANCH  27  41
ATOM     41  C   UNL A   1      40.930  27.504  28.841  1.00  0.00     0.023 A 
ATOM     42  C   UNL A   1      40.010  26.436  28.804  1.00  0.00     0.012 A 
ATOM     43  C   UNL A   1      41.857  27.651  27.790  1.00  0.00     0.148 A 
ATOM     44  C   UNL A   1      40.045  25.502  27.769  1.00  0.00     0.002 A 
ATOM     45  C   UNL A   1      41.855  26.743  26.736  1.00  0.00     0.091 A 
ATOM     46  F   UNL A   1      42.737  28.660  27.846  1.00  0.00    -0.205 F 
ATOM     47  C   UNL A   1      40.961  25.660  26.732  1.00  0.00     0.022 A 
BRANCH  45  48
ATOM     48  S   UNL A   1      42.940  26.913  25.315  1.00  0.00     0.127 S 
ATOM     49  O   UNL A   1      42.735  25.637  24.633  1.00  0.00    -0.237 OA
ATOM     50  O   UNL A   1      42.369  28.071  24.626  1.00  0.00    -0.237 OA
ATOM     51  O   UNL A   1      44.274  27.132  25.857  1.00  0.00    -0.744 OA
ENDBRANCH  45  48
ENDBRANCH  27  41
BRANCH  28  52
ATOM     52  C   UNL A   1      39.928  33.896  36.449  1.00  0.00     0.023 A 
ATOM     53  C   UNL A   1      40.233  35.264  36.339  1.00  0.00     0.012 A 
ATOM     54  C   UNL A   1      39.333  33.413  37.633  1.00  0.00     0.148 A 
ATOM     55  C   UNL A   1      39.961  36.137  37.393  1.00  0.00     0.002 A 
ATOM     56  C   UNL A   1      39.012  34.298  38.654  1.00  0.00     0.091 A 
ATOM     57  F   UNL A   1      39.054  32.105  37.713  1.00  0.00    -0.205 F 
ATOM     58  C   UNL A   1      39.339  35.658  38.543  1.00  0.00     0.022 A 
BRANCH  56  59
ATOM     59  S   UNL A   1      38.087  33.799  40.111  1.00  0.00     0.127 S 
ATOM     60  O   UNL A   1      36.897  33.195  39.518  1.00  0.00    -0.237 OA
ATOM     61  O   UNL A   1      39.010  32.854  40.739  1.00  0.00    -0.237 OA
ATOM     62  O   UNL A   1      37.858  35.018  40.874  1.00  0.00    -0.744 OA
ENDBRANCH  56  59
ENDBRANCH  28  52
BRANCH  40  63
ATOM     63  C   UNL A   1      44.437  28.728  35.017  1.00  0.00     0.023 A 
ATOM     64  C   UNL A   1      45.682  29.386  34.983  1.00  0.00     0.012 A 
ATOM     65  C   UNL A   1      44.275  27.592  35.835  1.00  0.00     0.148 A 
ATOM     66  C   UNL A   1      46.751  28.912  35.744  1.00  0.00     0.002 A 
ATOM     67  C   UNL A   1      45.328  27.156  36.629  1.00  0.00     0.091 A 
ATOM     68  F   UNL A   1      43.086  26.971  35.834  1.00  0.00    -0.205 F 
ATOM     69  C   UNL A   1      46.571  27.810  36.576  1.00  0.00     0.022 A 
BRANCH  67  70
ATOM     70  S   UNL A   1      45.156  25.812  37.807  1.00  0.00     0.127 S 
ATOM     71  O   UNL A   1      46.507  25.727  38.361  1.00  0.00    -0.237 OA
ATOM     72  O   UNL A   1      44.151  26.340  38.730  1.00  0.00    -0.237 OA
ATOM     73  O   UNL A   1      44.728  24.652  37.039  1.00  0.00    -0.744 OA
ENDBRANCH  67  70
ENDBRANCH  40  63
ENDBRANCH  14  15
ENDBRANCH   7   9
ENDBRANCH   4   5
ENDBRANCH   3   4
ENDBRANCH   2   3
ENDBRANCH   1   2
BRANCH   1  74
ATOM     74  C   UNL A   1      31.473  28.088  26.832  1.00  0.00     0.021 C 
BRANCH  74  75
ATOM     75  C   UNL A   1      31.628  26.760  26.093  1.00  0.00     0.116 C 
BRANCH  75  76
ATOM     76  N   UNL A   1      31.479  25.599  26.950  1.00  0.00    -0.351 N 
ATOM     77  C   UNL A   1      31.716  24.276  26.655  1.00  0.00     0.271 C 
ATOM     78  H   UNL A   1      31.167  25.783  27.865  1.00  0.00     0.163 HD
ATOM     79  O   UNL A   1      31.596  23.421  27.527  1.00  0.00    -0.267 OA
BRANCH  77  80
ATOM     80  C   UNL A   1      32.059  23.879  25.271  1.00  0.00     0.150 A 
ATOM     81  C   UNL A   1      31.567  22.710  24.720  1.00  0.00     0.145 A 
ATOM     82  N   UNL A   1      32.861  24.734  24.587  1.00  0.00    -0.205 NA
ATOM     83  N   UNL A   1      31.874  22.333  23.453  1.00  0.00    -0.257 NA
ATOM     84  C   UNL A   1      33.146  24.382  23.324  1.00  0.00     0.233 A 
ATOM     85  C   UNL A   1      32.663  23.204  22.767  1.00  0.00     0.179 A 
BRANCH  84  86
ATOM     86  O   UNL A   1      33.857  25.246  22.525  1.00  0.00    -0.477 OA
BRANCH  86  87
ATOM     87  C   UNL A   1      33.636  26.638  22.803  1.00  0.00     0.232 C 
BRANCH  87  88
ATOM     88  C   UNL A   1      32.378  27.202  22.128  1.00  0.00     0.046 C 
BRANCH  88  89
ATOM     89  C   UNL A   1      31.876  28.557  22.650  1.00  0.00     0.039 C 
BRANCH  89  90
ATOM     90  C   UNL A   1      30.376  28.688  22.794  1.00  0.00    -0.048 A 
ATOM     91  C   UNL A   1      29.627  27.668  23.394  1.00  0.00     0.004 A 
ATOM     92  C   UNL A   1      29.696  29.807  22.303  1.00  0.00     0.004 A 
ATOM     93  C   UNL A   1      28.237  27.746  23.489  1.00  0.00     0.000 A 
ATOM     94  C   UNL A   1      28.303  29.887  22.394  1.00  0.00     0.000 A 
ATOM     95  C   UNL A   1      27.574  28.855  22.983  1.00  0.00     0.000 A 
ENDBRANCH  89  90
ENDBRANCH  88  89
ENDBRANCH  87  88
ENDBRANCH  86  87
ENDBRANCH  84  86
ENDBRANCH  77  80
ENDBRANCH  75  76
ENDBRANCH  74  75
ENDBRANCH   1  74
TORSDOF 21
ENDMDL
MODEL 3
REMARK VINA RESULT:     -11.3      3.436      8.670
REMARK SMILES O=C(NCCCCCCNC(=O)c1cncc(OCCCc2ccccc2)n1)c1ccc(-c2c3nc(c(-c4cccc(S(=O)(=O)[O-])c4F)c4ccc([nH]4)c(-c4cccc(S(=O)(=O)[O-])c4F)c4nc(c(-c5cccc(S(=O)(=O)[O-])c5F)c5ccc2[nH]5)C=C4)C=C3)cc1
REMARK SMILES IDX 7 1 6 2 5 3 4 4 3 5 1 6 2 7 29 9 30 10 91 11 31 12 90 13
REMARK SMILES IDX 32 14 33 15 34 16 84 17 35 18 89 19 83 20 85 21 36 22 88 23
REMARK SMILES IDX 82 24 81 25 37 27 69 28 49 29 68 30 50 31 53 32 67 33 86 34
REMARK SMILES IDX 51 35 52 36 66 38 87 39 54 40 38 41 39 42 47 43 40 44 42 45
REMARK SMILES IDX 48 46 41 47 43 48 44 49 45 50 46 51 70 52 71 53 79 54 72 55
REMARK SMILES IDX 74 56 80 57 73 58 75 59 76 60 77 61 78 62 55 63 56 64 64 65
REMARK SMILES IDX 57 66 59 67 65 68 58 69 60 70 61 71 62 72 63 73 8 74 9 75
REMARK SMILES IDX 10 76 11 77 12 79 13 80 14 81 28 82 15 83 17 84 16 85 18 86
REMARK SMILES IDX 19 87 20 88 21 89 22 90 23 91 27 92 24 93 26 94 25 95
REMARK H PARENT 3 8 85 26 53 37 10 78
REMARK Flexibility Score: inf
ROOT
ATOM      1  C   UNL A   1      32.163  29.213  24.147  1.00  0.00     0.002 C 
ENDROOT
BRANCH   1   2
ATOM      2  C   UNL A   1      33.558  28.868  24.676  1.00  0.00     0.002 C 
BRANCH   2   3
ATOM      3  C   UNL A   1      33.599  27.852  25.819  1.00  0.00     0.021 C 
BRANCH   3   4
ATOM      4  C   UNL A   1      33.556  28.453  27.220  1.00  0.00     0.116 C 
BRANCH   4   5
ATOM      5  N   UNL A   1      33.626  29.902  27.194  1.00  0.00    -0.352 N 
ATOM      6  O   UNL A   1      34.358  31.944  27.790  1.00  0.00    -0.269 OA
ATOM      7  C   UNL A   1      34.577  30.739  27.730  1.00  0.00     0.251 C 
ATOM      8  H   UNL A   1      32.886  30.351  26.724  1.00  0.00     0.163 HD
BRANCH   7   9
ATOM      9  C   UNL A   1      35.846  30.181  28.249  1.00  0.00     0.039 A 
ATOM     10  C   UNL A   1      35.914  29.606  29.522  1.00  0.00     0.014 A 
ATOM     11  C   UNL A   1      36.980  30.212  27.434  1.00  0.00     0.014 A 
ATOM     12  C   UNL A   1      37.138  29.174  30.028  1.00  0.00     0.010 A 
ATOM     13  C   UNL A   1      38.191  29.712  27.915  1.00  0.00     0.010 A 
ATOM     14  C   UNL A   1      38.286  29.213  29.225  1.00  0.00    -0.014 A 
BRANCH  14  15
ATOM     15  C   UNL A   1      39.578  28.678  29.728  1.00  0.00     0.031 A 
ATOM     16  C   UNL A   1      40.332  29.389  30.815  1.00  0.00     0.074 A 
ATOM     17  C   UNL A   1      40.102  27.582  29.149  1.00  0.00     0.049 A 
ATOM     18  N   UNL A   1      41.518  29.128  31.302  1.00  0.00    -0.248 NA
ATOM     19  C   UNL A   1      39.675  30.555  31.426  1.00  0.00     0.031 C 
ATOM     20  C   UNL A   1      39.476  26.825  28.062  1.00  0.00     0.029 A 
ATOM     21  N   UNL A   1      41.295  26.938  29.360  1.00  0.00    -0.354 N 
ATOM     22  C   UNL A   1      41.773  30.121  32.239  1.00  0.00     0.074 A 
ATOM     23  C   UNL A   1      40.616  30.993  32.251  1.00  0.00     0.031 C 
ATOM     24  C   UNL A   1      40.297  25.834  27.688  1.00  0.00     0.029 A 
ATOM     25  C   UNL A   1      41.529  25.920  28.465  1.00  0.00     0.049 A 
ATOM     26  H   UNL A   1      41.922  27.180  30.079  1.00  0.00     0.167 HD
ATOM     27  C   UNL A   1      42.867  30.289  33.020  1.00  0.00     0.034 A 
ATOM     28  C   UNL A   1      42.626  25.168  28.257  1.00  0.00     0.034 A 
ATOM     29  C   UNL A   1      44.006  29.409  33.009  1.00  0.00     0.049 A 
ATOM     30  C   UNL A   1      43.831  25.371  29.129  1.00  0.00     0.074 A 
ATOM     31  C   UNL A   1      45.131  29.449  33.813  1.00  0.00     0.029 A 
ATOM     32  N   UNL A   1      44.177  28.345  32.135  1.00  0.00    -0.354 N 
ATOM     33  N   UNL A   1      44.006  26.238  30.097  1.00  0.00    -0.248 NA
ATOM     34  C   UNL A   1      44.976  24.478  28.907  1.00  0.00     0.031 C 
ATOM     35  C   UNL A   1      46.002  28.437  33.396  1.00  0.00     0.029 A 
ATOM     36  C   UNL A   1      45.397  27.733  32.366  1.00  0.00     0.049 A 
ATOM     37  H   UNL A   1      43.526  28.067  31.450  1.00  0.00     0.167 HD
ATOM     38  C   UNL A   1      45.263  25.970  30.626  1.00  0.00     0.074 A 
ATOM     39  C   UNL A   1      45.804  24.858  29.871  1.00  0.00     0.031 C 
ATOM     40  C   UNL A   1      45.906  26.593  31.643  1.00  0.00     0.034 A 
BRANCH  27  41
ATOM     41  C   UNL A   1      42.884  31.471  33.956  1.00  0.00     0.023 A 
ATOM     42  C   UNL A   1      43.449  32.694  33.541  1.00  0.00     0.012 A 
ATOM     43  C   UNL A   1      42.309  31.380  35.240  1.00  0.00     0.148 A 
ATOM     44  C   UNL A   1      43.487  33.790  34.402  1.00  0.00     0.002 A 
ATOM     45  C   UNL A   1      42.308  32.491  36.077  1.00  0.00     0.091 A 
ATOM     46  F   UNL A   1      41.791  30.206  35.630  1.00  0.00    -0.205 F 
ATOM     47  C   UNL A   1      42.910  33.691  35.665  1.00  0.00     0.022 A 
BRANCH  45  48
ATOM     48  S   UNL A   1      41.514  32.483  37.688  1.00  0.00     0.127 S 
ATOM     49  O   UNL A   1      40.168  32.025  37.350  1.00  0.00    -0.237 OA
ATOM     50  O   UNL A   1      42.321  31.510  38.426  1.00  0.00    -0.237 OA
ATOM     51  O   UNL A   1      41.611  33.848  38.187  1.00  0.00    -0.744 OA
ENDBRANCH  45  48
ENDBRANCH  27  41
BRANCH  28  52
ATOM     52  C   UNL A   1      42.605  24.139  27.181  1.00  0.00     0.023 A 
ATOM     53  C   UNL A   1      43.218  24.411  25.945  1.00  0.00     0.012 A 
ATOM     54  C   UNL A   1      42.055  22.862  27.414  1.00  0.00     0.148 A 
ATOM     55  C   UNL A   1      43.273  23.432  24.952  1.00  0.00     0.002 A 
ATOM     56  C   UNL A   1      42.165  21.875  26.443  1.00  0.00     0.091 A 
ATOM     57  F   UNL A   1      41.475  22.629  28.600  1.00  0.00    -0.205 F 
ATOM     58  C   UNL A   1      42.760  22.163  25.205  1.00  0.00     0.022 A 
BRANCH  56  59
ATOM     59  S   UNL A   1      41.660  20.175  26.729  1.00  0.00     0.127 S 
ATOM     60  O   UNL A   1      42.587  19.761  27.779  1.00  0.00    -0.237 OA
ATOM     61  O   UNL A   1      40.274  20.347  27.163  1.00  0.00    -0.237 OA
ATOM     62  O   UNL A   1      41.814  19.494  25.451  1.00  0.00    -0.744 OA
ENDBRANCH  56  59
ENDBRANCH  28  52
BRANCH  40  63
ATOM     63  C   UNL A   1      47.250  26.059  32.063  1.00  0.00     0.023 A 
ATOM     64  C   UNL A   1      48.428  26.560  31.476  1.00  0.00     0.012 A 
ATOM     65  C   UNL A   1      47.341  25.142  33.129  1.00  0.00     0.148 A 
ATOM     66  C   UNL A   1      49.677  26.144  31.937  1.00  0.00     0.002 A 
ATOM     67  C   UNL A   1      48.587  24.772  33.616  1.00  0.00     0.091 A 
ATOM     68  F   UNL A   1      46.204  24.664  33.657  1.00  0.00    -0.205 F 
ATOM     69  C   UNL A   1      49.757  25.264  33.015  1.00  0.00     0.022 A 
BRANCH  67  70
ATOM     70  S   UNL A   1      48.786  23.728  35.064  1.00  0.00     0.127 S 
ATOM     71  O   UNL A   1      47.915  22.599  34.740  1.00  0.00    -0.237 OA
ATOM     72  O   UNL A   1      50.217  23.423  35.029  1.00  0.00    -0.237 OA
ATOM     73  O   UNL A   1      48.363  24.529  36.204  1.00  0.00    -0.744 OA
ENDBRANCH  67  70
ENDBRANCH  40  63
ENDBRANCH  14  15
ENDBRANCH   7   9
ENDBRANCH   4   5
ENDBRANCH   3   4
ENDBRANCH   2   3
ENDBRANCH   1   2
BRANCH   1  74
ATOM     74  C   UNL A   1      31.879  28.805  22.698  1.00  0.00     0.021 C 
BRANCH  74  75
ATOM     75  C   UNL A   1      31.383  27.376  22.488  1.00  0.00     0.116 C 
BRANCH  75  76
ATOM     76  N   UNL A   1      29.981  27.195  22.815  1.00  0.00    -0.351 N 
ATOM     77  C   UNL A   1      29.423  26.471  23.844  1.00  0.00     0.271 C 
ATOM     78  H   UNL A   1      29.343  27.651  22.220  1.00  0.00     0.163 HD
ATOM     79  O   UNL A   1      28.207  26.477  24.011  1.00  0.00    -0.267 OA
BRANCH  77  80
ATOM     80  C   UNL A   1      30.287  25.640  24.713  1.00  0.00     0.150 A 
ATOM     81  C   UNL A   1      30.486  25.964  26.043  1.00  0.00     0.145 A 
ATOM     82  N   UNL A   1      30.845  24.549  24.131  1.00  0.00    -0.205 NA
ATOM     83  N   UNL A   1      31.274  25.213  26.851  1.00  0.00    -0.257 NA
ATOM     84  C   UNL A   1      31.604  23.785  24.932  1.00  0.00     0.233 A 
ATOM     85  C   UNL A   1      31.816  24.111  26.266  1.00  0.00     0.179 A 
BRANCH  84  86
ATOM     86  O   UNL A   1      32.113  22.601  24.453  1.00  0.00    -0.477 OA
BRANCH  86  87
ATOM     87  C   UNL A   1      31.836  21.454  25.271  1.00  0.00     0.232 C 
BRANCH  87  88
ATOM     88  C   UNL A   1      33.095  20.819  25.877  1.00  0.00     0.046 C 
BRANCH  88  89
ATOM     89  C   UNL A   1      34.293  20.649  24.930  1.00  0.00     0.039 C 
BRANCH  89  90
ATOM     90  C   UNL A   1      35.493  21.520  25.230  1.00  0.00    -0.048 A 
ATOM     91  C   UNL A   1      35.330  22.775  25.829  1.00  0.00     0.004 A 
ATOM     92  C   UNL A   1      36.786  21.115  24.884  1.00  0.00     0.004 A 
ATOM     93  C   UNL A   1      36.418  23.615  26.065  1.00  0.00     0.000 A 
ATOM     94  C   UNL A   1      37.879  21.956  25.117  1.00  0.00     0.000 A 
ATOM     95  C   UNL A   1      37.695  23.206  25.704  1.00  0.00     0.000 A 
ENDBRANCH  89  90
ENDBRANCH  88  89
ENDBRANCH  87  88
ENDBRANCH  86  87
ENDBRANCH  84  86
ENDBRANCH  77  80
ENDBRANCH  75  76
ENDBRANCH  74  75
ENDBRANCH   1  74
TORSDOF 21
ENDMDL
