MODEL 1
REMARK VINA RESULT:     -12.9      0.000      0.000
REMARK SMILES Cn1cc(C[C@@H](NC(=O)OCC2c3ccccc3-c3ccccc32)C(=O)NCCCCCCNC(=O)c2ccc(-c3c4nc(c(-c5cccc(S(=O)(=O)[O-])c5F)c5ccc([nH]5)c(-c5cccc(S(=O)(=O)[O-])c5F)c5nc(c(-c6cccc(S(=O)(=O)[O-])c6F)c6ccc3[nH]6)C=C5)C=C4)cc2)c2ccccc21
REMARK SMILES IDX 30 1 29 2 28 3 27 4 25 5 26 6 6 8 5 9 4 10 1 11 2 12 3 13
REMARK SMILES IDX 105 14 100 15 104 16 101 17 103 18 102 19 7 20 8 21 9 23
REMARK SMILES IDX 10 24 11 25 12 26 13 27 24 28 14 29 18 30 19 31 23 32 15 33
REMARK SMILES IDX 17 34 20 35 22 36 16 37 21 38 31 39 32 40 33 41 34 42 35 43
REMARK SMILES IDX 36 45 37 46 38 47 99 48 39 49 98 50 40 51 41 52 42 53 92 54
REMARK SMILES IDX 43 55 97 56 91 57 93 58 44 59 96 60 90 61 89 62 45 64 77 65
REMARK SMILES IDX 57 66 76 67 58 68 61 69 75 70 94 71 59 72 60 73 74 75 95 76
REMARK SMILES IDX 62 77 46 78 47 79 55 80 48 81 50 82 56 83 49 84 51 85 52 86
REMARK SMILES IDX 53 87 54 88 78 89 79 90 87 91 80 92 82 93 88 94 81 95 83 96
REMARK SMILES IDX 84 97 85 98 86 99 63 100 64 101 72 102 65 103 67 104 73 105
REMARK SMILES IDX 66 106 68 107 69 108 70 109 71 110
REMARK H PARENT 27 7 7 22 34 44 93 63 61 74
REMARK Flexibility Score: inf
ROOT
ATOM      1  C   UNL A   1      36.557  22.659  24.446  1.00  0.00     0.002 C 
ENDROOT
BRANCH   1   2
ATOM      2  C   UNL A   1      35.237  22.714  23.669  1.00  0.00     0.021 C 
BRANCH   2   3
ATOM      3  C   UNL A   1      34.270  23.770  24.190  1.00  0.00     0.116 C 
BRANCH   3   4
ATOM      4  N   UNL A   1      34.257  23.814  25.644  1.00  0.00    -0.354 N 
ATOM      5  C   UNL A   1      33.660  22.978  26.548  1.00  0.00     0.243 C 
ATOM      6  O   UNL A   1      33.840  23.216  27.748  1.00  0.00    -0.273 OA
ATOM      7  H   UNL A   1      34.756  24.564  26.040  1.00  0.00     0.163 HD
BRANCH   5   8
ATOM      8  C   UNL A   1      32.707  21.850  26.097  1.00  0.00     0.179 C 
BRANCH   8   9
ATOM      9  C   UNL A   1      33.316  20.477  26.487  1.00  0.00     0.073 C 
BRANCH   9  10
ATOM     10  C   UNL A   1      33.153  19.361  25.489  1.00  0.00    -0.020 A 
ATOM     11  C   UNL A   1      32.825  15.869  24.569  1.00  0.00     0.149 C 
ATOM     12  N   UNL A   1      32.965  17.306  24.634  1.00  0.00    -0.350 N 
ATOM     13  C   UNL A   1      33.301  18.011  25.758  1.00  0.00     0.090 A 
ATOM     14  C   UNL A   1      32.689  18.165  23.593  1.00  0.00     0.048 A 
ATOM     15  C   UNL A   1      32.713  19.457  24.123  1.00  0.00     0.003 A 
ATOM     16  C   UNL A   1      32.379  17.910  22.246  1.00  0.00     0.027 A 
ATOM     17  C   UNL A   1      32.329  20.524  23.281  1.00  0.00     0.010 A 
ATOM     18  C   UNL A   1      32.075  18.997  21.423  1.00  0.00     0.002 A 
ATOM     19  C   UNL A   1      32.038  20.288  21.935  1.00  0.00     0.001 A 
ENDBRANCH   9  10
ENDBRANCH   8   9
BRANCH   8  20
ATOM     20  N   UNL A   1      31.290  21.992  26.437  1.00  0.00    -0.309 N 
ATOM     21  C   UNL A   1      30.545  23.103  26.652  1.00  0.00     0.407 C 
ATOM     22  H   UNL A   1      30.799  21.142  26.523  1.00  0.00     0.167 HD
ATOM     23  O   UNL A   1      29.717  23.124  27.560  1.00  0.00    -0.225 OA
BRANCH  21  24
ATOM     24  O   UNL A   1      30.750  24.108  25.766  1.00  0.00    -0.449 OA
BRANCH  24  25
ATOM     25  C   UNL A   1      31.180  25.362  26.349  1.00  0.00     0.248 C 
BRANCH  25  26
ATOM     26  C   UNL A   1      30.973  26.579  25.422  1.00  0.00     0.088 C 
ATOM     27  C   UNL A   1      31.731  27.817  25.895  1.00  0.00    -0.029 A 
ATOM     28  C   UNL A   1      31.532  26.399  24.017  1.00  0.00    -0.029 A 
ATOM     29  C   UNL A   1      31.534  28.557  27.052  1.00  0.00     0.005 A 
ATOM     30  C   UNL A   1      32.679  28.207  24.925  1.00  0.00    -0.014 A 
ATOM     31  C   UNL A   1      32.589  27.308  23.794  1.00  0.00    -0.014 A 
ATOM     32  C   UNL A   1      31.161  25.476  23.053  1.00  0.00     0.005 A 
ATOM     33  C   UNL A   1      32.314  29.699  27.243  1.00  0.00     0.000 A 
ATOM     34  C   UNL A   1      33.458  29.335  25.121  1.00  0.00     0.009 A 
ATOM     35  C   UNL A   1      33.337  27.238  22.631  1.00  0.00     0.009 A 
ATOM     36  C   UNL A   1      31.923  25.399  21.887  1.00  0.00     0.000 A 
ATOM     37  C   UNL A   1      33.269  30.083  26.287  1.00  0.00     0.001 A 
ATOM     38  C   UNL A   1      33.009  26.263  21.684  1.00  0.00     0.001 A 
ENDBRANCH  25  26
ENDBRANCH  24  25
ENDBRANCH  21  24
ENDBRANCH   8  20
ENDBRANCH   5   8
ENDBRANCH   3   4
ENDBRANCH   2   3
ENDBRANCH   1   2
BRANCH   1  39
ATOM     39  C   UNL A   1      36.768  21.392  25.287  1.00  0.00     0.002 C 
BRANCH  39  40
ATOM     40  C   UNL A   1      38.029  20.585  24.961  1.00  0.00     0.021 C 
BRANCH  40  41
ATOM     41  C   UNL A   1      39.150  20.690  25.991  1.00  0.00     0.116 C 
BRANCH  41  42
ATOM     42  N   UNL A   1      40.053  19.549  25.947  1.00  0.00    -0.352 N 
ATOM     43  C   UNL A   1      41.422  19.525  26.055  1.00  0.00     0.251 C 
ATOM     44  H   UNL A   1      39.623  18.672  25.821  1.00  0.00     0.163 HD
ATOM     45  O   UNL A   1      42.042  18.484  25.854  1.00  0.00    -0.269 OA
BRANCH  43  46
ATOM     46  C   UNL A   1      42.146  20.768  26.390  1.00  0.00     0.039 A 
ATOM     47  C   UNL A   1      42.615  21.576  25.351  1.00  0.00     0.014 A 
ATOM     48  C   UNL A   1      42.333  21.146  27.722  1.00  0.00     0.014 A 
ATOM     49  C   UNL A   1      43.207  22.805  25.647  1.00  0.00     0.010 A 
ATOM     50  C   UNL A   1      42.879  22.393  28.013  1.00  0.00     0.010 A 
ATOM     51  C   UNL A   1      43.307  23.238  26.979  1.00  0.00    -0.014 A 
BRANCH  51  52
ATOM     52  C   UNL A   1      43.793  24.600  27.311  1.00  0.00     0.031 A 
ATOM     53  C   UNL A   1      42.839  25.658  27.783  1.00  0.00     0.074 A 
ATOM     54  C   UNL A   1      45.084  24.909  27.072  1.00  0.00     0.049 A 
ATOM     55  N   UNL A   1      43.072  26.918  28.040  1.00  0.00    -0.248 NA
ATOM     56  C   UNL A   1      41.436  25.255  27.970  1.00  0.00     0.031 C 
ATOM     57  C   UNL A   1      46.087  23.987  26.534  1.00  0.00     0.029 A 
ATOM     58  N   UNL A   1      45.763  26.093  27.212  1.00  0.00    -0.354 N 
ATOM     59  C   UNL A   1      41.846  27.468  28.389  1.00  0.00     0.074 A 
ATOM     60  C   UNL A   1      40.865  26.408  28.290  1.00  0.00     0.031 C 
ATOM     61  C   UNL A   1      47.249  24.641  26.381  1.00  0.00     0.029 A 
ATOM     62  C   UNL A   1      47.069  26.032  26.785  1.00  0.00     0.049 A 
ATOM     63  H   UNL A   1      45.355  26.908  27.583  1.00  0.00     0.167 HD
ATOM     64  C   UNL A   1      41.567  28.732  28.785  1.00  0.00     0.034 A 
ATOM     65  C   UNL A   1      48.013  26.990  26.714  1.00  0.00     0.034 A 
ATOM     66  C   UNL A   1      42.553  29.768  28.932  1.00  0.00     0.049 A 
ATOM     67  C   UNL A   1      47.683  28.378  27.185  1.00  0.00     0.074 A 
ATOM     68  C   UNL A   1      42.390  31.045  29.440  1.00  0.00     0.029 A 
ATOM     69  N   UNL A   1      43.883  29.652  28.561  1.00  0.00    -0.354 N 
ATOM     70  N   UNL A   1      46.559  28.832  27.687  1.00  0.00    -0.248 NA
ATOM     71  C   UNL A   1      48.755  29.381  27.107  1.00  0.00     0.031 C 
ATOM     72  C   UNL A   1      43.622  31.706  29.366  1.00  0.00     0.029 A 
ATOM     73  C   UNL A   1      44.550  30.839  28.812  1.00  0.00     0.049 A 
ATOM     74  H   UNL A   1      44.294  28.844  28.175  1.00  0.00     0.167 HD
ATOM     75  C   UNL A   1      46.794  30.166  28.000  1.00  0.00     0.074 A 
ATOM     76  C   UNL A   1      48.175  30.439  27.658  1.00  0.00     0.031 C 
ATOM     77  C   UNL A   1      45.936  31.086  28.506  1.00  0.00     0.034 A 
BRANCH  64  78
ATOM     78  C   UNL A   1      40.146  29.047  29.164  1.00  0.00     0.023 A 
ATOM     79  C   UNL A   1      39.208  29.309  28.145  1.00  0.00     0.012 A 
ATOM     80  C   UNL A   1      39.722  29.023  30.506  1.00  0.00     0.148 A 
ATOM     81  C   UNL A   1      37.874  29.567  28.458  1.00  0.00     0.002 A 
ATOM     82  C   UNL A   1      38.384  29.249  30.807  1.00  0.00     0.091 A 
ATOM     83  F   UNL A   1      40.635  28.799  31.463  1.00  0.00    -0.205 F 
ATOM     84  C   UNL A   1      37.461  29.528  29.786  1.00  0.00     0.022 A 
BRANCH  82  85
ATOM     85  S   UNL A   1      37.746  29.158  32.485  1.00  0.00     0.127 S 
ATOM     86  O   UNL A   1      38.656  30.055  33.196  1.00  0.00    -0.237 OA
ATOM     87  O   UNL A   1      36.384  29.669  32.331  1.00  0.00    -0.237 OA
ATOM     88  O   UNL A   1      37.824  27.753  32.862  1.00  0.00    -0.744 OA
ENDBRANCH  82  85
ENDBRANCH  64  78
BRANCH  65  89
ATOM     89  C   UNL A   1      49.381  26.645  26.238  1.00  0.00     0.023 A 
ATOM     90  C   UNL A   1      50.187  25.799  27.024  1.00  0.00     0.012 A 
ATOM     91  C   UNL A   1      49.868  27.102  24.998  1.00  0.00     0.148 A 
ATOM     92  C   UNL A   1      51.461  25.429  26.593  1.00  0.00     0.002 A 
ATOM     93  C   UNL A   1      51.118  26.689  24.552  1.00  0.00     0.091 A 
ATOM     94  F   UNL A   1      49.095  27.923  24.274  1.00  0.00    -0.205 F 
ATOM     95  C   UNL A   1      51.921  25.862  25.353  1.00  0.00     0.022 A 
BRANCH  93  96
ATOM     96  S   UNL A   1      51.721  27.095  22.909  1.00  0.00     0.127 S 
ATOM     97  O   UNL A   1      51.922  28.537  23.011  1.00  0.00    -0.237 OA
ATOM     98  O   UNL A   1      52.951  26.305  22.826  1.00  0.00    -0.237 OA
ATOM     99  O   UNL A   1      50.673  26.655  21.998  1.00  0.00    -0.744 OA
ENDBRANCH  93  96
ENDBRANCH  65  89
BRANCH  77 100
ATOM    100  C   UNL A   1      46.459  32.481  28.713  1.00  0.00     0.023 A 
ATOM    101  C   UNL A   1      46.956  32.849  29.978  1.00  0.00     0.012 A 
ATOM    102  C   UNL A   1      46.529  33.400  27.647  1.00  0.00     0.148 A 
ATOM    103  C   UNL A   1      47.498  34.115  30.187  1.00  0.00     0.002 A 
ATOM    104  C   UNL A   1      47.106  34.648  27.852  1.00  0.00     0.091 A 
ATOM    105  F   UNL A   1      46.030  33.039  26.456  1.00  0.00    -0.205 F 
ATOM    106  C   UNL A   1      47.583  35.010  29.123  1.00  0.00     0.022 A 
BRANCH 104 107
ATOM    107  S   UNL A   1      47.332  35.830  26.518  1.00  0.00     0.127 S 
ATOM    108  O   UNL A   1      45.950  36.167  26.180  1.00  0.00    -0.237 OA
ATOM    109  O   UNL A   1      48.079  36.904  27.174  1.00  0.00    -0.237 OA
ATOM    110  O   UNL A   1      48.078  35.124  25.485  1.00  0.00    -0.744 OA
ENDBRANCH 104 107
ENDBRANCH  77 100
ENDBRANCH  51  52
ENDBRANCH  43  46
ENDBRANCH  41  42
ENDBRANCH  40  41
ENDBRANCH  39  40
ENDBRANCH   1  39
TORSDOF 22
ENDMDL
MODEL 2
REMARK VINA RESULT:     -12.6      1.856      7.338
REMARK SMILES Cn1cc(C[C@@H](NC(=O)OCC2c3ccccc3-c3ccccc32)C(=O)NCCCCCCNC(=O)c2ccc(-c3c4nc(c(-c5cccc(S(=O)(=O)[O-])c5F)c5ccc([nH]5)c(-c5cccc(S(=O)(=O)[O-])c5F)c5nc(c(-c6cccc(S(=O)(=O)[O-])c6F)c6ccc3[nH]6)C=C5)C=C4)cc2)c2ccccc21
REMARK SMILES IDX 30 1 29 2 28 3 27 4 25 5 26 6 6 8 5 9 4 10 1 11 2 12 3 13
REMARK SMILES IDX 105 14 100 15 104 16 101 17 103 18 102 19 7 20 8 21 9 23
REMARK SMILES IDX 10 24 11 25 12 26 13 27 24 28 14 29 18 30 19 31 23 32 15 33
REMARK SMILES IDX 17 34 20 35 22 36 16 37 21 38 31 39 32 40 33 41 34 42 35 43
REMARK SMILES IDX 36 45 37 46 38 47 99 48 39 49 98 50 40 51 41 52 42 53 92 54
REMARK SMILES IDX 43 55 97 56 91 57 93 58 44 59 96 60 90 61 89 62 45 64 77 65
REMARK SMILES IDX 57 66 76 67 58 68 61 69 75 70 94 71 59 72 60 73 74 75 95 76
REMARK SMILES IDX 62 77 46 78 47 79 55 80 48 81 50 82 56 83 49 84 51 85 52 86
REMARK SMILES IDX 53 87 54 88 78 89 79 90 87 91 80 92 82 93 88 94 81 95 83 96
REMARK SMILES IDX 84 97 85 98 86 99 63 100 64 101 72 102 65 103 67 104 73 105
REMARK SMILES IDX 66 106 68 107 69 108 70 109 71 110
REMARK H PARENT 27 7 7 22 34 44 93 63 61 74
REMARK Flexibility Score: inf
ROOT
ATOM      1  C   UNL A   1      36.781  21.994  24.446  1.00  0.00     0.002 C 
ENDROOT
BRANCH   1   2
ATOM      2  C   UNL A   1      35.779  22.673  23.506  1.00  0.00     0.021 C 
BRANCH   2   3
ATOM      3  C   UNL A   1      34.989  23.795  24.168  1.00  0.00     0.116 C 
BRANCH   3   4
ATOM      4  N   UNL A   1      34.994  23.670  25.617  1.00  0.00    -0.354 N 
ATOM      5  C   UNL A   1      34.225  22.893  26.439  1.00  0.00     0.243 C 
ATOM      6  O   UNL A   1      34.460  22.941  27.653  1.00  0.00    -0.273 OA
ATOM      7  H   UNL A   1      35.656  24.234  26.079  1.00  0.00     0.163 HD
BRANCH   5   8
ATOM      8  C   UNL A   1      33.033  22.075  25.895  1.00  0.00     0.179 C 
BRANCH   8   9
ATOM      9  C   UNL A   1      33.089  20.638  26.479  1.00  0.00     0.073 C 
BRANCH   9  10
ATOM     10  C   UNL A   1      33.037  19.507  25.486  1.00  0.00    -0.020 A 
ATOM     11  C   UNL A   1      32.988  15.994  24.586  1.00  0.00     0.149 C 
ATOM     12  N   UNL A   1      33.023  17.438  24.643  1.00  0.00    -0.350 N 
ATOM     13  C   UNL A   1      33.273  18.173  25.770  1.00  0.00     0.090 A 
ATOM     14  C   UNL A   1      32.719  18.268  23.586  1.00  0.00     0.048 A 
ATOM     15  C   UNL A   1      32.634  19.563  24.106  1.00  0.00     0.003 A 
ATOM     16  C   UNL A   1      32.470  17.984  22.233  1.00  0.00     0.027 A 
ATOM     17  C   UNL A   1      32.201  20.594  23.244  1.00  0.00     0.010 A 
ATOM     18  C   UNL A   1      32.115  19.041  21.391  1.00  0.00     0.002 A 
ATOM     19  C   UNL A   1      31.970  20.328  21.891  1.00  0.00     0.001 A 
ENDBRANCH   9  10
ENDBRANCH   8   9
BRANCH   8  20
ATOM     20  N   UNL A   1      31.708  22.694  25.958  1.00  0.00    -0.309 N 
ATOM     21  C   UNL A   1      31.345  23.999  25.926  1.00  0.00     0.407 C 
ATOM     22  H   UNL A   1      30.959  22.059  26.037  1.00  0.00     0.167 HD
ATOM     23  O   UNL A   1      30.451  24.410  26.663  1.00  0.00    -0.225 OA
BRANCH  21  24
ATOM     24  O   UNL A   1      31.989  24.748  24.998  1.00  0.00    -0.449 OA
BRANCH  24  25
ATOM     25  C   UNL A   1      31.139  25.623  24.218  1.00  0.00     0.248 C 
BRANCH  25  26
ATOM     26  C   UNL A   1      30.560  26.805  25.025  1.00  0.00     0.088 C 
ATOM     27  C   UNL A   1      31.641  27.734  25.570  1.00  0.00    -0.029 A 
ATOM     28  C   UNL A   1      29.716  27.771  24.203  1.00  0.00    -0.029 A 
ATOM     29  C   UNL A   1      32.618  27.456  26.516  1.00  0.00     0.005 A 
ATOM     30  C   UNL A   1      31.492  29.028  25.026  1.00  0.00    -0.014 A 
ATOM     31  C   UNL A   1      30.338  29.037  24.151  1.00  0.00    -0.014 A 
ATOM     32  C   UNL A   1      28.532  27.522  23.529  1.00  0.00     0.005 A 
ATOM     33  C   UNL A   1      33.466  28.493  26.910  1.00  0.00     0.000 A 
ATOM     34  C   UNL A   1      32.339  30.052  25.411  1.00  0.00     0.009 A 
ATOM     35  C   UNL A   1      29.818  30.038  23.349  1.00  0.00     0.009 A 
ATOM     36  C   UNL A   1      28.016  28.528  22.711  1.00  0.00     0.000 A 
ATOM     37  C   UNL A   1      33.330  29.779  26.360  1.00  0.00     0.001 A 
ATOM     38  C   UNL A   1      28.660  29.770  22.611  1.00  0.00     0.001 A 
ENDBRANCH  25  26
ENDBRANCH  24  25
ENDBRANCH  21  24
ENDBRANCH   8  20
ENDBRANCH   5   8
ENDBRANCH   3   4
ENDBRANCH   2   3
ENDBRANCH   1   2
BRANCH   1  39
ATOM     39  C   UNL A   1      36.500  20.515  24.743  1.00  0.00     0.002 C 
BRANCH  39  40
ATOM     40  C   UNL A   1      37.732  19.656  25.048  1.00  0.00     0.021 C 
BRANCH  40  41
ATOM     41  C   UNL A   1      38.999  20.437  25.384  1.00  0.00     0.116 C 
BRANCH  41  42
ATOM     42  N   UNL A   1      39.961  19.640  26.131  1.00  0.00    -0.352 N 
ATOM     43  C   UNL A   1      41.005  20.058  26.919  1.00  0.00     0.251 C 
ATOM     44  H   UNL A   1      39.849  18.665  26.061  1.00  0.00     0.163 HD
ATOM     45  O   UNL A   1      41.809  19.246  27.367  1.00  0.00    -0.269 OA
BRANCH  43  46
ATOM     46  C   UNL A   1      41.168  21.499  27.204  1.00  0.00     0.039 A 
ATOM     47  C   UNL A   1      41.809  21.884  28.385  1.00  0.00     0.014 A 
ATOM     48  C   UNL A   1      40.716  22.459  26.295  1.00  0.00     0.014 A 
ATOM     49  C   UNL A   1      42.066  23.237  28.619  1.00  0.00     0.010 A 
ATOM     50  C   UNL A   1      41.016  23.802  26.508  1.00  0.00     0.010 A 
ATOM     51  C   UNL A   1      41.706  24.200  27.663  1.00  0.00    -0.014 A 
BRANCH  51  52
ATOM     52  C   UNL A   1      42.099  25.622  27.818  1.00  0.00     0.031 A 
ATOM     53  C   UNL A   1      43.469  26.084  27.412  1.00  0.00     0.074 A 
ATOM     54  C   UNL A   1      41.252  26.470  28.435  1.00  0.00     0.049 A 
ATOM     55  N   UNL A   1      44.010  27.266  27.549  1.00  0.00    -0.248 NA
ATOM     56  C   UNL A   1      44.353  25.085  26.791  1.00  0.00     0.031 C 
ATOM     57  C   UNL A   1      39.928  26.116  28.949  1.00  0.00     0.029 A 
ATOM     58  N   UNL A   1      41.396  27.793  28.772  1.00  0.00    -0.354 N 
ATOM     59  C   UNL A   1      45.305  27.148  27.063  1.00  0.00     0.074 A 
ATOM     60  C   UNL A   1      45.477  25.773  26.646  1.00  0.00     0.031 C 
ATOM     61  C   UNL A   1      39.384  27.189  29.543  1.00  0.00     0.029 A 
ATOM     62  C   UNL A   1      40.328  28.300  29.475  1.00  0.00     0.049 A 
ATOM     63  H   UNL A   1      42.186  28.328  28.532  1.00  0.00     0.167 HD
ATOM     64  C   UNL A   1      46.255  28.106  26.946  1.00  0.00     0.034 A 
ATOM     65  C   UNL A   1      40.135  29.519  30.016  1.00  0.00     0.034 A 
ATOM     66  C   UNL A   1      46.063  29.483  27.313  1.00  0.00     0.049 A 
ATOM     67  C   UNL A   1      41.196  30.570  29.847  1.00  0.00     0.074 A 
ATOM     68  C   UNL A   1      46.922  30.552  27.123  1.00  0.00     0.029 A 
ATOM     69  N   UNL A   1      44.941  29.981  27.956  1.00  0.00    -0.354 N 
ATOM     70  N   UNL A   1      42.344  30.488  29.219  1.00  0.00    -0.248 NA
ATOM     71  C   UNL A   1      40.926  31.889  30.438  1.00  0.00     0.031 C 
ATOM     72  C   UNL A   1      46.321  31.696  27.661  1.00  0.00     0.029 A 
ATOM     73  C   UNL A   1      45.090  31.338  28.186  1.00  0.00     0.049 A 
ATOM     74  H   UNL A   1      44.153  29.448  28.211  1.00  0.00     0.167 HD
ATOM     75  C   UNL A   1      42.925  31.747  29.322  1.00  0.00     0.074 A 
ATOM     76  C   UNL A   1      41.990  32.580  30.050  1.00  0.00     0.031 C 
ATOM     77  C   UNL A   1      44.133  32.167  28.874  1.00  0.00     0.034 A 
BRANCH  64  78
ATOM     78  C   UNL A   1      47.568  27.714  26.324  1.00  0.00     0.023 A 
ATOM     79  C   UNL A   1      48.606  27.247  27.154  1.00  0.00     0.012 A 
ATOM     80  C   UNL A   1      47.757  27.746  24.929  1.00  0.00     0.148 A 
ATOM     81  C   UNL A   1      49.822  26.840  26.609  1.00  0.00     0.002 A 
ATOM     82  C   UNL A   1      48.961  27.307  24.390  1.00  0.00     0.091 A 
ATOM     83  F   UNL A   1      46.767  28.220  24.159  1.00  0.00    -0.205 F 
ATOM     84  C   UNL A   1      49.996  26.860  25.228  1.00  0.00     0.022 A 
BRANCH  82  85
ATOM     85  S   UNL A   1      49.254  27.240  22.618  1.00  0.00     0.127 S 
ATOM     86  O   UNL A   1      50.712  27.144  22.563  1.00  0.00    -0.237 OA
ATOM     87  O   UNL A   1      48.548  26.018  22.231  1.00  0.00    -0.237 OA
ATOM     88  O   UNL A   1      48.682  28.465  22.075  1.00  0.00    -0.744 OA
ENDBRANCH  82  85
ENDBRANCH  64  78
BRANCH  65  89
ATOM     89  C   UNL A   1      38.853  29.825  30.708  1.00  0.00     0.023 A 
ATOM     90  C   UNL A   1      38.647  29.340  32.014  1.00  0.00     0.012 A 
ATOM     91  C   UNL A   1      37.864  30.628  30.108  1.00  0.00     0.148 A 
ATOM     92  C   UNL A   1      37.471  29.636  32.704  1.00  0.00     0.002 A 
ATOM     93  C   UNL A   1      36.717  30.960  30.821  1.00  0.00     0.091 A 
ATOM     94  F   UNL A   1      38.069  31.062  28.857  1.00  0.00    -0.205 F 
ATOM     95  C   UNL A   1      36.513  30.454  32.114  1.00  0.00     0.022 A 
BRANCH  93  96
ATOM     96  S   UNL A   1      35.502  32.118  30.179  1.00  0.00     0.127 S 
ATOM     97  O   UNL A   1      36.325  33.291  29.899  1.00  0.00    -0.237 OA
ATOM     98  O   UNL A   1      35.003  31.418  28.994  1.00  0.00    -0.237 OA
ATOM     99  O   UNL A   1      34.516  32.264  31.241  1.00  0.00    -0.744 OA
ENDBRANCH  93  96
ENDBRANCH  65  89
BRANCH  77 100
ATOM    100  C   UNL A   1      44.524  33.590  29.163  1.00  0.00     0.023 A 
ATOM    101  C   UNL A   1      45.160  33.894  30.383  1.00  0.00     0.012 A 
ATOM    102  C   UNL A   1      44.335  34.608  28.208  1.00  0.00     0.148 A 
ATOM    103  C   UNL A   1      45.584  35.193  30.657  1.00  0.00     0.002 A 
ATOM    104  C   UNL A   1      44.795  35.893  28.471  1.00  0.00     0.091 A 
ATOM    105  F   UNL A   1      43.708  34.303  27.062  1.00  0.00    -0.205 F 
ATOM    106  C   UNL A   1      45.413  36.188  29.699  1.00  0.00     0.022 A 
BRANCH 104 107
ATOM    107  S   UNL A   1      44.691  37.216  27.261  1.00  0.00     0.127 S 
ATOM    108  O   UNL A   1      43.311  37.088  26.797  1.00  0.00    -0.237 OA
ATOM    109  O   UNL A   1      44.953  38.406  28.072  1.00  0.00    -0.237 OA
ATOM    110  O   UNL A   1      45.717  36.927  26.268  1.00  0.00    -0.744 OA
ENDBRANCH 104 107
ENDBRANCH  77 100
ENDBRANCH  51  52
ENDBRANCH  43  46
ENDBRANCH  41  42
ENDBRANCH  40  41
ENDBRANCH  39  40
ENDBRANCH   1  39
TORSDOF 22
ENDMDL
MODEL 3
REMARK VINA RESULT:     -12.6      2.329      7.518
REMARK SMILES Cn1cc(C[C@@H](NC(=O)OCC2c3ccccc3-c3ccccc32)C(=O)NCCCCCCNC(=O)c2ccc(-c3c4nc(c(-c5cccc(S(=O)(=O)[O-])c5F)c5ccc([nH]5)c(-c5cccc(S(=O)(=O)[O-])c5F)c5nc(c(-c6cccc(S(=O)(=O)[O-])c6F)c6ccc3[nH]6)C=C5)C=C4)cc2)c2ccccc21
REMARK SMILES IDX 30 1 29 2 28 3 27 4 25 5 26 6 6 8 5 9 4 10 1 11 2 12 3 13
REMARK SMILES IDX 105 14 100 15 104 16 101 17 103 18 102 19 7 20 8 21 9 23
REMARK SMILES IDX 10 24 11 25 12 26 13 27 24 28 14 29 18 30 19 31 23 32 15 33
REMARK SMILES IDX 17 34 20 35 22 36 16 37 21 38 31 39 32 40 33 41 34 42 35 43
REMARK SMILES IDX 36 45 37 46 38 47 99 48 39 49 98 50 40 51 41 52 42 53 92 54
REMARK SMILES IDX 43 55 97 56 91 57 93 58 44 59 96 60 90 61 89 62 45 64 77 65
REMARK SMILES IDX 57 66 76 67 58 68 61 69 75 70 94 71 59 72 60 73 74 75 95 76
REMARK SMILES IDX 62 77 46 78 47 79 55 80 48 81 50 82 56 83 49 84 51 85 52 86
REMARK SMILES IDX 53 87 54 88 78 89 79 90 87 91 80 92 82 93 88 94 81 95 83 96
REMARK SMILES IDX 84 97 85 98 86 99 63 100 64 101 72 102 65 103 67 104 73 105
REMARK SMILES IDX 66 106 68 107 69 108 70 109 71 110
REMARK H PARENT 27 7 7 22 34 44 93 63 61 74
REMARK Flexibility Score: inf
ROOT
ATOM      1  C   UNL A   1      35.739  22.802  23.830  1.00  0.00     0.002 C 
ENDROOT
BRANCH   1   2
ATOM      2  C   UNL A   1      34.668  23.606  23.084  1.00  0.00     0.021 C 
BRANCH   2   3
ATOM      3  C   UNL A   1      34.149  24.802  23.872  1.00  0.00     0.116 C 
BRANCH   3   4
ATOM      4  N   UNL A   1      34.185  24.555  25.305  1.00  0.00    -0.354 N 
ATOM      5  C   UNL A   1      33.335  23.835  26.098  1.00  0.00     0.243 C 
ATOM      6  O   UNL A   1      33.616  23.744  27.299  1.00  0.00    -0.273 OA
ATOM      7  H   UNL A   1      34.940  24.973  25.778  1.00  0.00     0.163 HD
BRANCH   5   8
ATOM      8  C   UNL A   1      32.015  23.252  25.548  1.00  0.00     0.179 C 
BRANCH   8   9
ATOM      9  C   UNL A   1      31.978  21.724  25.815  1.00  0.00     0.073 C 
BRANCH   9  10
ATOM     10  C   UNL A   1      32.037  20.828  24.607  1.00  0.00    -0.020 A 
ATOM     11  C   UNL A   1      31.980  20.208  21.034  1.00  0.00     0.149 C 
ATOM     12  N   UNL A   1      32.007  20.150  22.478  1.00  0.00    -0.350 N 
ATOM     13  C   UNL A   1      31.724  21.199  23.311  1.00  0.00     0.090 A 
ATOM     14  C   UNL A   1      32.411  19.054  23.208  1.00  0.00     0.048 A 
ATOM     15  C   UNL A   1      32.524  19.476  24.535  1.00  0.00     0.003 A 
ATOM     16  C   UNL A   1      32.728  17.746  22.805  1.00  0.00     0.027 A 
ATOM     17  C   UNL A   1      33.055  18.565  25.475  1.00  0.00     0.010 A 
ATOM     18  C   UNL A   1      33.181  16.848  23.776  1.00  0.00     0.002 A 
ATOM     19  C   UNL A   1      33.355  17.255  25.093  1.00  0.00     0.001 A 
ENDBRANCH   9  10
ENDBRANCH   8   9
BRANCH   8  20
ATOM     20  N   UNL A   1      30.775  23.949  25.895  1.00  0.00    -0.309 N 
ATOM     21  C   UNL A   1      30.450  25.261  25.804  1.00  0.00     0.407 C 
ATOM     22  H   UNL A   1      30.063  23.371  26.254  1.00  0.00     0.167 HD
ATOM     23  O   UNL A   1      29.808  25.802  26.702  1.00  0.00    -0.225 OA
BRANCH  21  24
ATOM     24  O   UNL A   1      30.827  25.864  24.651  1.00  0.00    -0.449 OA
BRANCH  24  25
ATOM     25  C   UNL A   1      29.918  26.881  24.164  1.00  0.00     0.248 C 
BRANCH  25  26
ATOM     26  C   UNL A   1      30.628  28.153  23.652  1.00  0.00     0.088 C 
ATOM     27  C   UNL A   1      29.652  29.267  23.285  1.00  0.00    -0.029 A 
ATOM     28  C   UNL A   1      31.502  28.843  24.690  1.00  0.00    -0.029 A 
ATOM     29  C   UNL A   1      28.706  29.284  22.270  1.00  0.00     0.005 A 
ATOM     30  C   UNL A   1      29.875  30.398  24.100  1.00  0.00    -0.014 A 
ATOM     31  C   UNL A   1      30.980  30.119  24.994  1.00  0.00    -0.014 A 
ATOM     32  C   UNL A   1      32.627  28.354  25.333  1.00  0.00     0.005 A 
ATOM     33  C   UNL A   1      27.963  30.451  22.083  1.00  0.00     0.000 A 
ATOM     34  C   UNL A   1      29.131  31.551  23.919  1.00  0.00     0.009 A 
ATOM     35  C   UNL A   1      31.535  30.877  26.011  1.00  0.00     0.009 A 
ATOM     36  C   UNL A   1      33.179  29.114  26.364  1.00  0.00     0.000 A 
ATOM     37  C   UNL A   1      28.172  31.573  22.902  1.00  0.00     0.001 A 
ATOM     38  C   UNL A   1      32.630  30.358  26.710  1.00  0.00     0.001 A 
ENDBRANCH  25  26
ENDBRANCH  24  25
ENDBRANCH  21  24
ENDBRANCH   8  20
ENDBRANCH   5   8
ENDBRANCH   3   4
ENDBRANCH   2   3
ENDBRANCH   1   2
BRANCH   1  39
ATOM     39  C   UNL A   1      35.277  21.440  24.367  1.00  0.00     0.002 C 
BRANCH  39  40
ATOM     40  C   UNL A   1      36.291  20.697  25.244  1.00  0.00     0.021 C 
BRANCH  40  41
ATOM     41  C   UNL A   1      37.727  21.203  25.145  1.00  0.00     0.116 C 
BRANCH  41  42
ATOM     42  N   UNL A   1      38.692  20.241  25.659  1.00  0.00    -0.352 N 
ATOM     43  C   UNL A   1      39.864  20.470  26.336  1.00  0.00     0.251 C 
ATOM     44  H   UNL A   1      38.474  19.295  25.497  1.00  0.00     0.163 HD
ATOM     45  O   UNL A   1      40.633  19.543  26.575  1.00  0.00    -0.269 OA
BRANCH  43  46
ATOM     46  C   UNL A   1      40.206  21.845  26.753  1.00  0.00     0.039 A 
ATOM     47  C   UNL A   1      41.149  22.027  27.768  1.00  0.00     0.014 A 
ATOM     48  C   UNL A   1      39.619  22.946  26.123  1.00  0.00     0.014 A 
ATOM     49  C   UNL A   1      41.563  23.319  28.101  1.00  0.00     0.010 A 
ATOM     50  C   UNL A   1      40.068  24.229  26.423  1.00  0.00     0.010 A 
ATOM     51  C   UNL A   1      41.053  24.425  27.403  1.00  0.00    -0.014 A 
BRANCH  51  52
ATOM     52  C   UNL A   1      41.583  25.791  27.633  1.00  0.00     0.031 A 
ATOM     53  C   UNL A   1      42.989  26.142  27.239  1.00  0.00     0.074 A 
ATOM     54  C   UNL A   1      40.826  26.680  28.307  1.00  0.00     0.049 A 
ATOM     55  N   UNL A   1      43.643  27.256  27.438  1.00  0.00    -0.248 NA
ATOM     56  C   UNL A   1      43.768  25.099  26.553  1.00  0.00     0.031 C 
ATOM     57  C   UNL A   1      39.476  26.427  28.814  1.00  0.00     0.029 A 
ATOM     58  N   UNL A   1      41.099  27.962  28.717  1.00  0.00    -0.354 N 
ATOM     59  C   UNL A   1      44.918  27.042  26.931  1.00  0.00     0.074 A 
ATOM     60  C   UNL A   1      44.953  25.682  26.435  1.00  0.00     0.031 C 
ATOM     61  C   UNL A   1      39.042  27.512  29.474  1.00  0.00     0.029 A 
ATOM     62  C   UNL A   1      40.090  28.528  29.459  1.00  0.00     0.049 A 
ATOM     63  H   UNL A   1      41.937  28.430  28.499  1.00  0.00     0.167 HD
ATOM     64  C   UNL A   1      45.956  27.908  26.858  1.00  0.00     0.034 A 
ATOM     65  C   UNL A   1      40.018  29.727  30.070  1.00  0.00     0.034 A 
ATOM     66  C   UNL A   1      45.900  29.274  27.305  1.00  0.00     0.049 A 
ATOM     67  C   UNL A   1      41.176  30.679  29.950  1.00  0.00     0.074 A 
ATOM     68  C   UNL A   1      46.858  30.264  27.166  1.00  0.00     0.029 A 
ATOM     69  N   UNL A   1      44.835  29.840  27.987  1.00  0.00    -0.354 N 
ATOM     70  N   UNL A   1      42.307  30.523  29.305  1.00  0.00    -0.248 NA
ATOM     71  C   UNL A   1      41.039  31.982  30.617  1.00  0.00     0.031 C 
ATOM     72  C   UNL A   1      46.374  31.428  27.775  1.00  0.00     0.029 A 
ATOM     73  C   UNL A   1      45.117  31.161  28.292  1.00  0.00     0.049 A 
ATOM     74  H   UNL A   1      44.001  29.372  28.221  1.00  0.00     0.167 HD
ATOM     75  C   UNL A   1      43.008  31.711  29.473  1.00  0.00     0.074 A 
ATOM     76  C   UNL A   1      42.162  32.588  30.258  1.00  0.00     0.031 C 
ATOM     77  C   UNL A   1      44.249  32.037  29.036  1.00  0.00     0.034 A 
BRANCH  64  78
ATOM     78  C   UNL A   1      47.221  27.428  26.200  1.00  0.00     0.023 A 
ATOM     79  C   UNL A   1      47.407  27.660  24.823  1.00  0.00     0.012 A 
ATOM     80  C   UNL A   1      48.244  26.808  26.943  1.00  0.00     0.148 A 
ATOM     81  C   UNL A   1      48.583  27.262  24.189  1.00  0.00     0.002 A 
ATOM     82  C   UNL A   1      49.427  26.444  26.310  1.00  0.00     0.091 A 
ATOM     83  F   UNL A   1      48.036  26.571  28.246  1.00  0.00    -0.205 F 
ATOM     84  C   UNL A   1      49.595  26.664  24.933  1.00  0.00     0.022 A 
BRANCH  82  85
ATOM     85  S   UNL A   1      50.811  25.722  27.200  1.00  0.00     0.127 S 
ATOM     86  O   UNL A   1      50.260  24.431  27.607  1.00  0.00    -0.237 OA
ATOM     87  O   UNL A   1      51.843  25.645  26.165  1.00  0.00    -0.237 OA
ATOM     88  O   UNL A   1      51.112  26.649  28.283  1.00  0.00    -0.744 OA
ENDBRANCH  82  85
ENDBRANCH  64  78
BRANCH  65  89
ATOM     89  C   UNL A   1      38.776  30.115  30.792  1.00  0.00     0.023 A 
ATOM     90  C   UNL A   1      38.643  29.783  32.155  1.00  0.00     0.012 A 
ATOM     91  C   UNL A   1      37.754  30.850  30.161  1.00  0.00     0.148 A 
ATOM     92  C   UNL A   1      37.507  30.160  32.870  1.00  0.00     0.002 A 
ATOM     93  C   UNL A   1      36.647  31.265  30.893  1.00  0.00     0.091 A 
ATOM     94  F   UNL A   1      37.888  31.138  28.859  1.00  0.00    -0.205 F 
ATOM     95  C   UNL A   1      36.516  30.910  32.245  1.00  0.00     0.022 A 
BRANCH  93  96
ATOM     96  S   UNL A   1      35.397  32.348  30.191  1.00  0.00     0.127 S 
ATOM     97  O   UNL A   1      34.949  31.580  29.035  1.00  0.00    -0.237 OA
ATOM     98  O   UNL A   1      34.425  32.446  31.282  1.00  0.00    -0.237 OA
ATOM     99  O   UNL A   1      36.092  33.596  29.904  1.00  0.00    -0.744 OA
ENDBRANCH  93  96
ENDBRANCH  65  89
BRANCH  77 100
ATOM    100  C   UNL A   1      44.777  33.397  29.401  1.00  0.00     0.023 A 
ATOM    101  C   UNL A   1      45.382  33.585  30.659  1.00  0.00     0.012 A 
ATOM    102  C   UNL A   1      44.747  34.464  28.481  1.00  0.00     0.148 A 
ATOM    103  C   UNL A   1      45.931  34.818  31.006  1.00  0.00     0.002 A 
ATOM    104  C   UNL A   1      45.331  35.679  28.818  1.00  0.00     0.091 A 
ATOM    105  F   UNL A   1      44.147  34.272  27.297  1.00  0.00    -0.205 F 
ATOM    106  C   UNL A   1      45.916  35.860  30.083  1.00  0.00     0.022 A 
BRANCH 104 107
ATOM    107  S   UNL A   1      45.430  37.049  27.660  1.00  0.00     0.127 S 
ATOM    108  O   UNL A   1      46.253  38.006  28.399  1.00  0.00    -0.237 OA
ATOM    109  O   UNL A   1      46.093  36.439  26.507  1.00  0.00    -0.237 OA
ATOM    110  O   UNL A   1      44.055  37.461  27.415  1.00  0.00    -0.744 OA
ENDBRANCH 104 107
ENDBRANCH  77 100
ENDBRANCH  51  52
ENDBRANCH  43  46
ENDBRANCH  41  42
ENDBRANCH  40  41
ENDBRANCH  39  40
ENDBRANCH   1  39
TORSDOF 22
ENDMDL
