MODEL 1
REMARK VINA RESULT:     -11.0      0.000      0.000
REMARK SMILES N#Cc1nccnc1N(CC(=O)NCCCCCCNC(=O)c1ccc(-c2c3nc(c(-c4cccc(S(=O)(=O)[O-])c4F)c4ccc([nH]4)c(-c4cccc(S(=O)(=O)[O-])c4F)c4nc(c(-c5cccc(S(=O)(=O)[O-])c5F)c5ccc2[nH]5)C=C4)C=C3)cc1)CC(F)(F)F
REMARK SMILES IDX 16 1 15 2 14 3 13 4 11 5 12 6 10 8 9 9 8 10 3 11 4 12 5 13
REMARK SMILES IDX 7 14 6 15 2 16 1 17 86 18 87 19 88 20 89 21 90 22 17 23
REMARK SMILES IDX 18 24 19 25 20 26 21 27 22 29 23 30 24 31 85 32 25 33 84 34
REMARK SMILES IDX 26 35 27 36 28 37 78 38 29 39 83 40 77 41 79 42 30 43 82 44
REMARK SMILES IDX 76 45 75 46 31 48 63 49 43 50 62 51 44 52 47 53 61 54 80 55
REMARK SMILES IDX 45 56 46 57 60 59 81 60 48 61 32 62 33 63 41 64 34 65 36 66
REMARK SMILES IDX 42 67 35 68 37 69 38 70 39 71 40 72 64 73 65 74 73 75 66 76
REMARK SMILES IDX 68 77 74 78 67 79 69 80 70 81 71 82 72 83 49 84 50 85 58 86
REMARK SMILES IDX 51 87 53 88 59 89 52 90 54 91 55 92 56 93 57 94
REMARK H PARENT 13 7 20 28 79 47 47 58
REMARK Flexibility Score: inf
ROOT
ATOM      1  C   UNL A   1      33.123  28.767  24.520  1.00  0.00     0.002 C 
ENDROOT
BRANCH   1   2
ATOM      2  C   UNL A   1      33.402  27.521  23.674  1.00  0.00     0.021 C 
BRANCH   2   3
ATOM      3  C   UNL A   1      32.181  27.025  22.906  1.00  0.00     0.116 C 
BRANCH   3   4
ATOM      4  N   UNL A   1      32.542  25.973  21.975  1.00  0.00    -0.355 N 
ATOM      5  C   UNL A   1      33.097  24.757  22.246  1.00  0.00     0.239 C 
ATOM      6  O   UNL A   1      33.445  24.039  21.306  1.00  0.00    -0.273 OA
ATOM      7  H   UNL A   1      32.362  26.160  21.026  1.00  0.00     0.163 HD
BRANCH   5   8
ATOM      8  C   UNL A   1      33.269  24.299  23.698  1.00  0.00     0.218 C 
BRANCH   8   9
ATOM      9  N   UNL A   1      32.165  23.420  24.173  1.00  0.00    -0.336 N 
BRANCH   9  10
ATOM     10  C   UNL A   1      32.460  22.086  24.413  1.00  0.00     0.166 A 
ATOM     11  C   UNL A   1      33.038  21.502  25.559  1.00  0.00     0.183 A 
ATOM     12  N   UNL A   1      33.252  20.155  25.713  1.00  0.00    -0.240 NA
ATOM     13  C   UNL A   1      32.879  19.368  24.690  1.00  0.00     0.133 A 
ATOM     14  N   UNL A   1      32.136  21.231  23.402  1.00  0.00    -0.235 NA
ATOM     15  C   UNL A   1      32.336  19.899  23.549  1.00  0.00     0.133 A 
BRANCH  11  16
ATOM     16  C   UNL A   1      33.527  22.245  26.685  1.00  0.00     0.123 C 
ATOM     17  N   UNL A   1      33.929  22.806  27.618  1.00  0.00    -0.191 NA
ENDBRANCH  11  16
ENDBRANCH   9  10
BRANCH   9  18
ATOM     18  C   UNL A   1      30.898  24.125  24.523  1.00  0.00     0.234 C 
BRANCH  18  19
ATOM     19  C   UNL A   1      30.829  24.794  25.911  1.00  0.00     0.405 C 
ATOM     20  F   UNL A   1      32.001  25.363  26.263  1.00  0.00    -0.169 F 
ATOM     21  F   UNL A   1      29.883  25.761  25.925  1.00  0.00    -0.169 F 
ATOM     22  F   UNL A   1      30.499  23.907  26.875  1.00  0.00    -0.169 F 
ENDBRANCH  18  19
ENDBRANCH   9  18
ENDBRANCH   8   9
ENDBRANCH   5   8
ENDBRANCH   3   4
ENDBRANCH   2   3
ENDBRANCH   1   2
BRANCH   1  23
ATOM     23  C   UNL A   1      31.648  28.945  24.896  1.00  0.00     0.002 C 
BRANCH  23  24
ATOM     24  C   UNL A   1      31.301  30.339  25.418  1.00  0.00     0.021 C 
BRANCH  24  25
ATOM     25  C   UNL A   1      32.064  30.729  26.675  1.00  0.00     0.116 C 
BRANCH  25  26
ATOM     26  N   UNL A   1      32.016  32.166  26.916  1.00  0.00    -0.352 N 
ATOM     27  C   UNL A   1      32.913  32.952  27.602  1.00  0.00     0.251 C 
ATOM     28  H   UNL A   1      31.238  32.636  26.539  1.00  0.00     0.163 HD
ATOM     29  O   UNL A   1      32.626  34.103  27.908  1.00  0.00    -0.269 OA
BRANCH  27  30
ATOM     30  C   UNL A   1      34.210  32.363  27.993  1.00  0.00     0.039 A 
ATOM     31  C   UNL A   1      34.277  31.014  28.345  1.00  0.00     0.014 A 
ATOM     32  C   UNL A   1      35.337  33.178  28.096  1.00  0.00     0.014 A 
ATOM     33  C   UNL A   1      35.404  30.534  28.996  1.00  0.00     0.010 A 
ATOM     34  C   UNL A   1      36.510  32.660  28.650  1.00  0.00     0.010 A 
ATOM     35  C   UNL A   1      36.534  31.352  29.161  1.00  0.00    -0.014 A 
BRANCH  35  36
ATOM     36  C   UNL A   1      37.722  30.816  29.874  1.00  0.00     0.031 A 
ATOM     37  C   UNL A   1      37.987  31.166  31.316  1.00  0.00     0.074 A 
ATOM     38  C   UNL A   1      38.548  29.970  29.225  1.00  0.00     0.049 A 
ATOM     39  N   UNL A   1      38.974  30.779  32.083  1.00  0.00    -0.248 NA
ATOM     40  C   UNL A   1      37.028  32.060  31.989  1.00  0.00     0.031 C 
ATOM     41  C   UNL A   1      38.400  29.555  27.828  1.00  0.00     0.029 A 
ATOM     42  N   UNL A   1      39.668  29.303  29.652  1.00  0.00    -0.354 N 
ATOM     43  C   UNL A   1      38.782  31.411  33.305  1.00  0.00     0.074 A 
ATOM     44  C   UNL A   1      37.584  32.212  33.184  1.00  0.00     0.031 C 
ATOM     45  C   UNL A   1      39.367  28.678  27.524  1.00  0.00     0.029 A 
ATOM     46  C   UNL A   1      40.243  28.521  28.679  1.00  0.00     0.049 A 
ATOM     47  H   UNL A   1      40.023  29.376  30.567  1.00  0.00     0.167 HD
ATOM     48  C   UNL A   1      39.526  31.319  34.432  1.00  0.00     0.034 A 
ATOM     49  C   UNL A   1      41.366  27.779  28.696  1.00  0.00     0.034 A 
ATOM     50  C   UNL A   1      40.694  30.492  34.564  1.00  0.00     0.049 A 
ATOM     51  C   UNL A   1      42.184  27.713  29.949  1.00  0.00     0.074 A 
ATOM     52  C   UNL A   1      41.483  30.302  35.686  1.00  0.00     0.029 A 
ATOM     53  N   UNL A   1      41.245  29.724  33.552  1.00  0.00    -0.354 N 
ATOM     54  N   UNL A   1      41.947  28.269  31.111  1.00  0.00    -0.248 NA
ATOM     55  C   UNL A   1      43.415  26.911  29.903  1.00  0.00     0.031 C 
ATOM     56  C   UNL A   1      42.529  29.445  35.343  1.00  0.00     0.029 A 
ATOM     57  C   UNL A   1      42.370  29.070  34.018  1.00  0.00     0.049 A 
ATOM     58  H   UNL A   1      40.889  29.655  32.636  1.00  0.00     0.167 HD
ATOM     59  C   UNL A   1      42.983  27.868  31.942  1.00  0.00     0.074 A 
ATOM     60  C   UNL A   1      43.846  27.011  31.154  1.00  0.00     0.031 C 
ATOM     61  C   UNL A   1      43.199  28.188  33.239  1.00  0.00     0.034 A 
BRANCH  48  62
ATOM     62  C   UNL A   1      39.095  32.100  35.643  1.00  0.00     0.023 A 
ATOM     63  C   UNL A   1      39.316  33.490  35.686  1.00  0.00     0.012 A 
ATOM     64  C   UNL A   1      38.355  31.481  36.670  1.00  0.00     0.148 A 
ATOM     65  C   UNL A   1      38.808  34.255  36.736  1.00  0.00     0.002 A 
ATOM     66  C   UNL A   1      37.829  32.253  37.699  1.00  0.00     0.091 A 
ATOM     67  F   UNL A   1      38.162  30.156  36.607  1.00  0.00    -0.205 F 
ATOM     68  C   UNL A   1      38.055  33.640  37.733  1.00  0.00     0.022 A 
BRANCH  66  69
ATOM     69  S   UNL A   1      36.811  31.568  39.010  1.00  0.00     0.127 S 
ATOM     70  O   UNL A   1      37.754  31.542  40.128  1.00  0.00    -0.237 OA
ATOM     71  O   UNL A   1      35.751  32.568  39.129  1.00  0.00    -0.237 OA
ATOM     72  O   UNL A   1      36.374  30.260  38.542  1.00  0.00    -0.744 OA
ENDBRANCH  66  69
ENDBRANCH  48  62
BRANCH  49  73
ATOM     73  C   UNL A   1      41.750  27.022  27.474  1.00  0.00     0.023 A 
ATOM     74  C   UNL A   1      42.316  27.710  26.386  1.00  0.00     0.012 A 
ATOM     75  C   UNL A   1      41.634  25.619  27.426  1.00  0.00     0.148 A 
ATOM     76  C   UNL A   1      42.764  27.010  25.265  1.00  0.00     0.002 A 
ATOM     77  C   UNL A   1      42.112  24.927  26.323  1.00  0.00     0.091 A 
ATOM     78  F   UNL A   1      41.097  24.993  28.483  1.00  0.00    -0.205 F 
ATOM     79  C   UNL A   1      42.671  25.620  25.238  1.00  0.00     0.022 A 
BRANCH  77  80
ATOM     80  S   UNL A   1      42.112  23.133  26.230  1.00  0.00     0.127 S 
ATOM     81  O   UNL A   1      42.926  22.777  27.390  1.00  0.00    -0.237 OA
ATOM     82  O   UNL A   1      40.687  22.829  26.359  1.00  0.00    -0.237 OA
ATOM     83  O   UNL A   1      42.692  22.801  24.937  1.00  0.00    -0.744 OA
ENDBRANCH  77  80
ENDBRANCH  49  73
BRANCH  61  84
ATOM     84  C   UNL A   1      44.398  27.599  33.929  1.00  0.00     0.023 A 
ATOM     85  C   UNL A   1      45.567  28.369  34.072  1.00  0.00     0.012 A 
ATOM     86  C   UNL A   1      44.308  26.340  34.556  1.00  0.00     0.148 A 
ATOM     87  C   UNL A   1      46.635  27.891  34.830  1.00  0.00     0.002 A 
ATOM     88  C   UNL A   1      45.363  25.886  35.337  1.00  0.00     0.091 A 
ATOM     89  F   UNL A   1      43.181  25.631  34.400  1.00  0.00    -0.205 F 
ATOM     90  C   UNL A   1      46.527  26.660  35.474  1.00  0.00     0.022 A 
BRANCH  88  91
ATOM     91  S   UNL A   1      45.294  24.342  36.250  1.00  0.00     0.127 S 
ATOM     92  O   UNL A   1      46.499  23.663  35.774  1.00  0.00    -0.237 OA
ATOM     93  O   UNL A   1      45.360  24.802  37.638  1.00  0.00    -0.237 OA
ATOM     94  O   UNL A   1      44.039  23.702  35.877  1.00  0.00    -0.744 OA
ENDBRANCH  88  91
ENDBRANCH  61  84
ENDBRANCH  35  36
ENDBRANCH  27  30
ENDBRANCH  25  26
ENDBRANCH  24  25
ENDBRANCH  23  24
ENDBRANCH   1  23
TORSDOF 21
ENDMDL
MODEL 2
REMARK VINA RESULT:     -10.8      1.874      7.686
REMARK SMILES N#Cc1nccnc1N(CC(=O)NCCCCCCNC(=O)c1ccc(-c2c3nc(c(-c4cccc(S(=O)(=O)[O-])c4F)c4ccc([nH]4)c(-c4cccc(S(=O)(=O)[O-])c4F)c4nc(c(-c5cccc(S(=O)(=O)[O-])c5F)c5ccc2[nH]5)C=C4)C=C3)cc1)CC(F)(F)F
REMARK SMILES IDX 16 1 15 2 14 3 13 4 11 5 12 6 10 8 9 9 8 10 3 11 4 12 5 13
REMARK SMILES IDX 7 14 6 15 2 16 1 17 86 18 87 19 88 20 89 21 90 22 17 23
REMARK SMILES IDX 18 24 19 25 20 26 21 27 22 29 23 30 24 31 85 32 25 33 84 34
REMARK SMILES IDX 26 35 27 36 28 37 78 38 29 39 83 40 77 41 79 42 30 43 82 44
REMARK SMILES IDX 76 45 75 46 31 48 63 49 43 50 62 51 44 52 47 53 61 54 80 55
REMARK SMILES IDX 45 56 46 57 60 59 81 60 48 61 32 62 33 63 41 64 34 65 36 66
REMARK SMILES IDX 42 67 35 68 37 69 38 70 39 71 40 72 64 73 65 74 73 75 66 76
REMARK SMILES IDX 68 77 74 78 67 79 69 80 70 81 71 82 72 83 49 84 50 85 58 86
REMARK SMILES IDX 51 87 53 88 59 89 52 90 54 91 55 92 56 93 57 94
REMARK H PARENT 13 7 20 28 79 47 47 58
REMARK Flexibility Score: inf
ROOT
ATOM      1  C   UNL A   1      33.106  27.133  24.883  1.00  0.00     0.002 C 
ENDROOT
BRANCH   1   2
ATOM      2  C   UNL A   1      32.511  26.829  23.505  1.00  0.00     0.021 C 
BRANCH   2   3
ATOM      3  C   UNL A   1      31.604  25.602  23.495  1.00  0.00     0.116 C 
BRANCH   3   4
ATOM      4  N   UNL A   1      32.019  24.654  22.480  1.00  0.00    -0.355 N 
ATOM      5  C   UNL A   1      33.146  23.885  22.449  1.00  0.00     0.239 C 
ATOM      6  O   UNL A   1      33.387  23.223  21.436  1.00  0.00    -0.273 OA
ATOM      7  H   UNL A   1      31.409  24.551  21.714  1.00  0.00     0.163 HD
BRANCH   5   8
ATOM      8  C   UNL A   1      34.081  23.846  23.661  1.00  0.00     0.218 C 
BRANCH   8   9
ATOM      9  N   UNL A   1      33.824  22.694  24.567  1.00  0.00    -0.336 N 
BRANCH   9  10
ATOM     10  C   UNL A   1      34.822  21.738  24.693  1.00  0.00     0.166 A 
ATOM     11  C   UNL A   1      34.693  20.340  24.831  1.00  0.00     0.183 A 
ATOM     12  N   UNL A   1      35.754  19.473  24.907  1.00  0.00    -0.240 NA
ATOM     13  C   UNL A   1      36.980  20.017  24.845  1.00  0.00     0.133 A 
ATOM     14  N   UNL A   1      36.095  22.224  24.669  1.00  0.00    -0.235 NA
ATOM     15  C   UNL A   1      37.148  21.373  24.736  1.00  0.00     0.133 A 
BRANCH  11  16
ATOM     16  C   UNL A   1      33.441  19.654  24.967  1.00  0.00     0.123 C 
ATOM     17  N   UNL A   1      32.417  19.126  25.113  1.00  0.00    -0.191 NA
ENDBRANCH  11  16
ENDBRANCH   9  10
BRANCH   9  18
ATOM     18  C   UNL A   1      32.585  22.797  25.392  1.00  0.00     0.234 C 
BRANCH  18  19
ATOM     19  C   UNL A   1      32.705  23.523  26.747  1.00  0.00     0.405 C 
ATOM     20  F   UNL A   1      33.592  24.540  26.705  1.00  0.00    -0.169 F 
ATOM     21  F   UNL A   1      31.509  24.037  27.117  1.00  0.00    -0.169 F 
ATOM     22  F   UNL A   1      33.093  22.682  27.730  1.00  0.00    -0.169 F 
ENDBRANCH  18  19
ENDBRANCH   9  18
ENDBRANCH   8   9
ENDBRANCH   5   8
ENDBRANCH   3   4
ENDBRANCH   2   3
ENDBRANCH   1   2
BRANCH   1  23
ATOM     23  C   UNL A   1      32.060  27.467  25.952  1.00  0.00     0.002 C 
BRANCH  23  24
ATOM     24  C   UNL A   1      31.620  28.929  25.959  1.00  0.00     0.021 C 
BRANCH  24  25
ATOM     25  C   UNL A   1      32.757  29.913  25.724  1.00  0.00     0.116 C 
BRANCH  25  26
ATOM     26  N   UNL A   1      32.429  31.248  26.207  1.00  0.00    -0.352 N 
ATOM     27  C   UNL A   1      33.082  32.003  27.153  1.00  0.00     0.251 C 
ATOM     28  H   UNL A   1      31.636  31.665  25.801  1.00  0.00     0.163 HD
ATOM     29  O   UNL A   1      32.563  33.015  27.610  1.00  0.00    -0.269 OA
BRANCH  27  30
ATOM     30  C   UNL A   1      34.402  31.545  27.632  1.00  0.00     0.039 A 
ATOM     31  C   UNL A   1      34.584  30.204  27.975  1.00  0.00     0.014 A 
ATOM     32  C   UNL A   1      35.429  32.470  27.823  1.00  0.00     0.014 A 
ATOM     33  C   UNL A   1      35.705  29.833  28.702  1.00  0.00     0.010 A 
ATOM     34  C   UNL A   1      36.606  32.066  28.456  1.00  0.00     0.010 A 
ATOM     35  C   UNL A   1      36.730  30.760  28.956  1.00  0.00    -0.014 A 
BRANCH  35  36
ATOM     36  C   UNL A   1      37.914  30.337  29.749  1.00  0.00     0.031 A 
ATOM     37  C   UNL A   1      38.933  29.385  29.177  1.00  0.00     0.074 A 
ATOM     38  C   UNL A   1      38.091  30.849  30.983  1.00  0.00     0.049 A 
ATOM     39  N   UNL A   1      40.021  28.921  29.735  1.00  0.00    -0.248 NA
ATOM     40  C   UNL A   1      38.711  28.890  27.806  1.00  0.00     0.031 C 
ATOM     41  C   UNL A   1      37.175  31.778  31.649  1.00  0.00     0.029 A 
ATOM     42  N   UNL A   1      39.101  30.671  31.894  1.00  0.00    -0.354 N 
ATOM     43  C   UNL A   1      40.587  28.053  28.810  1.00  0.00     0.074 A 
ATOM     44  C   UNL A   1      39.724  28.047  27.650  1.00  0.00     0.031 C 
ATOM     45  C   UNL A   1      37.680  32.116  32.844  1.00  0.00     0.029 A 
ATOM     46  C   UNL A   1      38.919  31.377  33.059  1.00  0.00     0.049 A 
ATOM     47  H   UNL A   1      39.881  30.093  31.728  1.00  0.00     0.167 HD
ATOM     48  C   UNL A   1      41.732  27.338  28.911  1.00  0.00     0.034 A 
ATOM     49  C   UNL A   1      39.646  31.412  34.191  1.00  0.00     0.034 A 
ATOM     50  C   UNL A   1      42.610  27.373  30.048  1.00  0.00     0.049 A 
ATOM     51  C   UNL A   1      40.897  30.591  34.285  1.00  0.00     0.074 A 
ATOM     52  C   UNL A   1      43.817  26.715  30.216  1.00  0.00     0.029 A 
ATOM     53  N   UNL A   1      42.383  28.095  31.208  1.00  0.00    -0.354 N 
ATOM     54  N   UNL A   1      41.445  29.828  33.373  1.00  0.00    -0.248 NA
ATOM     55  C   UNL A   1      41.638  30.645  35.553  1.00  0.00     0.031 C 
ATOM     56  C   UNL A   1      44.303  27.014  31.489  1.00  0.00     0.029 A 
ATOM     57  C   UNL A   1      43.418  27.889  32.101  1.00  0.00     0.049 A 
ATOM     58  H   UNL A   1      41.600  28.669  31.373  1.00  0.00     0.167 HD
ATOM     59  C   UNL A   1      42.606  29.327  33.945  1.00  0.00     0.074 A 
ATOM     60  C   UNL A   1      42.689  29.883  35.281  1.00  0.00     0.031 C 
ATOM     61  C   UNL A   1      43.514  28.477  33.410  1.00  0.00     0.034 A 
BRANCH  48  62
ATOM     62  C   UNL A   1      42.142  26.471  27.752  1.00  0.00     0.023 A 
ATOM     63  C   UNL A   1      43.016  26.987  26.776  1.00  0.00     0.012 A 
ATOM     64  C   UNL A   1      41.771  25.112  27.706  1.00  0.00     0.148 A 
ATOM     65  C   UNL A   1      43.515  26.163  25.767  1.00  0.00     0.002 A 
ATOM     66  C   UNL A   1      42.294  24.291  26.714  1.00  0.00     0.091 A 
ATOM     67  F   UNL A   1      40.936  24.647  28.646  1.00  0.00    -0.205 F 
ATOM     68  C   UNL A   1      43.164  24.815  25.744  1.00  0.00     0.022 A 
BRANCH  66  69
ATOM     69  S   UNL A   1      41.939  22.533  26.617  1.00  0.00     0.127 S 
ATOM     70  O   UNL A   1      40.489  22.517  26.806  1.00  0.00    -0.237 OA
ATOM     71  O   UNL A   1      42.382  22.206  25.262  1.00  0.00    -0.237 OA
ATOM     72  O   UNL A   1      42.707  21.905  27.683  1.00  0.00    -0.744 OA
ENDBRANCH  66  69
ENDBRANCH  48  62
BRANCH  49  73
ATOM     73  C   UNL A   1      39.201  32.285  35.309  1.00  0.00     0.023 A 
ATOM     74  C   UNL A   1      38.322  31.771  36.279  1.00  0.00     0.012 A 
ATOM     75  C   UNL A   1      39.715  33.588  35.457  1.00  0.00     0.148 A 
ATOM     76  C   UNL A   1      37.960  32.543  37.383  1.00  0.00     0.002 A 
ATOM     77  C   UNL A   1      39.378  34.338  36.576  1.00  0.00     0.091 A 
ATOM     78  F   UNL A   1      40.557  34.046  34.520  1.00  0.00    -0.205 F 
ATOM     79  C   UNL A   1      38.495  33.820  37.536  1.00  0.00     0.022 A 
BRANCH  77  80
ATOM     80  S   UNL A   1      40.079  35.959  36.903  1.00  0.00     0.127 S 
ATOM     81  O   UNL A   1      41.498  35.644  37.047  1.00  0.00    -0.237 OA
ATOM     82  O   UNL A   1      39.728  36.686  35.682  1.00  0.00    -0.237 OA
ATOM     83  O   UNL A   1      39.422  36.441  38.109  1.00  0.00    -0.744 OA
ENDBRANCH  77  80
ENDBRANCH  49  73
BRANCH  61  84
ATOM     84  C   UNL A   1      44.710  28.100  34.238  1.00  0.00     0.023 A 
ATOM     85  C   UNL A   1      45.871  28.893  34.186  1.00  0.00     0.012 A 
ATOM     86  C   UNL A   1      44.624  27.046  35.170  1.00  0.00     0.148 A 
ATOM     87  C   UNL A   1      46.934  28.640  35.051  1.00  0.00     0.002 A 
ATOM     88  C   UNL A   1      45.674  26.821  36.050  1.00  0.00     0.091 A 
ATOM     89  F   UNL A   1      43.504  26.308  35.194  1.00  0.00    -0.205 F 
ATOM     90  C   UNL A   1      46.831  27.617  35.991  1.00  0.00     0.022 A 
BRANCH  88  91
ATOM     91  S   UNL A   1      45.610  25.566  37.332  1.00  0.00     0.127 S 
ATOM     92  O   UNL A   1      45.367  24.355  36.549  1.00  0.00    -0.237 OA
ATOM     93  O   UNL A   1      46.947  25.657  37.919  1.00  0.00    -0.237 OA
ATOM     94  O   UNL A   1      44.523  25.950  38.225  1.00  0.00    -0.744 OA
ENDBRANCH  88  91
ENDBRANCH  61  84
ENDBRANCH  35  36
ENDBRANCH  27  30
ENDBRANCH  25  26
ENDBRANCH  24  25
ENDBRANCH  23  24
ENDBRANCH   1  23
TORSDOF 21
ENDMDL
MODEL 3
REMARK VINA RESULT:     -10.7      5.069      8.157
REMARK SMILES N#Cc1nccnc1N(CC(=O)NCCCCCCNC(=O)c1ccc(-c2c3nc(c(-c4cccc(S(=O)(=O)[O-])c4F)c4ccc([nH]4)c(-c4cccc(S(=O)(=O)[O-])c4F)c4nc(c(-c5cccc(S(=O)(=O)[O-])c5F)c5ccc2[nH]5)C=C4)C=C3)cc1)CC(F)(F)F
REMARK SMILES IDX 16 1 15 2 14 3 13 4 11 5 12 6 10 8 9 9 8 10 3 11 4 12 5 13
REMARK SMILES IDX 7 14 6 15 2 16 1 17 86 18 87 19 88 20 89 21 90 22 17 23
REMARK SMILES IDX 18 24 19 25 20 26 21 27 22 29 23 30 24 31 85 32 25 33 84 34
REMARK SMILES IDX 26 35 27 36 28 37 78 38 29 39 83 40 77 41 79 42 30 43 82 44
REMARK SMILES IDX 76 45 75 46 31 48 63 49 43 50 62 51 44 52 47 53 61 54 80 55
REMARK SMILES IDX 45 56 46 57 60 59 81 60 48 61 32 62 33 63 41 64 34 65 36 66
REMARK SMILES IDX 42 67 35 68 37 69 38 70 39 71 40 72 64 73 65 74 73 75 66 76
REMARK SMILES IDX 68 77 74 78 67 79 69 80 70 81 71 82 72 83 49 84 50 85 58 86
REMARK SMILES IDX 51 87 53 88 59 89 52 90 54 91 55 92 56 93 57 94
REMARK H PARENT 13 7 20 28 79 47 47 58
REMARK Flexibility Score: inf
ROOT
ATOM      1  C   UNL A   1      34.255  23.256  24.849  1.00  0.00     0.002 C 
ENDROOT
BRANCH   1   2
ATOM      2  C   UNL A   1      33.525  22.180  24.040  1.00  0.00     0.021 C 
BRANCH   2   3
ATOM      3  C   UNL A   1      32.707  22.744  22.882  1.00  0.00     0.116 C 
BRANCH   3   4
ATOM      4  N   UNL A   1      33.342  23.918  22.317  1.00  0.00    -0.355 N 
ATOM      5  C   UNL A   1      32.812  25.162  22.132  1.00  0.00     0.239 C 
ATOM      6  O   UNL A   1      33.474  26.006  21.522  1.00  0.00    -0.273 OA
ATOM      7  H   UNL A   1      34.277  23.804  22.032  1.00  0.00     0.163 HD
BRANCH   5   8
ATOM      8  C   UNL A   1      31.423  25.494  22.687  1.00  0.00     0.218 C 
BRANCH   8   9
ATOM      9  N   UNL A   1      31.455  26.475  23.805  1.00  0.00    -0.336 N 
BRANCH   9  10
ATOM     10  C   UNL A   1      30.863  27.712  23.594  1.00  0.00     0.166 A 
ATOM     11  C   UNL A   1      30.942  28.876  24.387  1.00  0.00     0.183 A 
ATOM     12  N   UNL A   1      30.347  30.070  24.063  1.00  0.00    -0.240 NA
ATOM     13  C   UNL A   1      29.651  30.103  22.915  1.00  0.00     0.133 A 
ATOM     14  N   UNL A   1      30.114  27.809  22.458  1.00  0.00    -0.235 NA
ATOM     15  C   UNL A   1      29.530  28.987  22.128  1.00  0.00     0.133 A 
BRANCH  11  16
ATOM     16  C   UNL A   1      31.605  28.944  25.657  1.00  0.00     0.123 C 
ATOM     17  N   UNL A   1      32.146  29.045  26.679  1.00  0.00    -0.191 NA
ENDBRANCH  11  16
ENDBRANCH   9  10
BRANCH   9  18
ATOM     18  C   UNL A   1      31.957  25.943  25.105  1.00  0.00     0.234 C 
BRANCH  18  19
ATOM     19  C   UNL A   1      31.036  24.968  25.864  1.00  0.00     0.405 C 
ATOM     20  F   UNL A   1      29.962  25.589  26.398  1.00  0.00    -0.169 F 
ATOM     21  F   UNL A   1      30.579  24.001  25.034  1.00  0.00    -0.169 F 
ATOM     22  F   UNL A   1      31.689  24.345  26.870  1.00  0.00    -0.169 F 
ENDBRANCH  18  19
ENDBRANCH   9  18
ENDBRANCH   8   9
ENDBRANCH   5   8
ENDBRANCH   3   4
ENDBRANCH   2   3
ENDBRANCH   1   2
BRANCH   1  23
ATOM     23  C   UNL A   1      35.549  22.768  25.509  1.00  0.00     0.002 C 
BRANCH  23  24
ATOM     24  C   UNL A   1      36.005  21.387  25.042  1.00  0.00     0.021 C 
BRANCH  24  25
ATOM     25  C   UNL A   1      37.432  21.361  24.512  1.00  0.00     0.116 C 
BRANCH  25  26
ATOM     26  N   UNL A   1      38.187  20.231  25.038  1.00  0.00    -0.352 N 
ATOM     27  C   UNL A   1      39.312  20.244  25.828  1.00  0.00     0.251 C 
ATOM     28  H   UNL A   1      37.846  19.340  24.795  1.00  0.00     0.163 HD
ATOM     29  O   UNL A   1      39.959  19.219  26.009  1.00  0.00    -0.269 OA
BRANCH  27  30
ATOM     30  C   UNL A   1      39.741  21.527  26.421  1.00  0.00     0.039 A 
ATOM     31  C   UNL A   1      39.051  22.698  26.103  1.00  0.00     0.014 A 
ATOM     32  C   UNL A   1      40.886  21.573  27.217  1.00  0.00     0.014 A 
ATOM     33  C   UNL A   1      39.621  23.927  26.402  1.00  0.00     0.010 A 
ATOM     34  C   UNL A   1      41.396  22.812  27.613  1.00  0.00     0.010 A 
ATOM     35  C   UNL A   1      40.804  24.001  27.157  1.00  0.00    -0.014 A 
BRANCH  35  36
ATOM     36  C   UNL A   1      41.398  25.331  27.450  1.00  0.00     0.031 A 
ATOM     37  C   UNL A   1      40.624  26.378  28.209  1.00  0.00     0.074 A 
ATOM     38  C   UNL A   1      42.665  25.581  27.062  1.00  0.00     0.049 A 
ATOM     39  N   UNL A   1      40.999  27.584  28.550  1.00  0.00    -0.248 NA
ATOM     40  C   UNL A   1      39.259  26.035  28.647  1.00  0.00     0.031 C 
ATOM     41  C   UNL A   1      43.518  24.650  26.319  1.00  0.00     0.029 A 
ATOM     42  N   UNL A   1      43.459  26.684  27.243  1.00  0.00    -0.354 N 
ATOM     43  C   UNL A   1      39.911  28.156  29.197  1.00  0.00     0.074 A 
ATOM     44  C   UNL A   1      38.855  27.169  29.204  1.00  0.00     0.031 C 
ATOM     45  C   UNL A   1      44.725  25.204  26.140  1.00  0.00     0.029 A 
ATOM     46  C   UNL A   1      44.711  26.554  26.691  1.00  0.00     0.049 A 
ATOM     47  H   UNL A   1      43.161  27.491  27.722  1.00  0.00     0.167 HD
ATOM     48  C   UNL A   1      39.808  29.387  29.751  1.00  0.00     0.034 A 
ATOM     49  C   UNL A   1      45.733  27.427  26.609  1.00  0.00     0.034 A 
ATOM     50  C   UNL A   1      40.871  30.354  29.779  1.00  0.00     0.049 A 
ATOM     51  C   UNL A   1      45.582  28.791  27.211  1.00  0.00     0.074 A 
ATOM     52  C   UNL A   1      40.867  31.610  30.361  1.00  0.00     0.029 A 
ATOM     53  N   UNL A   1      42.118  30.183  29.202  1.00  0.00    -0.354 N 
ATOM     54  N   UNL A   1      44.567  29.286  27.873  1.00  0.00    -0.248 NA
ATOM     55  C   UNL A   1      46.718  29.713  27.068  1.00  0.00     0.031 C 
ATOM     56  C   UNL A   1      42.101  32.211  30.109  1.00  0.00     0.029 A 
ATOM     57  C   UNL A   1      42.887  31.314  29.403  1.00  0.00     0.049 A 
ATOM     58  H   UNL A   1      42.413  29.376  28.720  1.00  0.00     0.167 HD
ATOM     59  C   UNL A   1      44.946  30.568  28.247  1.00  0.00     0.074 A 
ATOM     60  C   UNL A   1      46.291  30.770  27.747  1.00  0.00     0.031 C 
ATOM     61  C   UNL A   1      44.238  31.491  28.937  1.00  0.00     0.034 A 
BRANCH  48  62
ATOM     62  C   UNL A   1      38.513  29.769  30.415  1.00  0.00     0.023 A 
ATOM     63  C   UNL A   1      38.284  29.398  31.754  1.00  0.00     0.012 A 
ATOM     64  C   UNL A   1      37.590  30.608  29.757  1.00  0.00     0.148 A 
ATOM     65  C   UNL A   1      37.152  29.853  32.430  1.00  0.00     0.002 A 
ATOM     66  C   UNL A   1      36.479  31.079  30.446  1.00  0.00     0.091 A 
ATOM     67  F   UNL A   1      37.830  30.944  28.482  1.00  0.00    -0.205 F 
ATOM     68  C   UNL A   1      36.258  30.702  31.781  1.00  0.00     0.022 A 
BRANCH  66  69
ATOM     69  S   UNL A   1      35.288  32.210  29.718  1.00  0.00     0.127 S 
ATOM     70  O   UNL A   1      34.430  32.506  30.864  1.00  0.00    -0.237 OA
ATOM     71  O   UNL A   1      36.141  33.319  29.292  1.00  0.00    -0.237 OA
ATOM     72  O   UNL A   1      34.643  31.479  28.638  1.00  0.00    -0.744 OA
ENDBRANCH  66  69
ENDBRANCH  48  62
BRANCH  49  73
ATOM     73  C   UNL A   1      46.994  27.002  25.945  1.00  0.00     0.023 A 
ATOM     74  C   UNL A   1      47.167  27.249  24.571  1.00  0.00     0.012 A 
ATOM     75  C   UNL A   1      48.048  26.437  26.689  1.00  0.00     0.148 A 
ATOM     76  C   UNL A   1      48.375  26.938  23.946  1.00  0.00     0.002 A 
ATOM     77  C   UNL A   1      49.258  26.163  26.068  1.00  0.00     0.091 A 
ATOM     78  F   UNL A   1      47.854  26.222  27.997  1.00  0.00    -0.205 F 
ATOM     79  C   UNL A   1      49.422  26.406  24.695  1.00  0.00     0.022 A 
BRANCH  77  80
ATOM     80  S   UNL A   1      50.691  25.553  26.964  1.00  0.00     0.127 S 
ATOM     81  O   UNL A   1      51.675  25.419  25.892  1.00  0.00    -0.237 OA
ATOM     82  O   UNL A   1      50.943  26.648  27.901  1.00  0.00    -0.237 OA
ATOM     83  O   UNL A   1      50.271  24.304  27.584  1.00  0.00    -0.744 OA
ENDBRANCH  77  80
ENDBRANCH  49  73
BRANCH  61  84
ATOM     84  C   UNL A   1      44.890  32.812  29.235  1.00  0.00     0.023 A 
ATOM     85  C   UNL A   1      45.779  32.920  30.321  1.00  0.00     0.012 A 
ATOM     86  C   UNL A   1      44.729  33.898  28.352  1.00  0.00     0.148 A 
ATOM     87  C   UNL A   1      46.499  34.095  30.525  1.00  0.00     0.002 A 
ATOM     88  C   UNL A   1      45.475  35.054  28.544  1.00  0.00     0.091 A 
ATOM     89  F   UNL A   1      43.874  33.765  27.328  1.00  0.00    -0.205 F 
ATOM     90  C   UNL A   1      46.359  35.155  29.631  1.00  0.00     0.022 A 
BRANCH  88  91
ATOM     91  S   UNL A   1      45.406  36.448  27.414  1.00  0.00     0.127 S 
ATOM     92  O   UNL A   1      43.964  36.618  27.241  1.00  0.00    -0.237 OA
ATOM     93  O   UNL A   1      46.059  37.504  28.188  1.00  0.00    -0.237 OA
ATOM     94  O   UNL A   1      46.125  36.036  26.215  1.00  0.00    -0.744 OA
ENDBRANCH  88  91
ENDBRANCH  61  84
ENDBRANCH  35  36
ENDBRANCH  27  30
ENDBRANCH  25  26
ENDBRANCH  24  25
ENDBRANCH  23  24
ENDBRANCH   1  23
TORSDOF 21
ENDMDL
