MODEL 1
REMARK VINA RESULT:     -11.5      0.000      0.000
REMARK SMILES C[C@@H]1[C@@H](C(=O)NCCCCCCNC(=O)c2ccc(-c3c4nc(c(-c5cccc(S(=O)(=O)[O-])c5F)c5ccc([nH]5)c(-c5cccc(S(=O)(=O)[O-])c5F)c5nc(c(-c6cccc(S(=O)(=O)[O-])c6F)c6ccc3[nH]6)C=C5)C=C4)cc2)CCN1c1nc2sccn2c1[N+](=O)[O-]
REMARK SMILES IDX 10 1 9 2 8 3 7 4 6 5 4 6 5 7 3 9 1 10 2 11 81 12 79 13 80 14
REMARK SMILES IDX 82 15 83 16 89 17 84 18 88 19 85 20 87 21 86 22 90 23 91 24
REMARK SMILES IDX 92 25 11 26 12 27 13 28 14 29 15 31 16 32 17 33 78 34 18 35
REMARK SMILES IDX 77 36 19 37 20 38 21 39 71 40 22 41 76 42 70 43 72 44 23 45
REMARK SMILES IDX 75 46 69 47 68 48 24 50 56 51 36 52 55 53 37 54 40 55 54 56
REMARK SMILES IDX 73 57 38 58 39 59 53 61 74 62 41 63 25 64 26 65 34 66 27 67
REMARK SMILES IDX 29 68 35 69 28 70 30 71 31 72 32 73 33 74 57 75 58 76 66 77
REMARK SMILES IDX 59 78 61 79 67 80 60 81 62 82 63 83 64 84 65 85 42 86 43 87
REMARK SMILES IDX 51 88 44 89 46 90 52 91 45 92 47 93 48 94 49 95 50 96
REMARK H PARENT 6 8 13 30 72 49 40 60
REMARK Flexibility Score: inf
ROOT
ATOM      1  C   UNL A   1      35.675  20.656  25.345  1.00  0.00     0.002 C 
ENDROOT
BRANCH   1   2
ATOM      2  C   UNL A   1      34.892  19.565  24.612  1.00  0.00     0.002 C 
BRANCH   2   3
ATOM      3  C   UNL A   1      33.600  19.085  25.285  1.00  0.00     0.021 C 
BRANCH   3   4
ATOM      4  C   UNL A   1      32.302  19.491  24.594  1.00  0.00     0.116 C 
BRANCH   4   5
ATOM      5  N   UNL A   1      32.447  20.684  23.789  1.00  0.00    -0.356 N 
ATOM      6  C   UNL A   1      32.348  21.995  24.142  1.00  0.00     0.225 C 
ATOM      7  O   UNL A   1      32.521  22.820  23.244  1.00  0.00    -0.275 OA
ATOM      8  H   UNL A   1      32.647  20.523  22.839  1.00  0.00     0.163 HD
BRANCH   6   9
ATOM      9  C   UNL A   1      31.947  22.384  25.567  1.00  0.00     0.102 C 
ATOM     10  C   UNL A   1      30.049  23.611  26.739  1.00  0.00     0.032 C 
ATOM     11  C   UNL A   1      31.017  23.621  25.553  1.00  0.00     0.093 C 
ATOM     12  N   UNL A   1      31.948  24.766  25.665  1.00  0.00    -0.346 N 
ATOM     13  C   UNL A   1      33.100  22.875  26.443  1.00  0.00     0.037 C 
ATOM     14  C   UNL A   1      33.290  24.316  25.992  1.00  0.00     0.119 C 
BRANCH  12  15
ATOM     15  C   UNL A   1      31.612  25.998  25.216  1.00  0.00     0.229 A 
ATOM     16  N   UNL A   1      31.010  26.095  23.973  1.00  0.00    -0.173 NA
ATOM     17  C   UNL A   1      31.722  27.252  25.795  1.00  0.00     0.373 A 
ATOM     18  C   UNL A   1      30.782  27.369  23.834  1.00  0.00     0.286 A 
ATOM     19  N   UNL A   1      31.182  28.122  24.895  1.00  0.00    -0.166 N 
ATOM     20  S   UNL A   1      30.063  28.343  22.589  1.00  0.00    -0.078 S 
ATOM     21  C   UNL A   1      30.948  29.478  24.762  1.00  0.00     0.220 A 
ATOM     22  C   UNL A   1      30.352  29.770  23.593  1.00  0.00     0.114 A 
BRANCH  17  23
ATOM     23  N   UNL A   1      32.250  27.725  27.011  1.00  0.00    -0.023 N 
ATOM     24  O   UNL A   1      31.480  27.844  27.967  1.00  0.00    -0.358 OA
ATOM     25  O   UNL A   1      33.470  27.930  27.043  1.00  0.00    -0.358 OA
ENDBRANCH  17  23
ENDBRANCH  12  15
ENDBRANCH   6   9
ENDBRANCH   4   5
ENDBRANCH   3   4
ENDBRANCH   2   3
ENDBRANCH   1   2
BRANCH   1  26
ATOM     26  C   UNL A   1      36.398  21.675  24.463  1.00  0.00     0.021 C 
BRANCH  26  27
ATOM     27  C   UNL A   1      37.696  22.243  25.028  1.00  0.00     0.116 C 
BRANCH  27  28
ATOM     28  N   UNL A   1      38.511  21.243  25.695  1.00  0.00    -0.352 N 
ATOM     29  C   UNL A   1      39.615  21.406  26.494  1.00  0.00     0.251 C 
ATOM     30  H   UNL A   1      38.230  20.310  25.553  1.00  0.00     0.163 HD
ATOM     31  O   UNL A   1      40.241  20.419  26.868  1.00  0.00    -0.269 OA
BRANCH  29  32
ATOM     32  C   UNL A   1      40.070  22.762  26.883  1.00  0.00     0.039 A 
ATOM     33  C   UNL A   1      40.968  22.882  27.948  1.00  0.00     0.014 A 
ATOM     34  C   UNL A   1      39.604  23.908  26.233  1.00  0.00     0.014 A 
ATOM     35  C   UNL A   1      41.431  24.144  28.329  1.00  0.00     0.010 A 
ATOM     36  C   UNL A   1      40.124  25.158  26.566  1.00  0.00     0.010 A 
ATOM     37  C   UNL A   1      41.033  25.293  27.625  1.00  0.00    -0.014 A 
BRANCH  37  38
ATOM     38  C   UNL A   1      41.560  26.633  27.993  1.00  0.00     0.031 A 
ATOM     39  C   UNL A   1      42.985  27.008  27.681  1.00  0.00     0.074 A 
ATOM     40  C   UNL A   1      40.770  27.497  28.663  1.00  0.00     0.049 A 
ATOM     41  N   UNL A   1      43.615  28.128  27.929  1.00  0.00    -0.248 NA
ATOM     42  C   UNL A   1      43.818  25.987  27.025  1.00  0.00     0.031 C 
ATOM     43  C   UNL A   1      39.399  27.225  29.098  1.00  0.00     0.029 A 
ATOM     44  N   UNL A   1      41.014  28.770  29.113  1.00  0.00    -0.354 N 
ATOM     45  C   UNL A   1      44.920  27.936  27.492  1.00  0.00     0.074 A 
ATOM     46  C   UNL A   1      45.003  26.580  26.995  1.00  0.00     0.031 C 
ATOM     47  C   UNL A   1      38.919  28.302  29.742  1.00  0.00     0.029 A 
ATOM     48  C   UNL A   1      39.954  29.330  29.788  1.00  0.00     0.049 A 
ATOM     49  H   UNL A   1      41.867  29.240  28.967  1.00  0.00     0.167 HD
ATOM     50  C   UNL A   1      45.949  28.817  27.473  1.00  0.00     0.034 A 
ATOM     51  C   UNL A   1      39.828  30.535  30.379  1.00  0.00     0.034 A 
ATOM     52  C   UNL A   1      45.854  30.178  27.926  1.00  0.00     0.049 A 
ATOM     53  C   UNL A   1      40.973  31.510  30.306  1.00  0.00     0.074 A 
ATOM     54  C   UNL A   1      46.812  31.175  27.863  1.00  0.00     0.029 A 
ATOM     55  N   UNL A   1      44.739  30.735  28.533  1.00  0.00    -0.354 N 
ATOM     56  N   UNL A   1      42.144  31.366  29.735  1.00  0.00    -0.248 NA
ATOM     57  C   UNL A   1      40.765  32.826  30.926  1.00  0.00     0.031 C 
ATOM     58  C   UNL A   1      46.285  32.327  28.456  1.00  0.00     0.029 A 
ATOM     59  C   UNL A   1      44.988  32.057  28.862  1.00  0.00     0.049 A 
ATOM     60  H   UNL A   1      43.894  30.260  28.705  1.00  0.00     0.167 HD
ATOM     61  C   UNL A   1      42.799  32.581  29.897  1.00  0.00     0.074 A 
ATOM     62  C   UNL A   1      41.883  33.459  30.596  1.00  0.00     0.031 C 
ATOM     63  C   UNL A   1      44.052  32.935  29.516  1.00  0.00     0.034 A 
BRANCH  50  64
ATOM     64  C   UNL A   1      47.259  28.352  26.889  1.00  0.00     0.023 A 
ATOM     65  C   UNL A   1      48.340  28.065  27.748  1.00  0.00     0.012 A 
ATOM     66  C   UNL A   1      47.404  28.140  25.504  1.00  0.00     0.148 A 
ATOM     67  C   UNL A   1      49.554  27.609  27.237  1.00  0.00     0.002 A 
ATOM     68  C   UNL A   1      48.603  27.642  25.006  1.00  0.00     0.091 A 
ATOM     69  F   UNL A   1      46.373  28.436  24.700  1.00  0.00    -0.205 F 
ATOM     70  C   UNL A   1      49.682  27.388  25.869  1.00  0.00     0.022 A 
BRANCH  68  71
ATOM     71  S   UNL A   1      48.844  27.249  23.270  1.00  0.00     0.127 S 
ATOM     72  O   UNL A   1      50.299  27.120  23.196  1.00  0.00    -0.237 OA
ATOM     73  O   UNL A   1      48.114  25.988  23.136  1.00  0.00    -0.237 OA
ATOM     74  O   UNL A   1      48.276  28.362  22.523  1.00  0.00    -0.744 OA
ENDBRANCH  68  71
ENDBRANCH  50  64
BRANCH  51  75
ATOM     75  C   UNL A   1      38.543  30.914  31.032  1.00  0.00     0.023 A 
ATOM     76  C   UNL A   1      38.361  30.652  32.404  1.00  0.00     0.012 A 
ATOM     77  C   UNL A   1      37.514  31.548  30.310  1.00  0.00     0.148 A 
ATOM     78  C   UNL A   1      37.163  30.985  33.039  1.00  0.00     0.002 A 
ATOM     79  C   UNL A   1      36.346  31.929  30.962  1.00  0.00     0.091 A 
ATOM     80  F   UNL A   1      37.702  31.776  29.004  1.00  0.00    -0.205 F 
ATOM     81  C   UNL A   1      36.161  31.632  32.321  1.00  0.00     0.022 A 
BRANCH  79  82
ATOM     82  S   UNL A   1      35.059  32.881  30.148  1.00  0.00     0.127 S 
ATOM     83  O   UNL A   1      34.152  33.169  31.256  1.00  0.00    -0.237 OA
ATOM     84  O   UNL A   1      35.808  34.036  29.648  1.00  0.00    -0.237 OA
ATOM     85  O   UNL A   1      34.530  32.014  29.104  1.00  0.00    -0.744 OA
ENDBRANCH  79  82
ENDBRANCH  51  75
BRANCH  63  86
ATOM     86  C   UNL A   1      44.505  34.339  29.820  1.00  0.00     0.023 A 
ATOM     87  C   UNL A   1      45.223  34.602  31.004  1.00  0.00     0.012 A 
ATOM     88  C   UNL A   1      44.277  35.385  28.904  1.00  0.00     0.148 A 
ATOM     89  C   UNL A   1      45.677  35.890  31.287  1.00  0.00     0.002 A 
ATOM     90  C   UNL A   1      44.777  36.655  29.168  1.00  0.00     0.091 A 
ATOM     91  F   UNL A   1      43.576  35.120  27.791  1.00  0.00    -0.205 F 
ATOM     92  C   UNL A   1      45.466  36.911  30.365  1.00  0.00     0.022 A 
BRANCH  90  93
ATOM     93  S   UNL A   1      44.636  38.008  27.996  1.00  0.00     0.127 S 
ATOM     94  O   UNL A   1      43.208  38.314  28.063  1.00  0.00    -0.237 OA
ATOM     95  O   UNL A   1      45.505  39.024  28.589  1.00  0.00    -0.237 OA
ATOM     96  O   UNL A   1      45.104  37.485  26.720  1.00  0.00    -0.744 OA
ENDBRANCH  90  93
ENDBRANCH  63  86
ENDBRANCH  37  38
ENDBRANCH  29  32
ENDBRANCH  27  28
ENDBRANCH  26  27
ENDBRANCH   1  26
TORSDOF 18
ENDMDL
MODEL 2
REMARK VINA RESULT:     -11.5      2.153      2.705
REMARK SMILES C[C@@H]1[C@@H](C(=O)NCCCCCCNC(=O)c2ccc(-c3c4nc(c(-c5cccc(S(=O)(=O)[O-])c5F)c5ccc([nH]5)c(-c5cccc(S(=O)(=O)[O-])c5F)c5nc(c(-c6cccc(S(=O)(=O)[O-])c6F)c6ccc3[nH]6)C=C5)C=C4)cc2)CCN1c1nc2sccn2c1[N+](=O)[O-]
REMARK SMILES IDX 10 1 9 2 8 3 7 4 6 5 4 6 5 7 3 9 1 10 2 11 81 12 79 13 80 14
REMARK SMILES IDX 82 15 83 16 89 17 84 18 88 19 85 20 87 21 86 22 90 23 91 24
REMARK SMILES IDX 92 25 11 26 12 27 13 28 14 29 15 31 16 32 17 33 78 34 18 35
REMARK SMILES IDX 77 36 19 37 20 38 21 39 71 40 22 41 76 42 70 43 72 44 23 45
REMARK SMILES IDX 75 46 69 47 68 48 24 50 56 51 36 52 55 53 37 54 40 55 54 56
REMARK SMILES IDX 73 57 38 58 39 59 53 61 74 62 41 63 25 64 26 65 34 66 27 67
REMARK SMILES IDX 29 68 35 69 28 70 30 71 31 72 32 73 33 74 57 75 58 76 66 77
REMARK SMILES IDX 59 78 61 79 67 80 60 81 62 82 63 83 64 84 65 85 42 86 43 87
REMARK SMILES IDX 51 88 44 89 46 90 52 91 45 92 47 93 48 94 49 95 50 96
REMARK H PARENT 6 8 13 30 72 49 40 60
REMARK Flexibility Score: inf
ROOT
ATOM      1  C   UNL A   1      35.349  21.465  25.872  1.00  0.00     0.002 C 
ENDROOT
BRANCH   1   2
ATOM      2  C   UNL A   1      34.768  20.424  24.912  1.00  0.00     0.002 C 
BRANCH   2   3
ATOM      3  C   UNL A   1      33.466  19.745  25.351  1.00  0.00     0.021 C 
BRANCH   3   4
ATOM      4  C   UNL A   1      32.178  20.437  24.917  1.00  0.00     0.116 C 
BRANCH   4   5
ATOM      5  N   UNL A   1      31.829  21.553  25.767  1.00  0.00    -0.356 N 
ATOM      6  C   UNL A   1      31.710  22.877  25.469  1.00  0.00     0.225 C 
ATOM      7  O   UNL A   1      31.393  23.621  26.397  1.00  0.00    -0.275 OA
ATOM      8  H   UNL A   1      31.649  21.321  26.707  1.00  0.00     0.163 HD
BRANCH   6   9
ATOM      9  C   UNL A   1      32.054  23.387  24.068  1.00  0.00     0.102 C 
ATOM     10  C   UNL A   1      33.619  25.085  22.995  1.00  0.00     0.032 C 
ATOM     11  C   UNL A   1      32.634  24.821  24.138  1.00  0.00     0.093 C 
ATOM     12  N   UNL A   1      31.446  25.691  23.999  1.00  0.00    -0.346 N 
ATOM     13  C   UNL A   1      30.849  23.586  23.148  1.00  0.00     0.037 C 
ATOM     14  C   UNL A   1      30.279  24.920  23.608  1.00  0.00     0.119 C 
BRANCH  12  15
ATOM     15  C   UNL A   1      31.437  26.958  24.476  1.00  0.00     0.229 A 
ATOM     16  N   UNL A   1      32.212  27.239  25.589  1.00  0.00    -0.173 NA
ATOM     17  C   UNL A   1      30.801  28.106  24.034  1.00  0.00     0.373 A 
ATOM     18  C   UNL A   1      32.028  28.511  25.786  1.00  0.00     0.286 A 
ATOM     19  N   UNL A   1      31.191  29.096  24.885  1.00  0.00    -0.166 N 
ATOM     20  S   UNL A   1      32.619  29.656  26.950  1.00  0.00    -0.078 S 
ATOM     21  C   UNL A   1      30.984  30.449  25.083  1.00  0.00     0.220 A 
ATOM     22  C   UNL A   1      31.674  30.911  26.139  1.00  0.00     0.114 A 
BRANCH  17  23
ATOM     23  N   UNL A   1      29.908  28.385  22.981  1.00  0.00    -0.023 N 
ATOM     24  O   UNL A   1      28.711  28.147  23.161  1.00  0.00    -0.358 OA
ATOM     25  O   UNL A   1      30.391  28.907  21.968  1.00  0.00    -0.358 OA
ENDBRANCH  17  23
ENDBRANCH  12  15
ENDBRANCH   6   9
ENDBRANCH   4   5
ENDBRANCH   3   4
ENDBRANCH   2   3
ENDBRANCH   1   2
BRANCH   1  26
ATOM     26  C   UNL A   1      35.504  22.882  25.315  1.00  0.00     0.021 C 
BRANCH  26  27
ATOM     27  C   UNL A   1      36.852  23.550  25.562  1.00  0.00     0.116 C 
BRANCH  27  28
ATOM     28  N   UNL A   1      37.913  22.601  25.849  1.00  0.00    -0.352 N 
ATOM     29  C   UNL A   1      39.155  22.815  26.393  1.00  0.00     0.251 C 
ATOM     30  H   UNL A   1      37.711  21.664  25.620  1.00  0.00     0.163 HD
ATOM     31  O   UNL A   1      39.960  21.890  26.444  1.00  0.00    -0.269 OA
BRANCH  29  32
ATOM     32  C   UNL A   1      39.537  24.156  26.893  1.00  0.00     0.039 A 
ATOM     33  C   UNL A   1      39.299  24.459  28.237  1.00  0.00     0.014 A 
ATOM     34  C   UNL A   1      40.099  25.122  26.052  1.00  0.00     0.014 A 
ATOM     35  C   UNL A   1      39.665  25.708  28.745  1.00  0.00     0.010 A 
ATOM     36  C   UNL A   1      40.530  26.339  26.577  1.00  0.00     0.010 A 
ATOM     37  C   UNL A   1      40.307  26.652  27.926  1.00  0.00    -0.014 A 
BRANCH  37  38
ATOM     38  C   UNL A   1      40.743  27.964  28.472  1.00  0.00     0.031 A 
ATOM     39  C   UNL A   1      42.205  28.264  28.669  1.00  0.00     0.074 A 
ATOM     40  C   UNL A   1      39.816  28.869  28.845  1.00  0.00     0.049 A 
ATOM     41  N   UNL A   1      42.768  29.350  29.134  1.00  0.00    -0.248 NA
ATOM     42  C   UNL A   1      43.160  27.199  28.321  1.00  0.00     0.031 C 
ATOM     43  C   UNL A   1      38.366  28.670  28.783  1.00  0.00     0.029 A 
ATOM     44  N   UNL A   1      39.954  30.130  29.370  1.00  0.00    -0.354 N 
ATOM     45  C   UNL A   1      44.133  29.089  29.165  1.00  0.00     0.074 A 
ATOM     46  C   UNL A   1      44.312  27.730  28.706  1.00  0.00     0.031 C 
ATOM     47  C   UNL A   1      37.750  29.772  29.241  1.00  0.00     0.029 A 
ATOM     48  C   UNL A   1      38.757  30.746  29.652  1.00  0.00     0.049 A 
ATOM     49  H   UNL A   1      40.828  30.554  29.530  1.00  0.00     0.167 HD
ATOM     50  C   UNL A   1      45.149  29.916  29.511  1.00  0.00     0.034 A 
ATOM     51  C   UNL A   1      38.497  31.957  30.183  1.00  0.00     0.034 A 
ATOM     52  C   UNL A   1      44.972  31.282  29.925  1.00  0.00     0.049 A 
ATOM     53  C   UNL A   1      39.645  32.871  30.519  1.00  0.00     0.074 A 
ATOM     54  C   UNL A   1      45.943  32.228  30.207  1.00  0.00     0.029 A 
ATOM     55  N   UNL A   1      43.747  31.897  30.123  1.00  0.00    -0.354 N 
ATOM     56  N   UNL A   1      40.932  32.665  30.379  1.00  0.00    -0.248 NA
ATOM     57  C   UNL A   1      39.304  34.198  31.050  1.00  0.00     0.031 C 
ATOM     58  C   UNL A   1      45.303  33.407  30.601  1.00  0.00     0.029 A 
ATOM     59  C   UNL A   1      43.934  33.205  30.538  1.00  0.00     0.049 A 
ATOM     60  H   UNL A   1      42.871  31.467  29.990  1.00  0.00     0.167 HD
ATOM     61  C   UNL A   1      41.551  33.845  30.772  1.00  0.00     0.074 A 
ATOM     62  C   UNL A   1      40.497  34.771  31.131  1.00  0.00     0.031 C 
ATOM     63  C   UNL A   1      42.875  34.133  30.846  1.00  0.00     0.034 A 
BRANCH  50  64
ATOM     64  C   UNL A   1      46.555  29.382  29.401  1.00  0.00     0.023 A 
ATOM     65  C   UNL A   1      47.115  28.674  30.484  1.00  0.00     0.012 A 
ATOM     66  C   UNL A   1      47.296  29.525  28.212  1.00  0.00     0.148 A 
ATOM     67  C   UNL A   1      48.403  28.148  30.400  1.00  0.00     0.002 A 
ATOM     68  C   UNL A   1      48.563  28.959  28.119  1.00  0.00     0.091 A 
ATOM     69  F   UNL A   1      46.756  30.217  27.199  1.00  0.00    -0.205 F 
ATOM     70  C   UNL A   1      49.122  28.281  29.216  1.00  0.00     0.022 A 
BRANCH  68  71
ATOM     71  S   UNL A   1      49.539  29.006  26.612  1.00  0.00     0.127 S 
ATOM     72  O   UNL A   1      48.589  28.485  25.630  1.00  0.00    -0.237 OA
ATOM     73  O   UNL A   1      49.831  30.434  26.479  1.00  0.00    -0.237 OA
ATOM     74  O   UNL A   1      50.703  28.169  26.861  1.00  0.00    -0.744 OA
ENDBRANCH  68  71
ENDBRANCH  50  64
BRANCH  51  75
ATOM     75  C   UNL A   1      37.087  32.403  30.364  1.00  0.00     0.023 A 
ATOM     76  C   UNL A   1      36.460  32.226  31.614  1.00  0.00     0.012 A 
ATOM     77  C   UNL A   1      36.373  33.020  29.319  1.00  0.00     0.148 A 
ATOM     78  C   UNL A   1      35.137  32.624  31.809  1.00  0.00     0.002 A 
ATOM     79  C   UNL A   1      35.074  33.465  29.537  1.00  0.00     0.091 A 
ATOM     80  F   UNL A   1      36.982  33.167  28.135  1.00  0.00    -0.205 F 
ATOM     81  C   UNL A   1      34.447  33.252  30.775  1.00  0.00     0.022 A 
BRANCH  79  82
ATOM     82  S   UNL A   1      34.160  34.400  28.305  1.00  0.00     0.127 S 
ATOM     83  O   UNL A   1      33.823  35.616  29.041  1.00  0.00    -0.237 OA
ATOM     84  O   UNL A   1      35.161  34.573  27.252  1.00  0.00    -0.237 OA
ATOM     85  O   UNL A   1      33.035  33.555  27.927  1.00  0.00    -0.744 OA
ENDBRANCH  79  82
ENDBRANCH  51  75
BRANCH  63  86
ATOM     86  C   UNL A   1      43.266  35.513  31.308  1.00  0.00     0.023 A 
ATOM     87  C   UNL A   1      43.459  35.763  32.681  1.00  0.00     0.012 A 
ATOM     88  C   UNL A   1      43.507  36.543  30.377  1.00  0.00     0.148 A 
ATOM     89  C   UNL A   1      43.852  37.025  33.123  1.00  0.00     0.002 A 
ATOM     90  C   UNL A   1      43.947  37.784  30.821  1.00  0.00     0.091 A 
ATOM     91  F   UNL A   1      43.300  36.292  29.076  1.00  0.00    -0.205 F 
ATOM     92  C   UNL A   1      44.107  38.031  32.195  1.00  0.00     0.022 A 
BRANCH  90  93
ATOM     93  S   UNL A   1      44.392  39.109  29.692  1.00  0.00     0.127 S 
ATOM     94  O   UNL A   1      44.946  40.106  30.605  1.00  0.00    -0.237 OA
ATOM     95  O   UNL A   1      45.378  38.460  28.827  1.00  0.00    -0.237 OA
ATOM     96  O   UNL A   1      43.158  39.492  29.019  1.00  0.00    -0.744 OA
ENDBRANCH  90  93
ENDBRANCH  63  86
ENDBRANCH  37  38
ENDBRANCH  29  32
ENDBRANCH  27  28
ENDBRANCH  26  27
ENDBRANCH   1  26
TORSDOF 18
ENDMDL
MODEL 3
REMARK VINA RESULT:     -11.3      2.053      7.874
REMARK SMILES C[C@@H]1[C@@H](C(=O)NCCCCCCNC(=O)c2ccc(-c3c4nc(c(-c5cccc(S(=O)(=O)[O-])c5F)c5ccc([nH]5)c(-c5cccc(S(=O)(=O)[O-])c5F)c5nc(c(-c6cccc(S(=O)(=O)[O-])c6F)c6ccc3[nH]6)C=C5)C=C4)cc2)CCN1c1nc2sccn2c1[N+](=O)[O-]
REMARK SMILES IDX 10 1 9 2 8 3 7 4 6 5 4 6 5 7 3 9 1 10 2 11 81 12 79 13 80 14
REMARK SMILES IDX 82 15 83 16 89 17 84 18 88 19 85 20 87 21 86 22 90 23 91 24
REMARK SMILES IDX 92 25 11 26 12 27 13 28 14 29 15 31 16 32 17 33 78 34 18 35
REMARK SMILES IDX 77 36 19 37 20 38 21 39 71 40 22 41 76 42 70 43 72 44 23 45
REMARK SMILES IDX 75 46 69 47 68 48 24 50 56 51 36 52 55 53 37 54 40 55 54 56
REMARK SMILES IDX 73 57 38 58 39 59 53 61 74 62 41 63 25 64 26 65 34 66 27 67
REMARK SMILES IDX 29 68 35 69 28 70 30 71 31 72 32 73 33 74 57 75 58 76 66 77
REMARK SMILES IDX 59 78 61 79 67 80 60 81 62 82 63 83 64 84 65 85 42 86 43 87
REMARK SMILES IDX 51 88 44 89 46 90 52 91 45 92 47 93 48 94 49 95 50 96
REMARK H PARENT 6 8 13 30 72 49 40 60
REMARK Flexibility Score: inf
ROOT
ATOM      1  C   UNL A   1      36.451  19.941  24.953  1.00  0.00     0.002 C 
ENDROOT
BRANCH   1   2
ATOM      2  C   UNL A   1      35.940  21.321  25.373  1.00  0.00     0.002 C 
BRANCH   2   3
ATOM      3  C   UNL A   1      34.816  21.920  24.520  1.00  0.00     0.021 C 
BRANCH   3   4
ATOM      4  C   UNL A   1      34.019  23.047  25.169  1.00  0.00     0.116 C 
BRANCH   4   5
ATOM      5  N   UNL A   1      32.689  23.181  24.617  1.00  0.00    -0.356 N 
ATOM      6  C   UNL A   1      32.212  24.050  23.684  1.00  0.00     0.225 C 
ATOM      7  O   UNL A   1      31.021  23.941  23.391  1.00  0.00    -0.275 OA
ATOM      8  H   UNL A   1      32.025  22.545  24.971  1.00  0.00     0.163 HD
BRANCH   6   9
ATOM      9  C   UNL A   1      33.114  25.151  23.122  1.00  0.00     0.102 C 
ATOM     10  C   UNL A   1      33.701  27.574  23.639  1.00  0.00     0.032 C 
ATOM     11  C   UNL A   1      32.571  26.549  23.508  1.00  0.00     0.093 C 
ATOM     12  N   UNL A   1      31.684  26.910  22.380  1.00  0.00    -0.346 N 
ATOM     13  C   UNL A   1      33.136  25.241  21.595  1.00  0.00     0.037 C 
ATOM     14  C   UNL A   1      31.849  25.985  21.272  1.00  0.00     0.119 C 
BRANCH  12  15
ATOM     15  C   UNL A   1      30.670  27.793  22.531  1.00  0.00     0.229 A 
ATOM     16  N   UNL A   1      30.756  29.002  21.861  1.00  0.00    -0.173 NA
ATOM     17  C   UNL A   1      29.478  27.718  23.232  1.00  0.00     0.373 A 
ATOM     18  C   UNL A   1      29.648  29.610  22.168  1.00  0.00     0.286 A 
ATOM     19  N   UNL A   1      28.831  28.893  22.988  1.00  0.00    -0.166 N 
ATOM     20  S   UNL A   1      28.956  31.149  21.758  1.00  0.00    -0.078 S 
ATOM     21  C   UNL A   1      27.649  29.527  23.325  1.00  0.00     0.220 A 
ATOM     22  C   UNL A   1      27.551  30.738  22.751  1.00  0.00     0.114 A 
BRANCH  17  23
ATOM     23  N   UNL A   1      28.896  26.748  24.072  1.00  0.00    -0.023 N 
ATOM     24  O   UNL A   1      29.551  26.358  25.041  1.00  0.00    -0.358 OA
ATOM     25  O   UNL A   1      27.739  26.403  23.801  1.00  0.00    -0.358 OA
ENDBRANCH  17  23
ENDBRANCH  12  15
ENDBRANCH   6   9
ENDBRANCH   4   5
ENDBRANCH   3   4
ENDBRANCH   2   3
ENDBRANCH   1   2
BRANCH   1  26
ATOM     26  C   UNL A   1      37.949  19.837  24.659  1.00  0.00     0.021 C 
BRANCH  26  27
ATOM     27  C   UNL A   1      38.880  20.161  25.823  1.00  0.00     0.116 C 
BRANCH  27  28
ATOM     28  N   UNL A   1      39.972  19.215  25.957  1.00  0.00    -0.352 N 
ATOM     29  C   UNL A   1      41.304  19.444  26.203  1.00  0.00     0.251 C 
ATOM     30  H   UNL A   1      39.722  18.267  25.857  1.00  0.00     0.163 HD
ATOM     31  O   UNL A   1      42.096  18.509  26.160  1.00  0.00    -0.269 OA
BRANCH  29  32
ATOM     32  C   UNL A   1      41.790  20.814  26.492  1.00  0.00     0.039 A 
ATOM     33  C   UNL A   1      41.851  21.734  25.441  1.00  0.00     0.014 A 
ATOM     34  C   UNL A   1      42.210  21.191  27.771  1.00  0.00     0.014 A 
ATOM     35  C   UNL A   1      42.287  23.039  25.682  1.00  0.00     0.010 A 
ATOM     36  C   UNL A   1      42.574  22.513  28.024  1.00  0.00     0.010 A 
ATOM     37  C   UNL A   1      42.628  23.449  26.982  1.00  0.00    -0.014 A 
BRANCH  37  38
ATOM     38  C   UNL A   1      43.046  24.849  27.255  1.00  0.00     0.031 A 
ATOM     39  C   UNL A   1      42.077  25.835  27.851  1.00  0.00     0.074 A 
ATOM     40  C   UNL A   1      44.287  25.251  26.912  1.00  0.00     0.049 A 
ATOM     41  N   UNL A   1      42.264  27.094  28.154  1.00  0.00    -0.248 NA
ATOM     42  C   UNL A   1      40.713  25.353  28.122  1.00  0.00     0.031 C 
ATOM     43  C   UNL A   1      45.294  24.417  26.253  1.00  0.00     0.029 A 
ATOM     44  N   UNL A   1      44.905  26.468  27.052  1.00  0.00    -0.354 N 
ATOM     45  C   UNL A   1      41.041  27.561  28.619  1.00  0.00     0.074 A 
ATOM     46  C   UNL A   1      40.107  26.461  28.524  1.00  0.00     0.031 C 
ATOM     47  C   UNL A   1      46.406  25.143  26.055  1.00  0.00     0.029 A 
ATOM     48  C   UNL A   1      46.186  26.499  26.550  1.00  0.00     0.049 A 
ATOM     49  H   UNL A   1      44.474  27.247  27.472  1.00  0.00     0.167 HD
ATOM     50  C   UNL A   1      40.729  28.784  29.111  1.00  0.00     0.034 A 
ATOM     51  C   UNL A   1      47.082  27.504  26.492  1.00  0.00     0.034 A 
ATOM     52  C   UNL A   1      41.669  29.864  29.246  1.00  0.00     0.049 A 
ATOM     53  C   UNL A   1      46.723  28.840  27.085  1.00  0.00     0.074 A 
ATOM     54  C   UNL A   1      41.473  31.109  29.818  1.00  0.00     0.029 A 
ATOM     55  N   UNL A   1      42.980  29.832  28.799  1.00  0.00    -0.354 N 
ATOM     56  N   UNL A   1      45.612  29.209  27.675  1.00  0.00    -0.248 NA
ATOM     57  C   UNL A   1      47.754  29.886  27.038  1.00  0.00     0.031 C 
ATOM     58  C   UNL A   1      42.660  31.839  29.692  1.00  0.00     0.029 A 
ATOM     59  C   UNL A   1      43.603  31.040  29.068  1.00  0.00     0.049 A 
ATOM     60  H   UNL A   1      43.407  29.064  28.354  1.00  0.00     0.167 HD
ATOM     61  C   UNL A   1      45.822  30.516  28.099  1.00  0.00     0.074 A 
ATOM     62  C   UNL A   1      47.176  30.865  27.720  1.00  0.00     0.031 C 
ATOM     63  C   UNL A   1      44.966  31.359  28.729  1.00  0.00     0.034 A 
BRANCH  50  64
ATOM     64  C   UNL A   1      39.319  29.004  29.598  1.00  0.00     0.023 A 
ATOM     65  C   UNL A   1      38.967  28.612  30.906  1.00  0.00     0.012 A 
ATOM     66  C   UNL A   1      38.363  29.652  28.791  1.00  0.00     0.148 A 
ATOM     67  C   UNL A   1      37.677  28.826  31.391  1.00  0.00     0.002 A 
ATOM     68  C   UNL A   1      37.092  29.903  29.297  1.00  0.00     0.091 A 
ATOM     69  F   UNL A   1      38.709  30.001  27.544  1.00  0.00    -0.205 F 
ATOM     70  C   UNL A   1      36.745  29.480  30.591  1.00  0.00     0.022 A 
BRANCH  68  71
ATOM     71  S   UNL A   1      35.843  30.807  28.377  1.00  0.00     0.127 S 
ATOM     72  O   UNL A   1      34.860  31.096  29.420  1.00  0.00    -0.237 OA
ATOM     73  O   UNL A   1      36.592  31.974  27.906  1.00  0.00    -0.237 OA
ATOM     74  O   UNL A   1      35.391  29.910  27.323  1.00  0.00    -0.744 OA
ENDBRANCH  68  71
ENDBRANCH  50  64
BRANCH  51  75
ATOM     75  C   UNL A   1      48.433  27.264  25.911  1.00  0.00     0.023 A 
ATOM     76  C   UNL A   1      49.464  26.772  26.736  1.00  0.00     0.012 A 
ATOM     77  C   UNL A   1      48.696  27.499  24.548  1.00  0.00     0.148 A 
ATOM     78  C   UNL A   1      50.742  26.550  26.221  1.00  0.00     0.002 A 
ATOM     79  C   UNL A   1      49.956  27.221  24.029  1.00  0.00     0.091 A 
ATOM     80  F   UNL A   1      47.706  27.979  23.783  1.00  0.00    -0.205 F 
ATOM     81  C   UNL A   1      50.986  26.764  24.867  1.00  0.00     0.022 A 
BRANCH  79  82
ATOM     82  S   UNL A   1      50.320  27.343  22.274  1.00  0.00     0.127 S 
ATOM     83  O   UNL A   1      51.708  26.891  22.224  1.00  0.00    -0.237 OA
ATOM     84  O   UNL A   1      49.347  26.414  21.698  1.00  0.00    -0.237 OA
ATOM     85  O   UNL A   1      50.095  28.739  21.923  1.00  0.00    -0.744 OA
ENDBRANCH  79  82
ENDBRANCH  51  75
BRANCH  63  86
ATOM     86  C   UNL A   1      45.470  32.735  29.078  1.00  0.00     0.023 A 
ATOM     87  C   UNL A   1      46.132  32.949  30.304  1.00  0.00     0.012 A 
ATOM     88  C   UNL A   1      45.347  33.800  28.164  1.00  0.00     0.148 A 
ATOM     89  C   UNL A   1      46.633  34.209  30.629  1.00  0.00     0.002 A 
ATOM     90  C   UNL A   1      45.894  35.041  28.473  1.00  0.00     0.091 A 
ATOM     91  F   UNL A   1      44.698  33.584  27.011  1.00  0.00    -0.205 F 
ATOM     92  C   UNL A   1      46.525  35.250  29.711  1.00  0.00     0.022 A 
BRANCH  90  93
ATOM     93  S   UNL A   1      45.886  36.413  27.314  1.00  0.00     0.127 S 
ATOM     94  O   UNL A   1      44.455  36.670  27.165  1.00  0.00    -0.237 OA
ATOM     95  O   UNL A   1      46.617  37.445  28.050  1.00  0.00    -0.237 OA
ATOM     96  O   UNL A   1      46.564  35.930  26.118  1.00  0.00    -0.744 OA
ENDBRANCH  90  93
ENDBRANCH  63  86
ENDBRANCH  37  38
ENDBRANCH  29  32
ENDBRANCH  27  28
ENDBRANCH  26  27
ENDBRANCH   1  26
TORSDOF 18
ENDMDL
