MODEL 1
REMARK VINA RESULT:     -11.6      0.000      0.000
REMARK SMILES O=C(NCCCCCCNC(=O)c1cc(Br)ccc1OCc1ccccc1F)c1ccc(-c2c3nc(c(-c4cccc(S(=O)(=O)[O-])c4F)c4ccc([nH]4)c(-c4cccc(S(=O)(=O)[O-])c4F)c4nc(c(-c5cccc(S(=O)(=O)[O-])c5F)c5ccc2[nH]5)C=C4)C=C3)cc1
REMARK SMILES IDX 6 1 5 2 4 3 3 4 1 5 2 6 29 8 30 9 91 10 31 11 90 12 32 13
REMARK SMILES IDX 33 14 34 15 84 16 35 17 89 18 83 19 85 20 36 21 88 22 82 23
REMARK SMILES IDX 81 24 37 26 69 27 49 28 68 29 50 30 53 31 67 32 86 33 51 34
REMARK SMILES IDX 52 35 66 37 87 38 54 39 38 40 39 41 47 42 40 43 42 44 48 45
REMARK SMILES IDX 41 46 43 47 44 48 45 49 46 50 70 51 71 52 79 53 72 54 74 55
REMARK SMILES IDX 80 56 73 57 75 58 76 59 77 60 78 61 55 62 56 63 64 64 57 65
REMARK SMILES IDX 59 66 65 67 58 68 60 69 61 70 62 71 63 72 7 73 8 74 9 75
REMARK SMILES IDX 10 76 11 77 12 79 13 80 14 81 19 82 15 83 18 84 16 85 17 86
REMARK SMILES IDX 20 87 21 88 22 89 23 90 27 91 24 92 26 93 28 94 25 95
REMARK H PARENT 3 7 85 25 53 36 10 78
REMARK Flexibility Score: inf
ROOT
ATOM      1  C   UNL A   1      33.922  27.898  24.864  1.00  0.00     0.002 C 
ENDROOT
BRANCH   1   2
ATOM      2  C   UNL A   1      33.034  29.141  24.856  1.00  0.00     0.021 C 
BRANCH   2   3
ATOM      3  C   UNL A   1      32.459  29.513  26.213  1.00  0.00     0.116 C 
BRANCH   3   4
ATOM      4  N   UNL A   1      32.184  30.933  26.311  1.00  0.00    -0.352 N 
ATOM      5  O   UNL A   1      32.356  32.990  27.215  1.00  0.00    -0.269 OA
ATOM      6  C   UNL A   1      32.836  31.871  27.071  1.00  0.00     0.251 C 
ATOM      7  H   UNL A   1      31.436  31.265  25.763  1.00  0.00     0.163 HD
BRANCH   6   8
ATOM      8  C   UNL A   1      34.108  31.503  27.726  1.00  0.00     0.039 A 
ATOM      9  C   UNL A   1      35.093  32.471  27.960  1.00  0.00     0.014 A 
ATOM     10  C   UNL A   1      34.318  30.176  28.104  1.00  0.00     0.014 A 
ATOM     11  C   UNL A   1      36.327  32.092  28.478  1.00  0.00     0.010 A 
ATOM     12  C   UNL A   1      35.529  29.813  28.695  1.00  0.00     0.010 A 
ATOM     13  C   UNL A   1      36.546  30.766  28.878  1.00  0.00    -0.014 A 
BRANCH  13  14
ATOM     14  C   UNL A   1      37.796  30.397  29.588  1.00  0.00     0.031 A 
ATOM     15  C   UNL A   1      38.782  29.441  28.978  1.00  0.00     0.074 A 
ATOM     16  C   UNL A   1      38.004  30.902  30.820  1.00  0.00     0.049 A 
ATOM     17  N   UNL A   1      39.860  28.926  29.512  1.00  0.00    -0.248 NA
ATOM     18  C   UNL A   1      38.530  29.006  27.595  1.00  0.00     0.031 C 
ATOM     19  C   UNL A   1      37.106  31.830  31.514  1.00  0.00     0.029 A 
ATOM     20  N   UNL A   1      39.020  30.694  31.717  1.00  0.00    -0.354 N 
ATOM     21  C   UNL A   1      40.399  28.083  28.548  1.00  0.00     0.074 A 
ATOM     22  C   UNL A   1      39.528  28.152  27.393  1.00  0.00     0.031 C 
ATOM     23  C   UNL A   1      37.613  32.116  32.722  1.00  0.00     0.029 A 
ATOM     24  C   UNL A   1      38.833  31.344  32.916  1.00  0.00     0.049 A 
ATOM     25  H   UNL A   1      39.806  30.134  31.523  1.00  0.00     0.167 HD
ATOM     26  C   UNL A   1      41.525  27.333  28.619  1.00  0.00     0.034 A 
ATOM     27  C   UNL A   1      39.546  31.299  34.057  1.00  0.00     0.034 A 
ATOM     28  C   UNL A   1      42.395  27.291  29.765  1.00  0.00     0.049 A 
ATOM     29  C   UNL A   1      40.774  30.436  34.107  1.00  0.00     0.074 A 
ATOM     30  C   UNL A   1      43.569  26.573  29.924  1.00  0.00     0.029 A 
ATOM     31  N   UNL A   1      42.197  27.995  30.943  1.00  0.00    -0.354 N 
ATOM     32  N   UNL A   1      41.309  29.705  33.159  1.00  0.00    -0.248 NA
ATOM     33  C   UNL A   1      41.511  30.408  35.377  1.00  0.00     0.031 C 
ATOM     34  C   UNL A   1      44.072  26.833  31.203  1.00  0.00     0.029 A 
ATOM     35  C   UNL A   1      43.225  27.731  31.831  1.00  0.00     0.049 A 
ATOM     36  H   UNL A   1      41.436  28.595  31.121  1.00  0.00     0.167 HD
ATOM     37  C   UNL A   1      42.460  29.156  33.708  1.00  0.00     0.074 A 
ATOM     38  C   UNL A   1      42.562  29.665  35.061  1.00  0.00     0.031 C 
ATOM     39  C   UNL A   1      43.343  28.290  33.153  1.00  0.00     0.034 A 
BRANCH  26  40
ATOM     40  C   UNL A   1      41.928  26.525  27.413  1.00  0.00     0.023 A 
ATOM     41  C   UNL A   1      42.681  27.142  26.394  1.00  0.00     0.012 A 
ATOM     42  C   UNL A   1      41.690  25.138  27.355  1.00  0.00     0.148 A 
ATOM     43  C   UNL A   1      43.188  26.393  25.333  1.00  0.00     0.002 A 
ATOM     44  C   UNL A   1      42.231  24.391  26.315  1.00  0.00     0.091 A 
ATOM     45  F   UNL A   1      40.963  24.574  28.330  1.00  0.00    -0.205 F 
ATOM     46  C   UNL A   1      42.975  25.017  25.301  1.00  0.00     0.022 A 
BRANCH  44  47
ATOM     47  S   UNL A   1      42.086  22.601  26.217  1.00  0.00     0.127 S 
ATOM     48  O   UNL A   1      42.777  22.318  24.959  1.00  0.00    -0.237 OA
ATOM     49  O   UNL A   1      42.802  22.172  27.417  1.00  0.00    -0.237 OA
ATOM     50  O   UNL A   1      40.659  22.311  26.213  1.00  0.00    -0.744 OA
ENDBRANCH  44  47
ENDBRANCH  26  40
BRANCH  27  51
ATOM     51  C   UNL A   1      39.137  32.125  35.227  1.00  0.00     0.023 A 
ATOM     52  C   UNL A   1      38.239  31.584  36.168  1.00  0.00     0.012 A 
ATOM     53  C   UNL A   1      39.644  33.423  35.431  1.00  0.00     0.148 A 
ATOM     54  C   UNL A   1      37.827  32.333  37.271  1.00  0.00     0.002 A 
ATOM     55  C   UNL A   1      39.278  34.140  36.563  1.00  0.00     0.091 A 
ATOM     56  F   UNL A   1      40.483  33.929  34.516  1.00  0.00    -0.205 F 
ATOM     57  C   UNL A   1      38.355  33.605  37.475  1.00  0.00     0.022 A 
BRANCH  55  58
ATOM     58  S   UNL A   1      40.020  35.723  36.976  1.00  0.00     0.127 S 
ATOM     59  O   UNL A   1      39.633  36.542  35.831  1.00  0.00    -0.237 OA
ATOM     60  O   UNL A   1      39.345  36.058  38.231  1.00  0.00    -0.237 OA
ATOM     61  O   UNL A   1      41.446  35.457  37.119  1.00  0.00    -0.744 OA
ENDBRANCH  55  58
ENDBRANCH  27  51
BRANCH  39  62
ATOM     62  C   UNL A   1      44.516  27.859  33.994  1.00  0.00     0.023 A 
ATOM     63  C   UNL A   1      45.721  28.585  33.934  1.00  0.00     0.012 A 
ATOM     64  C   UNL A   1      44.403  26.778  34.888  1.00  0.00     0.148 A 
ATOM     65  C   UNL A   1      46.810  28.219  34.723  1.00  0.00     0.002 A 
ATOM     66  C   UNL A   1      45.475  26.450  35.711  1.00  0.00     0.091 A 
ATOM     67  F   UNL A   1      43.255  26.085  34.917  1.00  0.00    -0.205 F 
ATOM     68  C   UNL A   1      46.683  27.159  35.619  1.00  0.00     0.022 A 
BRANCH  66  69
ATOM     69  S   UNL A   1      45.363  25.168  36.964  1.00  0.00     0.127 S 
ATOM     70  O   UNL A   1      46.772  24.873  37.216  1.00  0.00    -0.237 OA
ATOM     71  O   UNL A   1      44.680  25.860  38.058  1.00  0.00    -0.237 OA
ATOM     72  O   UNL A   1      44.592  24.089  36.361  1.00  0.00    -0.744 OA
ENDBRANCH  66  69
ENDBRANCH  39  62
ENDBRANCH  13  14
ENDBRANCH   6   8
ENDBRANCH   3   4
ENDBRANCH   2   3
ENDBRANCH   1   2
BRANCH   1  73
ATOM     73  C   UNL A   1      33.719  26.954  26.054  1.00  0.00     0.002 C 
BRANCH  73  74
ATOM     74  C   UNL A   1      33.430  25.486  25.707  1.00  0.00     0.021 C 
BRANCH  74  75
ATOM     75  C   UNL A   1      34.632  24.550  25.805  1.00  0.00     0.116 C 
BRANCH  75  76
ATOM     76  N   UNL A   1      35.304  24.456  24.526  1.00  0.00    -0.352 N 
ATOM     77  C   UNL A   1      35.404  23.358  23.708  1.00  0.00     0.255 C 
ATOM     78  H   UNL A   1      35.741  25.277  24.205  1.00  0.00     0.163 HD
ATOM     79  O   UNL A   1      36.490  23.203  23.171  1.00  0.00    -0.269 OA
BRANCH  77  80
ATOM     80  C   UNL A   1      34.210  22.480  23.477  1.00  0.00     0.082 A 
ATOM     81  C   UNL A   1      34.070  21.373  24.347  1.00  0.00     0.033 A 
ATOM     82  C   UNL A   1      33.187  22.710  22.545  1.00  0.00     0.132 A 
ATOM     83  C   UNL A   1      33.051  20.437  24.189  1.00  0.00     0.019 A 
ATOM     84  C   UNL A   1      32.201  21.714  22.361  1.00  0.00     0.048 A 
ATOM     85  Br  UNL A   1      32.919  18.975  25.377  1.00  0.00    -0.051 Br
ATOM     86  C   UNL A   1      32.133  20.581  23.166  1.00  0.00     0.019 A 
BRANCH  82  87
ATOM     87  O   UNL A   1      32.880  23.781  21.767  1.00  0.00    -0.488 OA
BRANCH  87  88
ATOM     88  C   UNL A   1      32.806  25.136  22.195  1.00  0.00     0.268 C 
BRANCH  88  89
ATOM     89  C   UNL A   1      31.523  25.835  22.622  1.00  0.00     0.025 A 
ATOM     90  C   UNL A   1      31.326  27.140  22.121  1.00  0.00     0.010 A 
ATOM     91  C   UNL A   1      30.588  25.367  23.547  1.00  0.00     0.129 A 
ATOM     92  C   UNL A   1      30.283  27.952  22.579  1.00  0.00     0.001 A 
ATOM     93  C   UNL A   1      29.573  26.188  24.043  1.00  0.00     0.039 A 
ATOM     94  F   UNL A   1      30.618  24.114  24.012  1.00  0.00    -0.207 F 
ATOM     95  C   UNL A   1      29.422  27.485  23.566  1.00  0.00     0.003 A 
ENDBRANCH  88  89
ENDBRANCH  87  88
ENDBRANCH  82  87
ENDBRANCH  77  80
ENDBRANCH  75  76
ENDBRANCH  74  75
ENDBRANCH  73  74
ENDBRANCH   1  73
TORSDOF 19
ENDMDL
MODEL 2
REMARK VINA RESULT:     -11.5      4.828      9.599
REMARK SMILES O=C(NCCCCCCNC(=O)c1cc(Br)ccc1OCc1ccccc1F)c1ccc(-c2c3nc(c(-c4cccc(S(=O)(=O)[O-])c4F)c4ccc([nH]4)c(-c4cccc(S(=O)(=O)[O-])c4F)c4nc(c(-c5cccc(S(=O)(=O)[O-])c5F)c5ccc2[nH]5)C=C4)C=C3)cc1
REMARK SMILES IDX 6 1 5 2 4 3 3 4 1 5 2 6 29 8 30 9 91 10 31 11 90 12 32 13
REMARK SMILES IDX 33 14 34 15 84 16 35 17 89 18 83 19 85 20 36 21 88 22 82 23
REMARK SMILES IDX 81 24 37 26 69 27 49 28 68 29 50 30 53 31 67 32 86 33 51 34
REMARK SMILES IDX 52 35 66 37 87 38 54 39 38 40 39 41 47 42 40 43 42 44 48 45
REMARK SMILES IDX 41 46 43 47 44 48 45 49 46 50 70 51 71 52 79 53 72 54 74 55
REMARK SMILES IDX 80 56 73 57 75 58 76 59 77 60 78 61 55 62 56 63 64 64 57 65
REMARK SMILES IDX 59 66 65 67 58 68 60 69 61 70 62 71 63 72 7 73 8 74 9 75
REMARK SMILES IDX 10 76 11 77 12 79 13 80 14 81 19 82 15 83 18 84 16 85 17 86
REMARK SMILES IDX 20 87 21 88 22 89 23 90 27 91 24 92 26 93 28 94 25 95
REMARK H PARENT 3 7 85 25 53 36 10 78
REMARK Flexibility Score: inf
ROOT
ATOM      1  C   UNL A   1      35.063  23.239  24.162  1.00  0.00     0.002 C 
ENDROOT
BRANCH   1   2
ATOM      2  C   UNL A   1      35.694  21.852  24.250  1.00  0.00     0.021 C 
BRANCH   2   3
ATOM      3  C   UNL A   1      37.214  21.847  24.222  1.00  0.00     0.116 C 
BRANCH   3   4
ATOM      4  N   UNL A   1      37.764  20.704  24.922  1.00  0.00    -0.352 N 
ATOM      5  O   UNL A   1      39.342  19.576  26.070  1.00  0.00    -0.269 OA
ATOM      6  C   UNL A   1      38.880  20.656  25.719  1.00  0.00     0.251 C 
ATOM      7  H   UNL A   1      37.275  19.856  24.813  1.00  0.00     0.163 HD
BRANCH   6   8
ATOM      8  C   UNL A   1      39.524  21.923  26.127  1.00  0.00     0.039 A 
ATOM      9  C   UNL A   1      38.784  23.110  26.184  1.00  0.00     0.014 A 
ATOM     10  C   UNL A   1      40.882  21.921  26.449  1.00  0.00     0.014 A 
ATOM     11  C   UNL A   1      39.425  24.312  26.464  1.00  0.00     0.010 A 
ATOM     12  C   UNL A   1      41.506  23.117  26.805  1.00  0.00     0.010 A 
ATOM     13  C   UNL A   1      40.785  24.323  26.806  1.00  0.00    -0.014 A 
BRANCH  13  14
ATOM     14  C   UNL A   1      41.428  25.577  27.271  1.00  0.00     0.031 A 
ATOM     15  C   UNL A   1      40.661  26.592  28.071  1.00  0.00     0.074 A 
ATOM     16  C   UNL A   1      42.706  25.810  26.915  1.00  0.00     0.049 A 
ATOM     17  N   UNL A   1      41.035  27.785  28.454  1.00  0.00    -0.248 NA
ATOM     18  C   UNL A   1      39.301  26.224  28.498  1.00  0.00     0.031 C 
ATOM     19  C   UNL A   1      43.542  24.899  26.128  1.00  0.00     0.029 A 
ATOM     20  N   UNL A   1      43.521  26.888  27.146  1.00  0.00    -0.354 N 
ATOM     21  C   UNL A   1      39.953  28.326  29.137  1.00  0.00     0.074 A 
ATOM     22  C   UNL A   1      38.902  27.331  29.116  1.00  0.00     0.031 C 
ATOM     23  C   UNL A   1      44.751  25.451  25.949  1.00  0.00     0.029 A 
ATOM     24  C   UNL A   1      44.756  26.779  26.548  1.00  0.00     0.049 A 
ATOM     25  H   UNL A   1      43.250  27.665  27.687  1.00  0.00     0.167 HD
ATOM     26  C   UNL A   1      39.855  29.537  29.736  1.00  0.00     0.034 A 
ATOM     27  C   UNL A   1      45.768  27.662  26.461  1.00  0.00     0.034 A 
ATOM     28  C   UNL A   1      40.916  30.509  29.771  1.00  0.00     0.049 A 
ATOM     29  C   UNL A   1      45.614  29.005  27.117  1.00  0.00     0.074 A 
ATOM     30  C   UNL A   1      40.916  31.758  30.369  1.00  0.00     0.029 A 
ATOM     31  N   UNL A   1      42.165  30.346  29.191  1.00  0.00    -0.354 N 
ATOM     32  N   UNL A   1      44.611  29.468  27.822  1.00  0.00    -0.248 NA
ATOM     33  C   UNL A   1      46.739  29.939  26.984  1.00  0.00     0.031 C 
ATOM     34  C   UNL A   1      42.160  32.354  30.140  1.00  0.00     0.029 A 
ATOM     35  C   UNL A   1      42.943  31.468  29.419  1.00  0.00     0.049 A 
ATOM     36  H   UNL A   1      42.456  29.549  28.691  1.00  0.00     0.167 HD
ATOM     37  C   UNL A   1      44.996  30.733  28.243  1.00  0.00     0.074 A 
ATOM     38  C   UNL A   1      46.338  30.951  27.740  1.00  0.00     0.031 C 
ATOM     39  C   UNL A   1      44.296  31.646  28.961  1.00  0.00     0.034 A 
BRANCH  26  40
ATOM     40  C   UNL A   1      38.578  29.881  30.457  1.00  0.00     0.023 A 
ATOM     41  C   UNL A   1      38.409  29.462  31.793  1.00  0.00     0.012 A 
ATOM     42  C   UNL A   1      37.617  30.729  29.871  1.00  0.00     0.148 A 
ATOM     43  C   UNL A   1      37.304  29.879  32.533  1.00  0.00     0.002 A 
ATOM     44  C   UNL A   1      36.538  31.171  30.628  1.00  0.00     0.091 A 
ATOM     45  F   UNL A   1      37.792  31.106  28.597  1.00  0.00    -0.205 F 
ATOM     46  C   UNL A   1      36.376  30.743  31.956  1.00  0.00     0.022 A 
BRANCH  44  47
ATOM     47  S   UNL A   1      35.327  32.348  30.010  1.00  0.00     0.127 S 
ATOM     48  O   UNL A   1      34.783  31.633  28.856  1.00  0.00    -0.237 OA
ATOM     49  O   UNL A   1      34.411  32.466  31.143  1.00  0.00    -0.237 OA
ATOM     50  O   UNL A   1      36.069  33.559  29.688  1.00  0.00    -0.744 OA
ENDBRANCH  44  47
ENDBRANCH  26  40
BRANCH  27  51
ATOM     51  C   UNL A   1      47.029  27.288  25.761  1.00  0.00     0.023 A 
ATOM     52  C   UNL A   1      47.160  27.571  24.388  1.00  0.00     0.012 A 
ATOM     53  C   UNL A   1      48.103  26.683  26.442  1.00  0.00     0.148 A 
ATOM     54  C   UNL A   1      48.323  27.225  23.698  1.00  0.00     0.002 A 
ATOM     55  C   UNL A   1      49.281  26.398  25.763  1.00  0.00     0.091 A 
ATOM     56  F   UNL A   1      47.955  26.404  27.745  1.00  0.00    -0.205 F 
ATOM     57  C   UNL A   1      49.387  26.651  24.387  1.00  0.00     0.022 A 
BRANCH  55  58
ATOM     58  S   UNL A   1      50.748  25.791  26.604  1.00  0.00     0.127 S 
ATOM     59  O   UNL A   1      50.274  24.526  27.159  1.00  0.00    -0.237 OA
ATOM     60  O   UNL A   1      51.701  25.662  25.500  1.00  0.00    -0.237 OA
ATOM     61  O   UNL A   1      51.095  26.823  27.573  1.00  0.00    -0.744 OA
ENDBRANCH  55  58
ENDBRANCH  27  51
BRANCH  39  62
ATOM     62  C   UNL A   1      44.977  32.952  29.276  1.00  0.00     0.023 A 
ATOM     63  C   UNL A   1      45.730  33.080  30.459  1.00  0.00     0.012 A 
ATOM     64  C   UNL A   1      44.923  34.029  28.370  1.00  0.00     0.148 A 
ATOM     65  C   UNL A   1      46.387  34.272  30.756  1.00  0.00     0.002 A 
ATOM     66  C   UNL A   1      45.625  35.197  28.646  1.00  0.00     0.091 A 
ATOM     67  F   UNL A   1      44.185  33.897  27.258  1.00  0.00    -0.205 F 
ATOM     68  C   UNL A   1      46.345  35.325  29.845  1.00  0.00     0.022 A 
BRANCH  66  69
ATOM     69  S   UNL A   1      45.709  36.562  27.482  1.00  0.00     0.127 S 
ATOM     70  O   UNL A   1      44.310  36.980  27.411  1.00  0.00    -0.237 OA
ATOM     71  O   UNL A   1      46.592  37.505  28.170  1.00  0.00    -0.237 OA
ATOM     72  O   UNL A   1      46.262  36.005  26.256  1.00  0.00    -0.744 OA
ENDBRANCH  66  69
ENDBRANCH  39  62
ENDBRANCH  13  14
ENDBRANCH   6   8
ENDBRANCH   3   4
ENDBRANCH   2   3
ENDBRANCH   1   2
BRANCH   1  73
ATOM     73  C   UNL A   1      35.373  24.178  25.333  1.00  0.00     0.002 C 
BRANCH  73  74
ATOM     74  C   UNL A   1      34.310  24.247  26.440  1.00  0.00     0.021 C 
BRANCH  74  75
ATOM     75  C   UNL A   1      34.156  22.975  27.269  1.00  0.00     0.116 C 
BRANCH  75  76
ATOM     76  N   UNL A   1      32.761  22.742  27.580  1.00  0.00    -0.352 N 
ATOM     77  C   UNL A   1      31.680  22.878  26.744  1.00  0.00     0.255 C 
ATOM     78  H   UNL A   1      32.564  22.452  28.499  1.00  0.00     0.163 HD
ATOM     79  O   UNL A   1      30.685  23.372  27.253  1.00  0.00    -0.269 OA
BRANCH  77  80
ATOM     80  C   UNL A   1      31.754  22.381  25.332  1.00  0.00     0.082 A 
ATOM     81  C   UNL A   1      32.085  21.015  25.165  1.00  0.00     0.033 A 
ATOM     82  C   UNL A   1      31.440  23.120  24.181  1.00  0.00     0.132 A 
ATOM     83  C   UNL A   1      32.264  20.449  23.906  1.00  0.00     0.019 A 
ATOM     84  C   UNL A   1      31.691  22.544  22.916  1.00  0.00     0.048 A 
ATOM     85  Br  UNL A   1      32.712  18.622  23.746  1.00  0.00    -0.051 Br
ATOM     86  C   UNL A   1      32.108  21.223  22.772  1.00  0.00     0.019 A 
BRANCH  82  87
ATOM     87  O   UNL A   1      30.850  24.331  24.003  1.00  0.00    -0.488 OA
BRANCH  87  88
ATOM     88  C   UNL A   1      31.519  25.562  23.749  1.00  0.00     0.268 C 
BRANCH  88  89
ATOM     89  C   UNL A   1      31.945  26.548  24.829  1.00  0.00     0.025 A 
ATOM     90  C   UNL A   1      33.186  27.192  24.630  1.00  0.00     0.010 A 
ATOM     91  C   UNL A   1      31.296  26.787  26.041  1.00  0.00     0.129 A 
ATOM     92  C   UNL A   1      33.771  27.979  25.628  1.00  0.00     0.001 A 
ATOM     93  C   UNL A   1      31.896  27.533  27.059  1.00  0.00     0.039 A 
ATOM     94  F   UNL A   1      30.073  26.311  26.296  1.00  0.00    -0.207 F 
ATOM     95  C   UNL A   1      33.138  28.125  26.857  1.00  0.00     0.003 A 
ENDBRANCH  88  89
ENDBRANCH  87  88
ENDBRANCH  82  87
ENDBRANCH  77  80
ENDBRANCH  75  76
ENDBRANCH  74  75
ENDBRANCH  73  74
ENDBRANCH   1  73
TORSDOF 19
ENDMDL
MODEL 3
REMARK VINA RESULT:     -11.4      5.220     10.124
REMARK SMILES O=C(NCCCCCCNC(=O)c1cc(Br)ccc1OCc1ccccc1F)c1ccc(-c2c3nc(c(-c4cccc(S(=O)(=O)[O-])c4F)c4ccc([nH]4)c(-c4cccc(S(=O)(=O)[O-])c4F)c4nc(c(-c5cccc(S(=O)(=O)[O-])c5F)c5ccc2[nH]5)C=C4)C=C3)cc1
REMARK SMILES IDX 6 1 5 2 4 3 3 4 1 5 2 6 29 8 30 9 91 10 31 11 90 12 32 13
REMARK SMILES IDX 33 14 34 15 84 16 35 17 89 18 83 19 85 20 36 21 88 22 82 23
REMARK SMILES IDX 81 24 37 26 69 27 49 28 68 29 50 30 53 31 67 32 86 33 51 34
REMARK SMILES IDX 52 35 66 37 87 38 54 39 38 40 39 41 47 42 40 43 42 44 48 45
REMARK SMILES IDX 41 46 43 47 44 48 45 49 46 50 70 51 71 52 79 53 72 54 74 55
REMARK SMILES IDX 80 56 73 57 75 58 76 59 77 60 78 61 55 62 56 63 64 64 57 65
REMARK SMILES IDX 59 66 65 67 58 68 60 69 61 70 62 71 63 72 7 73 8 74 9 75
REMARK SMILES IDX 10 76 11 77 12 79 13 80 14 81 19 82 15 83 18 84 16 85 17 86
REMARK SMILES IDX 20 87 21 88 22 89 23 90 27 91 24 92 26 93 28 94 25 95
REMARK H PARENT 3 7 85 25 53 36 10 78
REMARK Flexibility Score: inf
ROOT
ATOM      1  C   UNL A   1      35.501  20.979  25.002  1.00  0.00     0.002 C 
ENDROOT
BRANCH   1   2
ATOM      2  C   UNL A   1      36.964  21.156  24.601  1.00  0.00     0.021 C 
BRANCH   2   3
ATOM      3  C   UNL A   1      37.881  21.580  25.737  1.00  0.00     0.116 C 
BRANCH   3   4
ATOM      4  N   UNL A   1      38.844  20.548  26.066  1.00  0.00    -0.352 N 
ATOM      5  O   UNL A   1      40.895  19.741  26.534  1.00  0.00    -0.269 OA
ATOM      6  C   UNL A   1      40.136  20.703  26.501  1.00  0.00     0.251 C 
ATOM      7  H   UNL A   1      38.531  19.619  25.967  1.00  0.00     0.163 HD
BRANCH   6   8
ATOM      8  C   UNL A   1      40.599  22.047  26.905  1.00  0.00     0.039 A 
ATOM      9  C   UNL A   1      41.407  22.210  28.037  1.00  0.00     0.014 A 
ATOM     10  C   UNL A   1      40.216  23.154  26.146  1.00  0.00     0.014 A 
ATOM     11  C   UNL A   1      41.746  23.488  28.468  1.00  0.00     0.010 A 
ATOM     12  C   UNL A   1      40.622  24.431  26.538  1.00  0.00     0.010 A 
ATOM     13  C   UNL A   1      41.382  24.609  27.707  1.00  0.00    -0.014 A 
BRANCH  13  14
ATOM     14  C   UNL A   1      41.888  25.955  28.070  1.00  0.00     0.031 A 
ATOM     15  C   UNL A   1      40.995  26.968  28.729  1.00  0.00     0.074 A 
ATOM     16  C   UNL A   1      43.159  26.268  27.750  1.00  0.00     0.049 A 
ATOM     17  N   UNL A   1      41.244  28.222  29.005  1.00  0.00    -0.248 NA
ATOM     18  C   UNL A   1      39.651  26.521  29.129  1.00  0.00     0.031 C 
ATOM     19  C   UNL A   1      44.111  25.365  27.098  1.00  0.00     0.029 A 
ATOM     20  N   UNL A   1      43.864  27.433  27.907  1.00  0.00    -0.354 N 
ATOM     21  C   UNL A   1      40.084  28.726  29.581  1.00  0.00     0.074 A 
ATOM     22  C   UNL A   1      39.125  27.641  29.614  1.00  0.00     0.031 C 
ATOM     23  C   UNL A   1      45.275  26.005  26.918  1.00  0.00     0.029 A 
ATOM     24  C   UNL A   1      45.134  27.380  27.378  1.00  0.00     0.049 A 
ATOM     25  H   UNL A   1      43.499  28.231  28.354  1.00  0.00     0.167 HD
ATOM     26  C   UNL A   1      39.850  29.975  30.049  1.00  0.00     0.034 A 
ATOM     27  C   UNL A   1      46.070  28.339  27.248  1.00  0.00     0.034 A 
ATOM     28  C   UNL A   1      40.820  31.038  30.033  1.00  0.00     0.049 A 
ATOM     29  C   UNL A   1      45.765  29.719  27.756  1.00  0.00     0.074 A 
ATOM     30  C   UNL A   1      40.679  32.334  30.501  1.00  0.00     0.029 A 
ATOM     31  N   UNL A   1      42.107  30.935  29.529  1.00  0.00    -0.354 N 
ATOM     32  N   UNL A   1      44.689  30.155  28.366  1.00  0.00    -0.248 NA
ATOM     33  C   UNL A   1      46.811  30.735  27.580  1.00  0.00     0.031 C 
ATOM     34  C   UNL A   1      41.878  33.017  30.268  1.00  0.00     0.029 A 
ATOM     35  C   UNL A   1      42.772  32.140  29.676  1.00  0.00     0.049 A 
ATOM     36  H   UNL A   1      42.492  30.123  29.126  1.00  0.00     0.167 HD
ATOM     37  C   UNL A   1      44.941  31.485  28.673  1.00  0.00     0.074 A 
ATOM     38  C   UNL A   1      46.283  31.774  28.211  1.00  0.00     0.031 C 
ATOM     39  C   UNL A   1      44.128  32.395  29.264  1.00  0.00     0.034 A 
BRANCH  26  40
ATOM     40  C   UNL A   1      38.511  30.269  30.675  1.00  0.00     0.023 A 
ATOM     41  C   UNL A   1      38.298  29.938  32.028  1.00  0.00     0.012 A 
ATOM     42  C   UNL A   1      37.525  30.993  29.975  1.00  0.00     0.148 A 
ATOM     43  C   UNL A   1      37.123  30.320  32.675  1.00  0.00     0.002 A 
ATOM     44  C   UNL A   1      36.374  31.403  30.638  1.00  0.00     0.091 A 
ATOM     45  F   UNL A   1      37.745  31.287  28.686  1.00  0.00    -0.205 F 
ATOM     46  C   UNL A   1      36.169  31.063  31.985  1.00  0.00     0.022 A 
BRANCH  44  47
ATOM     47  S   UNL A   1      35.116  32.432  29.868  1.00  0.00     0.127 S 
ATOM     48  O   UNL A   1      34.212  32.681  30.990  1.00  0.00    -0.237 OA
ATOM     49  O   UNL A   1      35.893  33.594  29.440  1.00  0.00    -0.237 OA
ATOM     50  O   UNL A   1      34.550  31.637  28.787  1.00  0.00    -0.744 OA
ENDBRANCH  44  47
ENDBRANCH  26  40
BRANCH  27  51
ATOM     51  C   UNL A   1      47.393  28.016  26.646  1.00  0.00     0.023 A 
ATOM     52  C   UNL A   1      48.500  27.810  27.493  1.00  0.00     0.012 A 
ATOM     53  C   UNL A   1      47.562  27.887  25.254  1.00  0.00     0.148 A 
ATOM     54  C   UNL A   1      49.757  27.516  26.963  1.00  0.00     0.002 A 
ATOM     55  C   UNL A   1      48.803  27.534  24.736  1.00  0.00     0.091 A 
ATOM     56  F   UNL A   1      46.503  28.105  24.461  1.00  0.00    -0.205 F 
ATOM     57  C   UNL A   1      49.905  27.366  25.587  1.00  0.00     0.022 A 
BRANCH  55  58
ATOM     58  S   UNL A   1      49.047  27.180  22.992  1.00  0.00     0.127 S 
ATOM     59  O   UNL A   1      50.499  27.043  22.916  1.00  0.00    -0.237 OA
ATOM     60  O   UNL A   1      48.301  25.932  22.827  1.00  0.00    -0.237 OA
ATOM     61  O   UNL A   1      48.474  28.315  22.282  1.00  0.00    -0.744 OA
ENDBRANCH  55  58
ENDBRANCH  27  51
BRANCH  39  62
ATOM     62  C   UNL A   1      44.675  33.783  29.474  1.00  0.00     0.023 A 
ATOM     63  C   UNL A   1      45.313  34.104  30.688  1.00  0.00     0.012 A 
ATOM     64  C   UNL A   1      44.613  34.745  28.448  1.00  0.00     0.148 A 
ATOM     65  C   UNL A   1      45.848  35.374  30.892  1.00  0.00     0.002 A 
ATOM     66  C   UNL A   1      45.196  35.993  28.638  1.00  0.00     0.091 A 
ATOM     67  F   UNL A   1      43.984  34.428  27.307  1.00  0.00    -0.205 F 
ATOM     68  C   UNL A   1      45.801  36.314  29.864  1.00  0.00     0.022 A 
BRANCH  66  69
ATOM     69  S   UNL A   1      45.270  37.224  27.333  1.00  0.00     0.127 S 
ATOM     70  O   UNL A   1      46.050  38.285  27.968  1.00  0.00    -0.237 OA
ATOM     71  O   UNL A   1      45.970  36.507  26.267  1.00  0.00    -0.237 OA
ATOM     72  O   UNL A   1      43.887  37.560  27.025  1.00  0.00    -0.744 OA
ENDBRANCH  66  69
ENDBRANCH  39  62
ENDBRANCH  13  14
ENDBRANCH   6   8
ENDBRANCH   3   4
ENDBRANCH   2   3
ENDBRANCH   1   2
BRANCH   1  73
ATOM     73  C   UNL A   1      35.117  21.566  26.364  1.00  0.00     0.002 C 
BRANCH  73  74
ATOM     74  C   UNL A   1      34.333  22.885  26.333  1.00  0.00     0.021 C 
BRANCH  74  75
ATOM     75  C   UNL A   1      33.182  22.978  27.331  1.00  0.00     0.116 C 
BRANCH  75  76
ATOM     76  N   UNL A   1      32.055  22.191  26.876  1.00  0.00    -0.352 N 
ATOM     77  C   UNL A   1      31.004  22.602  26.094  1.00  0.00     0.255 C 
ATOM     78  H   UNL A   1      32.040  21.249  27.162  1.00  0.00     0.163 HD
ATOM     79  O   UNL A   1      29.910  22.164  26.416  1.00  0.00    -0.269 OA
BRANCH  77  80
ATOM     80  C   UNL A   1      31.251  23.477  24.902  1.00  0.00     0.082 A 
ATOM     81  C   UNL A   1      30.852  24.829  25.025  1.00  0.00     0.033 A 
ATOM     82  C   UNL A   1      31.916  23.099  23.726  1.00  0.00     0.132 A 
ATOM     83  C   UNL A   1      30.952  25.726  23.964  1.00  0.00     0.019 A 
ATOM     84  C   UNL A   1      31.947  24.006  22.643  1.00  0.00     0.048 A 
ATOM     85  Br  UNL A   1      30.397  27.517  24.186  1.00  0.00    -0.051 Br
ATOM     86  C   UNL A   1      31.464  25.307  22.751  1.00  0.00     0.019 A 
BRANCH  82  87
ATOM     87  O   UNL A   1      32.639  21.996  23.396  1.00  0.00    -0.488 OA
BRANCH  87  88
ATOM     88  C   UNL A   1      32.124  20.785  22.854  1.00  0.00     0.268 C 
BRANCH  88  89
ATOM     89  C   UNL A   1      32.363  19.405  23.451  1.00  0.00     0.025 A 
ATOM     90  C   UNL A   1      32.450  19.340  24.859  1.00  0.00     0.010 A 
ATOM     91  C   UNL A   1      32.622  18.227  22.748  1.00  0.00     0.129 A 
ATOM     92  C   UNL A   1      32.843  18.169  25.516  1.00  0.00     0.001 A 
ATOM     93  C   UNL A   1      33.061  17.069  23.394  1.00  0.00     0.039 A 
ATOM     94  F   UNL A   1      32.472  18.146  21.422  1.00  0.00    -0.207 F 
ATOM     95  C   UNL A   1      33.179  17.040  24.779  1.00  0.00     0.003 A 
ENDBRANCH  88  89
ENDBRANCH  87  88
ENDBRANCH  82  87
ENDBRANCH  77  80
ENDBRANCH  75  76
ENDBRANCH  74  75
ENDBRANCH  73  74
ENDBRANCH   1  73
TORSDOF 19
ENDMDL
