MODEL 1
REMARK VINA RESULT:     -12.9      0.000      0.000
REMARK SMILES C[C@]1(C(=O)NCCCCCCNC(=O)c2ccc(-c3c4nc(c(-c5cccc(S(=O)(=O)[O-])c5F)c5ccc([nH]5)c(-c5cccc(S(=O)(=O)[O-])c5F)c5nc(c(-c6cccc(S(=O)(=O)[O-])c6F)c6ccc3[nH]6)C=C5)C=C4)cc2)[NH2+]C2(C(=O)c3ccccc3C2=O)[C@@H]2C(=O)N(c3ccccc3)C(=O)[C@H]21
REMARK SMILES IDX 9 1 8 2 7 3 6 4 5 5 3 6 4 7 2 9 1 10 78 11 102 12 79 13
REMARK SMILES IDX 90 16 100 17 80 18 88 19 91 20 93 21 101 22 81 23 82 24
REMARK SMILES IDX 87 25 89 26 92 27 83 28 86 29 84 30 85 31 94 32 95 33 99 34
REMARK SMILES IDX 96 35 98 36 97 37 10 38 11 39 12 40 13 41 14 43 15 44 16 45
REMARK SMILES IDX 77 46 17 47 76 48 18 49 19 50 20 51 70 52 21 53 75 54 69 55
REMARK SMILES IDX 71 56 22 57 74 58 68 59 67 60 23 62 55 63 35 64 54 65 36 66
REMARK SMILES IDX 39 67 53 68 72 69 37 70 38 71 52 73 73 74 40 75 24 76 25 77
REMARK SMILES IDX 33 78 26 79 28 80 34 81 27 82 29 83 30 84 31 85 32 86 56 87
REMARK SMILES IDX 57 88 65 89 58 90 60 91 66 92 59 93 61 94 62 95 63 96 64 97
REMARK SMILES IDX 41 98 42 99 50 100 43 101 45 102 51 103 44 104 46 105 47 106
REMARK SMILES IDX 48 107 49 108
REMARK H PARENT 5 8 78 14 78 15 12 42 71 61 39 72
REMARK Flexibility Score: inf
ROOT
ATOM      1  C   UNL A   1      35.129  34.077  28.219  1.00  0.00     0.002 C 
ENDROOT
BRANCH   1   2
ATOM      2  C   UNL A   1      35.409  32.594  27.945  1.00  0.00     0.002 C 
BRANCH   2   3
ATOM      3  C   UNL A   1      34.406  31.572  28.474  1.00  0.00     0.021 C 
BRANCH   3   4
ATOM      4  C   UNL A   1      33.774  30.639  27.449  1.00  0.00     0.116 C 
BRANCH   4   5
ATOM      5  N   UNL A   1      32.858  29.649  27.941  1.00  0.00    -0.351 N 
ATOM      6  C   UNL A   1      32.505  28.426  27.452  1.00  0.00     0.281 C 
ATOM      7  O   UNL A   1      31.621  27.866  28.120  1.00  0.00    -0.268 OA
ATOM      8  H   UNL A   1      32.405  29.897  28.779  1.00  0.00     0.163 HD
BRANCH   6   9
ATOM      9  C   UNL A   1      33.107  27.698  26.167  1.00  0.00     0.186 C 
ATOM     10  C   UNL A   1      34.527  28.300  25.983  1.00  0.00     0.091 C 
ATOM     11  N   UNL A   1      33.241  26.190  26.322  1.00  0.00    -0.314 N 
ATOM     12  C   UNL A   1      32.395  27.805  24.847  1.00  0.00     0.170 C 
ATOM     13  C   UNL A   1      32.367  25.503  25.267  1.00  0.00     0.236 C 
ATOM     14  H   UNL A   1      32.933  25.913  27.254  1.00  0.00     0.348 HD
ATOM     15  H   UNL A   1      34.215  25.915  26.197  1.00  0.00     0.348 HD
ATOM     16  C   UNL A   1      31.475  26.608  24.792  1.00  0.00     0.177 C 
ATOM     17  C   UNL A   1      31.485  28.887  24.398  1.00  0.00     0.244 C 
ATOM     18  C   UNL A   1      33.191  24.793  24.186  1.00  0.00     0.232 C 
ATOM     19  C   UNL A   1      31.635  24.323  25.934  1.00  0.00     0.232 C 
ATOM     20  C   UNL A   1      30.807  26.869  23.483  1.00  0.00     0.245 C 
ATOM     21  N   UNL A   1      30.668  28.261  23.457  1.00  0.00    -0.250 N 
ATOM     22  O   UNL A   1      31.523  30.047  24.768  1.00  0.00    -0.273 OA
ATOM     23  O   UNL A   1      34.003  25.311  23.438  1.00  0.00    -0.286 OA
ATOM     24  C   UNL A   1      32.906  23.349  24.244  1.00  0.00     0.036 A 
ATOM     25  C   UNL A   1      32.034  23.087  25.288  1.00  0.00     0.036 A 
ATOM     26  O   UNL A   1      30.838  24.315  26.855  1.00  0.00    -0.286 OA
ATOM     27  O   UNL A   1      30.372  26.011  22.745  1.00  0.00    -0.273 OA
ATOM     28  C   UNL A   1      33.385  22.316  23.461  1.00  0.00     0.013 A 
ATOM     29  C   UNL A   1      31.623  21.810  25.627  1.00  0.00     0.013 A 
ATOM     30  C   UNL A   1      32.966  21.011  23.770  1.00  0.00     0.001 A 
ATOM     31  C   UNL A   1      32.101  20.759  24.851  1.00  0.00     0.001 A 
BRANCH  21  32
ATOM     32  C   UNL A   1      29.680  28.970  22.752  1.00  0.00     0.052 A 
ATOM     33  C   UNL A   1      30.047  29.940  21.811  1.00  0.00     0.027 A 
ATOM     34  C   UNL A   1      28.333  28.819  23.098  1.00  0.00     0.027 A 
ATOM     35  C   UNL A   1      29.077  30.750  21.220  1.00  0.00     0.002 A 
ATOM     36  C   UNL A   1      27.373  29.669  22.547  1.00  0.00     0.002 A 
ATOM     37  C   UNL A   1      27.744  30.629  21.605  1.00  0.00     0.000 A 
ENDBRANCH  21  32
ENDBRANCH   6   9
ENDBRANCH   4   5
ENDBRANCH   3   4
ENDBRANCH   2   3
ENDBRANCH   1   2
BRANCH   1  38
ATOM     38  C   UNL A   1      33.685  34.497  28.508  1.00  0.00     0.021 C 
BRANCH  38  39
ATOM     39  C   UNL A   1      33.472  35.877  29.125  1.00  0.00     0.116 C 
BRANCH  39  40
ATOM     40  N   UNL A   1      32.713  35.849  30.364  1.00  0.00    -0.352 N 
ATOM     41  C   UNL A   1      32.969  35.230  31.564  1.00  0.00     0.251 C 
ATOM     42  H   UNL A   1      31.872  36.361  30.339  1.00  0.00     0.163 HD
ATOM     43  O   UNL A   1      32.119  35.265  32.452  1.00  0.00    -0.269 OA
BRANCH  41  44
ATOM     44  C   UNL A   1      34.232  34.489  31.785  1.00  0.00     0.039 A 
ATOM     45  C   UNL A   1      34.242  33.110  32.002  1.00  0.00     0.014 A 
ATOM     46  C   UNL A   1      35.440  35.195  31.759  1.00  0.00     0.014 A 
ATOM     47  C   UNL A   1      35.430  32.471  32.355  1.00  0.00     0.010 A 
ATOM     48  C   UNL A   1      36.642  34.539  32.042  1.00  0.00     0.010 A 
ATOM     49  C   UNL A   1      36.641  33.181  32.393  1.00  0.00    -0.014 A 
BRANCH  49  50
ATOM     50  C   UNL A   1      37.892  32.491  32.805  1.00  0.00     0.031 A 
ATOM     51  C   UNL A   1      38.525  32.779  34.143  1.00  0.00     0.074 A 
ATOM     52  C   UNL A   1      38.443  31.571  31.989  1.00  0.00     0.049 A 
ATOM     53  N   UNL A   1      39.602  32.255  34.670  1.00  0.00    -0.248 NA
ATOM     54  C   UNL A   1      37.868  33.781  34.998  1.00  0.00     0.031 C 
ATOM     55  C   UNL A   1      37.936  31.212  30.665  1.00  0.00     0.029 A 
ATOM     56  N   UNL A   1      39.540  30.764  32.157  1.00  0.00    -0.354 N 
ATOM     57  C   UNL A   1      39.770  32.883  35.900  1.00  0.00     0.074 A 
ATOM     58  C   UNL A   1      38.689  33.834  36.039  1.00  0.00     0.031 C 
ATOM     59  C   UNL A   1      38.692  30.226  30.157  1.00  0.00     0.029 A 
ATOM     60  C   UNL A   1      39.764  29.915  31.098  1.00  0.00     0.049 A 
ATOM     61  H   UNL A   1      40.112  30.789  32.957  1.00  0.00     0.167 HD
ATOM     62  C   UNL A   1      40.724  32.671  36.837  1.00  0.00     0.034 A 
ATOM     63  C   UNL A   1      40.722  28.988  30.902  1.00  0.00     0.034 A 
ATOM     64  C   UNL A   1      41.772  31.693  36.724  1.00  0.00     0.049 A 
ATOM     65  C   UNL A   1      41.762  28.766  31.960  1.00  0.00     0.074 A 
ATOM     66  C   UNL A   1      42.767  31.394  37.638  1.00  0.00     0.029 A 
ATOM     67  N   UNL A   1      41.955  30.850  35.641  1.00  0.00    -0.354 N 
ATOM     68  N   UNL A   1      41.869  29.333  33.137  1.00  0.00    -0.248 NA
ATOM     69  C   UNL A   1      42.805  27.771  31.674  1.00  0.00     0.031 C 
ATOM     70  C   UNL A   1      43.552  30.366  37.108  1.00  0.00     0.029 A 
ATOM     71  C   UNL A   1      43.041  30.023  35.867  1.00  0.00     0.049 A 
ATOM     72  H   UNL A   1      41.395  30.840  34.831  1.00  0.00     0.167 HD
ATOM     73  C   UNL A   1      42.979  28.755  33.739  1.00  0.00     0.074 A 
ATOM     74  C   UNL A   1      43.503  27.779  32.805  1.00  0.00     0.031 C 
ATOM     75  C   UNL A   1      43.522  29.022  34.951  1.00  0.00     0.034 A 
BRANCH  62  76
ATOM     76  C   UNL A   1      40.652  33.469  38.110  1.00  0.00     0.023 A 
ATOM     77  C   UNL A   1      39.844  33.000  39.166  1.00  0.00     0.012 A 
ATOM     78  C   UNL A   1      41.448  34.614  38.300  1.00  0.00     0.148 A 
ATOM     79  C   UNL A   1      39.823  33.666  40.390  1.00  0.00     0.002 A 
ATOM     80  C   UNL A   1      41.443  35.257  39.533  1.00  0.00     0.091 A 
ATOM     81  F   UNL A   1      42.197  35.048  37.276  1.00  0.00    -0.205 F 
ATOM     82  C   UNL A   1      40.629  34.786  40.577  1.00  0.00     0.022 A 
BRANCH  80  83
ATOM     83  S   UNL A   1      42.483  36.676  39.897  1.00  0.00     0.127 S 
ATOM     84  O   UNL A   1      42.152  37.573  38.790  1.00  0.00    -0.237 OA
ATOM     85  O   UNL A   1      41.977  37.102  41.201  1.00  0.00    -0.237 OA
ATOM     86  O   UNL A   1      43.853  36.181  39.905  1.00  0.00    -0.744 OA
ENDBRANCH  80  83
ENDBRANCH  62  76
BRANCH  63  87
ATOM     87  C   UNL A   1      40.681  28.156  29.670  1.00  0.00     0.023 A 
ATOM     88  C   UNL A   1      39.665  27.193  29.527  1.00  0.00     0.012 A 
ATOM     89  C   UNL A   1      41.577  28.381  28.607  1.00  0.00     0.148 A 
ATOM     90  C   UNL A   1      39.540  26.466  28.344  1.00  0.00     0.002 A 
ATOM     91  C   UNL A   1      41.420  27.684  27.415  1.00  0.00     0.091 A 
ATOM     92  F   UNL A   1      42.538  29.301  28.773  1.00  0.00    -0.205 F 
ATOM     93  C   UNL A   1      40.408  26.720  27.285  1.00  0.00     0.022 A 
BRANCH  91  94
ATOM     94  S   UNL A   1      42.411  28.021  25.957  1.00  0.00     0.127 S 
ATOM     95  O   UNL A   1      41.832  27.098  24.983  1.00  0.00    -0.237 OA
ATOM     96  O   UNL A   1      42.116  29.434  25.718  1.00  0.00    -0.237 OA
ATOM     97  O   UNL A   1      43.789  27.745  26.339  1.00  0.00    -0.744 OA
ENDBRANCH  91  94
ENDBRANCH  63  87
BRANCH  75  98
ATOM     98  C   UNL A   1      44.743  28.249  35.363  1.00  0.00     0.023 A 
ATOM     99  C   UNL A   1      46.016  28.810  35.152  1.00  0.00     0.012 A 
ATOM    100  C   UNL A   1      44.622  27.035  36.066  1.00  0.00     0.148 A 
ATOM    101  C   UNL A   1      47.157  28.168  35.631  1.00  0.00     0.002 A 
ATOM    102  C   UNL A   1      45.761  26.417  36.567  1.00  0.00     0.091 A 
ATOM    103  F   UNL A   1      43.397  26.519  36.242  1.00  0.00    -0.205 F 
ATOM    104  C   UNL A   1      47.029  26.980  36.347  1.00  0.00     0.022 A 
BRANCH 102 105
ATOM    105  S   UNL A   1      45.693  24.923  37.563  1.00  0.00     0.127 S 
ATOM    106  O   UNL A   1      47.107  24.699  37.858  1.00  0.00    -0.237 OA
ATOM    107  O   UNL A   1      44.889  25.351  38.708  1.00  0.00    -0.237 OA
ATOM    108  O   UNL A   1      45.066  23.909  36.725  1.00  0.00    -0.744 OA
ENDBRANCH 102 105
ENDBRANCH  75  98
ENDBRANCH  49  50
ENDBRANCH  41  44
ENDBRANCH  39  40
ENDBRANCH  38  39
ENDBRANCH   1  38
TORSDOF 17
ENDMDL
MODEL 2
REMARK VINA RESULT:     -12.8      4.894      9.127
REMARK SMILES C[C@]1(C(=O)NCCCCCCNC(=O)c2ccc(-c3c4nc(c(-c5cccc(S(=O)(=O)[O-])c5F)c5ccc([nH]5)c(-c5cccc(S(=O)(=O)[O-])c5F)c5nc(c(-c6cccc(S(=O)(=O)[O-])c6F)c6ccc3[nH]6)C=C5)C=C4)cc2)[NH2+]C2(C(=O)c3ccccc3C2=O)[C@@H]2C(=O)N(c3ccccc3)C(=O)[C@H]21
REMARK SMILES IDX 9 1 8 2 7 3 6 4 5 5 3 6 4 7 2 9 1 10 78 11 102 12 79 13
REMARK SMILES IDX 90 16 100 17 80 18 88 19 91 20 93 21 101 22 81 23 82 24
REMARK SMILES IDX 87 25 89 26 92 27 83 28 86 29 84 30 85 31 94 32 95 33 99 34
REMARK SMILES IDX 96 35 98 36 97 37 10 38 11 39 12 40 13 41 14 43 15 44 16 45
REMARK SMILES IDX 77 46 17 47 76 48 18 49 19 50 20 51 70 52 21 53 75 54 69 55
REMARK SMILES IDX 71 56 22 57 74 58 68 59 67 60 23 62 55 63 35 64 54 65 36 66
REMARK SMILES IDX 39 67 53 68 72 69 37 70 38 71 52 73 73 74 40 75 24 76 25 77
REMARK SMILES IDX 33 78 26 79 28 80 34 81 27 82 29 83 30 84 31 85 32 86 56 87
REMARK SMILES IDX 57 88 65 89 58 90 60 91 66 92 59 93 61 94 62 95 63 96 64 97
REMARK SMILES IDX 41 98 42 99 50 100 43 101 45 102 51 103 44 104 46 105 47 106
REMARK SMILES IDX 48 107 49 108
REMARK H PARENT 5 8 78 14 78 15 12 42 71 61 39 72
REMARK Flexibility Score: inf
ROOT
ATOM      1  C   UNL A   1      35.266  33.476  29.487  1.00  0.00     0.002 C 
ENDROOT
BRANCH   1   2
ATOM      2  C   UNL A   1      34.366  32.918  28.378  1.00  0.00     0.002 C 
BRANCH   2   3
ATOM      3  C   UNL A   1      34.559  31.459  27.972  1.00  0.00     0.021 C 
BRANCH   3   4
ATOM      4  C   UNL A   1      33.413  30.801  27.216  1.00  0.00     0.116 C 
BRANCH   4   5
ATOM      5  N   UNL A   1      32.726  29.726  27.875  1.00  0.00    -0.351 N 
ATOM      6  C   UNL A   1      32.531  28.426  27.512  1.00  0.00     0.281 C 
ATOM      7  O   UNL A   1      31.822  27.794  28.312  1.00  0.00    -0.268 OA
ATOM      8  H   UNL A   1      32.324  29.970  28.739  1.00  0.00     0.163 HD
BRANCH   6   9
ATOM      9  C   UNL A   1      33.113  27.693  26.221  1.00  0.00     0.186 C 
ATOM     10  C   UNL A   1      34.530  28.297  26.011  1.00  0.00     0.091 C 
ATOM     11  N   UNL A   1      33.252  26.186  26.380  1.00  0.00    -0.314 N 
ATOM     12  C   UNL A   1      32.380  27.794  24.912  1.00  0.00     0.170 C 
ATOM     13  C   UNL A   1      32.363  25.493  25.342  1.00  0.00     0.236 C 
ATOM     14  H   UNL A   1      32.960  25.912  27.318  1.00  0.00     0.348 HD
ATOM     15  H   UNL A   1      34.225  25.912  26.240  1.00  0.00     0.348 HD
ATOM     16  C   UNL A   1      31.461  26.595  24.877  1.00  0.00     0.177 C 
ATOM     17  C   UNL A   1      31.461  28.873  24.473  1.00  0.00     0.244 C 
ATOM     18  C   UNL A   1      33.170  24.781  24.250  1.00  0.00     0.232 C 
ATOM     19  C   UNL A   1      31.643  24.315  26.026  1.00  0.00     0.232 C 
ATOM     20  C   UNL A   1      30.772  26.850  23.578  1.00  0.00     0.245 C 
ATOM     21  N   UNL A   1      30.630  28.242  23.549  1.00  0.00    -0.250 N 
ATOM     22  O   UNL A   1      31.503  30.034  24.839  1.00  0.00    -0.273 OA
ATOM     23  O   UNL A   1      33.969  25.297  23.488  1.00  0.00    -0.286 OA
ATOM     24  C   UNL A   1      32.889  23.336  24.320  1.00  0.00     0.036 A 
ATOM     25  C   UNL A   1      32.033  23.078  25.378  1.00  0.00     0.036 A 
ATOM     26  O   UNL A   1      30.861  24.310  26.959  1.00  0.00    -0.286 OA
ATOM     27  O   UNL A   1      30.326  25.988  22.850  1.00  0.00    -0.273 OA
ATOM     28  C   UNL A   1      33.356  22.301  23.533  1.00  0.00     0.013 A 
ATOM     29  C   UNL A   1      31.630  21.801  25.729  1.00  0.00     0.013 A 
ATOM     30  C   UNL A   1      32.944  20.997  23.854  1.00  0.00     0.001 A 
ATOM     31  C   UNL A   1      32.097  20.747  24.949  1.00  0.00     0.001 A 
BRANCH  21  32
ATOM     32  C   UNL A   1      29.630  28.946  22.856  1.00  0.00     0.052 A 
ATOM     33  C   UNL A   1      29.979  29.864  21.858  1.00  0.00     0.027 A 
ATOM     34  C   UNL A   1      28.296  28.847  23.267  1.00  0.00     0.027 A 
ATOM     35  C   UNL A   1      29.005  30.674  21.275  1.00  0.00     0.002 A 
ATOM     36  C   UNL A   1      27.335  29.699  22.722  1.00  0.00     0.002 A 
ATOM     37  C   UNL A   1      27.687  30.606  21.723  1.00  0.00     0.000 A 
ENDBRANCH  21  32
ENDBRANCH   6   9
ENDBRANCH   4   5
ENDBRANCH   3   4
ENDBRANCH   2   3
ENDBRANCH   1   2
BRANCH   1  38
ATOM     38  C   UNL A   1      34.688  33.583  30.901  1.00  0.00     0.021 C 
BRANCH  38  39
ATOM     39  C   UNL A   1      34.757  32.335  31.778  1.00  0.00     0.116 C 
BRANCH  39  40
ATOM     40  N   UNL A   1      35.343  32.576  33.086  1.00  0.00    -0.352 N 
ATOM     41  C   UNL A   1      36.579  32.255  33.593  1.00  0.00     0.251 C 
ATOM     42  H   UNL A   1      34.753  33.050  33.716  1.00  0.00     0.163 HD
ATOM     43  O   UNL A   1      36.818  32.476  34.778  1.00  0.00    -0.269 OA
BRANCH  41  44
ATOM     44  C   UNL A   1      37.608  31.613  32.743  1.00  0.00     0.039 A 
ATOM     45  C   UNL A   1      38.290  30.469  33.161  1.00  0.00     0.014 A 
ATOM     46  C   UNL A   1      37.884  32.165  31.488  1.00  0.00     0.014 A 
ATOM     47  C   UNL A   1      39.354  29.980  32.404  1.00  0.00     0.010 A 
ATOM     48  C   UNL A   1      38.905  31.629  30.695  1.00  0.00     0.010 A 
ATOM     49  C   UNL A   1      39.683  30.563  31.170  1.00  0.00    -0.014 A 
BRANCH  49  50
ATOM     50  C   UNL A   1      40.843  30.050  30.394  1.00  0.00     0.031 A 
ATOM     51  C   UNL A   1      40.744  28.758  29.624  1.00  0.00     0.074 A 
ATOM     52  C   UNL A   1      41.982  30.769  30.350  1.00  0.00     0.049 A 
ATOM     53  N   UNL A   1      41.649  28.175  28.880  1.00  0.00    -0.248 NA
ATOM     54  C   UNL A   1      39.469  28.026  29.697  1.00  0.00     0.031 C 
ATOM     55  C   UNL A   1      42.210  32.027  31.061  1.00  0.00     0.029 A 
ATOM     56  N   UNL A   1      43.155  30.552  29.671  1.00  0.00    -0.354 N 
ATOM     57  C   UNL A   1      41.068  26.997  28.423  1.00  0.00     0.074 A 
ATOM     58  C   UNL A   1      39.734  26.941  28.979  1.00  0.00     0.031 C 
ATOM     59  C   UNL A   1      43.428  32.495  30.748  1.00  0.00     0.029 A 
ATOM     60  C   UNL A   1      44.086  31.549  29.852  1.00  0.00     0.049 A 
ATOM     61  H   UNL A   1      43.316  29.761  29.109  1.00  0.00     0.167 HD
ATOM     62  C   UNL A   1      41.589  26.060  27.598  1.00  0.00     0.034 A 
ATOM     63  C   UNL A   1      45.330  31.690  29.354  1.00  0.00     0.034 A 
ATOM     64  C   UNL A   1      42.896  26.134  27.004  1.00  0.00     0.049 A 
ATOM     65  C   UNL A   1      45.881  30.641  28.433  1.00  0.00     0.074 A 
ATOM     66  C   UNL A   1      43.495  25.239  26.135  1.00  0.00     0.029 A 
ATOM     67  N   UNL A   1      43.800  27.164  27.206  1.00  0.00    -0.354 N 
ATOM     68  N   UNL A   1      45.293  29.564  27.973  1.00  0.00    -0.248 NA
ATOM     69  C   UNL A   1      47.257  30.828  27.953  1.00  0.00     0.031 C 
ATOM     70  C   UNL A   1      44.763  25.730  25.809  1.00  0.00     0.029 A 
ATOM     71  C   UNL A   1      44.949  26.932  26.471  1.00  0.00     0.049 A 
ATOM     72  H   UNL A   1      43.647  27.944  27.786  1.00  0.00     0.167 HD
ATOM     73  C   UNL A   1      46.218  28.953  27.136  1.00  0.00     0.074 A 
ATOM     74  C   UNL A   1      47.403  29.788  27.139  1.00  0.00     0.031 C 
ATOM     75  C   UNL A   1      46.100  27.795  26.443  1.00  0.00     0.034 A 
BRANCH  62  76
ATOM     76  C   UNL A   1      40.723  24.887  27.226  1.00  0.00     0.023 A 
ATOM     77  C   UNL A   1      39.472  25.124  26.622  1.00  0.00     0.012 A 
ATOM     78  C   UNL A   1      41.180  23.564  27.381  1.00  0.00     0.148 A 
ATOM     79  C   UNL A   1      38.684  24.062  26.184  1.00  0.00     0.002 A 
ATOM     80  C   UNL A   1      40.401  22.510  26.916  1.00  0.00     0.091 A 
ATOM     81  F   UNL A   1      42.367  23.363  27.971  1.00  0.00    -0.205 F 
ATOM     82  C   UNL A   1      39.152  22.757  26.322  1.00  0.00     0.022 A 
BRANCH  80  83
ATOM     83  S   UNL A   1      40.933  20.796  26.995  1.00  0.00     0.127 S 
ATOM     84  O   UNL A   1      39.948  20.144  26.132  1.00  0.00    -0.237 OA
ATOM     85  O   UNL A   1      42.282  20.867  26.436  1.00  0.00    -0.237 OA
ATOM     86  O   UNL A   1      40.872  20.419  28.400  1.00  0.00    -0.744 OA
ENDBRANCH  80  83
ENDBRANCH  62  76
BRANCH  63  87
ATOM     87  C   UNL A   1      46.100  32.922  29.672  1.00  0.00     0.023 A 
ATOM     88  C   UNL A   1      46.955  32.926  30.790  1.00  0.00     0.012 A 
ATOM     89  C   UNL A   1      46.063  34.046  28.825  1.00  0.00     0.148 A 
ATOM     90  C   UNL A   1      47.764  34.029  31.060  1.00  0.00     0.002 A 
ATOM     91  C   UNL A   1      46.904  35.124  29.075  1.00  0.00     0.091 A 
ATOM     92  F   UNL A   1      45.236  34.017  27.771  1.00  0.00    -0.205 F 
ATOM     93  C   UNL A   1      47.748  35.121  30.196  1.00  0.00     0.022 A 
BRANCH  91  94
ATOM     94  S   UNL A   1      47.041  36.524  27.959  1.00  0.00     0.127 S 
ATOM     95  O   UNL A   1      45.740  37.168  28.127  1.00  0.00    -0.237 OA
ATOM     96  O   UNL A   1      48.169  37.255  28.538  1.00  0.00    -0.237 OA
ATOM     97  O   UNL A   1      47.295  35.960  26.641  1.00  0.00    -0.744 OA
ENDBRANCH  91  94
ENDBRANCH  63  87
BRANCH  75  98
ATOM     98  C   UNL A   1      47.269  27.350  25.611  1.00  0.00     0.023 A 
ATOM     99  C   UNL A   1      48.193  26.437  26.154  1.00  0.00     0.012 A 
ATOM    100  C   UNL A   1      47.380  27.735  24.261  1.00  0.00     0.148 A 
ATOM    101  C   UNL A   1      49.217  25.917  25.365  1.00  0.00     0.002 A 
ATOM    102  C   UNL A   1      48.385  27.190  23.472  1.00  0.00     0.091 A 
ATOM    103  F   UNL A   1      46.492  28.615  23.775  1.00  0.00    -0.205 F 
ATOM    104  C   UNL A   1      49.306  26.284  24.023  1.00  0.00     0.022 A 
BRANCH 102 105
ATOM    105  S   UNL A   1      48.539  27.545  21.718  1.00  0.00     0.127 S 
ATOM    106  O   UNL A   1      47.239  28.147  21.422  1.00  0.00    -0.237 OA
ATOM    107  O   UNL A   1      49.665  28.479  21.690  1.00  0.00    -0.237 OA
ATOM    108  O   UNL A   1      48.793  26.266  21.068  1.00  0.00    -0.744 OA
ENDBRANCH 102 105
ENDBRANCH  75  98
ENDBRANCH  49  50
ENDBRANCH  41  44
ENDBRANCH  39  40
ENDBRANCH  38  39
ENDBRANCH   1  38
TORSDOF 17
ENDMDL
MODEL 3
REMARK VINA RESULT:     -12.6      0.529      7.008
REMARK SMILES C[C@]1(C(=O)NCCCCCCNC(=O)c2ccc(-c3c4nc(c(-c5cccc(S(=O)(=O)[O-])c5F)c5ccc([nH]5)c(-c5cccc(S(=O)(=O)[O-])c5F)c5nc(c(-c6cccc(S(=O)(=O)[O-])c6F)c6ccc3[nH]6)C=C5)C=C4)cc2)[NH2+]C2(C(=O)c3ccccc3C2=O)[C@@H]2C(=O)N(c3ccccc3)C(=O)[C@H]21
REMARK SMILES IDX 9 1 8 2 7 3 6 4 5 5 3 6 4 7 2 9 1 10 78 11 102 12 79 13
REMARK SMILES IDX 90 16 100 17 80 18 88 19 91 20 93 21 101 22 81 23 82 24
REMARK SMILES IDX 87 25 89 26 92 27 83 28 86 29 84 30 85 31 94 32 95 33 99 34
REMARK SMILES IDX 96 35 98 36 97 37 10 38 11 39 12 40 13 41 14 43 15 44 16 45
REMARK SMILES IDX 77 46 17 47 76 48 18 49 19 50 20 51 70 52 21 53 75 54 69 55
REMARK SMILES IDX 71 56 22 57 74 58 68 59 67 60 23 62 55 63 35 64 54 65 36 66
REMARK SMILES IDX 39 67 53 68 72 69 37 70 38 71 52 73 73 74 40 75 24 76 25 77
REMARK SMILES IDX 33 78 26 79 28 80 34 81 27 82 29 83 30 84 31 85 32 86 56 87
REMARK SMILES IDX 57 88 65 89 58 90 60 91 66 92 59 93 61 94 62 95 63 96 64 97
REMARK SMILES IDX 41 98 42 99 50 100 43 101 45 102 51 103 44 104 46 105 47 106
REMARK SMILES IDX 48 107 49 108
REMARK H PARENT 5 8 78 14 78 15 12 42 71 61 39 72
REMARK Flexibility Score: inf
ROOT
ATOM      1  C   UNL A   1      35.445  33.648  27.772  1.00  0.00     0.002 C 
ENDROOT
BRANCH   1   2
ATOM      2  C   UNL A   1      35.737  32.153  27.958  1.00  0.00     0.002 C 
BRANCH   2   3
ATOM      3  C   UNL A   1      34.615  31.274  28.506  1.00  0.00     0.021 C 
BRANCH   3   4
ATOM      4  C   UNL A   1      33.732  30.573  27.481  1.00  0.00     0.116 C 
BRANCH   4   5
ATOM      5  N   UNL A   1      32.829  29.571  27.972  1.00  0.00    -0.351 N 
ATOM      6  C   UNL A   1      32.491  28.345  27.480  1.00  0.00     0.281 C 
ATOM      7  O   UNL A   1      31.614  27.773  28.147  1.00  0.00    -0.268 OA
ATOM      8  H   UNL A   1      32.372  29.811  28.810  1.00  0.00     0.163 HD
BRANCH   6   9
ATOM      9  C   UNL A   1      33.101  27.627  26.194  1.00  0.00     0.186 C 
ATOM     10  C   UNL A   1      34.524  28.228  26.026  1.00  0.00     0.091 C 
ATOM     11  N   UNL A   1      33.232  26.117  26.337  1.00  0.00    -0.314 N 
ATOM     12  C   UNL A   1      32.401  27.747  24.869  1.00  0.00     0.170 C 
ATOM     13  C   UNL A   1      32.366  25.441  25.270  1.00  0.00     0.236 C 
ATOM     14  H   UNL A   1      32.917  25.833  27.264  1.00  0.00     0.348 HD
ATOM     15  H   UNL A   1      34.207  25.842  26.217  1.00  0.00     0.348 HD
ATOM     16  C   UNL A   1      31.479  26.551  24.797  1.00  0.00     0.177 C 
ATOM     17  C   UNL A   1      31.496  28.833  24.422  1.00  0.00     0.244 C 
ATOM     18  C   UNL A   1      33.197  24.739  24.188  1.00  0.00     0.232 C 
ATOM     19  C   UNL A   1      31.627  24.256  25.920  1.00  0.00     0.232 C 
ATOM     20  C   UNL A   1      30.822  26.824  23.485  1.00  0.00     0.245 C 
ATOM     21  N   UNL A   1      30.685  28.217  23.470  1.00  0.00    -0.250 N 
ATOM     22  O   UNL A   1      31.532  29.990  24.803  1.00  0.00    -0.273 OA
ATOM     23  O   UNL A   1      34.015  25.262  23.452  1.00  0.00    -0.286 OA
ATOM     24  C   UNL A   1      32.909  23.295  24.232  1.00  0.00     0.036 A 
ATOM     25  C   UNL A   1      32.028  23.026  25.267  1.00  0.00     0.036 A 
ATOM     26  O   UNL A   1      30.822  24.242  26.835  1.00  0.00    -0.286 OA
ATOM     27  O   UNL A   1      30.391  25.974  22.736  1.00  0.00    -0.273 OA
ATOM     28  C   UNL A   1      33.392  22.268  23.444  1.00  0.00     0.013 A 
ATOM     29  C   UNL A   1      31.613  21.746  25.592  1.00  0.00     0.013 A 
ATOM     30  C   UNL A   1      32.969  20.961  23.739  1.00  0.00     0.001 A 
ATOM     31  C   UNL A   1      32.095  20.701  24.810  1.00  0.00     0.001 A 
BRANCH  21  32
ATOM     32  C   UNL A   1      29.704  28.933  22.763  1.00  0.00     0.052 A 
ATOM     33  C   UNL A   1      30.079  29.917  21.840  1.00  0.00     0.027 A 
ATOM     34  C   UNL A   1      28.353  28.775  23.091  1.00  0.00     0.027 A 
ATOM     35  C   UNL A   1      29.115  30.733  21.249  1.00  0.00     0.002 A 
ATOM     36  C   UNL A   1      27.398  29.631  22.541  1.00  0.00     0.002 A 
ATOM     37  C   UNL A   1      27.777  30.604  21.617  1.00  0.00     0.000 A 
ENDBRANCH  21  32
ENDBRANCH   6   9
ENDBRANCH   4   5
ENDBRANCH   3   4
ENDBRANCH   2   3
ENDBRANCH   1   2
BRANCH   1  38
ATOM     38  C   UNL A   1      34.034  34.152  28.084  1.00  0.00     0.021 C 
BRANCH  38  39
ATOM     39  C   UNL A   1      33.910  35.557  28.669  1.00  0.00     0.116 C 
BRANCH  39  40
ATOM     40  N   UNL A   1      33.112  35.612  29.883  1.00  0.00    -0.352 N 
ATOM     41  C   UNL A   1      33.294  35.020  31.109  1.00  0.00     0.251 C 
ATOM     42  H   UNL A   1      32.303  36.170  29.813  1.00  0.00     0.163 HD
ATOM     43  O   UNL A   1      32.420  35.134  31.966  1.00  0.00    -0.269 OA
BRANCH  41  44
ATOM     44  C   UNL A   1      34.505  34.218  31.396  1.00  0.00     0.039 A 
ATOM     45  C   UNL A   1      34.420  32.875  31.767  1.00  0.00     0.014 A 
ATOM     46  C   UNL A   1      35.759  34.825  31.273  1.00  0.00     0.014 A 
ATOM     47  C   UNL A   1      35.567  32.194  32.174  1.00  0.00     0.010 A 
ATOM     48  C   UNL A   1      36.918  34.118  31.612  1.00  0.00     0.010 A 
ATOM     49  C   UNL A   1      36.827  32.812  32.115  1.00  0.00    -0.014 A 
BRANCH  49  50
ATOM     50  C   UNL A   1      38.033  32.082  32.586  1.00  0.00     0.031 A 
ATOM     51  C   UNL A   1      38.674  31.019  31.730  1.00  0.00     0.074 A 
ATOM     52  C   UNL A   1      38.579  32.400  33.776  1.00  0.00     0.049 A 
ATOM     53  N   UNL A   1      39.739  30.300  31.975  1.00  0.00    -0.248 NA
ATOM     54  C   UNL A   1      38.041  30.727  30.433  1.00  0.00     0.031 C 
ATOM     55  C   UNL A   1      38.048  33.399  34.704  1.00  0.00     0.029 A 
ATOM     56  N   UNL A   1      39.706  31.929  34.402  1.00  0.00    -0.354 N 
ATOM     57  C   UNL A   1      39.886  29.449  30.885  1.00  0.00     0.074 A 
ATOM     58  C   UNL A   1      38.797  29.736  29.976  1.00  0.00     0.031 C 
ATOM     59  C   UNL A   1      38.869  33.499  35.760  1.00  0.00     0.029 A 
ATOM     60  C   UNL A   1      39.960  32.540  35.608  1.00  0.00     0.049 A 
ATOM     61  H   UNL A   1      40.278  31.222  34.025  1.00  0.00     0.167 HD
ATOM     62  C   UNL A   1      40.852  28.532  30.650  1.00  0.00     0.034 A 
ATOM     63  C   UNL A   1      40.957  32.354  36.495  1.00  0.00     0.034 A 
ATOM     64  C   UNL A   1      41.963  28.277  31.526  1.00  0.00     0.049 A 
ATOM     65  C   UNL A   1      42.021  31.336  36.206  1.00  0.00     0.074 A 
ATOM     66  C   UNL A   1      43.003  27.380  31.354  1.00  0.00     0.029 A 
ATOM     67  N   UNL A   1      42.186  28.924  32.730  1.00  0.00    -0.354 N 
ATOM     68  N   UNL A   1      42.170  30.583  35.144  1.00  0.00    -0.248 NA
ATOM     69  C   UNL A   1      43.062  31.148  37.227  1.00  0.00     0.031 C 
ATOM     70  C   UNL A   1      43.859  27.488  32.455  1.00  0.00     0.029 A 
ATOM     71  C   UNL A   1      43.353  28.454  33.308  1.00  0.00     0.049 A 
ATOM     72  H   UNL A   1      41.602  29.616  33.117  1.00  0.00     0.167 HD
ATOM     73  C   UNL A   1      43.326  29.844  35.358  1.00  0.00     0.074 A 
ATOM     74  C   UNL A   1      43.851  30.251  36.647  1.00  0.00     0.031 C 
ATOM     75  C   UNL A   1      43.890  28.903  34.565  1.00  0.00     0.034 A 
BRANCH  62  76
ATOM     76  C   UNL A   1      40.797  27.764  29.357  1.00  0.00     0.023 A 
ATOM     77  C   UNL A   1      39.813  26.769  29.193  1.00  0.00     0.012 A 
ATOM     78  C   UNL A   1      41.644  28.088  28.279  1.00  0.00     0.148 A 
ATOM     79  C   UNL A   1      39.677  26.101  27.978  1.00  0.00     0.002 A 
ATOM     80  C   UNL A   1      41.484  27.437  27.061  1.00  0.00     0.091 A 
ATOM     81  F   UNL A   1      42.582  29.029  28.464  1.00  0.00    -0.205 F 
ATOM     82  C   UNL A   1      40.504  26.441  26.910  1.00  0.00     0.022 A 
BRANCH  80  83
ATOM     83  S   UNL A   1      42.460  27.836  25.607  1.00  0.00     0.127 S 
ATOM     84  O   UNL A   1      42.172  26.695  24.738  1.00  0.00    -0.237 OA
ATOM     85  O   UNL A   1      41.863  29.099  25.173  1.00  0.00    -0.237 OA
ATOM     86  O   UNL A   1      43.840  27.936  26.062  1.00  0.00    -0.744 OA
ENDBRANCH  80  83
ENDBRANCH  62  76
BRANCH  63  87
ATOM     87  C   UNL A   1      41.018  33.215  37.705  1.00  0.00     0.023 A 
ATOM     88  C   UNL A   1      40.426  32.761  38.899  1.00  0.00     0.012 A 
ATOM     89  C   UNL A   1      41.736  34.425  37.705  1.00  0.00     0.148 A 
ATOM     90  C   UNL A   1      40.549  33.499  40.076  1.00  0.00     0.002 A 
ATOM     91  C   UNL A   1      41.892  35.134  38.891  1.00  0.00     0.091 A 
ATOM     92  F   UNL A   1      42.285  34.836  36.553  1.00  0.00    -0.205 F 
ATOM     93  C   UNL A   1      41.292  34.677  40.075  1.00  0.00     0.022 A 
BRANCH  91  94
ATOM     94  S   UNL A   1      42.926  36.597  39.017  1.00  0.00     0.127 S 
ATOM     95  O   UNL A   1      41.928  37.665  39.038  1.00  0.00    -0.237 OA
ATOM     96  O   UNL A   1      43.610  36.367  40.290  1.00  0.00    -0.237 OA
ATOM     97  O   UNL A   1      43.793  36.574  37.848  1.00  0.00    -0.744 OA
ENDBRANCH  91  94
ENDBRANCH  63  87
BRANCH  75  98
ATOM     98  C   UNL A   1      45.151  28.241  35.044  1.00  0.00     0.023 A 
ATOM     99  C   UNL A   1      46.391  28.860  34.797  1.00  0.00     0.012 A 
ATOM    100  C   UNL A   1      45.097  27.082  35.842  1.00  0.00     0.148 A 
ATOM    101  C   UNL A   1      47.563  28.330  35.332  1.00  0.00     0.002 A 
ATOM    102  C   UNL A   1      46.266  26.576  36.398  1.00  0.00     0.091 A 
ATOM    103  F   UNL A   1      43.903  26.508  36.052  1.00  0.00    -0.205 F 
ATOM    104  C   UNL A   1      47.500  27.197  36.141  1.00  0.00     0.022 A 
BRANCH 102 105
ATOM    105  S   UNL A   1      46.278  25.165  37.509  1.00  0.00     0.127 S 
ATOM    106  O   UNL A   1      47.699  25.060  37.840  1.00  0.00    -0.237 OA
ATOM    107  O   UNL A   1      45.428  25.628  38.607  1.00  0.00    -0.237 OA
ATOM    108  O   UNL A   1      45.733  24.048  36.749  1.00  0.00    -0.744 OA
ENDBRANCH 102 105
ENDBRANCH  75  98
ENDBRANCH  49  50
ENDBRANCH  41  44
ENDBRANCH  39  40
ENDBRANCH  38  39
ENDBRANCH   1  38
TORSDOF 17
ENDMDL
