MODEL 1
REMARK VINA RESULT:     -12.4      0.000      0.000
REMARK SMILES Nc1c(Cl)ccc2c1C=C(C(=O)NCCCCCCNC(=O)c1ccc(-c3c4nc(c(-c5cccc(S(=O)(=O)[O-])c5F)c5ccc([nH]5)c(-c5cccc(S(=O)(=O)[O-])c5F)c5nc(c(-c6cccc(S(=O)(=O)[O-])c6F)c6ccc3[nH]6)C=C5)C=C4)cc1)[C@@H](C(F)(F)F)O2
REMARK SMILES IDX 17 1 16 2 15 3 14 4 13 5 11 6 12 7 10 9 2 10 3 11 8 12 4 13
REMARK SMILES IDX 5 14 7 15 9 16 6 17 91 18 86 19 1 20 87 23 88 24 89 25 90 26
REMARK SMILES IDX 18 27 19 28 20 29 21 30 22 32 23 33 24 34 85 35 25 36 84 37
REMARK SMILES IDX 26 38 27 39 28 40 78 41 29 42 83 43 77 44 79 45 30 46 82 47
REMARK SMILES IDX 76 48 75 49 31 51 63 52 43 53 62 54 44 55 47 56 61 57 80 58
REMARK SMILES IDX 45 59 46 60 60 62 81 63 48 64 32 65 33 66 41 67 34 68 36 69
REMARK SMILES IDX 42 70 35 71 37 72 38 73 39 74 40 75 64 76 65 77 73 78 66 79
REMARK SMILES IDX 68 80 74 81 67 82 69 83 70 84 71 85 72 86 49 87 50 88 58 89
REMARK SMILES IDX 51 90 53 91 59 92 52 93 54 94 55 95 56 96 57 97
REMARK H PARENT 13 8 1 21 1 22 20 31 79 50 47 61
REMARK Flexibility Score: inf
ROOT
ATOM      1  C   UNL A   1      31.815  30.306  25.729  1.00  0.00     0.002 C 
ENDROOT
BRANCH   1   2
ATOM      2  C   UNL A   1      33.009  29.484  26.231  1.00  0.00     0.002 C 
BRANCH   2   3
ATOM      3  C   UNL A   1      33.687  28.616  25.168  1.00  0.00     0.021 C 
BRANCH   3   4
ATOM      4  C   UNL A   1      33.942  27.183  25.622  1.00  0.00     0.116 C 
BRANCH   4   5
ATOM      5  N   UNL A   1      33.803  26.242  24.525  1.00  0.00    -0.352 N 
ATOM      6  C   UNL A   1      32.828  25.860  23.668  1.00  0.00     0.251 C 
ATOM      7  O   UNL A   1      33.161  25.002  22.843  1.00  0.00    -0.270 OA
ATOM      8  H   UNL A   1      34.641  25.751  24.362  1.00  0.00     0.163 HD
BRANCH   6   9
ATOM      9  C   UNL A   1      31.433  26.398  23.651  1.00  0.00     0.067 C 
ATOM     10  C   UNL A   1      29.723  29.466  22.381  1.00  0.00     0.061 A 
ATOM     11  C   UNL A   1      28.395  29.950  22.327  1.00  0.00     0.064 A 
ATOM     12  C   UNL A   1      29.940  28.175  22.914  1.00  0.00     0.042 A 
ATOM     13  Cl  UNL A   1      28.051  31.510  21.655  1.00  0.00    -0.082 Cl
ATOM     14  C   UNL A   1      27.322  29.205  22.821  1.00  0.00     0.026 A 
ATOM     15  C   UNL A   1      28.853  27.451  23.422  1.00  0.00     0.130 A 
ATOM     16  C   UNL A   1      31.256  27.528  22.943  1.00  0.00     0.027 C 
ATOM     17  C   UNL A   1      27.555  27.951  23.368  1.00  0.00     0.049 A 
ATOM     18  O   UNL A   1      28.967  26.201  23.956  1.00  0.00    -0.475 OA
ATOM     19  C   UNL A   1      30.284  25.789  24.398  1.00  0.00     0.314 C 
BRANCH  10  20
ATOM     20  N   UNL A   1      30.760  30.208  21.799  1.00  0.00    -0.397 N 
ATOM     21  H   UNL A   1      30.670  30.540  20.877  1.00  0.00     0.156 HD
ATOM     22  H   UNL A   1      31.578  30.398  22.312  1.00  0.00     0.156 HD
ENDBRANCH  10  20
BRANCH  19  23
ATOM     23  C   UNL A   1      30.395  25.975  25.922  1.00  0.00     0.429 C 
ATOM     24  F   UNL A   1      29.243  25.617  26.534  1.00  0.00    -0.167 F 
ATOM     25  F   UNL A   1      31.373  25.212  26.468  1.00  0.00    -0.167 F 
ATOM     26  F   UNL A   1      30.665  27.256  26.265  1.00  0.00    -0.167 F 
ENDBRANCH  19  23
ENDBRANCH   6   9
ENDBRANCH   4   5
ENDBRANCH   3   4
ENDBRANCH   2   3
ENDBRANCH   1   2
BRANCH   1  27
ATOM     27  C   UNL A   1      31.531  31.589  26.519  1.00  0.00     0.021 C 
BRANCH  27  28
ATOM     28  C   UNL A   1      32.752  32.180  27.211  1.00  0.00     0.116 C 
BRANCH  28  29
ATOM     29  N   UNL A   1      32.555  33.586  27.521  1.00  0.00    -0.352 N 
ATOM     30  C   UNL A   1      33.166  34.338  28.490  1.00  0.00     0.251 C 
ATOM     31  H   UNL A   1      31.898  34.060  26.962  1.00  0.00     0.163 HD
ATOM     32  O   UNL A   1      32.724  35.443  28.793  1.00  0.00    -0.269 OA
BRANCH  30  33
ATOM     33  C   UNL A   1      34.359  33.798  29.165  1.00  0.00     0.039 A 
ATOM     34  C   UNL A   1      35.626  34.231  28.766  1.00  0.00     0.014 A 
ATOM     35  C   UNL A   1      34.214  32.860  30.193  1.00  0.00     0.014 A 
ATOM     36  C   UNL A   1      36.756  33.745  29.425  1.00  0.00     0.010 A 
ATOM     37  C   UNL A   1      35.336  32.417  30.882  1.00  0.00     0.010 A 
ATOM     38  C   UNL A   1      36.614  32.843  30.492  1.00  0.00    -0.014 A 
BRANCH  38  39
ATOM     39  C   UNL A   1      37.793  32.289  31.194  1.00  0.00     0.031 A 
ATOM     40  C   UNL A   1      38.527  31.124  30.592  1.00  0.00     0.074 A 
ATOM     41  C   UNL A   1      38.151  32.778  32.395  1.00  0.00     0.049 A 
ATOM     42  N   UNL A   1      39.519  30.436  31.087  1.00  0.00    -0.248 NA
ATOM     43  C   UNL A   1      38.076  30.664  29.267  1.00  0.00     0.031 C 
ATOM     44  C   UNL A   1      37.486  33.880  33.092  1.00  0.00     0.029 A 
ATOM     45  N   UNL A   1      39.146  32.388  33.255  1.00  0.00    -0.354 N 
ATOM     46  C   UNL A   1      39.795  29.447  30.152  1.00  0.00     0.074 A 
ATOM     47  C   UNL A   1      38.852  29.608  29.068  1.00  0.00     0.031 C 
ATOM     48  C   UNL A   1      38.090  34.075  34.276  1.00  0.00     0.029 A 
ATOM     49  C   UNL A   1      39.164  33.097  34.431  1.00  0.00     0.049 A 
ATOM     50  H   UNL A   1      39.787  31.670  33.048  1.00  0.00     0.167 HD
ATOM     51  C   UNL A   1      40.765  28.506  30.184  1.00  0.00     0.034 A 
ATOM     52  C   UNL A   1      39.952  32.967  35.517  1.00  0.00     0.034 A 
ATOM     53  C   UNL A   1      41.724  28.372  31.245  1.00  0.00     0.049 A 
ATOM     54  C   UNL A   1      41.029  31.919  35.522  1.00  0.00     0.074 A 
ATOM     55  C   UNL A   1      42.778  27.482  31.338  1.00  0.00     0.029 A 
ATOM     56  N   UNL A   1      41.744  29.145  32.394  1.00  0.00    -0.354 N 
ATOM     57  N   UNL A   1      41.333  31.050  34.589  1.00  0.00    -0.248 NA
ATOM     58  C   UNL A   1      41.886  31.848  36.714  1.00  0.00     0.031 C 
ATOM     59  C   UNL A   1      43.432  27.710  32.551  1.00  0.00     0.029 A 
ATOM     60  C   UNL A   1      42.796  28.755  33.202  1.00  0.00     0.049 A 
ATOM     61  H   UNL A   1      41.106  29.865  32.603  1.00  0.00     0.167 HD
ATOM     62  C   UNL A   1      42.438  30.353  35.064  1.00  0.00     0.074 A 
ATOM     63  C   UNL A   1      42.752  30.901  36.367  1.00  0.00     0.031 C 
ATOM     64  C   UNL A   1      43.124  29.344  34.474  1.00  0.00     0.034 A 
BRANCH  51  65
ATOM     65  C   UNL A   1      40.886  27.578  29.008  1.00  0.00     0.023 A 
ATOM     66  C   UNL A   1      40.019  26.471  28.918  1.00  0.00     0.012 A 
ATOM     67  C   UNL A   1      41.776  27.855  27.956  1.00  0.00     0.148 A 
ATOM     68  C   UNL A   1      40.041  25.647  27.794  1.00  0.00     0.002 A 
ATOM     69  C   UNL A   1      41.770  27.049  26.825  1.00  0.00     0.091 A 
ATOM     70  F   UNL A   1      42.600  28.906  28.077  1.00  0.00    -0.205 F 
ATOM     71  C   UNL A   1      40.907  25.942  26.744  1.00  0.00     0.022 A 
BRANCH  69  72
ATOM     72  S   UNL A   1      42.807  27.370  25.394  1.00  0.00     0.127 S 
ATOM     73  O   UNL A   1      42.691  26.112  24.657  1.00  0.00    -0.237 OA
ATOM     74  O   UNL A   1      42.127  28.507  24.773  1.00  0.00    -0.237 OA
ATOM     75  O   UNL A   1      44.137  27.658  25.913  1.00  0.00    -0.744 OA
ENDBRANCH  69  72
ENDBRANCH  51  65
BRANCH  52  76
ATOM     76  C   UNL A   1      39.787  33.909  36.654  1.00  0.00     0.023 A 
ATOM     77  C   UNL A   1      40.127  35.264  36.477  1.00  0.00     0.012 A 
ATOM     78  C   UNL A   1      39.237  33.489  37.881  1.00  0.00     0.148 A 
ATOM     79  C   UNL A   1      39.930  36.186  37.506  1.00  0.00     0.002 A 
ATOM     80  C   UNL A   1      39.009  34.418  38.888  1.00  0.00     0.091 A 
ATOM     81  F   UNL A   1      38.922  32.194  38.021  1.00  0.00    -0.205 F 
ATOM     82  C   UNL A   1      39.363  35.765  38.706  1.00  0.00     0.022 A 
BRANCH  80  83
ATOM     83  S   UNL A   1      38.199  33.995  40.435  1.00  0.00     0.127 S 
ATOM     84  O   UNL A   1      36.985  33.333  39.965  1.00  0.00    -0.237 OA
ATOM     85  O   UNL A   1      39.186  33.109  41.053  1.00  0.00    -0.237 OA
ATOM     86  O   UNL A   1      37.993  35.256  41.133  1.00  0.00    -0.744 OA
ENDBRANCH  80  83
ENDBRANCH  52  76
BRANCH  64  87
ATOM     87  C   UNL A   1      44.309  28.775  35.201  1.00  0.00     0.023 A 
ATOM     88  C   UNL A   1      45.586  29.332  34.998  1.00  0.00     0.012 A 
ATOM     89  C   UNL A   1      44.132  27.775  36.178  1.00  0.00     0.148 A 
ATOM     90  C   UNL A   1      46.675  28.894  35.750  1.00  0.00     0.002 A 
ATOM     91  C   UNL A   1      45.214  27.369  36.949  1.00  0.00     0.091 A 
ATOM     92  F   UNL A   1      42.907  27.258  36.346  1.00  0.00    -0.205 F 
ATOM     93  C   UNL A   1      46.487  27.923  36.733  1.00  0.00     0.022 A 
BRANCH  91  94
ATOM     94  S   UNL A   1      45.056  26.181  38.287  1.00  0.00     0.127 S 
ATOM     95  O   UNL A   1      46.431  26.103  38.777  1.00  0.00    -0.237 OA
ATOM     96  O   UNL A   1      44.123  26.856  39.189  1.00  0.00    -0.237 OA
ATOM     97  O   UNL A   1      44.542  24.958  37.683  1.00  0.00    -0.744 OA
ENDBRANCH  91  94
ENDBRANCH  64  87
ENDBRANCH  38  39
ENDBRANCH  30  33
ENDBRANCH  28  29
ENDBRANCH  27  28
ENDBRANCH   1  27
TORSDOF 18
ENDMDL
MODEL 2
REMARK VINA RESULT:     -12.0      3.873      9.056
REMARK SMILES Nc1c(Cl)ccc2c1C=C(C(=O)NCCCCCCNC(=O)c1ccc(-c3c4nc(c(-c5cccc(S(=O)(=O)[O-])c5F)c5ccc([nH]5)c(-c5cccc(S(=O)(=O)[O-])c5F)c5nc(c(-c6cccc(S(=O)(=O)[O-])c6F)c6ccc3[nH]6)C=C5)C=C4)cc1)[C@@H](C(F)(F)F)O2
REMARK SMILES IDX 17 1 16 2 15 3 14 4 13 5 11 6 12 7 10 9 2 10 3 11 8 12 4 13
REMARK SMILES IDX 5 14 7 15 9 16 6 17 91 18 86 19 1 20 87 23 88 24 89 25 90 26
REMARK SMILES IDX 18 27 19 28 20 29 21 30 22 32 23 33 24 34 85 35 25 36 84 37
REMARK SMILES IDX 26 38 27 39 28 40 78 41 29 42 83 43 77 44 79 45 30 46 82 47
REMARK SMILES IDX 76 48 75 49 31 51 63 52 43 53 62 54 44 55 47 56 61 57 80 58
REMARK SMILES IDX 45 59 46 60 60 62 81 63 48 64 32 65 33 66 41 67 34 68 36 69
REMARK SMILES IDX 42 70 35 71 37 72 38 73 39 74 40 75 64 76 65 77 73 78 66 79
REMARK SMILES IDX 68 80 74 81 67 82 69 83 70 84 71 85 72 86 49 87 50 88 58 89
REMARK SMILES IDX 51 90 53 91 59 92 52 93 54 94 55 95 56 96 57 97
REMARK H PARENT 13 8 1 21 1 22 20 31 79 50 47 61
REMARK Flexibility Score: inf
ROOT
ATOM      1  C   UNL A   1      33.285  28.874  24.459  1.00  0.00     0.002 C 
ENDROOT
BRANCH   1   2
ATOM      2  C   UNL A   1      31.757  28.793  24.339  1.00  0.00     0.002 C 
BRANCH   2   3
ATOM      3  C   UNL A   1      31.219  28.851  22.907  1.00  0.00     0.021 C 
BRANCH   3   4
ATOM      4  C   UNL A   1      30.682  27.516  22.404  1.00  0.00     0.116 C 
BRANCH   4   5
ATOM      5  N   UNL A   1      31.644  26.840  21.551  1.00  0.00    -0.352 N 
ATOM      6  C   UNL A   1      32.599  25.893  21.696  1.00  0.00     0.251 C 
ATOM      7  O   UNL A   1      33.197  25.588  20.658  1.00  0.00    -0.270 OA
ATOM      8  H   UNL A   1      31.585  27.155  20.620  1.00  0.00     0.163 HD
BRANCH   6   9
ATOM      9  C   UNL A   1      32.954  25.214  22.980  1.00  0.00     0.067 C 
ATOM     10  C   UNL A   1      35.909  23.393  24.358  1.00  0.00     0.061 A 
ATOM     11  C   UNL A   1      36.257  22.791  25.591  1.00  0.00     0.064 A 
ATOM     12  C   UNL A   1      34.663  24.056  24.270  1.00  0.00     0.042 A 
ATOM     13  Cl  UNL A   1      37.783  21.990  25.781  1.00  0.00    -0.082 Cl
ATOM     14  C   UNL A   1      35.391  22.805  26.685  1.00  0.00     0.026 A 
ATOM     15  C   UNL A   1      33.800  24.043  25.374  1.00  0.00     0.130 A 
ATOM     16  C   UNL A   1      34.227  24.791  23.079  1.00  0.00     0.027 C 
ATOM     17  C   UNL A   1      34.159  23.435  26.574  1.00  0.00     0.049 A 
ATOM     18  O   UNL A   1      32.580  24.653  25.380  1.00  0.00    -0.475 OA
ATOM     19  C   UNL A   1      31.984  24.951  24.093  1.00  0.00     0.314 C 
BRANCH  10  20
ATOM     20  N   UNL A   1      36.840  23.428  23.312  1.00  0.00    -0.397 N 
ATOM     21  H   UNL A   1      37.760  23.736  23.482  1.00  0.00     0.156 HD
ATOM     22  H   UNL A   1      36.576  23.146  22.407  1.00  0.00     0.156 HD
ENDBRANCH  10  20
BRANCH  19  23
ATOM     23  C   UNL A   1      30.952  23.865  23.742  1.00  0.00     0.429 C 
ATOM     24  F   UNL A   1      30.553  23.204  24.853  1.00  0.00    -0.167 F 
ATOM     25  F   UNL A   1      29.831  24.377  23.178  1.00  0.00    -0.167 F 
ATOM     26  F   UNL A   1      31.442  22.953  22.871  1.00  0.00    -0.167 F 
ENDBRANCH  19  23
ENDBRANCH   6   9
ENDBRANCH   4   5
ENDBRANCH   3   4
ENDBRANCH   2   3
ENDBRANCH   1   2
BRANCH   1  27
ATOM     27  C   UNL A   1      33.913  27.889  25.451  1.00  0.00     0.021 C 
BRANCH  27  28
ATOM     28  C   UNL A   1      33.843  28.338  26.905  1.00  0.00     0.116 C 
BRANCH  28  29
ATOM     29  N   UNL A   1      33.759  29.785  27.008  1.00  0.00    -0.352 N 
ATOM     30  C   UNL A   1      34.599  30.642  27.670  1.00  0.00     0.251 C 
ATOM     31  H   UNL A   1      33.000  30.204  26.541  1.00  0.00     0.163 HD
ATOM     32  O   UNL A   1      34.268  31.807  27.872  1.00  0.00    -0.269 OA
BRANCH  30  33
ATOM     33  C   UNL A   1      35.904  30.142  28.137  1.00  0.00     0.039 A 
ATOM     34  C   UNL A   1      36.004  29.571  29.408  1.00  0.00     0.014 A 
ATOM     35  C   UNL A   1      37.026  30.245  27.307  1.00  0.00     0.014 A 
ATOM     36  C   UNL A   1      37.232  29.069  29.839  1.00  0.00     0.010 A 
ATOM     37  C   UNL A   1      38.235  29.698  27.718  1.00  0.00     0.010 A 
ATOM     38  C   UNL A   1      38.350  29.122  28.991  1.00  0.00    -0.014 A 
BRANCH  38  39
ATOM     39  C   UNL A   1      39.672  28.622  29.429  1.00  0.00     0.031 A 
ATOM     40  C   UNL A   1      40.425  29.368  30.494  1.00  0.00     0.074 A 
ATOM     41  C   UNL A   1      40.223  27.555  28.820  1.00  0.00     0.049 A 
ATOM     42  N   UNL A   1      41.629  29.153  30.951  1.00  0.00    -0.248 NA
ATOM     43  C   UNL A   1      39.741  30.515  31.116  1.00  0.00     0.031 C 
ATOM     44  C   UNL A   1      39.599  26.779  27.747  1.00  0.00     0.029 A 
ATOM     45  N   UNL A   1      41.445  26.960  28.999  1.00  0.00    -0.354 N 
ATOM     46  C   UNL A   1      41.858  30.148  31.891  1.00  0.00     0.074 A 
ATOM     47  C   UNL A   1      40.679  30.983  31.926  1.00  0.00     0.031 C 
ATOM     48  C   UNL A   1      40.447  25.811  27.360  1.00  0.00     0.029 A 
ATOM     49  C   UNL A   1      41.679  25.916  28.138  1.00  0.00     0.049 A 
ATOM     50  H   UNL A   1      42.092  27.252  29.682  1.00  0.00     0.167 HD
ATOM     51  C   UNL A   1      42.945  30.333  32.673  1.00  0.00     0.034 A 
ATOM     52  C   UNL A   1      42.768  25.137  27.985  1.00  0.00     0.034 A 
ATOM     53  C   UNL A   1      44.101  29.480  32.662  1.00  0.00     0.049 A 
ATOM     54  C   UNL A   1      43.959  25.358  28.875  1.00  0.00     0.074 A 
ATOM     55  C   UNL A   1      45.229  29.556  33.459  1.00  0.00     0.029 A 
ATOM     56  N   UNL A   1      44.277  28.399  31.814  1.00  0.00    -0.354 N 
ATOM     57  N   UNL A   1      44.124  26.248  29.822  1.00  0.00    -0.248 NA
ATOM     58  C   UNL A   1      45.104  24.453  28.694  1.00  0.00     0.031 C 
ATOM     59  C   UNL A   1      46.094  28.525  33.085  1.00  0.00     0.029 A 
ATOM     60  C   UNL A   1      45.495  27.797  32.069  1.00  0.00     0.049 A 
ATOM     61  H   UNL A   1      43.631  28.103  31.132  1.00  0.00     0.167 HD
ATOM     62  C   UNL A   1      45.372  25.991  30.375  1.00  0.00     0.074 A 
ATOM     63  C   UNL A   1      45.923  24.859  29.659  1.00  0.00     0.031 C 
ATOM     64  C   UNL A   1      46.006  26.641  31.381  1.00  0.00     0.034 A 
BRANCH  51  65
ATOM     65  C   UNL A   1      42.921  31.467  33.658  1.00  0.00     0.023 A 
ATOM     66  C   UNL A   1      43.331  32.748  33.238  1.00  0.00     0.012 A 
ATOM     67  C   UNL A   1      42.402  31.290  34.953  1.00  0.00     0.148 A 
ATOM     68  C   UNL A   1      43.229  33.840  34.099  1.00  0.00     0.002 A 
ATOM     69  C   UNL A   1      42.274  32.389  35.795  1.00  0.00     0.091 A 
ATOM     70  F   UNL A   1      42.035  30.057  35.331  1.00  0.00    -0.205 F 
ATOM     71  C   UNL A   1      42.691  33.662  35.371  1.00  0.00     0.022 A 
BRANCH  69  72
ATOM     72  S   UNL A   1      41.545  32.281  37.432  1.00  0.00     0.127 S 
ATOM     73  O   UNL A   1      41.698  33.653  37.914  1.00  0.00    -0.237 OA
ATOM     74  O   UNL A   1      40.168  31.890  37.129  1.00  0.00    -0.237 OA
ATOM     75  O   UNL A   1      42.321  31.285  38.157  1.00  0.00    -0.744 OA
ENDBRANCH  69  72
ENDBRANCH  51  65
BRANCH  52  76
ATOM     76  C   UNL A   1      42.740  24.031  26.993  1.00  0.00     0.023 A 
ATOM     77  C   UNL A   1      43.345  24.222  25.737  1.00  0.00     0.012 A 
ATOM     78  C   UNL A   1      42.182  22.777  27.309  1.00  0.00     0.148 A 
ATOM     79  C   UNL A   1      43.388  23.185  24.804  1.00  0.00     0.002 A 
ATOM     80  C   UNL A   1      42.261  21.737  26.391  1.00  0.00     0.091 A 
ATOM     81  F   UNL A   1      41.614  22.624  28.513  1.00  0.00    -0.205 F 
ATOM     82  C   UNL A   1      42.855  21.941  25.135  1.00  0.00     0.022 A 
BRANCH  80  83
ATOM     83  S   UNL A   1      41.688  20.074  26.756  1.00  0.00     0.127 S 
ATOM     84  O   UNL A   1      40.275  20.303  27.048  1.00  0.00    -0.237 OA
ATOM     85  O   UNL A   1      41.953  19.386  25.492  1.00  0.00    -0.237 OA
ATOM     86  O   UNL A   1      42.492  19.614  27.879  1.00  0.00    -0.744 OA
ENDBRANCH  80  83
ENDBRANCH  52  76
BRANCH  64  87
ATOM     87  C   UNL A   1      47.356  26.138  31.807  1.00  0.00     0.023 A 
ATOM     88  C   UNL A   1      48.513  26.605  31.155  1.00  0.00     0.012 A 
ATOM     89  C   UNL A   1      47.481  25.304  32.937  1.00  0.00     0.148 A 
ATOM     90  C   UNL A   1      49.777  26.240  31.613  1.00  0.00     0.002 A 
ATOM     91  C   UNL A   1      48.745  24.973  33.410  1.00  0.00     0.091 A 
ATOM     92  F   UNL A   1      46.363  24.869  33.535  1.00  0.00    -0.205 F 
ATOM     93  C   UNL A   1      49.894  25.436  32.747  1.00  0.00     0.022 A 
BRANCH  91  94
ATOM     94  S   UNL A   1      48.996  24.007  34.903  1.00  0.00     0.127 S 
ATOM     95  O   UNL A   1      50.388  23.585  34.752  1.00  0.00    -0.237 OA
ATOM     96  O   UNL A   1      48.768  24.999  35.954  1.00  0.00    -0.237 OA
ATOM     97  O   UNL A   1      48.014  22.931  34.858  1.00  0.00    -0.744 OA
ENDBRANCH  91  94
ENDBRANCH  64  87
ENDBRANCH  38  39
ENDBRANCH  30  33
ENDBRANCH  28  29
ENDBRANCH  27  28
ENDBRANCH   1  27
TORSDOF 18
ENDMDL
MODEL 3
REMARK VINA RESULT:     -11.9      1.850      7.822
REMARK SMILES Nc1c(Cl)ccc2c1C=C(C(=O)NCCCCCCNC(=O)c1ccc(-c3c4nc(c(-c5cccc(S(=O)(=O)[O-])c5F)c5ccc([nH]5)c(-c5cccc(S(=O)(=O)[O-])c5F)c5nc(c(-c6cccc(S(=O)(=O)[O-])c6F)c6ccc3[nH]6)C=C5)C=C4)cc1)[C@@H](C(F)(F)F)O2
REMARK SMILES IDX 17 1 16 2 15 3 14 4 13 5 11 6 12 7 10 9 2 10 3 11 8 12 4 13
REMARK SMILES IDX 5 14 7 15 9 16 6 17 91 18 86 19 1 20 87 23 88 24 89 25 90 26
REMARK SMILES IDX 18 27 19 28 20 29 21 30 22 32 23 33 24 34 85 35 25 36 84 37
REMARK SMILES IDX 26 38 27 39 28 40 78 41 29 42 83 43 77 44 79 45 30 46 82 47
REMARK SMILES IDX 76 48 75 49 31 51 63 52 43 53 62 54 44 55 47 56 61 57 80 58
REMARK SMILES IDX 45 59 46 60 60 62 81 63 48 64 32 65 33 66 41 67 34 68 36 69
REMARK SMILES IDX 42 70 35 71 37 72 38 73 39 74 40 75 64 76 65 77 73 78 66 79
REMARK SMILES IDX 68 80 74 81 67 82 69 83 70 84 71 85 72 86 49 87 50 88 58 89
REMARK SMILES IDX 51 90 53 91 59 92 52 93 54 94 55 95 56 96 57 97
REMARK H PARENT 13 8 1 21 1 22 20 31 79 50 47 61
REMARK Flexibility Score: inf
ROOT
ATOM      1  C   UNL A   1      33.974  29.206  25.821  1.00  0.00     0.002 C 
ENDROOT
BRANCH   1   2
ATOM      2  C   UNL A   1      33.815  27.899  26.610  1.00  0.00     0.002 C 
BRANCH   2   3
ATOM      3  C   UNL A   1      33.862  26.625  25.762  1.00  0.00     0.021 C 
BRANCH   3   4
ATOM      4  C   UNL A   1      33.975  26.892  24.265  1.00  0.00     0.116 C 
BRANCH   4   5
ATOM      5  N   UNL A   1      33.428  25.797  23.484  1.00  0.00    -0.352 N 
ATOM      6  C   UNL A   1      32.220  25.444  22.989  1.00  0.00     0.251 C 
ATOM      7  O   UNL A   1      32.207  24.393  22.337  1.00  0.00    -0.270 OA
ATOM      8  H   UNL A   1      34.120  25.136  23.256  1.00  0.00     0.163 HD
BRANCH   6   9
ATOM      9  C   UNL A   1      30.954  26.220  23.163  1.00  0.00     0.067 C 
ATOM     10  C   UNL A   1      29.695  29.606  22.218  1.00  0.00     0.061 A 
ATOM     11  C   UNL A   1      28.480  30.319  22.346  1.00  0.00     0.064 A 
ATOM     12  C   UNL A   1      29.734  28.270  22.677  1.00  0.00     0.042 A 
ATOM     13  Cl  UNL A   1      28.350  31.951  21.774  1.00  0.00    -0.082 Cl
ATOM     14  C   UNL A   1      27.354  29.750  22.944  1.00  0.00     0.026 A 
ATOM     15  C   UNL A   1      28.599  27.722  23.291  1.00  0.00     0.130 A 
ATOM     16  C   UNL A   1      30.904  27.400  22.520  1.00  0.00     0.027 C 
ATOM     17  C   UNL A   1      27.417  28.447  23.416  1.00  0.00     0.049 A 
ATOM     18  O   UNL A   1      28.546  26.445  23.766  1.00  0.00    -0.475 OA
ATOM     19  C   UNL A   1      29.808  25.783  24.026  1.00  0.00     0.314 C 
BRANCH  10  20
ATOM     20  N   UNL A   1      30.774  30.185  21.537  1.00  0.00    -0.397 N 
ATOM     21  H   UNL A   1      30.801  31.158  21.393  1.00  0.00     0.156 HD
ATOM     22  H   UNL A   1      31.507  29.619  21.202  1.00  0.00     0.156 HD
ENDBRANCH  10  20
BRANCH  19  23
ATOM     23  C   UNL A   1      30.127  25.862  25.530  1.00  0.00     0.429 C 
ATOM     24  F   UNL A   1      30.620  27.080  25.852  1.00  0.00    -0.167 F 
ATOM     25  F   UNL A   1      29.031  25.674  26.303  1.00  0.00    -0.167 F 
ATOM     26  F   UNL A   1      31.035  24.934  25.912  1.00  0.00    -0.167 F 
ENDBRANCH  19  23
ENDBRANCH   6   9
ENDBRANCH   4   5
ENDBRANCH   3   4
ENDBRANCH   2   3
ENDBRANCH   1   2
BRANCH   1  27
ATOM     27  C   UNL A   1      32.722  30.088  25.763  1.00  0.00     0.021 C 
BRANCH  27  28
ATOM     28  C   UNL A   1      32.399  30.799  27.071  1.00  0.00     0.116 C 
BRANCH  28  29
ATOM     29  N   UNL A   1      32.585  32.236  26.952  1.00  0.00    -0.352 N 
ATOM     30  C   UNL A   1      33.521  33.026  27.565  1.00  0.00     0.251 C 
ATOM     31  H   UNL A   1      31.958  32.700  26.352  1.00  0.00     0.163 HD
ATOM     32  O   UNL A   1      33.405  34.249  27.559  1.00  0.00    -0.269 OA
BRANCH  30  33
ATOM     33  C   UNL A   1      34.668  32.387  28.233  1.00  0.00     0.039 A 
ATOM     34  C   UNL A   1      34.482  31.173  28.899  1.00  0.00     0.014 A 
ATOM     35  C   UNL A   1      35.925  32.998  28.195  1.00  0.00     0.014 A 
ATOM     36  C   UNL A   1      35.574  30.550  29.505  1.00  0.00     0.010 A 
ATOM     37  C   UNL A   1      37.020  32.351  28.755  1.00  0.00     0.010 A 
ATOM     38  C   UNL A   1      36.849  31.132  29.426  1.00  0.00    -0.014 A 
BRANCH  38  39
ATOM     39  C   UNL A   1      38.021  30.510  30.081  1.00  0.00     0.031 A 
ATOM     40  C   UNL A   1      38.392  30.927  31.477  1.00  0.00     0.074 A 
ATOM     41  C   UNL A   1      38.788  29.639  29.400  1.00  0.00     0.049 A 
ATOM     42  N   UNL A   1      39.428  30.576  32.189  1.00  0.00    -0.248 NA
ATOM     43  C   UNL A   1      37.489  31.875  32.152  1.00  0.00     0.031 C 
ATOM     44  C   UNL A   1      38.545  29.193  28.027  1.00  0.00     0.029 A 
ATOM     45  N   UNL A   1      39.944  28.997  29.762  1.00  0.00    -0.354 N 
ATOM     46  C   UNL A   1      39.317  31.276  33.383  1.00  0.00     0.074 A 
ATOM     47  C   UNL A   1      38.127  32.090  33.293  1.00  0.00     0.031 C 
ATOM     48  C   UNL A   1      39.527  28.351  27.662  1.00  0.00     0.029 A 
ATOM     49  C   UNL A   1      40.478  28.221  28.762  1.00  0.00     0.049 A 
ATOM     50  H   UNL A   1      40.351  29.082  30.655  1.00  0.00     0.167 HD
ATOM     51  C   UNL A   1      40.123  31.223  34.467  1.00  0.00     0.034 A 
ATOM     52  C   UNL A   1      41.612  27.494  28.733  1.00  0.00     0.034 A 
ATOM     53  C   UNL A   1      41.286  30.386  34.567  1.00  0.00     0.049 A 
ATOM     54  C   UNL A   1      42.486  27.445  29.955  1.00  0.00     0.074 A 
ATOM     55  C   UNL A   1      42.134  30.225  35.648  1.00  0.00     0.029 A 
ATOM     56  N   UNL A   1      41.764  29.572  33.553  1.00  0.00    -0.354 N 
ATOM     57  N   UNL A   1      42.318  28.044  31.109  1.00  0.00    -0.248 NA
ATOM     58  C   UNL A   1      43.689  26.604  29.883  1.00  0.00     0.031 C 
ATOM     59  C   UNL A   1      43.133  29.319  35.283  1.00  0.00     0.029 A 
ATOM     60  C   UNL A   1      42.895  28.903  33.983  1.00  0.00     0.049 A 
ATOM     61  H   UNL A   1      41.358  29.483  32.660  1.00  0.00     0.167 HD
ATOM     62  C   UNL A   1      43.371  27.625  31.913  1.00  0.00     0.074 A 
ATOM     63  C   UNL A   1      44.173  26.720  31.115  1.00  0.00     0.031 C 
ATOM     64  C   UNL A   1      43.652  27.967  33.193  1.00  0.00     0.034 A 
BRANCH  51  65
ATOM     65  C   UNL A   1      39.749  32.049  35.665  1.00  0.00     0.023 A 
ATOM     66  C   UNL A   1      40.265  33.355  35.785  1.00  0.00     0.012 A 
ATOM     67  C   UNL A   1      38.819  31.577  36.608  1.00  0.00     0.148 A 
ATOM     68  C   UNL A   1      39.861  34.180  36.833  1.00  0.00     0.002 A 
ATOM     69  C   UNL A   1      38.397  32.415  37.632  1.00  0.00     0.091 A 
ATOM     70  F   UNL A   1      38.358  30.324  36.477  1.00  0.00    -0.205 F 
ATOM     71  C   UNL A   1      38.920  33.715  37.748  1.00  0.00     0.022 A 
BRANCH  69  72
ATOM     72  S   UNL A   1      37.151  31.936  38.832  1.00  0.00     0.127 S 
ATOM     73  O   UNL A   1      37.809  32.277  40.093  1.00  0.00    -0.237 OA
ATOM     74  O   UNL A   1      36.030  32.805  38.474  1.00  0.00    -0.237 OA
ATOM     75  O   UNL A   1      36.915  30.513  38.627  1.00  0.00    -0.744 OA
ENDBRANCH  69  72
ENDBRANCH  51  65
BRANCH  52  76
ATOM     76  C   UNL A   1      41.937  26.698  27.520  1.00  0.00     0.023 A 
ATOM     77  C   UNL A   1      42.542  27.338  26.422  1.00  0.00     0.012 A 
ATOM     78  C   UNL A   1      41.715  25.308  27.475  1.00  0.00     0.148 A 
ATOM     79  C   UNL A   1      42.912  26.610  25.292  1.00  0.00     0.002 A 
ATOM     80  C   UNL A   1      42.120  24.582  26.362  1.00  0.00     0.091 A 
ATOM     81  F   UNL A   1      41.139  24.726  28.536  1.00  0.00    -0.205 F 
ATOM     82  C   UNL A   1      42.711  25.232  25.265  1.00  0.00     0.022 A 
BRANCH  80  83
ATOM     83  S   UNL A   1      41.990  22.793  26.269  1.00  0.00     0.127 S 
ATOM     84  O   UNL A   1      42.626  22.513  24.984  1.00  0.00    -0.237 OA
ATOM     85  O   UNL A   1      42.759  22.378  27.442  1.00  0.00    -0.237 OA
ATOM     86  O   UNL A   1      40.566  22.494  26.340  1.00  0.00    -0.744 OA
ENDBRANCH  80  83
ENDBRANCH  52  76
BRANCH  64  87
ATOM     87  C   UNL A   1      44.854  27.345  33.845  1.00  0.00     0.023 A 
ATOM     88  C   UNL A   1      46.085  28.028  33.835  1.00  0.00     0.012 A 
ATOM     89  C   UNL A   1      44.728  26.146  34.575  1.00  0.00     0.148 A 
ATOM     90  C   UNL A   1      47.179  27.520  34.534  1.00  0.00     0.002 A 
ATOM     91  C   UNL A   1      45.811  25.665  35.299  1.00  0.00     0.091 A 
ATOM     92  F   UNL A   1      43.545  25.514  34.562  1.00  0.00    -0.205 F 
ATOM     93  C   UNL A   1      47.039  26.348  35.276  1.00  0.00     0.022 A 
BRANCH  91  94
ATOM     94  S   UNL A   1      45.707  24.207  36.342  1.00  0.00     0.127 S 
ATOM     95  O   UNL A   1      44.816  23.349  35.563  1.00  0.00    -0.237 OA
ATOM     96  O   UNL A   1      47.099  23.761  36.388  1.00  0.00    -0.237 OA
ATOM     97  O   UNL A   1      45.171  24.661  37.619  1.00  0.00    -0.744 OA
ENDBRANCH  91  94
ENDBRANCH  64  87
ENDBRANCH  38  39
ENDBRANCH  30  33
ENDBRANCH  28  29
ENDBRANCH  27  28
ENDBRANCH   1  27
TORSDOF 18
ENDMDL
