MODEL 1
REMARK VINA RESULT:     -11.0      0.000      0.000
REMARK SMILES CC[NH2+][C@H](C)c1cccn1Cc1ccc(C(=O)NCCCCCCNC(=O)c2ccc(-c3c4nc(c(-c5cccc(S(=O)(=O)[O-])c5F)c5ccc([nH]5)c(-c5cccc(S(=O)(=O)[O-])c5F)c5nc(c(-c6cccc(S(=O)(=O)[O-])c6F)c6ccc3[nH]6)C=C5)C=C4)cc2)cc1
REMARK SMILES IDX 20 1 19 2 18 3 16 4 17 5 15 7 12 8 13 9 92 10 14 11 91 12
REMARK SMILES IDX 11 13 10 14 6 15 7 16 8 17 9 18 4 19 5 20 3 21 2 24 1 25
REMARK SMILES IDX 21 26 22 27 23 28 24 29 25 30 26 31 27 33 28 34 29 35 90 36
REMARK SMILES IDX 30 37 89 38 31 39 32 40 33 41 83 42 34 43 88 44 82 45 84 46
REMARK SMILES IDX 35 47 87 48 81 49 80 50 36 52 68 53 48 54 67 55 49 56 52 57
REMARK SMILES IDX 66 58 85 59 50 60 51 61 65 63 86 64 53 65 37 66 38 67 46 68
REMARK SMILES IDX 39 69 41 70 47 71 40 72 42 73 43 74 44 75 45 76 69 77 70 78
REMARK SMILES IDX 78 79 71 80 73 81 79 82 72 83 74 84 75 85 76 86 77 87 54 88
REMARK SMILES IDX 55 89 63 90 56 91 58 92 64 93 57 94 59 95 60 96 61 97 62 98
REMARK H PARENT 18 6 3 22 3 23 25 32 84 51 52 62
REMARK Flexibility Score: inf
ROOT
ATOM      1  C   UNL A   1      32.412  28.929  25.816  1.00  0.00     0.021 C 
ENDROOT
BRANCH   1   2
ATOM      2  C   UNL A   1      32.885  29.080  24.369  1.00  0.00     0.116 C 
BRANCH   2   3
ATOM      3  N   UNL A   1      31.751  29.319  23.494  1.00  0.00    -0.352 N 
ATOM      4  C   UNL A   1      31.061  28.472  22.664  1.00  0.00     0.251 C 
ATOM      5  O   UNL A   1      30.097  28.914  22.038  1.00  0.00    -0.269 OA
ATOM      6  H   UNL A   1      31.421  30.247  23.496  1.00  0.00     0.163 HD
BRANCH   4   7
ATOM      7  C   UNL A   1      31.386  27.024  22.577  1.00  0.00     0.039 A 
ATOM      8  C   UNL A   1      32.055  24.292  22.711  1.00  0.00    -0.028 A 
ATOM      9  C   UNL A   1      30.993  24.801  23.473  1.00  0.00     0.006 A 
ATOM     10  C   UNL A   1      32.717  25.147  21.821  1.00  0.00     0.006 A 
ATOM     11  C   UNL A   1      30.659  26.156  23.402  1.00  0.00     0.014 A 
ATOM     12  C   UNL A   1      32.368  26.496  21.737  1.00  0.00     0.014 A 
BRANCH   8  13
ATOM     13  C   UNL A   1      32.505  22.858  22.867  1.00  0.00     0.157 C 
BRANCH  13  14
ATOM     14  N   UNL A   1      33.698  22.750  23.704  1.00  0.00    -0.342 N 
ATOM     15  C   UNL A   1      33.822  22.522  25.068  1.00  0.00     0.076 A 
ATOM     16  C   UNL A   1      35.155  22.808  25.374  1.00  0.00     0.029 A 
ATOM     17  C   UNL A   1      35.878  22.949  24.177  1.00  0.00     0.020 A 
ATOM     18  C   UNL A   1      34.966  22.848  23.159  1.00  0.00     0.086 A 
BRANCH  15  19
ATOM     19  C   UNL A   1      32.779  22.055  26.065  1.00  0.00     0.227 C 
ATOM     20  C   UNL A   1      31.808  23.094  26.626  1.00  0.00     0.082 C 
BRANCH  19  21
ATOM     21  N   UNL A   1      31.998  20.927  25.499  1.00  0.00    -0.339 N 
ATOM     22  H   UNL A   1      31.189  20.764  26.099  1.00  0.00     0.346 HD
ATOM     23  H   UNL A   1      31.733  21.195  24.551  1.00  0.00     0.346 HD
BRANCH  21  24
ATOM     24  C   UNL A   1      32.756  19.675  25.392  1.00  0.00     0.257 C 
ATOM     25  C   UNL A   1      32.760  19.201  23.947  1.00  0.00     0.071 C 
ENDBRANCH  21  24
ENDBRANCH  19  21
ENDBRANCH  15  19
ENDBRANCH  13  14
ENDBRANCH   8  13
ENDBRANCH   4   7
ENDBRANCH   2   3
ENDBRANCH   1   2
BRANCH   1  26
ATOM     26  C   UNL A   1      32.244  30.268  26.541  1.00  0.00     0.002 C 
BRANCH  26  27
ATOM     27  C   UNL A   1      31.206  31.206  25.916  1.00  0.00     0.002 C 
BRANCH  27  28
ATOM     28  C   UNL A   1      31.233  32.645  26.455  1.00  0.00     0.021 C 
BRANCH  28  29
ATOM     29  C   UNL A   1      32.484  32.949  27.281  1.00  0.00     0.116 C 
BRANCH  29  30
ATOM     30  N   UNL A   1      32.419  34.318  27.769  1.00  0.00    -0.352 N 
ATOM     31  C   UNL A   1      33.075  34.932  28.798  1.00  0.00     0.251 C 
ATOM     32  H   UNL A   1      31.799  34.901  27.273  1.00  0.00     0.163 HD
ATOM     33  O   UNL A   1      32.597  35.969  29.255  1.00  0.00    -0.269 OA
BRANCH  31  34
ATOM     34  C   UNL A   1      34.322  34.390  29.373  1.00  0.00     0.039 A 
ATOM     35  C   UNL A   1      34.226  33.714  30.597  1.00  0.00     0.014 A 
ATOM     36  C   UNL A   1      35.575  34.627  28.799  1.00  0.00     0.014 A 
ATOM     37  C   UNL A   1      35.373  33.231  31.217  1.00  0.00     0.010 A 
ATOM     38  C   UNL A   1      36.726  34.139  29.414  1.00  0.00     0.010 A 
ATOM     39  C   UNL A   1      36.621  33.421  30.610  1.00  0.00    -0.014 A 
BRANCH  39  40
ATOM     40  C   UNL A   1      37.777  32.651  31.128  1.00  0.00     0.031 A 
ATOM     41  C   UNL A   1      37.965  31.344  30.308  1.00  0.00     0.074 A 
ATOM     42  C   UNL A   1      38.429  33.163  32.222  1.00  0.00     0.049 A 
ATOM     43  N   UNL A   1      38.374  30.168  30.679  1.00  0.00    -0.248 NA
ATOM     44  C   UNL A   1      37.508  31.304  28.886  1.00  0.00     0.031 C 
ATOM     45  C   UNL A   1      38.148  34.482  32.837  1.00  0.00     0.029 A 
ATOM     46  N   UNL A   1      39.452  32.711  33.039  1.00  0.00    -0.354 N 
ATOM     47  C   UNL A   1      38.476  29.363  29.509  1.00  0.00     0.074 A 
ATOM     48  C   UNL A   1      37.771  30.059  28.482  1.00  0.00     0.031 C 
ATOM     49  C   UNL A   1      38.895  34.678  33.948  1.00  0.00     0.029 A 
ATOM     50  C   UNL A   1      39.758  33.530  34.164  1.00  0.00     0.049 A 
ATOM     51  H   UNL A   1      39.938  31.876  32.854  1.00  0.00     0.167 HD
ATOM     52  C   UNL A   1      39.293  28.268  29.426  1.00  0.00     0.034 A 
ATOM     53  C   UNL A   1      40.618  33.285  35.208  1.00  0.00     0.034 A 
ATOM     54  C   UNL A   1      39.986  28.132  30.663  1.00  0.00     0.049 A 
ATOM     55  C   UNL A   1      41.366  32.091  34.811  1.00  0.00     0.074 A 
ATOM     56  C   UNL A   1      39.590  27.737  31.911  1.00  0.00     0.029 A 
ATOM     57  N   UNL A   1      41.174  28.821  30.735  1.00  0.00    -0.354 N 
ATOM     58  N   UNL A   1      42.293  32.080  33.903  1.00  0.00    -0.248 NA
ATOM     59  C   UNL A   1      41.009  30.797  35.407  1.00  0.00     0.031 C 
ATOM     60  C   UNL A   1      40.305  28.613  32.748  1.00  0.00     0.029 A 
ATOM     61  C   UNL A   1      41.279  29.298  32.009  1.00  0.00     0.049 A 
ATOM     62  H   UNL A   1      41.825  28.945  30.007  1.00  0.00     0.167 HD
ATOM     63  C   UNL A   1      42.315  30.756  33.555  1.00  0.00     0.074 A 
ATOM     64  C   UNL A   1      41.825  30.020  34.701  1.00  0.00     0.031 C 
ATOM     65  C   UNL A   1      42.146  30.424  32.247  1.00  0.00     0.034 A 
BRANCH  52  66
ATOM     66  C   UNL A   1      39.826  27.402  28.300  1.00  0.00     0.023 A 
ATOM     67  C   UNL A   1      39.522  26.011  28.415  1.00  0.00     0.012 A 
ATOM     68  C   UNL A   1      40.815  27.761  27.373  1.00  0.00     0.148 A 
ATOM     69  C   UNL A   1      40.262  25.020  27.776  1.00  0.00     0.002 A 
ATOM     70  C   UNL A   1      41.520  26.763  26.687  1.00  0.00     0.091 A 
ATOM     71  F   UNL A   1      41.130  29.049  27.210  1.00  0.00    -0.205 F 
ATOM     72  C   UNL A   1      41.278  25.398  26.922  1.00  0.00     0.022 A 
BRANCH  70  73
ATOM     73  S   UNL A   1      42.795  27.119  25.471  1.00  0.00     0.127 S 
ATOM     74  O   UNL A   1      43.948  27.414  26.313  1.00  0.00    -0.237 OA
ATOM     75  O   UNL A   1      42.881  25.850  24.745  1.00  0.00    -0.237 OA
ATOM     76  O   UNL A   1      42.278  28.225  24.670  1.00  0.00    -0.744 OA
ENDBRANCH  70  73
ENDBRANCH  52  66
BRANCH  53  77
ATOM     77  C   UNL A   1      40.937  33.819  36.594  1.00  0.00     0.023 A 
ATOM     78  C   UNL A   1      41.790  34.895  36.862  1.00  0.00     0.012 A 
ATOM     79  C   UNL A   1      40.232  33.297  37.730  1.00  0.00     0.148 A 
ATOM     80  C   UNL A   1      41.848  35.477  38.150  1.00  0.00     0.002 A 
ATOM     81  C   UNL A   1      40.171  33.961  38.948  1.00  0.00     0.091 A 
ATOM     82  F   UNL A   1      39.626  32.107  37.650  1.00  0.00    -0.205 F 
ATOM     83  C   UNL A   1      40.999  35.052  39.174  1.00  0.00     0.022 A 
BRANCH  81  84
ATOM     84  S   UNL A   1      38.912  33.561  40.182  1.00  0.00     0.127 S 
ATOM     85  O   UNL A   1      39.367  32.268  40.688  1.00  0.00    -0.237 OA
ATOM     86  O   UNL A   1      39.064  34.674  41.120  1.00  0.00    -0.237 OA
ATOM     87  O   UNL A   1      37.636  33.534  39.479  1.00  0.00    -0.744 OA
ENDBRANCH  81  84
ENDBRANCH  53  77
BRANCH  65  88
ATOM     88  C   UNL A   1      42.618  31.483  31.245  1.00  0.00     0.023 A 
ATOM     89  C   UNL A   1      41.618  32.299  30.671  1.00  0.00     0.012 A 
ATOM     90  C   UNL A   1      43.936  31.645  30.750  1.00  0.00     0.148 A 
ATOM     91  C   UNL A   1      41.896  33.203  29.641  1.00  0.00     0.002 A 
ATOM     92  C   UNL A   1      44.215  32.543  29.709  1.00  0.00     0.091 A 
ATOM     93  F   UNL A   1      44.916  30.923  31.290  1.00  0.00    -0.205 F 
ATOM     94  C   UNL A   1      43.192  33.323  29.158  1.00  0.00     0.022 A 
BRANCH  92  95
ATOM     95  S   UNL A   1      45.843  32.742  28.948  1.00  0.00     0.127 S 
ATOM     96  O   UNL A   1      46.646  33.280  30.049  1.00  0.00    -0.237 OA
ATOM     97  O   UNL A   1      46.184  31.372  28.578  1.00  0.00    -0.237 OA
ATOM     98  O   UNL A   1      45.673  33.666  27.832  1.00  0.00    -0.744 OA
ENDBRANCH  92  95
ENDBRANCH  65  88
ENDBRANCH  39  40
ENDBRANCH  31  34
ENDBRANCH  29  30
ENDBRANCH  28  29
ENDBRANCH  27  28
ENDBRANCH  26  27
ENDBRANCH   1  26
TORSDOF 21
ENDMDL
MODEL 2
REMARK VINA RESULT:     -10.8      3.584      8.619
REMARK SMILES CC[NH2+][C@H](C)c1cccn1Cc1ccc(C(=O)NCCCCCCNC(=O)c2ccc(-c3c4nc(c(-c5cccc(S(=O)(=O)[O-])c5F)c5ccc([nH]5)c(-c5cccc(S(=O)(=O)[O-])c5F)c5nc(c(-c6cccc(S(=O)(=O)[O-])c6F)c6ccc3[nH]6)C=C5)C=C4)cc2)cc1
REMARK SMILES IDX 20 1 19 2 18 3 16 4 17 5 15 7 12 8 13 9 92 10 14 11 91 12
REMARK SMILES IDX 11 13 10 14 6 15 7 16 8 17 9 18 4 19 5 20 3 21 2 24 1 25
REMARK SMILES IDX 21 26 22 27 23 28 24 29 25 30 26 31 27 33 28 34 29 35 90 36
REMARK SMILES IDX 30 37 89 38 31 39 32 40 33 41 83 42 34 43 88 44 82 45 84 46
REMARK SMILES IDX 35 47 87 48 81 49 80 50 36 52 68 53 48 54 67 55 49 56 52 57
REMARK SMILES IDX 66 58 85 59 50 60 51 61 65 63 86 64 53 65 37 66 38 67 46 68
REMARK SMILES IDX 39 69 41 70 47 71 40 72 42 73 43 74 44 75 45 76 69 77 70 78
REMARK SMILES IDX 78 79 71 80 73 81 79 82 72 83 74 84 75 85 76 86 77 87 54 88
REMARK SMILES IDX 55 89 63 90 56 91 58 92 64 93 57 94 59 95 60 96 61 97 62 98
REMARK H PARENT 18 6 3 22 3 23 25 32 84 51 52 62
REMARK Flexibility Score: inf
ROOT
ATOM      1  C   UNL A   1      31.346  28.960  24.800  1.00  0.00     0.021 C 
ENDROOT
BRANCH   1   2
ATOM      2  C   UNL A   1      31.119  28.041  23.599  1.00  0.00     0.116 C 
BRANCH   2   3
ATOM      3  N   UNL A   1      32.206  28.184  22.646  1.00  0.00    -0.352 N 
ATOM      4  C   UNL A   1      33.335  27.430  22.450  1.00  0.00     0.251 C 
ATOM      5  O   UNL A   1      34.101  27.741  21.539  1.00  0.00    -0.269 OA
ATOM      6  H   UNL A   1      32.117  28.952  22.037  1.00  0.00     0.163 HD
BRANCH   4   7
ATOM      7  C   UNL A   1      33.603  26.201  23.243  1.00  0.00     0.039 A 
ATOM      8  C   UNL A   1      33.818  23.807  24.709  1.00  0.00    -0.028 A 
ATOM      9  C   UNL A   1      33.382  23.786  23.376  1.00  0.00     0.006 A 
ATOM     10  C   UNL A   1      34.225  25.025  25.267  1.00  0.00     0.006 A 
ATOM     11  C   UNL A   1      33.280  24.975  22.648  1.00  0.00     0.014 A 
ATOM     12  C   UNL A   1      34.141  26.208  24.531  1.00  0.00     0.014 A 
BRANCH   8  13
ATOM     13  C   UNL A   1      33.817  22.548  25.545  1.00  0.00     0.157 C 
BRANCH  13  14
ATOM     14  N   UNL A   1      34.915  21.653  25.182  1.00  0.00    -0.342 N 
ATOM     15  C   UNL A   1      34.915  20.288  24.927  1.00  0.00     0.076 A 
ATOM     16  C   UNL A   1      36.260  19.911  24.921  1.00  0.00     0.029 A 
ATOM     17  C   UNL A   1      37.058  21.068  24.907  1.00  0.00     0.020 A 
ATOM     18  C   UNL A   1      36.200  22.132  25.007  1.00  0.00     0.086 A 
BRANCH  15  19
ATOM     19  C   UNL A   1      33.745  19.353  24.691  1.00  0.00     0.227 C 
ATOM     20  C   UNL A   1      32.569  19.871  23.864  1.00  0.00     0.082 C 
BRANCH  19  21
ATOM     21  N   UNL A   1      34.219  18.077  24.101  1.00  0.00    -0.339 N 
ATOM     22  H   UNL A   1      33.851  18.005  23.152  1.00  0.00     0.346 HD
ATOM     23  H   UNL A   1      35.238  18.100  24.124  1.00  0.00     0.346 HD
BRANCH  21  24
ATOM     24  C   UNL A   1      33.803  16.885  24.851  1.00  0.00     0.257 C 
ATOM     25  C   UNL A   1      35.028  16.071  25.238  1.00  0.00     0.071 C 
ENDBRANCH  21  24
ENDBRANCH  19  21
ENDBRANCH  15  19
ENDBRANCH  13  14
ENDBRANCH   8  13
ENDBRANCH   4   7
ENDBRANCH   2   3
ENDBRANCH   1   2
BRANCH   1  26
ATOM     26  C   UNL A   1      31.641  28.201  26.098  1.00  0.00     0.002 C 
BRANCH  26  27
ATOM     27  C   UNL A   1      32.875  28.697  26.860  1.00  0.00     0.002 C 
BRANCH  27  28
ATOM     28  C   UNL A   1      32.861  30.196  27.199  1.00  0.00     0.021 C 
BRANCH  28  29
ATOM     29  C   UNL A   1      34.215  30.707  27.694  1.00  0.00     0.116 C 
BRANCH  29  30
ATOM     30  N   UNL A   1      34.007  31.849  28.572  1.00  0.00    -0.352 N 
ATOM     31  C   UNL A   1      34.721  32.287  29.652  1.00  0.00     0.251 C 
ATOM     32  H   UNL A   1      33.221  32.399  28.350  1.00  0.00     0.163 HD
ATOM     33  O   UNL A   1      34.163  33.038  30.450  1.00  0.00    -0.269 OA
BRANCH  31  34
ATOM     34  C   UNL A   1      36.122  31.886  29.886  1.00  0.00     0.039 A 
ATOM     35  C   UNL A   1      36.355  30.889  30.843  1.00  0.00     0.014 A 
ATOM     36  C   UNL A   1      37.198  32.540  29.276  1.00  0.00     0.014 A 
ATOM     37  C   UNL A   1      37.657  30.510  31.149  1.00  0.00     0.010 A 
ATOM     38  C   UNL A   1      38.504  32.157  29.576  1.00  0.00     0.010 A 
ATOM     39  C   UNL A   1      38.731  31.127  30.495  1.00  0.00    -0.014 A 
BRANCH  39  40
ATOM     40  C   UNL A   1      40.074  30.509  30.615  1.00  0.00     0.031 A 
ATOM     41  C   UNL A   1      40.972  31.355  31.560  1.00  0.00     0.074 A 
ATOM     42  C   UNL A   1      40.310  29.379  29.873  1.00  0.00     0.049 A 
ATOM     43  N   UNL A   1      42.251  31.583  31.526  1.00  0.00    -0.248 NA
ATOM     44  C   UNL A   1      40.334  32.173  32.634  1.00  0.00     0.031 C 
ATOM     45  C   UNL A   1      39.291  28.663  29.069  1.00  0.00     0.029 A 
ATOM     46  N   UNL A   1      41.424  28.592  29.636  1.00  0.00    -0.354 N 
ATOM     47  C   UNL A   1      42.584  32.323  32.695  1.00  0.00     0.074 A 
ATOM     48  C   UNL A   1      41.351  32.795  33.234  1.00  0.00     0.031 C 
ATOM     49  C   UNL A   1      39.839  27.632  28.384  1.00  0.00     0.029 A 
ATOM     50  C   UNL A   1      41.256  27.546  28.684  1.00  0.00     0.049 A 
ATOM     51  H   UNL A   1      42.280  28.745  30.098  1.00  0.00     0.167 HD
ATOM     52  C   UNL A   1      43.841  32.335  33.237  1.00  0.00     0.034 A 
ATOM     53  C   UNL A   1      42.197  26.696  28.152  1.00  0.00     0.034 A 
ATOM     54  C   UNL A   1      44.676  31.492  32.449  1.00  0.00     0.049 A 
ATOM     55  C   UNL A   1      43.402  26.916  28.953  1.00  0.00     0.074 A 
ATOM     56  C   UNL A   1      45.217  31.626  31.199  1.00  0.00     0.029 A 
ATOM     57  N   UNL A   1      44.691  30.174  32.836  1.00  0.00    -0.354 N 
ATOM     58  N   UNL A   1      43.554  26.496  30.172  1.00  0.00    -0.248 NA
ATOM     59  C   UNL A   1      44.491  27.728  28.393  1.00  0.00     0.031 C 
ATOM     60  C   UNL A   1      45.102  30.325  30.677  1.00  0.00     0.029 A 
ATOM     61  C   UNL A   1      44.757  29.425  31.696  1.00  0.00     0.049 A 
ATOM     62  H   UNL A   1      44.660  29.833  33.759  1.00  0.00     0.167 HD
ATOM     63  C   UNL A   1      44.541  27.330  30.624  1.00  0.00     0.074 A 
ATOM     64  C   UNL A   1      45.285  27.759  29.459  1.00  0.00     0.031 C 
ATOM     65  C   UNL A   1      44.315  28.056  31.751  1.00  0.00     0.034 A 
BRANCH  52  66
ATOM     66  C   UNL A   1      44.441  32.765  34.562  1.00  0.00     0.023 A 
ATOM     67  C   UNL A   1      45.762  33.305  34.478  1.00  0.00     0.012 A 
ATOM     68  C   UNL A   1      43.983  32.404  35.837  1.00  0.00     0.148 A 
ATOM     69  C   UNL A   1      46.636  33.334  35.561  1.00  0.00     0.002 A 
ATOM     70  C   UNL A   1      44.847  32.489  36.937  1.00  0.00     0.091 A 
ATOM     71  F   UNL A   1      42.750  31.909  35.979  1.00  0.00    -0.205 F 
ATOM     72  C   UNL A   1      46.182  32.906  36.792  1.00  0.00     0.022 A 
BRANCH  70  73
ATOM     73  S   UNL A   1      44.352  32.063  38.611  1.00  0.00     0.127 S 
ATOM     74  O   UNL A   1      43.178  32.905  38.807  1.00  0.00    -0.237 OA
ATOM     75  O   UNL A   1      44.060  30.633  38.483  1.00  0.00    -0.237 OA
ATOM     76  O   UNL A   1      45.508  32.358  39.451  1.00  0.00    -0.744 OA
ENDBRANCH  70  73
ENDBRANCH  52  66
BRANCH  53  77
ATOM     77  C   UNL A   1      42.354  25.718  27.000  1.00  0.00     0.023 A 
ATOM     78  C   UNL A   1      43.184  25.912  25.891  1.00  0.00     0.012 A 
ATOM     79  C   UNL A   1      41.724  24.431  27.079  1.00  0.00     0.148 A 
ATOM     80  C   UNL A   1      43.452  24.857  24.987  1.00  0.00     0.002 A 
ATOM     81  C   UNL A   1      42.106  23.356  26.286  1.00  0.00     0.091 A 
ATOM     82  F   UNL A   1      40.701  24.238  27.919  1.00  0.00    -0.205 F 
ATOM     83  C   UNL A   1      42.964  23.568  25.216  1.00  0.00     0.022 A 
BRANCH  81  84
ATOM     84  S   UNL A   1      41.667  21.657  26.718  1.00  0.00     0.127 S 
ATOM     85  O   UNL A   1      42.374  20.880  25.703  1.00  0.00    -0.237 OA
ATOM     86  O   UNL A   1      42.221  21.550  28.068  1.00  0.00    -0.237 OA
ATOM     87  O   UNL A   1      40.213  21.577  26.654  1.00  0.00    -0.744 OA
ENDBRANCH  81  84
ENDBRANCH  53  77
BRANCH  65  88
ATOM     88  C   UNL A   1      43.343  27.415  32.748  1.00  0.00     0.023 A 
ATOM     89  C   UNL A   1      42.118  28.088  32.957  1.00  0.00     0.012 A 
ATOM     90  C   UNL A   1      43.598  26.286  33.565  1.00  0.00     0.148 A 
ATOM     91  C   UNL A   1      41.209  27.688  33.941  1.00  0.00     0.002 A 
ATOM     92  C   UNL A   1      42.693  25.891  34.560  1.00  0.00     0.091 A 
ATOM     93  F   UNL A   1      44.724  25.600  33.375  1.00  0.00    -0.205 F 
ATOM     94  C   UNL A   1      41.496  26.593  34.745  1.00  0.00     0.022 A 
BRANCH  92  95
ATOM     95  S   UNL A   1      42.981  24.528  35.713  1.00  0.00     0.127 S 
ATOM     96  O   UNL A   1      44.185  24.962  36.427  1.00  0.00    -0.237 OA
ATOM     97  O   UNL A   1      41.768  24.547  36.528  1.00  0.00    -0.237 OA
ATOM     98  O   UNL A   1      43.171  23.329  34.906  1.00  0.00    -0.744 OA
ENDBRANCH  92  95
ENDBRANCH  65  88
ENDBRANCH  39  40
ENDBRANCH  31  34
ENDBRANCH  29  30
ENDBRANCH  28  29
ENDBRANCH  27  28
ENDBRANCH  26  27
ENDBRANCH   1  26
TORSDOF 21
ENDMDL
MODEL 3
REMARK VINA RESULT:     -10.5      1.551      2.552
REMARK SMILES CC[NH2+][C@H](C)c1cccn1Cc1ccc(C(=O)NCCCCCCNC(=O)c2ccc(-c3c4nc(c(-c5cccc(S(=O)(=O)[O-])c5F)c5ccc([nH]5)c(-c5cccc(S(=O)(=O)[O-])c5F)c5nc(c(-c6cccc(S(=O)(=O)[O-])c6F)c6ccc3[nH]6)C=C5)C=C4)cc2)cc1
REMARK SMILES IDX 20 1 19 2 18 3 16 4 17 5 15 7 12 8 13 9 92 10 14 11 91 12
REMARK SMILES IDX 11 13 10 14 6 15 7 16 8 17 9 18 4 19 5 20 3 21 2 24 1 25
REMARK SMILES IDX 21 26 22 27 23 28 24 29 25 30 26 31 27 33 28 34 29 35 90 36
REMARK SMILES IDX 30 37 89 38 31 39 32 40 33 41 83 42 34 43 88 44 82 45 84 46
REMARK SMILES IDX 35 47 87 48 81 49 80 50 36 52 68 53 48 54 67 55 49 56 52 57
REMARK SMILES IDX 66 58 85 59 50 60 51 61 65 63 86 64 53 65 37 66 38 67 46 68
REMARK SMILES IDX 39 69 41 70 47 71 40 72 42 73 43 74 44 75 45 76 69 77 70 78
REMARK SMILES IDX 78 79 71 80 73 81 79 82 72 83 74 84 75 85 76 86 77 87 54 88
REMARK SMILES IDX 55 89 63 90 56 91 58 92 64 93 57 94 59 95 60 96 61 97 62 98
REMARK H PARENT 18 6 3 22 3 23 25 32 84 51 52 62
REMARK Flexibility Score: inf
ROOT
ATOM      1  C   UNL A   1      34.339  32.554  28.507  1.00  0.00     0.021 C 
ENDROOT
BRANCH   1   2
ATOM      2  C   UNL A   1      34.043  31.213  27.836  1.00  0.00     0.116 C 
BRANCH   2   3
ATOM      3  N   UNL A   1      32.819  31.301  27.057  1.00  0.00    -0.352 N 
ATOM      4  C   UNL A   1      32.261  30.429  26.157  1.00  0.00     0.251 C 
ATOM      5  O   UNL A   1      31.180  30.720  25.645  1.00  0.00    -0.269 OA
ATOM      6  H   UNL A   1      32.302  32.126  27.200  1.00  0.00     0.163 HD
BRANCH   4   7
ATOM      7  C   UNL A   1      32.877  29.108  25.861  1.00  0.00     0.039 A 
ATOM      8  C   UNL A   1      33.861  26.595  25.058  1.00  0.00    -0.028 A 
ATOM      9  C   UNL A   1      33.953  27.700  24.200  1.00  0.00     0.006 A 
ATOM     10  C   UNL A   1      33.351  26.784  26.349  1.00  0.00     0.006 A 
ATOM     11  C   UNL A   1      33.468  28.948  24.601  1.00  0.00     0.014 A 
ATOM     12  C   UNL A   1      32.887  28.036  26.755  1.00  0.00     0.014 A 
BRANCH   8  13
ATOM     13  C   UNL A   1      34.269  25.216  24.595  1.00  0.00     0.157 C 
BRANCH  13  14
ATOM     14  N   UNL A   1      33.153  24.495  23.983  1.00  0.00    -0.342 N 
ATOM     15  C   UNL A   1      32.245  23.604  24.539  1.00  0.00     0.076 A 
ATOM     16  C   UNL A   1      31.597  23.008  23.455  1.00  0.00     0.029 A 
ATOM     17  C   UNL A   1      31.921  23.716  22.284  1.00  0.00     0.020 A 
ATOM     18  C   UNL A   1      32.836  24.669  22.648  1.00  0.00     0.086 A 
BRANCH  15  19
ATOM     19  C   UNL A   1      31.964  23.301  25.998  1.00  0.00     0.227 C 
ATOM     20  C   UNL A   1      30.678  23.857  26.610  1.00  0.00     0.082 C 
BRANCH  19  21
ATOM     21  N   UNL A   1      32.015  21.838  26.238  1.00  0.00    -0.339 N 
ATOM     22  H   UNL A   1      31.565  21.643  27.133  1.00  0.00     0.346 HD
ATOM     23  H   UNL A   1      31.536  21.392  25.456  1.00  0.00     0.346 HD
BRANCH  21  24
ATOM     24  C   UNL A   1      33.376  21.290  26.273  1.00  0.00     0.257 C 
ATOM     25  C   UNL A   1      34.051  21.678  27.579  1.00  0.00     0.071 C 
ENDBRANCH  21  24
ENDBRANCH  19  21
ENDBRANCH  15  19
ENDBRANCH  13  14
ENDBRANCH   8  13
ENDBRANCH   4   7
ENDBRANCH   2   3
ENDBRANCH   1   2
BRANCH   1  26
ATOM     26  C   UNL A   1      33.412  33.683  28.042  1.00  0.00     0.002 C 
BRANCH  26  27
ATOM     27  C   UNL A   1      33.904  35.094  28.385  1.00  0.00     0.002 C 
BRANCH  27  28
ATOM     28  C   UNL A   1      32.832  36.020  28.983  1.00  0.00     0.021 C 
BRANCH  28  29
ATOM     29  C   UNL A   1      33.341  36.825  30.179  1.00  0.00     0.116 C 
BRANCH  29  30
ATOM     30  N   UNL A   1      32.607  36.432  31.373  1.00  0.00    -0.352 N 
ATOM     31  C   UNL A   1      32.747  35.345  32.189  1.00  0.00     0.251 C 
ATOM     32  H   UNL A   1      31.891  37.053  31.637  1.00  0.00     0.163 HD
ATOM     33  O   UNL A   1      31.797  35.030  32.904  1.00  0.00    -0.269 OA
BRANCH  31  34
ATOM     34  C   UNL A   1      33.987  34.546  32.233  1.00  0.00     0.039 A 
ATOM     35  C   UNL A   1      35.135  35.106  31.654  1.00  0.00     0.014 A 
ATOM     36  C   UNL A   1      34.016  33.236  32.722  1.00  0.00     0.014 A 
ATOM     37  C   UNL A   1      36.319  34.380  31.613  1.00  0.00     0.010 A 
ATOM     38  C   UNL A   1      35.203  32.507  32.688  1.00  0.00     0.010 A 
ATOM     39  C   UNL A   1      36.359  33.088  32.155  1.00  0.00    -0.014 A 
BRANCH  39  40
ATOM     40  C   UNL A   1      37.684  32.457  32.367  1.00  0.00     0.031 A 
ATOM     41  C   UNL A   1      37.866  31.252  31.403  1.00  0.00     0.074 A 
ATOM     42  C   UNL A   1      38.472  32.980  33.361  1.00  0.00     0.049 A 
ATOM     43  N   UNL A   1      38.488  30.123  31.573  1.00  0.00    -0.248 NA
ATOM     44  C   UNL A   1      37.141  31.247  30.097  1.00  0.00     0.031 C 
ATOM     45  C   UNL A   1      38.156  34.199  34.143  1.00  0.00     0.029 A 
ATOM     46  N   UNL A   1      39.688  32.623  33.922  1.00  0.00    -0.354 N 
ATOM     47  C   UNL A   1      38.452  29.426  30.334  1.00  0.00     0.074 A 
ATOM     48  C   UNL A   1      37.473  30.084  29.532  1.00  0.00     0.031 C 
ATOM     49  C   UNL A   1      39.081  34.421  35.106  1.00  0.00     0.029 A 
ATOM     50  C   UNL A   1      40.107  33.397  35.041  1.00  0.00     0.049 A 
ATOM     51  H   UNL A   1      40.228  31.881  33.567  1.00  0.00     0.167 HD
ATOM     52  C   UNL A   1      39.368  28.468  29.990  1.00  0.00     0.034 A 
ATOM     53  C   UNL A   1      41.184  33.205  35.874  1.00  0.00     0.034 A 
ATOM     54  C   UNL A   1      40.308  28.346  31.054  1.00  0.00     0.049 A 
ATOM     55  C   UNL A   1      41.982  32.161  35.229  1.00  0.00     0.074 A 
ATOM     56  C   UNL A   1      40.224  27.812  32.311  1.00  0.00     0.029 A 
ATOM     57  N   UNL A   1      41.388  29.190  30.966  1.00  0.00    -0.354 N 
ATOM     58  N   UNL A   1      42.701  32.347  34.164  1.00  0.00    -0.248 NA
ATOM     59  C   UNL A   1      41.919  30.791  35.753  1.00  0.00     0.031 C 
ATOM     60  C   UNL A   1      40.977  28.720  33.078  1.00  0.00     0.029 A 
ATOM     61  C   UNL A   1      41.687  29.588  32.237  1.00  0.00     0.049 A 
ATOM     62  H   UNL A   1      41.858  29.457  30.143  1.00  0.00     0.167 HD
ATOM     63  C   UNL A   1      42.819  31.067  33.692  1.00  0.00     0.074 A 
ATOM     64  C   UNL A   1      42.668  30.190  34.833  1.00  0.00     0.031 C 
ATOM     65  C   UNL A   1      42.435  30.806  32.414  1.00  0.00     0.034 A 
BRANCH  52  66
ATOM     66  C   UNL A   1      39.768  27.768  28.706  1.00  0.00     0.023 A 
ATOM     67  C   UNL A   1      39.373  26.397  28.618  1.00  0.00     0.012 A 
ATOM     68  C   UNL A   1      40.723  28.214  27.780  1.00  0.00     0.148 A 
ATOM     69  C   UNL A   1      40.001  25.482  27.777  1.00  0.00     0.002 A 
ATOM     70  C   UNL A   1      41.311  27.301  26.894  1.00  0.00     0.091 A 
ATOM     71  F   UNL A   1      41.119  29.490  27.803  1.00  0.00    -0.205 F 
ATOM     72  C   UNL A   1      40.988  25.934  26.925  1.00  0.00     0.022 A 
BRANCH  70  73
ATOM     73  S   UNL A   1      42.533  27.775  25.663  1.00  0.00     0.127 S 
ATOM     74  O   UNL A   1      41.897  28.923  25.027  1.00  0.00    -0.237 OA
ATOM     75  O   UNL A   1      43.689  28.106  26.500  1.00  0.00    -0.237 OA
ATOM     76  O   UNL A   1      42.727  26.595  24.826  1.00  0.00    -0.744 OA
ENDBRANCH  70  73
ENDBRANCH  52  66
BRANCH  53  77
ATOM     77  C   UNL A   1      41.706  33.681  37.220  1.00  0.00     0.023 A 
ATOM     78  C   UNL A   1      42.908  34.368  37.416  1.00  0.00     0.012 A 
ATOM     79  C   UNL A   1      40.874  33.553  38.382  1.00  0.00     0.148 A 
ATOM     80  C   UNL A   1      43.205  34.979  38.657  1.00  0.00     0.002 A 
ATOM     81  C   UNL A   1      41.091  34.281  39.545  1.00  0.00     0.091 A 
ATOM     82  F   UNL A   1      39.860  32.681  38.386  1.00  0.00    -0.205 F 
ATOM     83  C   UNL A   1      42.275  34.988  39.699  1.00  0.00     0.022 A 
BRANCH  81  84
ATOM     84  S   UNL A   1      39.796  34.484  40.790  1.00  0.00     0.127 S 
ATOM     85  O   UNL A   1      40.374  35.482  41.687  1.00  0.00    -0.237 OA
ATOM     86  O   UNL A   1      38.682  34.966  39.971  1.00  0.00    -0.237 OA
ATOM     87  O   UNL A   1      39.583  33.170  41.384  1.00  0.00    -0.744 OA
ENDBRANCH  81  84
ENDBRANCH  53  77
BRANCH  65  88
ATOM     88  C   UNL A   1      42.557  31.990  31.448  1.00  0.00     0.023 A 
ATOM     89  C   UNL A   1      41.354  32.633  31.081  1.00  0.00     0.012 A 
ATOM     90  C   UNL A   1      43.737  32.425  30.797  1.00  0.00     0.148 A 
ATOM     91  C   UNL A   1      41.311  33.629  30.101  1.00  0.00     0.002 A 
ATOM     92  C   UNL A   1      43.695  33.416  29.805  1.00  0.00     0.091 A 
ATOM     93  F   UNL A   1      44.899  31.873  31.140  1.00  0.00    -0.205 F 
ATOM     94  C   UNL A   1      42.479  34.019  29.460  1.00  0.00     0.022 A 
BRANCH  92  95
ATOM     95  S   UNL A   1      45.131  33.963  28.851  1.00  0.00     0.127 S 
ATOM     96  O   UNL A   1      45.602  32.717  28.241  1.00  0.00    -0.237 OA
ATOM     97  O   UNL A   1      44.538  34.902  27.903  1.00  0.00    -0.237 OA
ATOM     98  O   UNL A   1      46.069  34.547  29.804  1.00  0.00    -0.744 OA
ENDBRANCH  92  95
ENDBRANCH  65  88
ENDBRANCH  39  40
ENDBRANCH  31  34
ENDBRANCH  29  30
ENDBRANCH  28  29
ENDBRANCH  27  28
ENDBRANCH  26  27
ENDBRANCH   1  26
TORSDOF 21
ENDMDL
