MODEL 1
REMARK VINA RESULT:     -10.4      0.000      0.000
REMARK SMILES CC[C@](C)(NC(=O)CCSc1ccccc1Cl)C(=O)NCCCCCCNC(=O)c1ccc(-c2c3nc(c(-c4cccc(S(=O)(=O)[O-])c4F)c4ccc([nH]4)c(-c4cccc(S(=O)(=O)[O-])c4F)c4nc(c(-c5cccc(S(=O)(=O)[O-])c5F)c5ccc2[nH]5)C=C4)C=C3)cc1
REMARK SMILES IDX 22 1 21 2 20 3 18 4 19 5 3 7 4 8 2 9 1 10 5 11 6 12 7 14
REMARK SMILES IDX 8 15 9 16 10 17 11 18 12 19 16 20 13 21 15 22 17 23 14 24
REMARK SMILES IDX 23 25 24 26 25 27 26 28 27 29 28 30 29 32 30 33 31 34 92 35
REMARK SMILES IDX 32 36 91 37 33 38 34 39 35 40 85 41 36 42 90 43 84 44 86 45
REMARK SMILES IDX 37 46 89 47 83 48 82 49 38 51 70 52 50 53 69 54 51 55 54 56
REMARK SMILES IDX 68 57 87 58 52 59 53 60 67 62 88 63 55 64 39 65 40 66 48 67
REMARK SMILES IDX 41 68 43 69 49 70 42 71 44 72 45 73 46 74 47 75 71 76 72 77
REMARK SMILES IDX 80 78 73 79 75 80 81 81 74 82 76 83 77 84 78 85 79 86 56 87
REMARK SMILES IDX 57 88 65 89 58 90 60 91 66 92 59 93 61 94 62 95 63 96 64 97
REMARK H PARENT 20 6 5 13 27 31 86 50 54 61
REMARK Flexibility Score: inf
ROOT
ATOM      1  C   UNL A   1      33.233  27.882  22.983  1.00  0.00     0.021 C 
ENDROOT
BRANCH   1   2
ATOM      2  C   UNL A   1      32.312  26.666  23.032  1.00  0.00     0.116 C 
BRANCH   2   3
ATOM      3  N   UNL A   1      31.554  26.616  24.272  1.00  0.00    -0.354 N 
ATOM      4  C   UNL A   1      31.602  25.742  25.315  1.00  0.00     0.245 C 
ATOM      5  O   UNL A   1      30.811  25.928  26.244  1.00  0.00    -0.272 OA
ATOM      6  H   UNL A   1      30.893  27.339  24.374  1.00  0.00     0.163 HD
BRANCH   4   7
ATOM      7  C   UNL A   1      32.672  24.621  25.368  1.00  0.00     0.116 C 
ATOM      8  C   UNL A   1      34.085  25.183  25.201  1.00  0.00     0.045 C 
BRANCH   7   9
ATOM      9  C   UNL A   1      32.444  23.641  24.168  1.00  0.00     0.035 C 
ATOM     10  C   UNL A   1      33.667  23.378  23.293  1.00  0.00     0.007 C 
ENDBRANCH   7   9
BRANCH   7  11
ATOM     11  N   UNL A   1      32.540  23.844  26.621  1.00  0.00    -0.342 N 
ATOM     12  C   UNL A   1      33.276  22.888  27.239  1.00  0.00     0.221 C 
ATOM     13  H   UNL A   1      31.726  24.076  27.124  1.00  0.00     0.164 HD
ATOM     14  O   UNL A   1      32.898  22.579  28.377  1.00  0.00    -0.275 OA
BRANCH  12  15
ATOM     15  C   UNL A   1      34.577  22.309  26.721  1.00  0.00     0.111 C 
BRANCH  15  16
ATOM     16  C   UNL A   1      34.590  20.999  25.948  1.00  0.00     0.085 C 
BRANCH  16  17
ATOM     17  S   UNL A   1      33.277  19.751  26.272  1.00  0.00    -0.124 SA
BRANCH  17  18
ATOM     18  C   UNL A   1      32.971  19.055  24.652  1.00  0.00     0.026 A 
ATOM     19  C   UNL A   1      32.365  19.899  23.714  1.00  0.00     0.016 A 
ATOM     20  C   UNL A   1      33.251  17.734  24.268  1.00  0.00     0.054 A 
ATOM     21  C   UNL A   1      32.180  19.498  22.389  1.00  0.00     0.001 A 
ATOM     22  C   UNL A   1      33.032  17.320  22.945  1.00  0.00     0.022 A 
ATOM     23  Cl  UNL A   1      33.887  16.561  25.369  1.00  0.00    -0.083 Cl
ATOM     24  C   UNL A   1      32.526  18.212  21.999  1.00  0.00     0.002 A 
ENDBRANCH  17  18
ENDBRANCH  16  17
ENDBRANCH  15  16
ENDBRANCH  12  15
ENDBRANCH   7  11
ENDBRANCH   4   7
ENDBRANCH   2   3
ENDBRANCH   1   2
BRANCH   1  25
ATOM     25  C   UNL A   1      33.194  28.744  24.246  1.00  0.00     0.002 C 
BRANCH  25  26
ATOM     26  C   UNL A   1      31.998  29.698  24.316  1.00  0.00     0.002 C 
BRANCH  26  27
ATOM     27  C   UNL A   1      31.404  29.863  25.715  1.00  0.00     0.021 C 
BRANCH  27  28
ATOM     28  C   UNL A   1      32.400  30.356  26.757  1.00  0.00     0.116 C 
BRANCH  28  29
ATOM     29  N   UNL A   1      32.451  31.808  26.795  1.00  0.00    -0.352 N 
ATOM     30  C   UNL A   1      33.335  32.608  27.472  1.00  0.00     0.251 C 
ATOM     31  H   UNL A   1      31.762  32.276  26.269  1.00  0.00     0.163 HD
ATOM     32  O   UNL A   1      33.111  33.802  27.621  1.00  0.00    -0.269 OA
BRANCH  30  33
ATOM     33  C   UNL A   1      34.555  31.993  28.029  1.00  0.00     0.039 A 
ATOM     34  C   UNL A   1      35.697  32.778  28.194  1.00  0.00     0.014 A 
ATOM     35  C   UNL A   1      34.546  30.651  28.427  1.00  0.00     0.014 A 
ATOM     36  C   UNL A   1      36.822  32.226  28.804  1.00  0.00     0.010 A 
ATOM     37  C   UNL A   1      35.640  30.129  29.106  1.00  0.00     0.010 A 
ATOM     38  C   UNL A   1      36.791  30.908  29.292  1.00  0.00    -0.014 A 
BRANCH  38  39
ATOM     39  C   UNL A   1      37.950  30.337  30.019  1.00  0.00     0.031 A 
ATOM     40  C   UNL A   1      38.252  30.766  31.427  1.00  0.00     0.074 A 
ATOM     41  C   UNL A   1      38.782  29.493  29.377  1.00  0.00     0.049 A 
ATOM     42  N   UNL A   1      39.236  30.401  32.207  1.00  0.00    -0.248 NA
ATOM     43  C   UNL A   1      37.344  31.756  32.030  1.00  0.00     0.031 C 
ATOM     44  C   UNL A   1      38.647  29.077  27.980  1.00  0.00     0.029 A 
ATOM     45  N   UNL A   1      39.920  28.859  29.805  1.00  0.00    -0.354 N 
ATOM     46  C   UNL A   1      39.084  31.133  33.378  1.00  0.00     0.074 A 
ATOM     47  C   UNL A   1      37.939  31.996  33.188  1.00  0.00     0.031 C 
ATOM     48  C   UNL A   1      39.663  28.259  27.665  1.00  0.00     0.029 A 
ATOM     49  C   UNL A   1      40.538  28.118  28.826  1.00  0.00     0.049 A 
ATOM     50  H   UNL A   1      40.263  28.929  30.726  1.00  0.00     0.167 HD
ATOM     51  C   UNL A   1      39.810  31.070  34.519  1.00  0.00     0.034 A 
ATOM     52  C   UNL A   1      41.686  27.415  28.853  1.00  0.00     0.034 A 
ATOM     53  C   UNL A   1      40.937  30.195  34.706  1.00  0.00     0.049 A 
ATOM     54  C   UNL A   1      42.464  27.335  30.136  1.00  0.00     0.074 A 
ATOM     55  C   UNL A   1      41.686  29.988  35.850  1.00  0.00     0.029 A 
ATOM     56  N   UNL A   1      41.489  29.395  33.716  1.00  0.00    -0.354 N 
ATOM     57  N   UNL A   1      42.206  27.900  31.291  1.00  0.00    -0.248 NA
ATOM     58  C   UNL A   1      43.669  26.495  30.133  1.00  0.00     0.031 C 
ATOM     59  C   UNL A   1      42.715  29.090  35.542  1.00  0.00     0.029 A 
ATOM     60  C   UNL A   1      42.584  28.709  34.215  1.00  0.00     0.049 A 
ATOM     61  H   UNL A   1      41.153  29.325  32.794  1.00  0.00     0.167 HD
ATOM     62  C   UNL A   1      43.203  27.469  32.158  1.00  0.00     0.074 A 
ATOM     63  C   UNL A   1      44.053  26.572  31.400  1.00  0.00     0.031 C 
ATOM     64  C   UNL A   1      43.405  27.797  33.459  1.00  0.00     0.034 A 
BRANCH  51  65
ATOM     65  C   UNL A   1      39.375  31.947  35.666  1.00  0.00     0.023 A 
ATOM     66  C   UNL A   1      38.518  31.424  36.657  1.00  0.00     0.012 A 
ATOM     67  C   UNL A   1      39.830  33.275  35.780  1.00  0.00     0.148 A 
ATOM     68  C   UNL A   1      38.079  32.221  37.714  1.00  0.00     0.002 A 
ATOM     69  C   UNL A   1      39.428  34.048  36.863  1.00  0.00     0.091 A 
ATOM     70  F   UNL A   1      40.627  33.765  34.820  1.00  0.00    -0.205 F 
ATOM     71  C   UNL A   1      38.541  33.529  37.821  1.00  0.00     0.022 A 
BRANCH  69  72
ATOM     72  S   UNL A   1      40.032  35.718  37.136  1.00  0.00     0.127 S 
ATOM     73  O   UNL A   1      39.339  36.084  38.371  1.00  0.00    -0.237 OA
ATOM     74  O   UNL A   1      41.472  35.505  37.286  1.00  0.00    -0.237 OA
ATOM     75  O   UNL A   1      39.653  36.478  35.954  1.00  0.00    -0.744 OA
ENDBRANCH  69  72
ENDBRANCH  51  65
BRANCH  52  76
ATOM     76  C   UNL A   1      42.134  26.699  27.626  1.00  0.00     0.023 A 
ATOM     77  C   UNL A   1      42.882  27.385  26.651  1.00  0.00     0.012 A 
ATOM     78  C   UNL A   1      41.879  25.324  27.457  1.00  0.00     0.148 A 
ATOM     79  C   UNL A   1      43.349  26.719  25.516  1.00  0.00     0.002 A 
ATOM     80  C   UNL A   1      42.397  24.654  26.356  1.00  0.00     0.091 A 
ATOM     81  F   UNL A   1      41.160  24.693  28.396  1.00  0.00    -0.205 F 
ATOM     82  C   UNL A   1      43.118  25.353  25.376  1.00  0.00     0.022 A 
BRANCH  80  83
ATOM     83  S   UNL A   1      42.274  22.871  26.166  1.00  0.00     0.127 S 
ATOM     84  O   UNL A   1      43.039  22.395  27.316  1.00  0.00    -0.237 OA
ATOM     85  O   UNL A   1      40.829  22.660  26.255  1.00  0.00    -0.237 OA
ATOM     86  O   UNL A   1      42.847  22.571  24.861  1.00  0.00    -0.744 OA
ENDBRANCH  80  83
ENDBRANCH  52  76
BRANCH  64  87
ATOM     87  C   UNL A   1      44.589  27.177  34.157  1.00  0.00     0.023 A 
ATOM     88  C   UNL A   1      45.835  27.837  34.143  1.00  0.00     0.012 A 
ATOM     89  C   UNL A   1      44.450  25.978  34.883  1.00  0.00     0.148 A 
ATOM     90  C   UNL A   1      46.930  27.296  34.814  1.00  0.00     0.002 A 
ATOM     91  C   UNL A   1      45.533  25.471  35.591  1.00  0.00     0.091 A 
ATOM     92  F   UNL A   1      43.262  25.357  34.869  1.00  0.00    -0.205 F 
ATOM     93  C   UNL A   1      46.777  26.121  35.547  1.00  0.00     0.022 A 
BRANCH  91  94
ATOM     94  S   UNL A   1      45.408  24.017  36.637  1.00  0.00     0.127 S 
ATOM     95  O   UNL A   1      46.791  23.849  37.079  1.00  0.00    -0.237 OA
ATOM     96  O   UNL A   1      44.484  24.466  37.681  1.00  0.00    -0.237 OA
ATOM     97  O   UNL A   1      44.891  22.952  35.789  1.00  0.00    -0.744 OA
ENDBRANCH  91  94
ENDBRANCH  64  87
ENDBRANCH  38  39
ENDBRANCH  30  33
ENDBRANCH  28  29
ENDBRANCH  27  28
ENDBRANCH  26  27
ENDBRANCH  25  26
ENDBRANCH   1  25
TORSDOF 22
ENDMDL
MODEL 2
REMARK VINA RESULT:      -9.3      5.715      9.575
REMARK SMILES CC[C@](C)(NC(=O)CCSc1ccccc1Cl)C(=O)NCCCCCCNC(=O)c1ccc(-c2c3nc(c(-c4cccc(S(=O)(=O)[O-])c4F)c4ccc([nH]4)c(-c4cccc(S(=O)(=O)[O-])c4F)c4nc(c(-c5cccc(S(=O)(=O)[O-])c5F)c5ccc2[nH]5)C=C4)C=C3)cc1
REMARK SMILES IDX 22 1 21 2 20 3 18 4 19 5 3 7 4 8 2 9 1 10 5 11 6 12 7 14
REMARK SMILES IDX 8 15 9 16 10 17 11 18 12 19 16 20 13 21 15 22 17 23 14 24
REMARK SMILES IDX 23 25 24 26 25 27 26 28 27 29 28 30 29 32 30 33 31 34 92 35
REMARK SMILES IDX 32 36 91 37 33 38 34 39 35 40 85 41 36 42 90 43 84 44 86 45
REMARK SMILES IDX 37 46 89 47 83 48 82 49 38 51 70 52 50 53 69 54 51 55 54 56
REMARK SMILES IDX 68 57 87 58 52 59 53 60 67 62 88 63 55 64 39 65 40 66 48 67
REMARK SMILES IDX 41 68 43 69 49 70 42 71 44 72 45 73 46 74 47 75 71 76 72 77
REMARK SMILES IDX 80 78 73 79 75 80 81 81 74 82 76 83 77 84 78 85 79 86 56 87
REMARK SMILES IDX 57 88 65 89 58 90 60 91 66 92 59 93 61 94 62 95 63 96 64 97
REMARK H PARENT 20 6 5 13 27 31 86 50 54 61
REMARK Flexibility Score: inf
ROOT
ATOM      1  C   UNL A   1      38.476  24.110  27.146  1.00  0.00     0.021 C 
ENDROOT
BRANCH   1   2
ATOM      2  C   UNL A   1      37.636  23.748  25.925  1.00  0.00     0.116 C 
BRANCH   2   3
ATOM      3  N   UNL A   1      37.786  22.348  25.565  1.00  0.00    -0.354 N 
ATOM      4  C   UNL A   1      36.860  21.405  25.234  1.00  0.00     0.245 C 
ATOM      5  O   UNL A   1      37.275  20.267  24.995  1.00  0.00    -0.272 OA
ATOM      6  H   UNL A   1      38.716  22.026  25.560  1.00  0.00     0.163 HD
BRANCH   4   7
ATOM      7  C   UNL A   1      35.364  21.778  25.075  1.00  0.00     0.116 C 
ATOM      8  C   UNL A   1      34.771  22.298  26.387  1.00  0.00     0.045 C 
BRANCH   7   9
ATOM      9  C   UNL A   1      34.554  20.490  24.706  1.00  0.00     0.035 C 
ATOM     10  C   UNL A   1      33.481  20.078  25.711  1.00  0.00     0.007 C 
ENDBRANCH   7   9
BRANCH   7  11
ATOM     11  N   UNL A   1      35.192  22.755  23.975  1.00  0.00    -0.342 N 
ATOM     12  C   UNL A   1      34.130  23.281  23.318  1.00  0.00     0.221 C 
ATOM     13  H   UNL A   1      36.051  23.103  23.644  1.00  0.00     0.164 HD
ATOM     14  O   UNL A   1      34.394  24.202  22.534  1.00  0.00    -0.275 OA
BRANCH  12  15
ATOM     15  C   UNL A   1      32.676  22.946  23.585  1.00  0.00     0.111 C 
BRANCH  15  16
ATOM     16  C   UNL A   1      31.640  24.049  23.732  1.00  0.00     0.085 C 
BRANCH  16  17
ATOM     17  S   UNL A   1      31.983  25.461  24.861  1.00  0.00    -0.124 SA
BRANCH  17  18
ATOM     18  C   UNL A   1      31.367  26.871  23.947  1.00  0.00     0.026 A 
ATOM     19  C   UNL A   1      29.982  26.936  23.759  1.00  0.00     0.016 A 
ATOM     20  C   UNL A   1      32.158  27.880  23.376  1.00  0.00     0.054 A 
ATOM     21  C   UNL A   1      29.381  28.045  23.158  1.00  0.00     0.001 A 
ATOM     22  C   UNL A   1      31.557  28.977  22.740  1.00  0.00     0.022 A 
ATOM     23  Cl  UNL A   1      33.888  27.848  23.433  1.00  0.00    -0.083 Cl
ATOM     24  C   UNL A   1      30.168  29.074  22.659  1.00  0.00     0.002 A 
ENDBRANCH  17  18
ENDBRANCH  16  17
ENDBRANCH  15  16
ENDBRANCH  12  15
ENDBRANCH   7  11
ENDBRANCH   4   7
ENDBRANCH   2   3
ENDBRANCH   1   2
BRANCH   1  25
ATOM     25  C   UNL A   1      39.708  24.958  26.825  1.00  0.00     0.002 C 
BRANCH  25  26
ATOM     26  C   UNL A   1      41.038  24.298  27.200  1.00  0.00     0.002 C 
BRANCH  26  27
ATOM     27  C   UNL A   1      41.308  22.973  26.485  1.00  0.00     0.021 C 
BRANCH  27  28
ATOM     28  C   UNL A   1      42.667  22.365  26.802  1.00  0.00     0.116 C 
BRANCH  28  29
ATOM     29  N   UNL A   1      43.505  22.298  25.617  1.00  0.00    -0.352 N 
ATOM     30  C   UNL A   1      44.147  23.326  24.973  1.00  0.00     0.251 C 
ATOM     31  H   UNL A   1      43.628  21.402  25.227  1.00  0.00     0.163 HD
ATOM     32  O   UNL A   1      44.608  23.169  23.851  1.00  0.00    -0.269 OA
BRANCH  30  33
ATOM     33  C   UNL A   1      44.255  24.627  25.659  1.00  0.00     0.039 A 
ATOM     34  C   UNL A   1      43.716  25.762  25.051  1.00  0.00     0.014 A 
ATOM     35  C   UNL A   1      44.850  24.707  26.923  1.00  0.00     0.014 A 
ATOM     36  C   UNL A   1      43.734  26.976  25.736  1.00  0.00     0.010 A 
ATOM     37  C   UNL A   1      44.793  25.899  27.635  1.00  0.00     0.010 A 
ATOM     38  C   UNL A   1      44.244  27.047  27.045  1.00  0.00    -0.014 A 
BRANCH  38  39
ATOM     39  C   UNL A   1      44.190  28.311  27.817  1.00  0.00     0.031 A 
ATOM     40  C   UNL A   1      42.890  28.797  28.392  1.00  0.00     0.074 A 
ATOM     41  C   UNL A   1      45.302  29.066  27.926  1.00  0.00     0.049 A 
ATOM     42  N   UNL A   1      42.645  29.891  29.065  1.00  0.00    -0.248 NA
ATOM     43  C   UNL A   1      41.704  27.958  28.157  1.00  0.00     0.031 C 
ATOM     44  C   UNL A   1      46.600  28.746  27.329  1.00  0.00     0.029 A 
ATOM     45  N   UNL A   1      45.509  30.269  28.550  1.00  0.00    -0.354 N 
ATOM     46  C   UNL A   1      41.277  29.886  29.310  1.00  0.00     0.074 A 
ATOM     47  C   UNL A   1      40.740  28.703  28.674  1.00  0.00     0.031 C 
ATOM     48  C   UNL A   1      47.468  29.729  27.614  1.00  0.00     0.029 A 
ATOM     49  C   UNL A   1      46.781  30.761  28.385  1.00  0.00     0.049 A 
ATOM     50  H   UNL A   1      44.813  30.736  29.066  1.00  0.00     0.167 HD
ATOM     51  C   UNL A   1      40.540  30.768  30.027  1.00  0.00     0.034 A 
ATOM     52  C   UNL A   1      47.332  31.921  28.794  1.00  0.00     0.034 A 
ATOM     53  C   UNL A   1      41.086  31.932  30.672  1.00  0.00     0.049 A 
ATOM     54  C   UNL A   1      46.507  32.873  29.611  1.00  0.00     0.074 A 
ATOM     55  C   UNL A   1      40.445  32.841  31.495  1.00  0.00     0.029 A 
ATOM     56  N   UNL A   1      42.400  32.360  30.552  1.00  0.00    -0.354 N 
ATOM     57  N   UNL A   1      45.253  32.766  29.982  1.00  0.00    -0.248 NA
ATOM     58  C   UNL A   1      47.176  34.088  30.096  1.00  0.00     0.031 C 
ATOM     59  C   UNL A   1      41.363  33.839  31.842  1.00  0.00     0.029 A 
ATOM     60  C   UNL A   1      42.587  33.532  31.266  1.00  0.00     0.049 A 
ATOM     61  H   UNL A   1      43.098  31.899  30.034  1.00  0.00     0.167 HD
ATOM     62  C   UNL A   1      44.988  33.887  30.760  1.00  0.00     0.074 A 
ATOM     63  C   UNL A   1      46.222  34.645  30.831  1.00  0.00     0.031 C 
ATOM     64  C   UNL A   1      43.826  34.262  31.351  1.00  0.00     0.034 A 
BRANCH  51  65
ATOM     65  C   UNL A   1      39.069  30.476  30.181  1.00  0.00     0.023 A 
ATOM     66  C   UNL A   1      38.646  29.485  31.092  1.00  0.00     0.012 A 
ATOM     67  C   UNL A   1      38.104  31.194  29.448  1.00  0.00     0.148 A 
ATOM     68  C   UNL A   1      37.294  29.178  31.235  1.00  0.00     0.002 A 
ATOM     69  C   UNL A   1      36.754  30.916  29.632  1.00  0.00     0.091 A 
ATOM     70  F   UNL A   1      38.521  32.117  28.571  1.00  0.00    -0.205 F 
ATOM     71  C   UNL A   1      36.348  29.899  30.512  1.00  0.00     0.022 A 
BRANCH  69  72
ATOM     72  S   UNL A   1      35.455  31.844  28.810  1.00  0.00     0.127 S 
ATOM     73  O   UNL A   1      34.628  32.261  29.942  1.00  0.00    -0.237 OA
ATOM     74  O   UNL A   1      36.205  32.927  28.172  1.00  0.00    -0.237 OA
ATOM     75  O   UNL A   1      34.827  30.916  27.881  1.00  0.00    -0.744 OA
ENDBRANCH  69  72
ENDBRANCH  51  65
BRANCH  52  76
ATOM     76  C   UNL A   1      48.757  32.209  28.466  1.00  0.00     0.023 A 
ATOM     77  C   UNL A   1      49.778  31.724  29.304  1.00  0.00     0.012 A 
ATOM     78  C   UNL A   1      49.102  32.904  27.289  1.00  0.00     0.148 A 
ATOM     79  C   UNL A   1      51.120  31.945  28.987  1.00  0.00     0.002 A 
ATOM     80  C   UNL A   1      50.438  33.069  26.950  1.00  0.00     0.091 A 
ATOM     81  F   UNL A   1      48.111  33.361  26.510  1.00  0.00    -0.205 F 
ATOM     82  C   UNL A   1      51.450  32.605  27.806  1.00  0.00     0.022 A 
BRANCH  80  83
ATOM     83  S   UNL A   1      50.955  33.776  25.382  1.00  0.00     0.127 S 
ATOM     84  O   UNL A   1      49.779  34.555  25.004  1.00  0.00    -0.237 OA
ATOM     85  O   UNL A   1      52.119  34.568  25.779  1.00  0.00    -0.237 OA
ATOM     86  O   UNL A   1      51.265  32.644  24.519  1.00  0.00    -0.744 OA
ENDBRANCH  80  83
ENDBRANCH  52  76
BRANCH  64  87
ATOM     87  C   UNL A   1      43.829  35.548  32.138  1.00  0.00     0.023 A 
ATOM     88  C   UNL A   1      44.045  35.516  33.531  1.00  0.00     0.012 A 
ATOM     89  C   UNL A   1      43.688  36.790  31.488  1.00  0.00     0.148 A 
ATOM     90  C   UNL A   1      44.088  36.699  34.268  1.00  0.00     0.002 A 
ATOM     91  C   UNL A   1      43.782  37.966  32.222  1.00  0.00     0.091 A 
ATOM     92  F   UNL A   1      43.466  36.798  30.166  1.00  0.00    -0.205 F 
ATOM     93  C   UNL A   1      43.969  37.923  33.613  1.00  0.00     0.022 A 
BRANCH  91  94
ATOM     94  S   UNL A   1      43.734  39.590  31.455  1.00  0.00     0.127 S 
ATOM     95  O   UNL A   1      43.399  39.256  30.072  1.00  0.00    -0.237 OA
ATOM     96  O   UNL A   1      42.663  40.252  32.201  1.00  0.00    -0.237 OA
ATOM     97  O   UNL A   1      45.056  40.169  31.654  1.00  0.00    -0.744 OA
ENDBRANCH  91  94
ENDBRANCH  64  87
ENDBRANCH  38  39
ENDBRANCH  30  33
ENDBRANCH  28  29
ENDBRANCH  27  28
ENDBRANCH  26  27
ENDBRANCH  25  26
ENDBRANCH   1  25
TORSDOF 22
ENDMDL
MODEL 3
REMARK VINA RESULT:      -9.2      5.690     11.664
REMARK SMILES CC[C@](C)(NC(=O)CCSc1ccccc1Cl)C(=O)NCCCCCCNC(=O)c1ccc(-c2c3nc(c(-c4cccc(S(=O)(=O)[O-])c4F)c4ccc([nH]4)c(-c4cccc(S(=O)(=O)[O-])c4F)c4nc(c(-c5cccc(S(=O)(=O)[O-])c5F)c5ccc2[nH]5)C=C4)C=C3)cc1
REMARK SMILES IDX 22 1 21 2 20 3 18 4 19 5 3 7 4 8 2 9 1 10 5 11 6 12 7 14
REMARK SMILES IDX 8 15 9 16 10 17 11 18 12 19 16 20 13 21 15 22 17 23 14 24
REMARK SMILES IDX 23 25 24 26 25 27 26 28 27 29 28 30 29 32 30 33 31 34 92 35
REMARK SMILES IDX 32 36 91 37 33 38 34 39 35 40 85 41 36 42 90 43 84 44 86 45
REMARK SMILES IDX 37 46 89 47 83 48 82 49 38 51 70 52 50 53 69 54 51 55 54 56
REMARK SMILES IDX 68 57 87 58 52 59 53 60 67 62 88 63 55 64 39 65 40 66 48 67
REMARK SMILES IDX 41 68 43 69 49 70 42 71 44 72 45 73 46 74 47 75 71 76 72 77
REMARK SMILES IDX 80 78 73 79 75 80 81 81 74 82 76 83 77 84 78 85 79 86 56 87
REMARK SMILES IDX 57 88 65 89 58 90 60 91 66 92 59 93 61 94 62 95 63 96 64 97
REMARK H PARENT 20 6 5 13 27 31 86 50 54 61
REMARK Flexibility Score: inf
ROOT
ATOM      1  C   UNL A   1      47.482  27.098  28.374  1.00  0.00     0.021 C 
ENDROOT
BRANCH   1   2
ATOM      2  C   UNL A   1      46.502  28.267  28.344  1.00  0.00     0.116 C 
BRANCH   2   3
ATOM      3  N   UNL A   1      47.098  29.481  28.876  1.00  0.00    -0.354 N 
ATOM      4  C   UNL A   1      46.852  30.793  28.602  1.00  0.00     0.245 C 
ATOM      5  O   UNL A   1      47.538  31.631  29.194  1.00  0.00    -0.272 OA
ATOM      6  H   UNL A   1      47.799  29.329  29.550  1.00  0.00     0.163 HD
BRANCH   4   7
ATOM      7  C   UNL A   1      45.695  31.206  27.657  1.00  0.00     0.116 C 
ATOM      8  C   UNL A   1      45.808  30.520  26.294  1.00  0.00     0.045 C 
BRANCH   7   9
ATOM      9  C   UNL A   1      45.785  32.746  27.384  1.00  0.00     0.035 C 
ATOM     10  C   UNL A   1      44.488  33.409  26.927  1.00  0.00     0.007 C 
ENDBRANCH   7   9
BRANCH   7  11
ATOM     11  N   UNL A   1      44.387  30.934  28.296  1.00  0.00    -0.342 N 
ATOM     12  C   UNL A   1      43.819  31.242  29.487  1.00  0.00     0.221 C 
ATOM     13  H   UNL A   1      43.790  30.404  27.720  1.00  0.00     0.164 HD
ATOM     14  O   UNL A   1      42.621  30.949  29.597  1.00  0.00    -0.275 OA
BRANCH  12  15
ATOM     15  C   UNL A   1      44.478  32.040  30.595  1.00  0.00     0.111 C 
BRANCH  15  16
ATOM     16  C   UNL A   1      43.736  32.326  31.891  1.00  0.00     0.085 C 
BRANCH  16  17
ATOM     17  S   UNL A   1      43.164  34.041  32.241  1.00  0.00    -0.124 SA
BRANCH  17  18
ATOM     18  C   UNL A   1      41.848  34.279  31.054  1.00  0.00     0.026 A 
ATOM     19  C   UNL A   1      40.633  33.641  31.331  1.00  0.00     0.016 A 
ATOM     20  C   UNL A   1      41.950  35.013  29.862  1.00  0.00     0.054 A 
ATOM     21  C   UNL A   1      39.505  33.846  30.533  1.00  0.00     0.001 A 
ATOM     22  C   UNL A   1      40.826  35.191  29.040  1.00  0.00     0.022 A 
ATOM     23  Cl  UNL A   1      43.430  35.747  29.346  1.00  0.00    -0.083 Cl
ATOM     24  C   UNL A   1      39.596  34.633  29.393  1.00  0.00     0.002 A 
ENDBRANCH  17  18
ENDBRANCH  16  17
ENDBRANCH  15  16
ENDBRANCH  12  15
ENDBRANCH   7  11
ENDBRANCH   4   7
ENDBRANCH   2   3
ENDBRANCH   1   2
BRANCH   1  25
ATOM     25  C   UNL A   1      48.014  26.696  26.997  1.00  0.00     0.002 C 
BRANCH  25  26
ATOM     26  C   UNL A   1      47.377  27.458  25.832  1.00  0.00     0.002 C 
BRANCH  26  27
ATOM     27  C   UNL A   1      46.289  26.681  25.090  1.00  0.00     0.021 C 
BRANCH  27  28
ATOM     28  C   UNL A   1      45.989  25.312  25.686  1.00  0.00     0.116 C 
BRANCH  28  29
ATOM     29  N   UNL A   1      45.010  24.592  24.890  1.00  0.00    -0.352 N 
ATOM     30  C   UNL A   1      43.677  24.404  25.151  1.00  0.00     0.251 C 
ATOM     31  H   UNL A   1      45.347  24.187  24.058  1.00  0.00     0.163 HD
ATOM     32  O   UNL A   1      43.030  23.570  24.532  1.00  0.00    -0.269 OA
BRANCH  30  33
ATOM     33  C   UNL A   1      43.046  25.220  26.206  1.00  0.00     0.039 A 
ATOM     34  C   UNL A   1      42.497  24.584  27.320  1.00  0.00     0.014 A 
ATOM     35  C   UNL A   1      43.041  26.616  26.105  1.00  0.00     0.014 A 
ATOM     36  C   UNL A   1      41.982  25.355  28.361  1.00  0.00     0.010 A 
ATOM     37  C   UNL A   1      42.600  27.381  27.178  1.00  0.00     0.010 A 
ATOM     38  C   UNL A   1      42.058  26.758  28.311  1.00  0.00    -0.014 A 
BRANCH  38  39
ATOM     39  C   UNL A   1      41.593  27.588  29.449  1.00  0.00     0.031 A 
ATOM     40  C   UNL A   1      40.282  28.317  29.373  1.00  0.00     0.074 A 
ATOM     41  C   UNL A   1      42.397  27.751  30.519  1.00  0.00     0.049 A 
ATOM     42  N   UNL A   1      39.729  29.112  30.252  1.00  0.00    -0.248 NA
ATOM     43  C   UNL A   1      39.502  28.156  28.135  1.00  0.00     0.031 C 
ATOM     44  C   UNL A   1      43.732  27.170  30.667  1.00  0.00     0.029 A 
ATOM     45  N   UNL A   1      42.219  28.476  31.670  1.00  0.00    -0.354 N 
ATOM     46  C   UNL A   1      38.554  29.565  29.666  1.00  0.00     0.074 A 
ATOM     47  C   UNL A   1      38.497  28.993  28.339  1.00  0.00     0.031 C 
ATOM     48  C   UNL A   1      44.255  27.563  31.839  1.00  0.00     0.029 A 
ATOM     49  C   UNL A   1      43.306  28.447  32.510  1.00  0.00     0.049 A 
ATOM     50  H   UNL A   1      41.392  28.971  31.873  1.00  0.00     0.167 HD
ATOM     51  C   UNL A   1      37.593  30.360  30.196  1.00  0.00     0.034 A 
ATOM     52  C   UNL A   1      43.523  29.072  33.683  1.00  0.00     0.034 A 
ATOM     53  C   UNL A   1      37.649  30.909  31.524  1.00  0.00     0.049 A 
ATOM     54  C   UNL A   1      42.435  29.927  34.267  1.00  0.00     0.074 A 
ATOM     55  C   UNL A   1      36.689  31.652  32.190  1.00  0.00     0.029 A 
ATOM     56  N   UNL A   1      38.731  30.794  32.383  1.00  0.00    -0.354 N 
ATOM     57  N   UNL A   1      41.252  30.205  33.773  1.00  0.00    -0.248 NA
ATOM     58  C   UNL A   1      42.692  30.526  35.584  1.00  0.00     0.031 C 
ATOM     59  C   UNL A   1      37.208  32.016  33.438  1.00  0.00     0.029 A 
ATOM     60  C   UNL A   1      38.476  31.469  33.565  1.00  0.00     0.049 A 
ATOM     61  H   UNL A   1      39.561  30.304  32.182  1.00  0.00     0.167 HD
ATOM     62  C   UNL A   1      40.616  30.993  34.725  1.00  0.00     0.074 A 
ATOM     63  C   UNL A   1      41.536  31.124  35.838  1.00  0.00     0.031 C 
ATOM     64  C   UNL A   1      39.388  31.569  34.676  1.00  0.00     0.034 A 
BRANCH  51  65
ATOM     65  C   UNL A   1      36.381  30.642  29.344  1.00  0.00     0.023 A 
ATOM     66  C   UNL A   1      35.707  29.574  28.715  1.00  0.00     0.012 A 
ATOM     67  C   UNL A   1      35.893  31.953  29.185  1.00  0.00     0.148 A 
ATOM     68  C   UNL A   1      34.599  29.811  27.901  1.00  0.00     0.002 A 
ATOM     69  C   UNL A   1      34.758  32.176  28.413  1.00  0.00     0.091 A 
ATOM     70  F   UNL A   1      36.556  32.960  29.772  1.00  0.00    -0.205 F 
ATOM     71  C   UNL A   1      34.121  31.109  27.757  1.00  0.00     0.022 A 
BRANCH  69  72
ATOM     72  S   UNL A   1      34.015  33.800  28.232  1.00  0.00     0.127 S 
ATOM     73  O   UNL A   1      34.979  34.471  27.359  1.00  0.00    -0.237 OA
ATOM     74  O   UNL A   1      32.735  33.486  27.597  1.00  0.00    -0.237 OA
ATOM     75  O   UNL A   1      33.905  34.342  29.579  1.00  0.00    -0.744 OA
ENDBRANCH  69  72
ENDBRANCH  51  65
BRANCH  52  76
ATOM     76  C   UNL A   1      44.816  28.866  34.393  1.00  0.00     0.023 A 
ATOM     77  C   UNL A   1      45.880  29.762  34.180  1.00  0.00     0.012 A 
ATOM     78  C   UNL A   1      44.969  27.825  35.331  1.00  0.00     0.148 A 
ATOM     79  C   UNL A   1      47.084  29.611  34.871  1.00  0.00     0.002 A 
ATOM     80  C   UNL A   1      46.147  27.717  36.058  1.00  0.00     0.091 A 
ATOM     81  F   UNL A   1      43.943  26.981  35.513  1.00  0.00    -0.205 F 
ATOM     82  C   UNL A   1      47.213  28.598  35.818  1.00  0.00     0.022 A 
BRANCH  80  83
ATOM     83  S   UNL A   1      46.348  26.536  37.398  1.00  0.00     0.127 S 
ATOM     84  O   UNL A   1      45.517  27.127  38.443  1.00  0.00    -0.237 OA
ATOM     85  O   UNL A   1      45.813  25.313  36.801  1.00  0.00    -0.237 OA
ATOM     86  O   UNL A   1      47.777  26.493  37.678  1.00  0.00    -0.744 OA
ENDBRANCH  80  83
ENDBRANCH  52  76
BRANCH  64  87
ATOM     87  C   UNL A   1      38.957  32.389  35.866  1.00  0.00     0.023 A 
ATOM     88  C   UNL A   1      39.214  33.775  35.891  1.00  0.00     0.012 A 
ATOM     89  C   UNL A   1      38.236  31.801  36.923  1.00  0.00     0.148 A 
ATOM     90  C   UNL A   1      38.790  34.554  36.966  1.00  0.00     0.002 A 
ATOM     91  C   UNL A   1      37.773  32.592  37.967  1.00  0.00     0.091 A 
ATOM     92  F   UNL A   1      38.017  30.478  36.889  1.00  0.00    -0.205 F 
ATOM     93  C   UNL A   1      38.060  33.967  37.996  1.00  0.00     0.022 A 
BRANCH  91  94
ATOM     94  S   UNL A   1      36.746  31.944  39.290  1.00  0.00     0.127 S 
ATOM     95  O   UNL A   1      37.117  32.812  40.406  1.00  0.00    -0.237 OA
ATOM     96  O   UNL A   1      35.396  32.165  38.768  1.00  0.00    -0.237 OA
ATOM     97  O   UNL A   1      37.116  30.543  39.438  1.00  0.00    -0.744 OA
ENDBRANCH  91  94
ENDBRANCH  64  87
ENDBRANCH  38  39
ENDBRANCH  30  33
ENDBRANCH  28  29
ENDBRANCH  27  28
ENDBRANCH  26  27
ENDBRANCH  25  26
ENDBRANCH   1  25
TORSDOF 22
ENDMDL
