MODEL 1
REMARK VINA RESULT:     -10.8      0.000      0.000
REMARK SMILES COCCn1nnc(C(=O)NCCCCCCNC(=O)c2ccc(-c3c4nc(c(-c5cccc(S(=O)(=O)[O-])c5F)c5ccc([nH]5)c(-c5cccc(S(=O)(=O)[O-])c5F)c5nc(c(-c6cccc(S(=O)(=O)[O-])c6F)c6ccc3[nH]6)C=C5)C=C4)cc2)c1C(F)(F)F
REMARK SMILES IDX 14 1 13 2 12 3 11 4 9 5 10 6 8 8 5 9 6 10 84 11 7 12 4 13
REMARK SMILES IDX 3 14 2 15 1 16 85 17 86 18 87 19 88 20 15 21 16 22 17 23
REMARK SMILES IDX 18 24 19 25 20 27 21 28 22 29 83 30 23 31 82 32 24 33 25 34
REMARK SMILES IDX 26 35 76 36 27 37 81 38 75 39 77 40 28 41 80 42 74 43 73 44
REMARK SMILES IDX 29 46 61 47 41 48 60 49 42 50 45 51 59 52 78 53 43 54 44 55
REMARK SMILES IDX 58 57 79 58 46 59 30 60 31 61 39 62 32 63 34 64 40 65 33 66
REMARK SMILES IDX 35 67 36 68 37 69 38 70 62 71 63 72 71 73 64 74 66 75 72 76
REMARK SMILES IDX 65 77 67 78 68 79 69 80 70 81 47 82 48 83 56 84 49 85 51 86
REMARK SMILES IDX 57 87 50 88 52 89 53 90 54 91 55 92
REMARK H PARENT 11 7 18 26 77 45 45 56
REMARK Flexibility Score: inf
ROOT
ATOM      1  C   UNL A   1      32.007  29.366  27.205  1.00  0.00     0.002 C 
ENDROOT
BRANCH   1   2
ATOM      2  C   UNL A   1      31.838  28.584  25.898  1.00  0.00     0.021 C 
BRANCH   2   3
ATOM      3  C   UNL A   1      32.552  29.173  24.676  1.00  0.00     0.116 C 
BRANCH   3   4
ATOM      4  N   UNL A   1      31.691  29.201  23.505  1.00  0.00    -0.351 N 
ATOM      5  C   UNL A   1      31.363  28.236  22.582  1.00  0.00     0.274 C 
ATOM      6  O   UNL A   1      30.366  28.452  21.891  1.00  0.00    -0.267 OA
ATOM      7  H   UNL A   1      31.262  30.072  23.343  1.00  0.00     0.163 HD
BRANCH   5   8
ATOM      8  C   UNL A   1      32.116  26.992  22.464  1.00  0.00     0.182 A 
ATOM      9  N   UNL A   1      32.949  24.978  22.564  1.00  0.00    -0.237 N 
ATOM     10  N   UNL A   1      33.849  25.759  21.931  1.00  0.00    -0.066 NA
ATOM     11  C   UNL A   1      31.873  25.725  22.970  1.00  0.00     0.175 A 
ATOM     12  N   UNL A   1      33.357  26.986  21.873  1.00  0.00    -0.124 NA
BRANCH   9  13
ATOM     13  C   UNL A   1      33.306  23.588  22.785  1.00  0.00     0.175 C 
BRANCH  13  14
ATOM     14  C   UNL A   1      34.039  23.245  24.083  1.00  0.00     0.183 C 
BRANCH  14  15
ATOM     15  O   UNL A   1      35.411  23.650  24.089  1.00  0.00    -0.383 OA
ATOM     16  C   UNL A   1      35.915  23.979  25.374  1.00  0.00     0.194 C 
ENDBRANCH  14  15
ENDBRANCH  13  14
ENDBRANCH   9  13
BRANCH  11  17
ATOM     17  C   UNL A   1      30.785  25.201  23.791  1.00  0.00     0.435 C 
ATOM     18  F   UNL A   1      31.229  24.478  24.841  1.00  0.00    -0.164 F 
ATOM     19  F   UNL A   1      30.051  26.226  24.295  1.00  0.00    -0.164 F 
ATOM     20  F   UNL A   1      29.938  24.425  23.084  1.00  0.00    -0.164 F 
ENDBRANCH  11  17
ENDBRANCH   5   8
ENDBRANCH   3   4
ENDBRANCH   2   3
ENDBRANCH   1   2
BRANCH   1  21
ATOM     21  C   UNL A   1      32.625  30.766  27.092  1.00  0.00     0.002 C 
BRANCH  21  22
ATOM     22  C   UNL A   1      34.049  30.942  27.636  1.00  0.00     0.021 C 
BRANCH  22  23
ATOM     23  C   UNL A   1      34.451  32.387  27.901  1.00  0.00     0.116 C 
BRANCH  23  24
ATOM     24  N   UNL A   1      34.423  32.729  29.322  1.00  0.00    -0.352 N 
ATOM     25  C   UNL A   1      35.180  32.204  30.353  1.00  0.00     0.251 C 
ATOM     26  H   UNL A   1      33.779  33.429  29.580  1.00  0.00     0.163 HD
ATOM     27  O   UNL A   1      34.840  32.356  31.513  1.00  0.00    -0.269 OA
BRANCH  25  28
ATOM     28  C   UNL A   1      36.398  31.439  30.021  1.00  0.00     0.039 A 
ATOM     29  C   UNL A   1      37.599  32.102  29.760  1.00  0.00     0.014 A 
ATOM     30  C   UNL A   1      36.339  30.047  30.011  1.00  0.00     0.014 A 
ATOM     31  C   UNL A   1      38.757  31.348  29.587  1.00  0.00     0.010 A 
ATOM     32  C   UNL A   1      37.501  29.312  29.979  1.00  0.00     0.010 A 
ATOM     33  C   UNL A   1      38.712  29.951  29.735  1.00  0.00    -0.014 A 
BRANCH  33  34
ATOM     34  C   UNL A   1      39.955  29.181  29.745  1.00  0.00     0.031 A 
ATOM     35  C   UNL A   1      40.530  28.939  31.097  1.00  0.00     0.074 A 
ATOM     36  C   UNL A   1      40.500  28.590  28.661  1.00  0.00     0.049 A 
ATOM     37  N   UNL A   1      41.579  29.497  31.603  1.00  0.00    -0.248 NA
ATOM     38  C   UNL A   1      39.788  28.096  32.045  1.00  0.00     0.031 C 
ATOM     39  C   UNL A   1      39.941  28.461  27.311  1.00  0.00     0.029 A 
ATOM     40  N   UNL A   1      41.649  27.863  28.581  1.00  0.00    -0.354 N 
ATOM     41  C   UNL A   1      41.766  28.904  32.849  1.00  0.00     0.074 A 
ATOM     42  C   UNL A   1      40.546  28.195  33.140  1.00  0.00     0.031 C 
ATOM     43  C   UNL A   1      40.615  27.504  26.634  1.00  0.00     0.029 A 
ATOM     44  C   UNL A   1      41.759  27.099  27.425  1.00  0.00     0.049 A 
ATOM     45  H   UNL A   1      42.342  27.878  29.279  1.00  0.00     0.167 HD
ATOM     46  C   UNL A   1      42.996  28.861  33.433  1.00  0.00     0.034 A 
ATOM     47  C   UNL A   1      42.715  26.183  27.148  1.00  0.00     0.034 A 
ATOM     48  C   UNL A   1      43.928  29.729  32.757  1.00  0.00     0.049 A 
ATOM     49  C   UNL A   1      43.889  26.515  27.982  1.00  0.00     0.074 A 
ATOM     50  C   UNL A   1      44.002  31.082  32.494  1.00  0.00     0.029 A 
ATOM     51  N   UNL A   1      44.808  29.124  31.894  1.00  0.00    -0.354 N 
ATOM     52  N   UNL A   1      44.598  27.598  27.824  1.00  0.00    -0.248 NA
ATOM     53  C   UNL A   1      44.048  25.844  29.260  1.00  0.00     0.031 C 
ATOM     54  C   UNL A   1      44.565  31.170  31.186  1.00  0.00     0.029 A 
ATOM     55  C   UNL A   1      44.857  29.874  30.751  1.00  0.00     0.049 A 
ATOM     56  H   UNL A   1      45.314  28.297  32.067  1.00  0.00     0.167 HD
ATOM     57  C   UNL A   1      44.910  27.993  29.117  1.00  0.00     0.074 A 
ATOM     58  C   UNL A   1      44.669  26.811  29.940  1.00  0.00     0.031 C 
ATOM     59  C   UNL A   1      45.053  29.316  29.431  1.00  0.00     0.034 A 
BRANCH  46  60
ATOM     60  C   UNL A   1      43.493  27.783  34.369  1.00  0.00     0.023 A 
ATOM     61  C   UNL A   1      44.011  28.200  35.618  1.00  0.00     0.012 A 
ATOM     62  C   UNL A   1      43.744  26.447  33.986  1.00  0.00     0.148 A 
ATOM     63  C   UNL A   1      44.790  27.352  36.412  1.00  0.00     0.002 A 
ATOM     64  C   UNL A   1      44.456  25.585  34.814  1.00  0.00     0.091 A 
ATOM     65  F   UNL A   1      43.418  26.031  32.759  1.00  0.00    -0.205 F 
ATOM     66  C   UNL A   1      45.010  26.041  36.013  1.00  0.00     0.022 A 
BRANCH  64  67
ATOM     67  S   UNL A   1      44.734  23.866  34.370  1.00  0.00     0.127 S 
ATOM     68  O   UNL A   1      45.604  24.001  33.207  1.00  0.00    -0.237 OA
ATOM     69  O   UNL A   1      45.383  23.348  35.576  1.00  0.00    -0.237 OA
ATOM     70  O   UNL A   1      43.411  23.307  34.119  1.00  0.00    -0.744 OA
ENDBRANCH  64  67
ENDBRANCH  46  60
BRANCH  47  71
ATOM     71  C   UNL A   1      42.632  24.926  26.375  1.00  0.00     0.023 A 
ATOM     72  C   UNL A   1      43.667  24.588  25.481  1.00  0.00     0.012 A 
ATOM     73  C   UNL A   1      41.704  23.924  26.737  1.00  0.00     0.148 A 
ATOM     74  C   UNL A   1      43.803  23.281  25.000  1.00  0.00     0.002 A 
ATOM     75  C   UNL A   1      41.844  22.627  26.257  1.00  0.00     0.091 A 
ATOM     76  F   UNL A   1      40.745  24.225  27.623  1.00  0.00    -0.205 F 
ATOM     77  C   UNL A   1      42.901  22.298  25.399  1.00  0.00     0.022 A 
BRANCH  75  78
ATOM     78  S   UNL A   1      40.747  21.293  26.762  1.00  0.00     0.127 S 
ATOM     79  O   UNL A   1      39.462  21.739  26.222  1.00  0.00    -0.237 OA
ATOM     80  O   UNL A   1      41.334  20.144  26.077  1.00  0.00    -0.237 OA
ATOM     81  O   UNL A   1      40.807  21.255  28.217  1.00  0.00    -0.744 OA
ENDBRANCH  75  78
ENDBRANCH  47  71
BRANCH  59  82
ATOM     82  C   UNL A   1      45.165  30.304  28.295  1.00  0.00     0.023 A 
ATOM     83  C   UNL A   1      44.041  30.780  27.586  1.00  0.00     0.012 A 
ATOM     84  C   UNL A   1      46.420  30.886  28.043  1.00  0.00     0.148 A 
ATOM     85  C   UNL A   1      44.173  31.789  26.628  1.00  0.00     0.002 A 
ATOM     86  C   UNL A   1      46.539  31.922  27.125  1.00  0.00     0.091 A 
ATOM     87  F   UNL A   1      47.479  30.427  28.727  1.00  0.00    -0.205 F 
ATOM     88  C   UNL A   1      45.419  32.370  26.406  1.00  0.00     0.022 A 
BRANCH  86  89
ATOM     89  S   UNL A   1      48.090  32.791  26.890  1.00  0.00     0.127 S 
ATOM     90  O   UNL A   1      47.721  33.815  25.915  1.00  0.00    -0.237 OA
ATOM     91  O   UNL A   1      48.374  33.299  28.233  1.00  0.00    -0.237 OA
ATOM     92  O   UNL A   1      49.042  31.790  26.422  1.00  0.00    -0.744 OA
ENDBRANCH  86  89
ENDBRANCH  59  82
ENDBRANCH  33  34
ENDBRANCH  25  28
ENDBRANCH  23  24
ENDBRANCH  22  23
ENDBRANCH  21  22
ENDBRANCH   1  21
TORSDOF 20
ENDMDL
MODEL 2
REMARK VINA RESULT:     -10.7      3.154      8.079
REMARK SMILES COCCn1nnc(C(=O)NCCCCCCNC(=O)c2ccc(-c3c4nc(c(-c5cccc(S(=O)(=O)[O-])c5F)c5ccc([nH]5)c(-c5cccc(S(=O)(=O)[O-])c5F)c5nc(c(-c6cccc(S(=O)(=O)[O-])c6F)c6ccc3[nH]6)C=C5)C=C4)cc2)c1C(F)(F)F
REMARK SMILES IDX 14 1 13 2 12 3 11 4 9 5 10 6 8 8 5 9 6 10 84 11 7 12 4 13
REMARK SMILES IDX 3 14 2 15 1 16 85 17 86 18 87 19 88 20 15 21 16 22 17 23
REMARK SMILES IDX 18 24 19 25 20 27 21 28 22 29 83 30 23 31 82 32 24 33 25 34
REMARK SMILES IDX 26 35 76 36 27 37 81 38 75 39 77 40 28 41 80 42 74 43 73 44
REMARK SMILES IDX 29 46 61 47 41 48 60 49 42 50 45 51 59 52 78 53 43 54 44 55
REMARK SMILES IDX 58 57 79 58 46 59 30 60 31 61 39 62 32 63 34 64 40 65 33 66
REMARK SMILES IDX 35 67 36 68 37 69 38 70 62 71 63 72 71 73 64 74 66 75 72 76
REMARK SMILES IDX 65 77 67 78 68 79 69 80 70 81 47 82 48 83 56 84 49 85 51 86
REMARK SMILES IDX 57 87 50 88 52 89 53 90 54 91 55 92
REMARK H PARENT 11 7 18 26 77 45 45 56
REMARK Flexibility Score: inf
ROOT
ATOM      1  C   UNL A   1      35.702  20.183  24.979  1.00  0.00     0.002 C 
ENDROOT
BRANCH   1   2
ATOM      2  C   UNL A   1      34.532  21.139  24.721  1.00  0.00     0.021 C 
BRANCH   2   3
ATOM      3  C   UNL A   1      33.166  20.474  24.515  1.00  0.00     0.116 C 
BRANCH   3   4
ATOM      4  N   UNL A   1      32.174  20.970  25.455  1.00  0.00    -0.351 N 
ATOM      5  C   UNL A   1      31.422  22.120  25.476  1.00  0.00     0.274 C 
ATOM      6  O   UNL A   1      30.438  22.121  26.218  1.00  0.00    -0.267 OA
ATOM      7  H   UNL A   1      32.011  20.371  26.219  1.00  0.00     0.163 HD
BRANCH   5   8
ATOM      8  C   UNL A   1      31.730  23.260  24.619  1.00  0.00     0.182 A 
ATOM      9  N   UNL A   1      32.443  25.089  23.666  1.00  0.00    -0.237 N 
ATOM     10  N   UNL A   1      31.419  24.616  22.926  1.00  0.00    -0.066 NA
ATOM     11  C   UNL A   1      32.632  24.301  24.773  1.00  0.00     0.175 A 
ATOM     12  N   UNL A   1      30.973  23.511  23.500  1.00  0.00    -0.124 NA
BRANCH   9  13
ATOM     13  C   UNL A   1      33.059  26.334  23.243  1.00  0.00     0.175 C 
BRANCH  13  14
ATOM     14  C   UNL A   1      32.340  27.635  23.605  1.00  0.00     0.183 C 
BRANCH  14  15
ATOM     15  O   UNL A   1      31.618  28.213  22.514  1.00  0.00    -0.383 OA
ATOM     16  C   UNL A   1      30.414  28.862  22.892  1.00  0.00     0.194 C 
ENDBRANCH  14  15
ENDBRANCH  13  14
ENDBRANCH   9  13
BRANCH  11  17
ATOM     17  C   UNL A   1      33.580  24.613  25.838  1.00  0.00     0.435 C 
ATOM     18  F   UNL A   1      34.854  24.682  25.396  1.00  0.00    -0.164 F 
ATOM     19  F   UNL A   1      33.282  25.819  26.385  1.00  0.00    -0.164 F 
ATOM     20  F   UNL A   1      33.540  23.710  26.840  1.00  0.00    -0.164 F 
ENDBRANCH  11  17
ENDBRANCH   5   8
ENDBRANCH   3   4
ENDBRANCH   2   3
ENDBRANCH   1   2
BRANCH   1  21
ATOM     21  C   UNL A   1      37.083  20.824  25.168  1.00  0.00     0.002 C 
BRANCH  21  22
ATOM     22  C   UNL A   1      38.304  19.925  24.932  1.00  0.00     0.021 C 
BRANCH  22  23
ATOM     23  C   UNL A   1      39.329  19.940  26.059  1.00  0.00     0.116 C 
BRANCH  23  24
ATOM     24  N   UNL A   1      40.548  19.206  25.725  1.00  0.00    -0.352 N 
ATOM     25  C   UNL A   1      41.854  19.659  25.716  1.00  0.00     0.251 C 
ATOM     26  H   UNL A   1      40.422  18.262  25.473  1.00  0.00     0.163 HD
ATOM     27  O   UNL A   1      42.722  19.038  25.126  1.00  0.00    -0.269 OA
BRANCH  25  28
ATOM     28  C   UNL A   1      42.175  20.916  26.418  1.00  0.00     0.039 A 
ATOM     29  C   UNL A   1      42.330  22.105  25.703  1.00  0.00     0.014 A 
ATOM     30  C   UNL A   1      42.280  20.905  27.808  1.00  0.00     0.014 A 
ATOM     31  C   UNL A   1      42.493  23.295  26.407  1.00  0.00     0.010 A 
ATOM     32  C   UNL A   1      42.302  22.092  28.503  1.00  0.00     0.010 A 
ATOM     33  C   UNL A   1      42.441  23.291  27.812  1.00  0.00    -0.014 A 
BRANCH  33  34
ATOM     34  C   UNL A   1      42.419  24.557  28.542  1.00  0.00     0.031 A 
ATOM     35  C   UNL A   1      41.209  25.393  28.309  1.00  0.00     0.074 A 
ATOM     36  C   UNL A   1      43.324  24.922  29.474  1.00  0.00     0.049 A 
ATOM     37  N   UNL A   1      41.142  26.483  27.620  1.00  0.00    -0.248 NA
ATOM     38  C   UNL A   1      39.904  24.897  28.768  1.00  0.00     0.031 C 
ATOM     39  C   UNL A   1      44.411  24.125  30.056  1.00  0.00     0.029 A 
ATOM     40  N   UNL A   1      43.381  26.076  30.195  1.00  0.00    -0.354 N 
ATOM     41  C   UNL A   1      39.832  26.939  27.750  1.00  0.00     0.074 A 
ATOM     42  C   UNL A   1      39.082  25.842  28.305  1.00  0.00     0.031 C 
ATOM     43  C   UNL A   1      44.843  24.714  31.192  1.00  0.00     0.029 A 
ATOM     44  C   UNL A   1      44.207  26.010  31.311  1.00  0.00     0.049 A 
ATOM     45  H   UNL A   1      42.882  26.887  29.946  1.00  0.00     0.167 HD
ATOM     46  C   UNL A   1      39.527  28.258  27.600  1.00  0.00     0.034 A 
ATOM     47  C   UNL A   1      44.342  26.950  32.274  1.00  0.00     0.034 A 
ATOM     48  C   UNL A   1      40.628  28.990  27.025  1.00  0.00     0.049 A 
ATOM     49  C   UNL A   1      43.922  28.239  31.685  1.00  0.00     0.074 A 
ATOM     50  C   UNL A   1      41.343  28.930  25.847  1.00  0.00     0.029 A 
ATOM     51  N   UNL A   1      41.392  29.725  27.898  1.00  0.00    -0.354 N 
ATOM     52  N   UNL A   1      44.575  28.838  30.729  1.00  0.00    -0.248 NA
ATOM     53  C   UNL A   1      42.552  28.679  31.878  1.00  0.00     0.031 C 
ATOM     54  C   UNL A   1      42.687  29.228  26.219  1.00  0.00     0.029 A 
ATOM     55  C   UNL A   1      42.708  29.510  27.587  1.00  0.00     0.049 A 
ATOM     56  H   UNL A   1      41.054  30.304  28.619  1.00  0.00     0.167 HD
ATOM     57  C   UNL A   1      43.583  29.365  29.916  1.00  0.00     0.074 A 
ATOM     58  C   UNL A   1      42.378  29.358  30.741  1.00  0.00     0.031 C 
ATOM     59  C   UNL A   1      43.771  29.484  28.567  1.00  0.00     0.034 A 
BRANCH  46  60
ATOM     60  C   UNL A   1      38.400  28.988  28.295  1.00  0.00     0.023 A 
ATOM     61  C   UNL A   1      37.566  29.804  27.492  1.00  0.00     0.012 A 
ATOM     62  C   UNL A   1      38.295  29.149  29.694  1.00  0.00     0.148 A 
ATOM     63  C   UNL A   1      36.721  30.768  28.051  1.00  0.00     0.002 A 
ATOM     64  C   UNL A   1      37.398  30.057  30.247  1.00  0.00     0.091 A 
ATOM     65  F   UNL A   1      39.155  28.525  30.503  1.00  0.00    -0.205 F 
ATOM     66  C   UNL A   1      36.633  30.893  29.430  1.00  0.00     0.022 A 
BRANCH  64  67
ATOM     67  S   UNL A   1      37.209  30.231  32.026  1.00  0.00     0.127 S 
ATOM     68  O   UNL A   1      36.973  28.849  32.431  1.00  0.00    -0.237 OA
ATOM     69  O   UNL A   1      38.511  30.778  32.411  1.00  0.00    -0.237 OA
ATOM     70  O   UNL A   1      36.096  31.152  32.213  1.00  0.00    -0.744 OA
ENDBRANCH  64  67
ENDBRANCH  46  60
BRANCH  47  71
ATOM     71  C   UNL A   1      44.611  26.797  33.719  1.00  0.00     0.023 A 
ATOM     72  C   UNL A   1      45.820  27.279  34.258  1.00  0.00     0.012 A 
ATOM     73  C   UNL A   1      43.566  26.464  34.610  1.00  0.00     0.148 A 
ATOM     74  C   UNL A   1      45.969  27.469  35.636  1.00  0.00     0.002 A 
ATOM     75  C   UNL A   1      43.718  26.656  35.979  1.00  0.00     0.091 A 
ATOM     76  F   UNL A   1      42.396  26.050  34.103  1.00  0.00    -0.205 F 
ATOM     77  C   UNL A   1      44.913  27.171  36.495  1.00  0.00     0.022 A 
BRANCH  75  78
ATOM     78  S   UNL A   1      42.386  26.337  37.146  1.00  0.00     0.127 S 
ATOM     79  O   UNL A   1      43.067  26.492  38.431  1.00  0.00    -0.237 OA
ATOM     80  O   UNL A   1      41.439  27.400  36.821  1.00  0.00    -0.237 OA
ATOM     81  O   UNL A   1      41.928  24.982  36.868  1.00  0.00    -0.744 OA
ENDBRANCH  75  78
ENDBRANCH  47  71
BRANCH  59  82
ATOM     82  C   UNL A   1      45.173  29.319  28.031  1.00  0.00     0.023 A 
ATOM     83  C   UNL A   1      46.114  30.370  28.027  1.00  0.00     0.012 A 
ATOM     84  C   UNL A   1      45.597  28.029  27.669  1.00  0.00     0.148 A 
ATOM     85  C   UNL A   1      47.439  30.144  27.641  1.00  0.00     0.002 A 
ATOM     86  C   UNL A   1      46.925  27.798  27.333  1.00  0.00     0.091 A 
ATOM     87  F   UNL A   1      44.692  27.039  27.681  1.00  0.00    -0.205 F 
ATOM     88  C   UNL A   1      47.848  28.856  27.307  1.00  0.00     0.022 A 
BRANCH  86  89
ATOM     89  S   UNL A   1      47.537  26.142  27.016  1.00  0.00     0.127 S 
ATOM     90  O   UNL A   1      47.274  25.471  28.286  1.00  0.00    -0.237 OA
ATOM     91  O   UNL A   1      46.694  25.702  25.903  1.00  0.00    -0.237 OA
ATOM     92  O   UNL A   1      48.944  26.297  26.666  1.00  0.00    -0.744 OA
ENDBRANCH  86  89
ENDBRANCH  59  82
ENDBRANCH  33  34
ENDBRANCH  25  28
ENDBRANCH  23  24
ENDBRANCH  22  23
ENDBRANCH  21  22
ENDBRANCH   1  21
TORSDOF 20
ENDMDL
MODEL 3
REMARK VINA RESULT:     -10.6      3.453      8.135
REMARK SMILES COCCn1nnc(C(=O)NCCCCCCNC(=O)c2ccc(-c3c4nc(c(-c5cccc(S(=O)(=O)[O-])c5F)c5ccc([nH]5)c(-c5cccc(S(=O)(=O)[O-])c5F)c5nc(c(-c6cccc(S(=O)(=O)[O-])c6F)c6ccc3[nH]6)C=C5)C=C4)cc2)c1C(F)(F)F
REMARK SMILES IDX 14 1 13 2 12 3 11 4 9 5 10 6 8 8 5 9 6 10 84 11 7 12 4 13
REMARK SMILES IDX 3 14 2 15 1 16 85 17 86 18 87 19 88 20 15 21 16 22 17 23
REMARK SMILES IDX 18 24 19 25 20 27 21 28 22 29 83 30 23 31 82 32 24 33 25 34
REMARK SMILES IDX 26 35 76 36 27 37 81 38 75 39 77 40 28 41 80 42 74 43 73 44
REMARK SMILES IDX 29 46 61 47 41 48 60 49 42 50 45 51 59 52 78 53 43 54 44 55
REMARK SMILES IDX 58 57 79 58 46 59 30 60 31 61 39 62 32 63 34 64 40 65 33 66
REMARK SMILES IDX 35 67 36 68 37 69 38 70 62 71 63 72 71 73 64 74 66 75 72 76
REMARK SMILES IDX 65 77 67 78 68 79 69 80 70 81 47 82 48 83 56 84 49 85 51 86
REMARK SMILES IDX 57 87 50 88 52 89 53 90 54 91 55 92
REMARK H PARENT 11 7 18 26 77 45 45 56
REMARK Flexibility Score: inf
ROOT
ATOM      1  C   UNL A   1      36.523  21.696  24.497  1.00  0.00     0.002 C 
ENDROOT
BRANCH   1   2
ATOM      2  C   UNL A   1      36.062  23.130  24.216  1.00  0.00     0.021 C 
BRANCH   2   3
ATOM      3  C   UNL A   1      35.197  23.315  22.963  1.00  0.00     0.116 C 
BRANCH   3   4
ATOM      4  N   UNL A   1      33.907  23.906  23.276  1.00  0.00    -0.351 N 
ATOM      5  C   UNL A   1      32.839  23.447  24.009  1.00  0.00     0.274 C 
ATOM      6  O   UNL A   1      32.015  24.291  24.370  1.00  0.00    -0.267 OA
ATOM      7  H   UNL A   1      33.772  24.803  22.891  1.00  0.00     0.163 HD
BRANCH   5   8
ATOM      8  C   UNL A   1      32.713  22.046  24.397  1.00  0.00     0.182 A 
ATOM      9  N   UNL A   1      32.732  20.076  25.335  1.00  0.00    -0.237 N 
ATOM     10  N   UNL A   1      32.342  19.914  24.054  1.00  0.00    -0.066 NA
ATOM     11  C   UNL A   1      33.035  21.392  25.576  1.00  0.00     0.175 A 
ATOM     12  N   UNL A   1      32.335  21.102  23.473  1.00  0.00    -0.124 NA
BRANCH   9  13
ATOM     13  C   UNL A   1      32.858  18.884  26.154  1.00  0.00     0.175 C 
BRANCH  13  14
ATOM     14  C   UNL A   1      32.551  17.538  25.494  1.00  0.00     0.183 C 
BRANCH  14  15
ATOM     15  O   UNL A   1      33.634  16.606  25.565  1.00  0.00    -0.383 OA
ATOM     16  C   UNL A   1      34.644  16.814  24.590  1.00  0.00     0.194 C 
ENDBRANCH  14  15
ENDBRANCH  13  14
ENDBRANCH   9  13
BRANCH  11  17
ATOM     17  C   UNL A   1      33.606  21.876  26.829  1.00  0.00     0.435 C 
ATOM     18  F   UNL A   1      34.755  21.246  27.154  1.00  0.00    -0.164 F 
ATOM     19  F   UNL A   1      33.892  23.199  26.727  1.00  0.00    -0.164 F 
ATOM     20  F   UNL A   1      32.753  21.741  27.867  1.00  0.00    -0.164 F 
ENDBRANCH  11  17
ENDBRANCH   5   8
ENDBRANCH   3   4
ENDBRANCH   2   3
ENDBRANCH   1   2
BRANCH   1  21
ATOM     21  C   UNL A   1      37.945  21.528  25.048  1.00  0.00     0.002 C 
BRANCH  21  22
ATOM     22  C   UNL A   1      38.520  20.106  25.061  1.00  0.00     0.021 C 
BRANCH  22  23
ATOM     23  C   UNL A   1      39.481  19.822  26.209  1.00  0.00     0.116 C 
BRANCH  23  24
ATOM     24  N   UNL A   1      40.711  19.167  25.768  1.00  0.00    -0.352 N 
ATOM     25  C   UNL A   1      41.987  19.692  25.682  1.00  0.00     0.251 C 
ATOM     26  H   UNL A   1      40.618  18.225  25.495  1.00  0.00     0.163 HD
ATOM     27  O   UNL A   1      42.843  19.138  25.014  1.00  0.00    -0.269 OA
BRANCH  25  28
ATOM     28  C   UNL A   1      42.289  20.946  26.400  1.00  0.00     0.039 A 
ATOM     29  C   UNL A   1      42.465  22.139  25.695  1.00  0.00     0.014 A 
ATOM     30  C   UNL A   1      42.354  20.927  27.792  1.00  0.00     0.014 A 
ATOM     31  C   UNL A   1      42.608  23.325  26.410  1.00  0.00     0.010 A 
ATOM     32  C   UNL A   1      42.357  22.111  28.493  1.00  0.00     0.010 A 
ATOM     33  C   UNL A   1      42.516  23.313  27.813  1.00  0.00    -0.014 A 
BRANCH  33  34
ATOM     34  C   UNL A   1      42.475  24.576  28.549  1.00  0.00     0.031 A 
ATOM     35  C   UNL A   1      41.257  25.399  28.311  1.00  0.00     0.074 A 
ATOM     36  C   UNL A   1      43.369  24.945  29.490  1.00  0.00     0.049 A 
ATOM     37  N   UNL A   1      41.183  26.491  27.627  1.00  0.00    -0.248 NA
ATOM     38  C   UNL A   1      39.954  24.886  28.757  1.00  0.00     0.031 C 
ATOM     39  C   UNL A   1      44.460  24.158  30.076  1.00  0.00     0.029 A 
ATOM     40  N   UNL A   1      43.407  26.097  30.217  1.00  0.00    -0.354 N 
ATOM     41  C   UNL A   1      39.868  26.932  27.748  1.00  0.00     0.074 A 
ATOM     42  C   UNL A   1      39.126  25.825  28.292  1.00  0.00     0.031 C 
ATOM     43  C   UNL A   1      44.877  24.746  31.219  1.00  0.00     0.029 A 
ATOM     44  C   UNL A   1      44.225  26.035  31.339  1.00  0.00     0.049 A 
ATOM     45  H   UNL A   1      42.901  26.903  29.968  1.00  0.00     0.167 HD
ATOM     46  C   UNL A   1      39.549  28.248  27.602  1.00  0.00     0.034 A 
ATOM     47  C   UNL A   1      44.342  26.972  32.308  1.00  0.00     0.034 A 
ATOM     48  C   UNL A   1      40.647  28.995  27.040  1.00  0.00     0.049 A 
ATOM     49  C   UNL A   1      43.912  28.258  31.722  1.00  0.00     0.074 A 
ATOM     50  C   UNL A   1      41.371  28.949  25.866  1.00  0.00     0.029 A 
ATOM     51  N   UNL A   1      41.395  29.735  27.922  1.00  0.00    -0.354 N 
ATOM     52  N   UNL A   1      44.566  28.869  30.774  1.00  0.00    -0.248 NA
ATOM     53  C   UNL A   1      42.536  28.682  31.905  1.00  0.00     0.031 C 
ATOM     54  C   UNL A   1      42.709  29.260  26.250  1.00  0.00     0.029 A 
ATOM     55  C   UNL A   1      42.716  29.536  27.620  1.00  0.00     0.049 A 
ATOM     56  H   UNL A   1      41.046  30.306  28.643  1.00  0.00     0.167 HD
ATOM     57  C   UNL A   1      43.575  29.390  29.955  1.00  0.00     0.074 A 
ATOM     58  C   UNL A   1      42.363  29.364  30.770  1.00  0.00     0.031 C 
ATOM     59  C   UNL A   1      43.772  29.517  28.608  1.00  0.00     0.034 A 
BRANCH  46  60
ATOM     60  C   UNL A   1      38.409  28.963  28.291  1.00  0.00     0.023 A 
ATOM     61  C   UNL A   1      37.540  29.729  27.478  1.00  0.00     0.012 A 
ATOM     62  C   UNL A   1      38.316  29.159  29.687  1.00  0.00     0.148 A 
ATOM     63  C   UNL A   1      36.672  30.682  28.021  1.00  0.00     0.002 A 
ATOM     64  C   UNL A   1      37.398  30.054  30.227  1.00  0.00     0.091 A 
ATOM     65  F   UNL A   1      39.206  28.585  30.502  1.00  0.00    -0.205 F 
ATOM     66  C   UNL A   1      36.597  30.843  29.398  1.00  0.00     0.022 A 
BRANCH  64  67
ATOM     67  S   UNL A   1      37.226  30.272  32.002  1.00  0.00     0.127 S 
ATOM     68  O   UNL A   1      36.066  31.153  32.078  1.00  0.00    -0.237 OA
ATOM     69  O   UNL A   1      36.994  28.897  32.449  1.00  0.00    -0.237 OA
ATOM     70  O   UNL A   1      38.491  30.838  32.452  1.00  0.00    -0.744 OA
ENDBRANCH  64  67
ENDBRANCH  46  60
BRANCH  47  71
ATOM     71  C   UNL A   1      44.601  26.815  33.754  1.00  0.00     0.023 A 
ATOM     72  C   UNL A   1      45.803  27.303  34.303  1.00  0.00     0.012 A 
ATOM     73  C   UNL A   1      43.552  26.470  34.635  1.00  0.00     0.148 A 
ATOM     74  C   UNL A   1      45.940  27.488  35.683  1.00  0.00     0.002 A 
ATOM     75  C   UNL A   1      43.693  26.657  36.006  1.00  0.00     0.091 A 
ATOM     76  F   UNL A   1      42.390  26.050  34.118  1.00  0.00    -0.205 F 
ATOM     77  C   UNL A   1      44.881  27.179  36.533  1.00  0.00     0.022 A 
BRANCH  75  78
ATOM     78  S   UNL A   1      42.355  26.323  37.162  1.00  0.00     0.127 S 
ATOM     79  O   UNL A   1      43.032  26.448  38.452  1.00  0.00    -0.237 OA
ATOM     80  O   UNL A   1      41.415  27.400  36.855  1.00  0.00    -0.237 OA
ATOM     81  O   UNL A   1      41.889  24.977  36.855  1.00  0.00    -0.744 OA
ENDBRANCH  75  78
ENDBRANCH  47  71
BRANCH  59  82
ATOM     82  C   UNL A   1      45.179  29.370  28.082  1.00  0.00     0.023 A 
ATOM     83  C   UNL A   1      46.117  30.424  28.115  1.00  0.00     0.012 A 
ATOM     84  C   UNL A   1      45.612  28.091  27.691  1.00  0.00     0.148 A 
ATOM     85  C   UNL A   1      47.447  30.212  27.737  1.00  0.00     0.002 A 
ATOM     86  C   UNL A   1      46.944  27.873  27.363  1.00  0.00     0.091 A 
ATOM     87  F   UNL A   1      44.710  27.098  27.669  1.00  0.00    -0.205 F 
ATOM     88  C   UNL A   1      47.863  28.934  27.373  1.00  0.00     0.022 A 
BRANCH  86  89
ATOM     89  S   UNL A   1      47.564  26.228  27.010  1.00  0.00     0.127 S 
ATOM     90  O   UNL A   1      47.201  25.498  28.222  1.00  0.00    -0.237 OA
ATOM     91  O   UNL A   1      46.803  25.853  25.817  1.00  0.00    -0.237 OA
ATOM     92  O   UNL A   1      48.995  26.383  26.774  1.00  0.00    -0.744 OA
ENDBRANCH  86  89
ENDBRANCH  59  82
ENDBRANCH  33  34
ENDBRANCH  25  28
ENDBRANCH  23  24
ENDBRANCH  22  23
ENDBRANCH  21  22
ENDBRANCH   1  21
TORSDOF 20
ENDMDL
