MODEL 1
REMARK VINA RESULT:     -12.1      0.000      0.000
REMARK SMILES C[C@H]1CCc2sc3ncn4nc(/C=C\C(=O)NCCCCCCNC(=O)c5ccc(-c6c7nc(c(-c8cccc(S(=O)(=O)[O-])c8F)c8ccc([nH]8)c(-c8cccc(S(=O)(=O)[O-])c8F)c8nc(c(-c9cccc(S(=O)(=O)[O-])c9F)c9ccc6[nH]9)C=C8)C=C7)cc5)nc4c3c2C1
REMARK SMILES IDX 21 1 20 2 19 3 18 4 17 5 15 6 16 7 14 9 13 10 12 11 1 12
REMARK SMILES IDX 2 13 3 14 94 15 4 16 93 17 5 18 92 19 6 20 7 21 91 22 8 23
REMARK SMILES IDX 10 24 90 25 9 26 11 27 22 28 23 29 24 30 25 31 26 33 27 34
REMARK SMILES IDX 28 35 89 36 29 37 88 38 30 39 31 40 32 41 82 42 33 43 87 44
REMARK SMILES IDX 81 45 83 46 34 47 86 48 80 49 79 50 35 52 67 53 47 54 66 55
REMARK SMILES IDX 48 56 51 57 65 58 84 59 49 60 50 61 64 63 85 64 52 65 36 66
REMARK SMILES IDX 37 67 45 68 38 69 40 70 46 71 39 72 41 73 42 74 43 75 44 76
REMARK SMILES IDX 68 77 69 78 77 79 70 80 72 81 78 82 71 83 73 84 74 85 75 86
REMARK SMILES IDX 76 87 53 88 54 89 62 90 55 91 57 92 63 93 56 94 58 95 59 96
REMARK SMILES IDX 60 97 61 98
REMARK H PARENT 17 8 24 32 83 51 51 62
REMARK Flexibility Score: inf
ROOT
ATOM      1  C   UNL A   1      35.107  32.617  28.044  1.00  0.00     0.002 C 
ENDROOT
BRANCH   1   2
ATOM      2  C   UNL A   1      34.974  31.173  28.536  1.00  0.00     0.002 C 
BRANCH   2   3
ATOM      3  C   UNL A   1      35.652  30.067  27.717  1.00  0.00     0.021 C 
BRANCH   3   4
ATOM      4  C   UNL A   1      34.759  29.223  26.820  1.00  0.00     0.116 C 
BRANCH   4   5
ATOM      5  N   UNL A   1      33.725  29.916  26.079  1.00  0.00    -0.353 N 
ATOM      6  C   UNL A   1      32.408  30.061  26.423  1.00  0.00     0.244 C 
ATOM      7  O   UNL A   1      31.664  30.783  25.760  1.00  0.00    -0.270 OA
ATOM      8  H   UNL A   1      34.001  30.331  25.230  1.00  0.00     0.163 HD
BRANCH   6   9
ATOM      9  C   UNL A   1      31.818  29.222  27.495  1.00  0.00     0.075 C 
ATOM     10  C   UNL A   1      31.387  27.950  27.446  1.00  0.00     0.057 C 
BRANCH  10  11
ATOM     11  C   UNL A   1      31.365  27.056  26.337  1.00  0.00     0.175 A 
ATOM     12  C   UNL A   1      35.908  21.624  26.025  1.00  0.00     0.008 C 
ATOM     13  C   UNL A   1      36.158  23.111  25.774  1.00  0.00    -0.009 C 
ATOM     14  C   UNL A   1      36.875  23.311  24.423  1.00  0.00     0.009 C 
ATOM     15  C   UNL A   1      34.836  23.917  25.863  1.00  0.00     0.041 C 
ATOM     16  C   UNL A   1      36.006  22.907  23.220  1.00  0.00     0.047 C 
ATOM     17  C   UNL A   1      34.059  23.890  24.576  1.00  0.00    -0.020 A 
ATOM     18  C   UNL A   1      34.599  23.401  23.395  1.00  0.00     0.011 A 
ATOM     19  C   UNL A   1      32.835  24.555  24.286  1.00  0.00     0.060 A 
ATOM     20  S   UNL A   1      33.501  23.465  22.084  1.00  0.00    -0.120 S 
ATOM     21  C   UNL A   1      32.443  24.493  22.954  1.00  0.00     0.129 A 
ATOM     22  C   UNL A   1      32.055  25.524  25.083  1.00  0.00     0.168 A 
ATOM     23  N   UNL A   1      31.482  25.250  22.318  1.00  0.00    -0.225 NA
ATOM     24  N   UNL A   1      31.172  26.313  24.408  1.00  0.00    -0.201 N 
ATOM     25  N   UNL A   1      32.172  25.937  26.322  1.00  0.00    -0.207 NA
ATOM     26  C   UNL A   1      30.914  26.183  23.042  1.00  0.00     0.227 A 
ATOM     27  N   UNL A   1      30.678  27.279  25.203  1.00  0.00    -0.145 NA
ENDBRANCH  10  11
ENDBRANCH   6   9
ENDBRANCH   4   5
ENDBRANCH   3   4
ENDBRANCH   2   3
ENDBRANCH   1   2
BRANCH   1  28
ATOM     28  C   UNL A   1      34.035  33.610  28.484  1.00  0.00     0.021 C 
BRANCH  28  29
ATOM     29  C   UNL A   1      34.598  34.884  29.071  1.00  0.00     0.116 C 
BRANCH  29  30
ATOM     30  N   UNL A   1      33.850  35.510  30.187  1.00  0.00    -0.352 N 
ATOM     31  C   UNL A   1      33.782  35.105  31.528  1.00  0.00     0.251 C 
ATOM     32  H   UNL A   1      33.332  36.315  29.957  1.00  0.00     0.163 HD
ATOM     33  O   UNL A   1      32.961  35.574  32.316  1.00  0.00    -0.269 OA
BRANCH  31  34
ATOM     34  C   UNL A   1      34.791  34.137  31.994  1.00  0.00     0.039 A 
ATOM     35  C   UNL A   1      34.767  32.736  32.007  1.00  0.00     0.014 A 
ATOM     36  C   UNL A   1      35.958  34.736  32.344  1.00  0.00     0.014 A 
ATOM     37  C   UNL A   1      35.999  32.066  32.180  1.00  0.00     0.010 A 
ATOM     38  C   UNL A   1      36.989  34.137  31.731  1.00  0.00     0.010 A 
ATOM     39  C   UNL A   1      37.153  32.836  32.082  1.00  0.00    -0.014 A 
BRANCH  39  40
ATOM     40  C   UNL A   1      38.560  32.509  32.026  1.00  0.00     0.031 A 
ATOM     41  C   UNL A   1      39.232  32.464  33.339  1.00  0.00     0.074 A 
ATOM     42  C   UNL A   1      39.070  31.860  30.945  1.00  0.00     0.049 A 
ATOM     43  N   UNL A   1      39.980  33.387  33.835  1.00  0.00    -0.248 NA
ATOM     44  C   UNL A   1      38.904  31.388  34.289  1.00  0.00     0.031 C 
ATOM     45  C   UNL A   1      38.401  31.393  29.710  1.00  0.00     0.029 A 
ATOM     46  N   UNL A   1      40.311  31.344  30.795  1.00  0.00    -0.354 N 
ATOM     47  C   UNL A   1      40.437  32.878  35.040  1.00  0.00     0.074 A 
ATOM     48  C   UNL A   1      39.538  31.810  35.387  1.00  0.00     0.031 C 
ATOM     49  C   UNL A   1      39.184  30.498  29.068  1.00  0.00     0.029 A 
ATOM     50  C   UNL A   1      40.473  30.478  29.723  1.00  0.00     0.049 A 
ATOM     51  H   UNL A   1      41.050  31.569  31.405  1.00  0.00     0.167 HD
ATOM     52  C   UNL A   1      41.677  33.192  35.507  1.00  0.00     0.034 A 
ATOM     53  C   UNL A   1      41.602  29.794  29.416  1.00  0.00     0.034 A 
ATOM     54  C   UNL A   1      42.302  34.199  34.674  1.00  0.00     0.049 A 
ATOM     55  C   UNL A   1      42.715  30.520  30.084  1.00  0.00     0.074 A 
ATOM     56  C   UNL A   1      41.947  35.480  34.292  1.00  0.00     0.029 A 
ATOM     57  N   UNL A   1      43.178  33.752  33.707  1.00  0.00    -0.354 N 
ATOM     58  N   UNL A   1      43.048  31.748  29.785  1.00  0.00    -0.248 NA
ATOM     59  C   UNL A   1      43.100  30.076  31.414  1.00  0.00     0.031 C 
ATOM     60  C   UNL A   1      42.217  35.530  32.889  1.00  0.00     0.029 A 
ATOM     61  C   UNL A   1      42.817  34.326  32.509  1.00  0.00     0.049 A 
ATOM     62  H   UNL A   1      43.929  33.131  33.848  1.00  0.00     0.167 HD
ATOM     63  C   UNL A   1      43.251  32.367  31.015  1.00  0.00     0.074 A 
ATOM     64  C   UNL A   1      43.369  31.261  31.971  1.00  0.00     0.031 C 
ATOM     65  C   UNL A   1      42.995  33.699  31.208  1.00  0.00     0.034 A 
BRANCH  52  66
ATOM     66  C   UNL A   1      42.452  32.402  36.525  1.00  0.00     0.023 A 
ATOM     67  C   UNL A   1      42.847  33.070  37.701  1.00  0.00     0.012 A 
ATOM     68  C   UNL A   1      42.959  31.098  36.324  1.00  0.00     0.148 A 
ATOM     69  C   UNL A   1      43.702  32.471  38.632  1.00  0.00     0.002 A 
ATOM     70  C   UNL A   1      43.731  30.471  37.296  1.00  0.00     0.091 A 
ATOM     71  F   UNL A   1      42.807  30.498  35.139  1.00  0.00    -0.205 F 
ATOM     72  C   UNL A   1      44.127  31.163  38.442  1.00  0.00     0.022 A 
BRANCH  70  73
ATOM     73  S   UNL A   1      44.234  28.752  37.137  1.00  0.00     0.127 S 
ATOM     74  O   UNL A   1      42.954  28.089  36.910  1.00  0.00    -0.237 OA
ATOM     75  O   UNL A   1      45.120  28.805  35.973  1.00  0.00    -0.237 OA
ATOM     76  O   UNL A   1      44.912  28.429  38.386  1.00  0.00    -0.744 OA
ENDBRANCH  70  73
ENDBRANCH  52  66
BRANCH  53  77
ATOM     77  C   UNL A   1      41.746  28.435  28.844  1.00  0.00     0.023 A 
ATOM     78  C   UNL A   1      41.003  27.367  29.380  1.00  0.00     0.012 A 
ATOM     79  C   UNL A   1      42.386  28.241  27.596  1.00  0.00     0.148 A 
ATOM     80  C   UNL A   1      40.864  26.161  28.681  1.00  0.00     0.002 A 
ATOM     81  C   UNL A   1      42.242  27.042  26.902  1.00  0.00     0.091 A 
ATOM     82  F   UNL A   1      43.056  29.264  27.050  1.00  0.00    -0.205 F 
ATOM     83  C   UNL A   1      41.471  26.003  27.437  1.00  0.00     0.022 A 
BRANCH  81  84
ATOM     84  S   UNL A   1      42.957  26.787  25.270  1.00  0.00     0.127 S 
ATOM     85  O   UNL A   1      44.389  26.751  25.569  1.00  0.00    -0.237 OA
ATOM     86  O   UNL A   1      42.378  25.502  24.887  1.00  0.00    -0.237 OA
ATOM     87  O   UNL A   1      42.540  27.930  24.467  1.00  0.00    -0.744 OA
ENDBRANCH  81  84
ENDBRANCH  53  77
BRANCH  65  88
ATOM     88  C   UNL A   1      42.618  34.542  29.994  1.00  0.00     0.023 A 
ATOM     89  C   UNL A   1      41.283  34.673  29.548  1.00  0.00     0.012 A 
ATOM     90  C   UNL A   1      43.588  35.368  29.403  1.00  0.00     0.148 A 
ATOM     91  C   UNL A   1      40.926  35.579  28.543  1.00  0.00     0.002 A 
ATOM     92  C   UNL A   1      43.227  36.299  28.430  1.00  0.00     0.091 A 
ATOM     93  F   UNL A   1      44.857  35.251  29.823  1.00  0.00    -0.205 F 
ATOM     94  C   UNL A   1      41.898  36.403  27.992  1.00  0.00     0.022 A 
BRANCH  92  95
ATOM     95  S   UNL A   1      44.409  37.474  27.763  1.00  0.00     0.127 S 
ATOM     96  O   UNL A   1      45.349  36.598  27.069  1.00  0.00    -0.237 OA
ATOM     97  O   UNL A   1      43.576  38.296  26.883  1.00  0.00    -0.237 OA
ATOM     98  O   UNL A   1      44.947  38.193  28.911  1.00  0.00    -0.744 OA
ENDBRANCH  92  95
ENDBRANCH  65  88
ENDBRANCH  39  40
ENDBRANCH  31  34
ENDBRANCH  29  30
ENDBRANCH  28  29
ENDBRANCH   1  28
TORSDOF 17
ENDMDL
MODEL 2
REMARK VINA RESULT:     -11.5      4.716      9.157
REMARK SMILES C[C@H]1CCc2sc3ncn4nc(/C=C\C(=O)NCCCCCCNC(=O)c5ccc(-c6c7nc(c(-c8cccc(S(=O)(=O)[O-])c8F)c8ccc([nH]8)c(-c8cccc(S(=O)(=O)[O-])c8F)c8nc(c(-c9cccc(S(=O)(=O)[O-])c9F)c9ccc6[nH]9)C=C8)C=C7)cc5)nc4c3c2C1
REMARK SMILES IDX 21 1 20 2 19 3 18 4 17 5 15 6 16 7 14 9 13 10 12 11 1 12
REMARK SMILES IDX 2 13 3 14 94 15 4 16 93 17 5 18 92 19 6 20 7 21 91 22 8 23
REMARK SMILES IDX 10 24 90 25 9 26 11 27 22 28 23 29 24 30 25 31 26 33 27 34
REMARK SMILES IDX 28 35 89 36 29 37 88 38 30 39 31 40 32 41 82 42 33 43 87 44
REMARK SMILES IDX 81 45 83 46 34 47 86 48 80 49 79 50 35 52 67 53 47 54 66 55
REMARK SMILES IDX 48 56 51 57 65 58 84 59 49 60 50 61 64 63 85 64 52 65 36 66
REMARK SMILES IDX 37 67 45 68 38 69 40 70 46 71 39 72 41 73 42 74 43 75 44 76
REMARK SMILES IDX 68 77 69 78 77 79 70 80 72 81 78 82 71 83 73 84 74 85 75 86
REMARK SMILES IDX 76 87 53 88 54 89 62 90 55 91 57 92 63 93 56 94 58 95 59 96
REMARK SMILES IDX 60 97 61 98
REMARK H PARENT 17 8 24 32 83 51 51 62
REMARK Flexibility Score: inf
ROOT
ATOM      1  C   UNL A   1      34.424  28.710  27.125  1.00  0.00     0.002 C 
ENDROOT
BRANCH   1   2
ATOM      2  C   UNL A   1      33.968  28.231  25.743  1.00  0.00     0.002 C 
BRANCH   2   3
ATOM      3  C   UNL A   1      33.071  29.161  24.917  1.00  0.00     0.021 C 
BRANCH   3   4
ATOM      4  C   UNL A   1      33.346  29.241  23.422  1.00  0.00     0.116 C 
BRANCH   4   5
ATOM      5  N   UNL A   1      33.817  28.033  22.773  1.00  0.00    -0.353 N 
ATOM      6  C   UNL A   1      33.084  27.141  22.040  1.00  0.00     0.244 C 
ATOM      7  O   UNL A   1      33.636  26.220  21.439  1.00  0.00    -0.270 OA
ATOM      8  H   UNL A   1      34.776  27.831  22.872  1.00  0.00     0.163 HD
BRANCH   6   9
ATOM      9  C   UNL A   1      31.600  27.169  22.094  1.00  0.00     0.075 C 
ATOM     10  C   UNL A   1      30.768  26.640  23.007  1.00  0.00     0.057 C 
BRANCH  10  11
ATOM     11  C   UNL A   1      31.084  25.889  24.176  1.00  0.00     0.175 A 
ATOM     12  C   UNL A   1      37.743  23.791  25.397  1.00  0.00     0.008 C 
ATOM     13  C   UNL A   1      36.718  23.233  24.410  1.00  0.00    -0.009 C 
ATOM     14  C   UNL A   1      36.595  21.704  24.576  1.00  0.00     0.009 C 
ATOM     15  C   UNL A   1      35.353  23.952  24.565  1.00  0.00     0.041 C 
ATOM     16  C   UNL A   1      36.010  21.296  25.939  1.00  0.00     0.047 C 
ATOM     17  C   UNL A   1      34.519  23.370  25.672  1.00  0.00    -0.020 A 
ATOM     18  C   UNL A   1      34.851  22.179  26.301  1.00  0.00     0.011 A 
ATOM     19  C   UNL A   1      33.203  23.748  26.059  1.00  0.00     0.060 A 
ATOM     20  S   UNL A   1      33.749  21.749  27.538  1.00  0.00    -0.120 S 
ATOM     21  C   UNL A   1      32.613  22.913  27.000  1.00  0.00     0.129 A 
ATOM     22  C   UNL A   1      32.256  24.701  25.444  1.00  0.00     0.168 A 
ATOM     23  N   UNL A   1      31.284  22.848  27.360  1.00  0.00    -0.225 NA
ATOM     24  N   UNL A   1      30.937  24.555  25.760  1.00  0.00    -0.201 N 
ATOM     25  N   UNL A   1      32.393  25.570  24.473  1.00  0.00    -0.207 NA
ATOM     26  C   UNL A   1      30.468  23.624  26.689  1.00  0.00     0.227 A 
ATOM     27  N   UNL A   1      30.164  25.341  24.990  1.00  0.00    -0.145 NA
ENDBRANCH  10  11
ENDBRANCH   6   9
ENDBRANCH   4   5
ENDBRANCH   3   4
ENDBRANCH   2   3
ENDBRANCH   1   2
BRANCH   1  28
ATOM     28  C   UNL A   1      34.493  30.217  27.357  1.00  0.00     0.021 C 
BRANCH  28  29
ATOM     29  C   UNL A   1      35.783  30.668  28.005  1.00  0.00     0.116 C 
BRANCH  29  30
ATOM     30  N   UNL A   1      36.000  30.295  29.422  1.00  0.00    -0.352 N 
ATOM     31  C   UNL A   1      36.907  29.366  29.952  1.00  0.00     0.251 C 
ATOM     32  H   UNL A   1      35.433  30.762  30.079  1.00  0.00     0.163 HD
ATOM     33  O   UNL A   1      36.851  28.984  31.121  1.00  0.00    -0.269 OA
BRANCH  31  34
ATOM     34  C   UNL A   1      37.996  28.908  29.071  1.00  0.00     0.039 A 
ATOM     35  C   UNL A   1      38.467  29.434  27.860  1.00  0.00     0.014 A 
ATOM     36  C   UNL A   1      38.707  27.887  29.616  1.00  0.00     0.014 A 
ATOM     37  C   UNL A   1      39.738  29.006  27.415  1.00  0.00     0.010 A 
ATOM     38  C   UNL A   1      40.018  28.163  29.579  1.00  0.00     0.010 A 
ATOM     39  C   UNL A   1      40.515  28.293  28.323  1.00  0.00    -0.014 A 
BRANCH  39  40
ATOM     40  C   UNL A   1      41.889  27.846  28.312  1.00  0.00     0.031 A 
ATOM     41  C   UNL A   1      42.119  26.583  27.585  1.00  0.00     0.074 A 
ATOM     42  C   UNL A   1      42.898  28.731  28.535  1.00  0.00     0.049 A 
ATOM     43  N   UNL A   1      42.272  25.422  28.120  1.00  0.00    -0.248 NA
ATOM     44  C   UNL A   1      41.980  26.550  26.120  1.00  0.00     0.031 C 
ATOM     45  C   UNL A   1      42.848  30.183  28.816  1.00  0.00     0.029 A 
ATOM     46  N   UNL A   1      44.228  28.523  28.410  1.00  0.00    -0.354 N 
ATOM     47  C   UNL A   1      42.525  24.564  27.062  1.00  0.00     0.074 A 
ATOM     48  C   UNL A   1      42.056  25.237  25.882  1.00  0.00     0.031 C 
ATOM     49  C   UNL A   1      44.067  30.736  28.622  1.00  0.00     0.029 A 
ATOM     50  C   UNL A   1      45.015  29.666  28.406  1.00  0.00     0.049 A 
ATOM     51  H   UNL A   1      44.613  27.620  28.328  1.00  0.00     0.167 HD
ATOM     52  C   UNL A   1      43.355  23.493  27.213  1.00  0.00     0.034 A 
ATOM     53  C   UNL A   1      46.357  29.708  28.227  1.00  0.00     0.034 A 
ATOM     54  C   UNL A   1      43.747  23.337  28.598  1.00  0.00     0.049 A 
ATOM     55  C   UNL A   1      46.857  28.347  28.559  1.00  0.00     0.074 A 
ATOM     56  C   UNL A   1      43.046  23.161  29.778  1.00  0.00     0.029 A 
ATOM     57  N   UNL A   1      44.965  23.871  28.966  1.00  0.00    -0.354 N 
ATOM     58  N   UNL A   1      46.755  27.819  29.750  1.00  0.00    -0.248 NA
ATOM     59  C   UNL A   1      46.987  27.397  27.465  1.00  0.00     0.031 C 
ATOM     60  C   UNL A   1      43.664  24.056  30.706  1.00  0.00     0.029 A 
ATOM     61  C   UNL A   1      44.768  24.648  30.084  1.00  0.00     0.049 A 
ATOM     62  H   UNL A   1      45.824  23.722  28.508  1.00  0.00     0.167 HD
ATOM     63  C   UNL A   1      46.340  26.511  29.521  1.00  0.00     0.074 A 
ATOM     64  C   UNL A   1      46.600  26.283  28.096  1.00  0.00     0.031 C 
ATOM     65  C   UNL A   1      45.541  25.838  30.407  1.00  0.00     0.034 A 
BRANCH  52  66
ATOM     66  C   UNL A   1      44.050  22.765  26.097  1.00  0.00     0.023 A 
ATOM     67  C   UNL A   1      44.752  23.542  25.153  1.00  0.00     0.012 A 
ATOM     68  C   UNL A   1      43.918  21.384  25.823  1.00  0.00     0.148 A 
ATOM     69  C   UNL A   1      45.296  22.974  23.997  1.00  0.00     0.002 A 
ATOM     70  C   UNL A   1      44.540  20.809  24.721  1.00  0.00     0.091 A 
ATOM     71  F   UNL A   1      43.084  20.636  26.553  1.00  0.00    -0.205 F 
ATOM     72  C   UNL A   1      45.210  21.604  23.790  1.00  0.00     0.022 A 
BRANCH  70  73
ATOM     73  S   UNL A   1      44.532  19.031  24.456  1.00  0.00     0.127 S 
ATOM     74  O   UNL A   1      43.124  18.707  24.662  1.00  0.00    -0.237 OA
ATOM     75  O   UNL A   1      44.994  18.931  23.070  1.00  0.00    -0.237 OA
ATOM     76  O   UNL A   1      45.466  18.488  25.434  1.00  0.00    -0.744 OA
ENDBRANCH  70  73
ENDBRANCH  52  66
BRANCH  53  77
ATOM     77  C   UNL A   1      47.178  30.727  27.531  1.00  0.00     0.023 A 
ATOM     78  C   UNL A   1      46.549  31.785  26.849  1.00  0.00     0.012 A 
ATOM     79  C   UNL A   1      48.568  30.826  27.779  1.00  0.00     0.148 A 
ATOM     80  C   UNL A   1      47.268  32.924  26.463  1.00  0.00     0.002 A 
ATOM     81  C   UNL A   1      49.279  31.961  27.397  1.00  0.00     0.091 A 
ATOM     82  F   UNL A   1      49.171  29.851  28.470  1.00  0.00    -0.205 F 
ATOM     83  C   UNL A   1      48.629  33.019  26.748  1.00  0.00     0.022 A 
BRANCH  81  84
ATOM     84  S   UNL A   1      51.025  32.173  27.777  1.00  0.00     0.127 S 
ATOM     85  O   UNL A   1      51.278  33.531  27.295  1.00  0.00    -0.237 OA
ATOM     86  O   UNL A   1      51.036  32.025  29.229  1.00  0.00    -0.237 OA
ATOM     87  O   UNL A   1      51.725  31.132  27.034  1.00  0.00    -0.744 OA
ENDBRANCH  81  84
ENDBRANCH  53  77
BRANCH  65  88
ATOM     88  C   UNL A   1      45.229  26.504  31.744  1.00  0.00     0.023 A 
ATOM     89  C   UNL A   1      44.198  27.460  31.891  1.00  0.00     0.012 A 
ATOM     90  C   UNL A   1      45.851  26.029  32.910  1.00  0.00     0.148 A 
ATOM     91  C   UNL A   1      43.809  27.938  33.148  1.00  0.00     0.002 A 
ATOM     92  C   UNL A   1      45.436  26.473  34.165  1.00  0.00     0.091 A 
ATOM     93  F   UNL A   1      46.829  25.119  32.778  1.00  0.00    -0.205 F 
ATOM     94  C   UNL A   1      44.421  27.434  34.288  1.00  0.00     0.022 A 
BRANCH  92  95
ATOM     95  S   UNL A   1      46.101  25.778  35.680  1.00  0.00     0.127 S 
ATOM     96  O   UNL A   1      45.315  26.466  36.701  1.00  0.00    -0.237 OA
ATOM     97  O   UNL A   1      45.798  24.353  35.533  1.00  0.00    -0.237 OA
ATOM     98  O   UNL A   1      47.526  26.086  35.668  1.00  0.00    -0.744 OA
ENDBRANCH  92  95
ENDBRANCH  65  88
ENDBRANCH  39  40
ENDBRANCH  31  34
ENDBRANCH  29  30
ENDBRANCH  28  29
ENDBRANCH   1  28
TORSDOF 17
ENDMDL
MODEL 3
REMARK VINA RESULT:     -11.2      3.143      4.201
REMARK SMILES C[C@H]1CCc2sc3ncn4nc(/C=C\C(=O)NCCCCCCNC(=O)c5ccc(-c6c7nc(c(-c8cccc(S(=O)(=O)[O-])c8F)c8ccc([nH]8)c(-c8cccc(S(=O)(=O)[O-])c8F)c8nc(c(-c9cccc(S(=O)(=O)[O-])c9F)c9ccc6[nH]9)C=C8)C=C7)cc5)nc4c3c2C1
REMARK SMILES IDX 21 1 20 2 19 3 18 4 17 5 15 6 16 7 14 9 13 10 12 11 1 12
REMARK SMILES IDX 2 13 3 14 94 15 4 16 93 17 5 18 92 19 6 20 7 21 91 22 8 23
REMARK SMILES IDX 10 24 90 25 9 26 11 27 22 28 23 29 24 30 25 31 26 33 27 34
REMARK SMILES IDX 28 35 89 36 29 37 88 38 30 39 31 40 32 41 82 42 33 43 87 44
REMARK SMILES IDX 81 45 83 46 34 47 86 48 80 49 79 50 35 52 67 53 47 54 66 55
REMARK SMILES IDX 48 56 51 57 65 58 84 59 49 60 50 61 64 63 85 64 52 65 36 66
REMARK SMILES IDX 37 67 45 68 38 69 40 70 46 71 39 72 41 73 42 74 43 75 44 76
REMARK SMILES IDX 68 77 69 78 77 79 70 80 72 81 78 82 71 83 73 84 74 85 75 86
REMARK SMILES IDX 76 87 53 88 54 89 62 90 55 91 57 92 63 93 56 94 58 95 59 96
REMARK SMILES IDX 60 97 61 98
REMARK H PARENT 17 8 24 32 83 51 51 62
REMARK Flexibility Score: inf
ROOT
ATOM      1  C   UNL A   1      34.006  29.330  27.997  1.00  0.00     0.002 C 
ENDROOT
BRANCH   1   2
ATOM      2  C   UNL A   1      33.005  28.621  27.081  1.00  0.00     0.002 C 
BRANCH   2   3
ATOM      3  C   UNL A   1      31.828  29.435  26.531  1.00  0.00     0.021 C 
BRANCH   3   4
ATOM      4  C   UNL A   1      31.959  29.972  25.113  1.00  0.00     0.116 C 
BRANCH   4   5
ATOM      5  N   UNL A   1      33.105  29.528  24.344  1.00  0.00    -0.353 N 
ATOM      6  C   UNL A   1      33.101  28.927  23.114  1.00  0.00     0.244 C 
ATOM      7  O   UNL A   1      34.156  28.714  22.519  1.00  0.00    -0.270 OA
ATOM      8  H   UNL A   1      33.988  29.675  24.753  1.00  0.00     0.163 HD
BRANCH   6   9
ATOM      9  C   UNL A   1      31.842  28.374  22.556  1.00  0.00     0.075 C 
ATOM     10  C   UNL A   1      31.065  27.382  23.020  1.00  0.00     0.057 C 
BRANCH  10  11
ATOM     11  C   UNL A   1      31.245  26.572  24.179  1.00  0.00     0.175 A 
ATOM     12  C   UNL A   1      37.621  23.883  25.714  1.00  0.00     0.008 C 
ATOM     13  C   UNL A   1      36.615  23.443  24.650  1.00  0.00    -0.009 C 
ATOM     14  C   UNL A   1      36.356  21.925  24.756  1.00  0.00     0.009 C 
ATOM     15  C   UNL A   1      35.308  24.270  24.750  1.00  0.00     0.041 C 
ATOM     16  C   UNL A   1      35.658  21.529  26.067  1.00  0.00     0.047 C 
ATOM     17  C   UNL A   1      34.362  23.728  25.786  1.00  0.00    -0.020 A 
ATOM     18  C   UNL A   1      34.555  22.495  26.391  1.00  0.00     0.011 A 
ATOM     19  C   UNL A   1      33.060  24.205  26.108  1.00  0.00     0.060 A 
ATOM     20  S   UNL A   1      33.348  22.124  27.546  1.00  0.00    -0.120 S 
ATOM     21  C   UNL A   1      32.347  23.395  26.983  1.00  0.00     0.129 A 
ATOM     22  C   UNL A   1      32.235  25.253  25.472  1.00  0.00     0.168 A 
ATOM     23  N   UNL A   1      30.998  23.432  27.263  1.00  0.00    -0.225 NA
ATOM     24  N   UNL A   1      30.892  25.210  25.705  1.00  0.00    -0.201 N 
ATOM     25  N   UNL A   1      32.503  26.135  24.541  1.00  0.00    -0.207 NA
ATOM     26  C   UNL A   1      30.292  24.295  26.572  1.00  0.00     0.227 A 
ATOM     27  N   UNL A   1      30.235  26.081  24.919  1.00  0.00    -0.145 NA
ENDBRANCH  10  11
ENDBRANCH   6   9
ENDBRANCH   4   5
ENDBRANCH   3   4
ENDBRANCH   2   3
ENDBRANCH   1   2
BRANCH   1  28
ATOM     28  C   UNL A   1      34.905  30.390  27.368  1.00  0.00     0.021 C 
BRANCH  28  29
ATOM     29  C   UNL A   1      34.633  31.789  27.874  1.00  0.00     0.116 C 
BRANCH  29  30
ATOM     30  N   UNL A   1      34.474  31.965  29.337  1.00  0.00    -0.352 N 
ATOM     31  C   UNL A   1      35.417  31.741  30.351  1.00  0.00     0.251 C 
ATOM     32  H   UNL A   1      33.591  32.282  29.636  1.00  0.00     0.163 HD
ATOM     33  O   UNL A   1      35.108  31.715  31.542  1.00  0.00    -0.269 OA
BRANCH  31  34
ATOM     34  C   UNL A   1      36.827  31.608  29.946  1.00  0.00     0.039 A 
ATOM     35  C   UNL A   1      37.844  32.570  29.867  1.00  0.00     0.014 A 
ATOM     36  C   UNL A   1      37.186  30.315  29.740  1.00  0.00     0.014 A 
ATOM     37  C   UNL A   1      39.175  32.104  29.788  1.00  0.00     0.010 A 
ATOM     38  C   UNL A   1      38.303  30.030  30.426  1.00  0.00     0.010 A 
ATOM     39  C   UNL A   1      39.384  30.751  30.035  1.00  0.00    -0.014 A 
BRANCH  39  40
ATOM     40  C   UNL A   1      40.573  29.950  30.215  1.00  0.00     0.031 A 
ATOM     41  C   UNL A   1      41.030  29.836  31.613  1.00  0.00     0.074 A 
ATOM     42  C   UNL A   1      40.933  29.036  29.275  1.00  0.00     0.049 A 
ATOM     43  N   UNL A   1      42.000  30.494  32.146  1.00  0.00    -0.248 NA
ATOM     44  C   UNL A   1      40.229  29.068  32.582  1.00  0.00     0.031 C 
ATOM     45  C   UNL A   1      40.286  28.683  27.992  1.00  0.00     0.029 A 
ATOM     46  N   UNL A   1      41.912  28.106  29.351  1.00  0.00    -0.354 N 
ATOM     47  C   UNL A   1      42.102  30.011  33.441  1.00  0.00     0.074 A 
ATOM     48  C   UNL A   1      40.845  29.374  33.728  1.00  0.00     0.031 C 
ATOM     49  C   UNL A   1      40.759  27.499  27.542  1.00  0.00     0.029 A 
ATOM     50  C   UNL A   1      41.871  27.113  28.383  1.00  0.00     0.049 A 
ATOM     51  H   UNL A   1      42.608  28.133  30.047  1.00  0.00     0.167 HD
ATOM     52  C   UNL A   1      43.311  29.929  34.064  1.00  0.00     0.034 A 
ATOM     53  C   UNL A   1      42.702  26.046  28.300  1.00  0.00     0.034 A 
ATOM     54  C   UNL A   1      44.347  30.544  33.261  1.00  0.00     0.049 A 
ATOM     55  C   UNL A   1      43.919  26.416  29.071  1.00  0.00     0.074 A 
ATOM     56  C   UNL A   1      44.525  31.811  32.736  1.00  0.00     0.029 A 
ATOM     57  N   UNL A   1      45.106  29.704  32.472  1.00  0.00    -0.354 N 
ATOM     58  N   UNL A   1      44.705  27.404  28.735  1.00  0.00    -0.248 NA
ATOM     59  C   UNL A   1      43.964  26.032  30.474  1.00  0.00     0.031 C 
ATOM     60  C   UNL A   1      44.952  31.590  31.389  1.00  0.00     0.029 A 
ATOM     61  C   UNL A   1      45.115  30.216  31.194  1.00  0.00     0.049 A 
ATOM     62  H   UNL A   1      45.560  28.883  32.770  1.00  0.00     0.167 HD
ATOM     63  C   UNL A   1      44.978  28.060  29.933  1.00  0.00     0.074 A 
ATOM     64  C   UNL A   1      44.578  27.110  30.975  1.00  0.00     0.031 C 
ATOM     65  C   UNL A   1      45.201  29.410  29.985  1.00  0.00     0.034 A 
BRANCH  52  66
ATOM     66  C   UNL A   1      43.626  29.050  35.242  1.00  0.00     0.023 A 
ATOM     67  C   UNL A   1      44.154  29.672  36.392  1.00  0.00     0.012 A 
ATOM     68  C   UNL A   1      43.595  27.637  35.232  1.00  0.00     0.148 A 
ATOM     69  C   UNL A   1      44.625  28.925  37.477  1.00  0.00     0.002 A 
ATOM     70  C   UNL A   1      43.977  26.902  36.349  1.00  0.00     0.091 A 
ATOM     71  F   UNL A   1      43.319  26.984  34.098  1.00  0.00    -0.205 F 
ATOM     72  C   UNL A   1      44.517  27.541  37.466  1.00  0.00     0.022 A 
BRANCH  70  73
ATOM     73  S   UNL A   1      43.776  25.117  36.417  1.00  0.00     0.127 S 
ATOM     74  O   UNL A   1      44.709  24.674  35.386  1.00  0.00    -0.237 OA
ATOM     75  O   UNL A   1      44.184  24.821  37.792  1.00  0.00    -0.237 OA
ATOM     76  O   UNL A   1      42.363  24.875  36.152  1.00  0.00    -0.744 OA
ENDBRANCH  70  73
ENDBRANCH  52  66
BRANCH  53  77
ATOM     77  C   UNL A   1      42.409  24.662  27.859  1.00  0.00     0.023 A 
ATOM     78  C   UNL A   1      41.115  24.135  28.023  1.00  0.00     0.012 A 
ATOM     79  C   UNL A   1      43.311  23.966  27.020  1.00  0.00     0.148 A 
ATOM     80  C   UNL A   1      40.715  22.978  27.342  1.00  0.00     0.002 A 
ATOM     81  C   UNL A   1      42.909  22.818  26.342  1.00  0.00     0.091 A 
ATOM     82  F   UNL A   1      44.530  24.481  26.815  1.00  0.00    -0.205 F 
ATOM     83  C   UNL A   1      41.607  22.327  26.492  1.00  0.00     0.022 A 
BRANCH  81  84
ATOM     84  S   UNL A   1      43.991  21.956  25.191  1.00  0.00     0.127 S 
ATOM     85  O   UNL A   1      43.354  20.642  25.102  1.00  0.00    -0.237 OA
ATOM     86  O   UNL A   1      43.869  22.779  23.991  1.00  0.00    -0.237 OA
ATOM     87  O   UNL A   1      45.309  21.942  25.813  1.00  0.00    -0.744 OA
ENDBRANCH  81  84
ENDBRANCH  53  77
BRANCH  65  88
ATOM     88  C   UNL A   1      45.294  30.176  28.669  1.00  0.00     0.023 A 
ATOM     89  C   UNL A   1      44.166  30.421  27.853  1.00  0.00     0.012 A 
ATOM     90  C   UNL A   1      46.495  30.824  28.335  1.00  0.00     0.148 A 
ATOM     91  C   UNL A   1      44.230  31.266  26.739  1.00  0.00     0.002 A 
ATOM     92  C   UNL A   1      46.549  31.697  27.249  1.00  0.00     0.091 A 
ATOM     93  F   UNL A   1      47.570  30.598  29.106  1.00  0.00    -0.205 F 
ATOM     94  C   UNL A   1      45.421  31.914  26.444  1.00  0.00     0.022 A 
BRANCH  92  95
ATOM     95  S   UNL A   1      48.021  32.657  26.883  1.00  0.00     0.127 S 
ATOM     96  O   UNL A   1      48.976  31.618  26.504  1.00  0.00    -0.237 OA
ATOM     97  O   UNL A   1      47.576  33.511  25.780  1.00  0.00    -0.237 OA
ATOM     98  O   UNL A   1      48.336  33.385  28.106  1.00  0.00    -0.744 OA
ENDBRANCH  92  95
ENDBRANCH  65  88
ENDBRANCH  39  40
ENDBRANCH  31  34
ENDBRANCH  29  30
ENDBRANCH  28  29
ENDBRANCH   1  28
TORSDOF 17
ENDMDL
