MODEL 1
REMARK VINA RESULT:     -11.6      0.000      0.000
REMARK SMILES CCn1c(=O)n(CC)c2cc(C(=O)NCCCCCCNC(=O)c3ccc(-c4c5nc(c(-c6cccc(S(=O)(=O)[O-])c6F)c6ccc([nH]6)c(-c6cccc(S(=O)(=O)[O-])c6F)c6nc(c(-c7cccc(S(=O)(=O)[O-])c7F)c7ccc4[nH]7)C=C6)C=C5)cc3)ccc21
REMARK SMILES IDX 18 1 17 2 16 3 15 4 14 5 12 6 13 7 11 9 3 10 4 11 89 12 5 13
REMARK SMILES IDX 6 14 9 15 88 16 10 17 87 18 2 19 1 20 7 21 8 22 19 23 20 24
REMARK SMILES IDX 21 25 22 26 23 28 24 29 25 30 86 31 26 32 85 33 27 34 28 35
REMARK SMILES IDX 29 36 79 37 30 38 84 39 78 40 80 41 31 42 83 43 77 44 76 45
REMARK SMILES IDX 32 47 64 48 44 49 63 50 45 51 48 52 62 53 81 54 46 55 47 56
REMARK SMILES IDX 61 58 82 59 49 60 33 61 34 62 42 63 35 64 37 65 43 66 36 67
REMARK SMILES IDX 38 68 39 69 40 70 41 71 65 72 66 73 74 74 67 75 69 76 75 77
REMARK SMILES IDX 68 78 70 79 71 80 72 81 73 82 50 83 51 84 59 85 52 86 54 87
REMARK SMILES IDX 60 88 53 89 55 90 56 91 57 92 58 93
REMARK H PARENT 14 8 21 27 80 46 48 57
REMARK Flexibility Score: inf
ROOT
ATOM      1  C   UNL A   1      33.150  27.612  26.432  1.00  0.00     0.002 C 
ENDROOT
BRANCH   1   2
ATOM      2  C   UNL A   1      31.858  26.983  25.893  1.00  0.00     0.002 C 
BRANCH   2   3
ATOM      3  C   UNL A   1      31.174  27.794  24.785  1.00  0.00     0.021 C 
BRANCH   3   4
ATOM      4  C   UNL A   1      30.720  26.923  23.612  1.00  0.00     0.116 C 
BRANCH   4   5
ATOM      5  N   UNL A   1      31.759  26.882  22.603  1.00  0.00    -0.352 N 
ATOM      6  C   UNL A   1      32.754  25.990  22.308  1.00  0.00     0.251 C 
ATOM      7  O   UNL A   1      33.522  26.296  21.392  1.00  0.00    -0.269 OA
ATOM      8  H   UNL A   1      31.748  27.662  22.002  1.00  0.00     0.163 HD
BRANCH   6   9
ATOM      9  C   UNL A   1      32.931  24.665  22.976  1.00  0.00     0.042 A 
ATOM     10  N   UNL A   1      34.034  21.010  24.623  1.00  0.00    -0.292 N 
ATOM     11  C   UNL A   1      35.424  21.205  24.779  1.00  0.00     0.329 A 
ATOM     12  C   UNL A   1      33.473  22.173  24.085  1.00  0.00     0.069 A 
ATOM     13  O   UNL A   1      36.230  20.402  25.237  1.00  0.00    -0.248 OA
ATOM     14  N   UNL A   1      35.696  22.511  24.317  1.00  0.00    -0.292 N 
ATOM     15  C   UNL A   1      34.498  23.092  23.876  1.00  0.00     0.070 A 
ATOM     16  C   UNL A   1      32.161  22.482  23.806  1.00  0.00     0.029 A 
ATOM     17  C   UNL A   1      34.255  24.331  23.321  1.00  0.00     0.042 A 
ATOM     18  C   UNL A   1      31.895  23.757  23.285  1.00  0.00     0.016 A 
BRANCH  10  19
ATOM     19  C   UNL A   1      33.324  19.790  24.912  1.00  0.00     0.124 C 
ATOM     20  C   UNL A   1      32.558  19.283  23.700  1.00  0.00     0.028 C 
ENDBRANCH  10  19
BRANCH  14  21
ATOM     21  C   UNL A   1      36.984  23.159  24.359  1.00  0.00     0.124 C 
ATOM     22  C   UNL A   1      37.343  23.703  25.731  1.00  0.00     0.028 C 
ENDBRANCH  14  21
ENDBRANCH   6   9
ENDBRANCH   4   5
ENDBRANCH   3   4
ENDBRANCH   2   3
ENDBRANCH   1   2
BRANCH   1  23
ATOM     23  C   UNL A   1      32.944  28.780  27.404  1.00  0.00     0.021 C 
BRANCH  23  24
ATOM     24  C   UNL A   1      33.536  30.100  26.912  1.00  0.00     0.116 C 
BRANCH  24  25
ATOM     25  N   UNL A   1      33.751  31.059  27.974  1.00  0.00    -0.352 N 
ATOM     26  C   UNL A   1      34.834  31.457  28.707  1.00  0.00     0.251 C 
ATOM     27  H   UNL A   1      32.928  31.536  28.225  1.00  0.00     0.163 HD
ATOM     28  O   UNL A   1      34.625  32.361  29.519  1.00  0.00    -0.269 OA
BRANCH  26  29
ATOM     29  C   UNL A   1      36.184  30.837  28.645  1.00  0.00     0.039 A 
ATOM     30  C   UNL A   1      36.461  29.520  28.275  1.00  0.00     0.014 A 
ATOM     31  C   UNL A   1      37.253  31.661  29.047  1.00  0.00     0.014 A 
ATOM     32  C   UNL A   1      37.741  29.002  28.430  1.00  0.00     0.010 A 
ATOM     33  C   UNL A   1      38.540  31.157  29.174  1.00  0.00     0.010 A 
ATOM     34  C   UNL A   1      38.768  29.810  28.922  1.00  0.00    -0.014 A 
BRANCH  34  35
ATOM     35  C   UNL A   1      40.102  29.230  29.030  1.00  0.00     0.031 A 
ATOM     36  C   UNL A   1      40.601  29.142  30.431  1.00  0.00     0.074 A 
ATOM     37  C   UNL A   1      40.783  28.736  27.975  1.00  0.00     0.049 A 
ATOM     38  N   UNL A   1      41.583  29.792  30.968  1.00  0.00    -0.248 NA
ATOM     39  C   UNL A   1      39.804  28.360  31.391  1.00  0.00     0.031 C 
ATOM     40  C   UNL A   1      40.296  28.529  26.607  1.00  0.00     0.029 A 
ATOM     41  N   UNL A   1      42.035  28.198  27.933  1.00  0.00    -0.354 N 
ATOM     42  C   UNL A   1      41.671  29.316  32.276  1.00  0.00     0.074 A 
ATOM     43  C   UNL A   1      40.460  28.582  32.531  1.00  0.00     0.031 C 
ATOM     44  C   UNL A   1      41.138  27.696  25.953  1.00  0.00     0.029 A 
ATOM     45  C   UNL A   1      42.288  27.430  26.795  1.00  0.00     0.049 A 
ATOM     46  H   UNL A   1      42.702  28.339  28.642  1.00  0.00     0.167 HD
ATOM     47  C   UNL A   1      42.841  29.339  32.970  1.00  0.00     0.034 A 
ATOM     48  C   UNL A   1      43.340  26.592  26.608  1.00  0.00     0.034 A 
ATOM     49  C   UNL A   1      43.809  30.213  32.372  1.00  0.00     0.049 A 
ATOM     50  C   UNL A   1      44.390  27.020  27.557  1.00  0.00     0.074 A 
ATOM     51  C   UNL A   1      43.899  31.567  32.131  1.00  0.00     0.029 A 
ATOM     52  N   UNL A   1      44.739  29.609  31.565  1.00  0.00    -0.354 N 
ATOM     53  N   UNL A   1      45.018  28.157  27.480  1.00  0.00    -0.248 NA
ATOM     54  C   UNL A   1      44.484  26.330  28.832  1.00  0.00     0.031 C 
ATOM     55  C   UNL A   1      44.571  31.674  30.879  1.00  0.00     0.029 A 
ATOM     56  C   UNL A   1      44.904  30.387  30.452  1.00  0.00     0.049 A 
ATOM     57  H   UNL A   1      45.208  28.764  31.756  1.00  0.00     0.167 HD
ATOM     58  C   UNL A   1      45.194  28.537  28.802  1.00  0.00     0.074 A 
ATOM     59  C   UNL A   1      44.969  27.323  29.582  1.00  0.00     0.031 C 
ATOM     60  C   UNL A   1      45.218  29.856  29.146  1.00  0.00     0.034 A 
BRANCH  47  61
ATOM     61  C   UNL A   1      43.249  28.271  33.953  1.00  0.00     0.023 A 
ATOM     62  C   UNL A   1      43.577  28.660  35.269  1.00  0.00     0.012 A 
ATOM     63  C   UNL A   1      43.594  26.956  33.565  1.00  0.00     0.148 A 
ATOM     64  C   UNL A   1      44.219  27.782  36.152  1.00  0.00     0.002 A 
ATOM     65  C   UNL A   1      44.162  26.064  34.466  1.00  0.00     0.091 A 
ATOM     66  F   UNL A   1      43.499  26.601  32.278  1.00  0.00    -0.205 F 
ATOM     67  C   UNL A   1      44.497  26.478  35.755  1.00  0.00     0.022 A 
BRANCH  65  68
ATOM     68  S   UNL A   1      44.520  24.364  34.008  1.00  0.00     0.127 S 
ATOM     69  O   UNL A   1      43.211  23.739  34.164  1.00  0.00    -0.237 OA
ATOM     70  O   UNL A   1      44.976  24.519  32.627  1.00  0.00    -0.237 OA
ATOM     71  O   UNL A   1      45.557  23.923  34.933  1.00  0.00    -0.744 OA
ENDBRANCH  65  68
ENDBRANCH  47  61
BRANCH  48  72
ATOM     72  C   UNL A   1      43.461  25.297  25.887  1.00  0.00     0.023 A 
ATOM     73  C   UNL A   1      44.624  25.051  25.119  1.00  0.00     0.012 A 
ATOM     74  C   UNL A   1      42.641  24.194  26.210  1.00  0.00     0.148 A 
ATOM     75  C   UNL A   1      44.999  23.751  24.760  1.00  0.00     0.002 A 
ATOM     76  C   UNL A   1      43.015  22.903  25.842  1.00  0.00     0.091 A 
ATOM     77  F   UNL A   1      41.551  24.395  26.960  1.00  0.00    -0.205 F 
ATOM     78  C   UNL A   1      44.205  22.675  25.136  1.00  0.00     0.022 A 
BRANCH  76  79
ATOM     79  S   UNL A   1      42.049  21.458  26.304  1.00  0.00     0.127 S 
ATOM     80  O   UNL A   1      42.665  20.406  25.495  1.00  0.00    -0.237 OA
ATOM     81  O   UNL A   1      42.312  21.364  27.737  1.00  0.00    -0.237 OA
ATOM     82  O   UNL A   1      40.674  21.770  25.931  1.00  0.00    -0.744 OA
ENDBRANCH  76  79
ENDBRANCH  48  72
BRANCH  60  83
ATOM     83  C   UNL A   1      45.355  30.863  28.036  1.00  0.00     0.023 A 
ATOM     84  C   UNL A   1      44.241  31.434  27.385  1.00  0.00     0.012 A 
ATOM     85  C   UNL A   1      46.636  31.376  27.781  1.00  0.00     0.148 A 
ATOM     86  C   UNL A   1      44.407  32.499  26.495  1.00  0.00     0.002 A 
ATOM     87  C   UNL A   1      46.792  32.459  26.929  1.00  0.00     0.091 A 
ATOM     88  F   UNL A   1      47.675  30.819  28.421  1.00  0.00    -0.205 F 
ATOM     89  C   UNL A   1      45.681  33.023  26.280  1.00  0.00     0.022 A 
BRANCH  87  90
ATOM     90  S   UNL A   1      48.384  33.251  26.695  1.00  0.00     0.127 S 
ATOM     91  O   UNL A   1      48.638  33.822  28.016  1.00  0.00    -0.237 OA
ATOM     92  O   UNL A   1      49.241  32.120  26.339  1.00  0.00    -0.237 OA
ATOM     93  O   UNL A   1      48.201  34.224  25.624  1.00  0.00    -0.744 OA
ENDBRANCH  87  90
ENDBRANCH  60  83
ENDBRANCH  34  35
ENDBRANCH  26  29
ENDBRANCH  24  25
ENDBRANCH  23  24
ENDBRANCH   1  23
TORSDOF 18
ENDMDL
MODEL 2
REMARK VINA RESULT:     -11.4      3.068      8.762
REMARK SMILES CCn1c(=O)n(CC)c2cc(C(=O)NCCCCCCNC(=O)c3ccc(-c4c5nc(c(-c6cccc(S(=O)(=O)[O-])c6F)c6ccc([nH]6)c(-c6cccc(S(=O)(=O)[O-])c6F)c6nc(c(-c7cccc(S(=O)(=O)[O-])c7F)c7ccc4[nH]7)C=C6)C=C5)cc3)ccc21
REMARK SMILES IDX 18 1 17 2 16 3 15 4 14 5 12 6 13 7 11 9 3 10 4 11 89 12 5 13
REMARK SMILES IDX 6 14 9 15 88 16 10 17 87 18 2 19 1 20 7 21 8 22 19 23 20 24
REMARK SMILES IDX 21 25 22 26 23 28 24 29 25 30 86 31 26 32 85 33 27 34 28 35
REMARK SMILES IDX 29 36 79 37 30 38 84 39 78 40 80 41 31 42 83 43 77 44 76 45
REMARK SMILES IDX 32 47 64 48 44 49 63 50 45 51 48 52 62 53 81 54 46 55 47 56
REMARK SMILES IDX 61 58 82 59 49 60 33 61 34 62 42 63 35 64 37 65 43 66 36 67
REMARK SMILES IDX 38 68 39 69 40 70 41 71 65 72 66 73 74 74 67 75 69 76 75 77
REMARK SMILES IDX 68 78 70 79 71 80 72 81 73 82 50 83 51 84 59 85 52 86 54 87
REMARK SMILES IDX 60 88 53 89 55 90 56 91 57 92 58 93
REMARK H PARENT 14 8 21 27 80 46 48 57
REMARK Flexibility Score: inf
ROOT
ATOM      1  C   UNL A   1      35.356  21.391  24.829  1.00  0.00     0.002 C 
ENDROOT
BRANCH   1   2
ATOM      2  C   UNL A   1      34.345  20.237  24.811  1.00  0.00     0.002 C 
BRANCH   2   3
ATOM      3  C   UNL A   1      32.969  20.593  25.392  1.00  0.00     0.021 C 
BRANCH   3   4
ATOM      4  C   UNL A   1      32.883  22.050  25.850  1.00  0.00     0.116 C 
BRANCH   4   5
ATOM      5  N   UNL A   1      31.660  22.255  26.599  1.00  0.00    -0.352 N 
ATOM      6  C   UNL A   1      30.761  23.284  26.675  1.00  0.00     0.251 C 
ATOM      7  O   UNL A   1      29.831  23.152  27.476  1.00  0.00    -0.269 OA
ATOM      8  H   UNL A   1      31.424  21.491  27.175  1.00  0.00     0.163 HD
BRANCH   6   9
ATOM      9  C   UNL A   1      30.802  24.511  25.824  1.00  0.00     0.042 A 
ATOM     10  N   UNL A   1      30.892  28.253  24.013  1.00  0.00    -0.292 N 
ATOM     11  C   UNL A   1      31.445  29.032  25.053  1.00  0.00     0.329 A 
ATOM     12  C   UNL A   1      30.801  26.925  24.443  1.00  0.00     0.069 A 
ATOM     13  O   UNL A   1      31.682  30.235  25.023  1.00  0.00    -0.248 OA
ATOM     14  N   UNL A   1      31.681  28.147  26.129  1.00  0.00    -0.292 N 
ATOM     15  C   UNL A   1      31.267  26.860  25.753  1.00  0.00     0.070 A 
ATOM     16  C   UNL A   1      30.382  25.799  23.772  1.00  0.00     0.029 A 
ATOM     17  C   UNL A   1      31.270  25.677  26.461  1.00  0.00     0.042 A 
ATOM     18  C   UNL A   1      30.425  24.580  24.465  1.00  0.00     0.016 A 
BRANCH  10  19
ATOM     19  C   UNL A   1      30.439  28.759  22.742  1.00  0.00     0.124 C 
ATOM     20  C   UNL A   1      28.945  29.038  22.747  1.00  0.00     0.028 C 
ENDBRANCH  10  19
BRANCH  14  21
ATOM     21  C   UNL A   1      32.308  28.502  27.377  1.00  0.00     0.124 C 
ATOM     22  C   UNL A   1      33.814  28.671  27.272  1.00  0.00     0.028 C 
ENDBRANCH  14  21
ENDBRANCH   6   9
ENDBRANCH   4   5
ENDBRANCH   3   4
ENDBRANCH   2   3
ENDBRANCH   1   2
BRANCH   1  23
ATOM     23  C   UNL A   1      36.825  20.965  24.729  1.00  0.00     0.021 C 
BRANCH  23  24
ATOM     24  C   UNL A   1      37.792  21.932  25.411  1.00  0.00     0.116 C 
BRANCH  24  25
ATOM     25  N   UNL A   1      39.054  21.320  25.768  1.00  0.00    -0.352 N 
ATOM     26  C   UNL A   1      40.128  21.699  26.525  1.00  0.00     0.251 C 
ATOM     27  H   UNL A   1      39.165  20.425  25.375  1.00  0.00     0.163 HD
ATOM     28  O   UNL A   1      41.026  20.861  26.632  1.00  0.00    -0.269 OA
BRANCH  26  29
ATOM     29  C   UNL A   1      40.309  23.039  27.143  1.00  0.00     0.039 A 
ATOM     30  C   UNL A   1      39.525  24.166  26.892  1.00  0.00     0.014 A 
ATOM     31  C   UNL A   1      41.406  23.164  28.017  1.00  0.00     0.014 A 
ATOM     32  C   UNL A   1      39.902  25.407  27.390  1.00  0.00     0.010 A 
ATOM     33  C   UNL A   1      41.770  24.397  28.542  1.00  0.00     0.010 A 
ATOM     34  C   UNL A   1      41.049  25.527  28.177  1.00  0.00    -0.014 A 
BRANCH  34  35
ATOM     35  C   UNL A   1      41.380  26.845  28.706  1.00  0.00     0.031 A 
ATOM     36  C   UNL A   1      42.699  27.360  28.239  1.00  0.00     0.074 A 
ATOM     37  C   UNL A   1      40.538  27.570  29.471  1.00  0.00     0.049 A 
ATOM     38  N   UNL A   1      43.768  27.562  28.940  1.00  0.00    -0.248 NA
ATOM     39  C   UNL A   1      42.897  27.510  26.788  1.00  0.00     0.031 C 
ATOM     40  C   UNL A   1      39.131  27.288  29.775  1.00  0.00     0.029 A 
ATOM     41  N   UNL A   1      40.731  28.790  30.048  1.00  0.00    -0.354 N 
ATOM     42  C   UNL A   1      44.701  28.091  28.050  1.00  0.00     0.074 A 
ATOM     43  C   UNL A   1      44.180  27.871  26.726  1.00  0.00     0.031 C 
ATOM     44  C   UNL A   1      38.543  28.407  30.256  1.00  0.00     0.029 A 
ATOM     45  C   UNL A   1      39.553  29.434  30.432  1.00  0.00     0.049 A 
ATOM     46  H   UNL A   1      41.623  29.183  30.184  1.00  0.00     0.167 HD
ATOM     47  C   UNL A   1      45.712  28.900  28.467  1.00  0.00     0.034 A 
ATOM     48  C   UNL A   1      39.429  30.735  30.798  1.00  0.00     0.034 A 
ATOM     49  C   UNL A   1      45.916  28.825  29.885  1.00  0.00     0.049 A 
ATOM     50  C   UNL A   1      40.778  31.184  31.208  1.00  0.00     0.074 A 
ATOM     51  C   UNL A   1      46.301  27.846  30.775  1.00  0.00     0.029 A 
ATOM     52  N   UNL A   1      45.326  29.817  30.625  1.00  0.00    -0.354 N 
ATOM     53  N   UNL A   1      41.405  30.733  32.256  1.00  0.00    -0.248 NA
ATOM     54  C   UNL A   1      41.598  31.874  30.228  1.00  0.00     0.031 C 
ATOM     55  C   UNL A   1      45.536  28.096  31.951  1.00  0.00     0.029 A 
ATOM     56  C   UNL A   1      44.770  29.243  31.736  1.00  0.00     0.049 A 
ATOM     57  H   UNL A   1      45.307  30.774  30.397  1.00  0.00     0.167 HD
ATOM     58  C   UNL A   1      42.732  30.679  31.859  1.00  0.00     0.074 A 
ATOM     59  C   UNL A   1      42.808  31.511  30.661  1.00  0.00     0.031 C 
ATOM     60  C   UNL A   1      43.570  29.734  32.372  1.00  0.00     0.034 A 
BRANCH  47  61
ATOM     61  C   UNL A   1      46.245  30.055  27.657  1.00  0.00     0.023 A 
ATOM     62  C   UNL A   1      47.637  30.287  27.655  1.00  0.00     0.012 A 
ATOM     63  C   UNL A   1      45.419  31.077  27.135  1.00  0.00     0.148 A 
ATOM     64  C   UNL A   1      48.177  31.481  27.159  1.00  0.00     0.002 A 
ATOM     65  C   UNL A   1      45.963  32.227  26.577  1.00  0.00     0.091 A 
ATOM     66  F   UNL A   1      44.093  31.004  27.301  1.00  0.00    -0.205 F 
ATOM     67  C   UNL A   1      47.341  32.444  26.606  1.00  0.00     0.022 A 
BRANCH  65  68
ATOM     68  S   UNL A   1      44.927  33.491  25.831  1.00  0.00     0.127 S 
ATOM     69  O   UNL A   1      44.175  33.970  26.986  1.00  0.00    -0.237 OA
ATOM     70  O   UNL A   1      45.927  34.423  25.307  1.00  0.00    -0.237 OA
ATOM     71  O   UNL A   1      44.156  32.804  24.802  1.00  0.00    -0.744 OA
ENDBRANCH  65  68
ENDBRANCH  47  61
BRANCH  48  72
ATOM     72  C   UNL A   1      38.338  31.724  30.596  1.00  0.00     0.023 A 
ATOM     73  C   UNL A   1      37.839  31.928  29.288  1.00  0.00     0.012 A 
ATOM     74  C   UNL A   1      37.566  32.202  31.677  1.00  0.00     0.148 A 
ATOM     75  C   UNL A   1      36.583  32.507  29.069  1.00  0.00     0.002 A 
ATOM     76  C   UNL A   1      36.319  32.785  31.452  1.00  0.00     0.091 A 
ATOM     77  F   UNL A   1      38.002  31.995  32.925  1.00  0.00    -0.205 F 
ATOM     78  C   UNL A   1      35.815  32.920  30.151  1.00  0.00     0.022 A 
BRANCH  76  79
ATOM     79  S   UNL A   1      35.262  33.331  32.800  1.00  0.00     0.127 S 
ATOM     80  O   UNL A   1      33.972  32.745  32.434  1.00  0.00    -0.237 OA
ATOM     81  O   UNL A   1      35.907  32.717  33.957  1.00  0.00    -0.237 OA
ATOM     82  O   UNL A   1      35.290  34.788  32.757  1.00  0.00    -0.744 OA
ENDBRANCH  76  79
ENDBRANCH  48  72
BRANCH  60  83
ATOM     83  C   UNL A   1      43.101  28.971  33.582  1.00  0.00     0.023 A 
ATOM     84  C   UNL A   1      42.162  27.921  33.502  1.00  0.00     0.012 A 
ATOM     85  C   UNL A   1      43.770  29.202  34.794  1.00  0.00     0.148 A 
ATOM     86  C   UNL A   1      41.897  27.118  34.616  1.00  0.00     0.002 A 
ATOM     87  C   UNL A   1      43.535  28.377  35.884  1.00  0.00     0.091 A 
ATOM     88  F   UNL A   1      44.664  30.201  34.837  1.00  0.00    -0.205 F 
ATOM     89  C   UNL A   1      42.596  27.336  35.802  1.00  0.00     0.022 A 
BRANCH  87  90
ATOM     90  S   UNL A   1      44.479  28.530  37.401  1.00  0.00     0.127 S 
ATOM     91  O   UNL A   1      45.854  28.529  36.906  1.00  0.00    -0.237 OA
ATOM     92  O   UNL A   1      44.015  29.816  37.923  1.00  0.00    -0.237 OA
ATOM     93  O   UNL A   1      44.115  27.383  38.224  1.00  0.00    -0.744 OA
ENDBRANCH  87  90
ENDBRANCH  60  83
ENDBRANCH  34  35
ENDBRANCH  26  29
ENDBRANCH  24  25
ENDBRANCH  23  24
ENDBRANCH   1  23
TORSDOF 18
ENDMDL
MODEL 3
REMARK VINA RESULT:     -11.3      2.966      8.711
REMARK SMILES CCn1c(=O)n(CC)c2cc(C(=O)NCCCCCCNC(=O)c3ccc(-c4c5nc(c(-c6cccc(S(=O)(=O)[O-])c6F)c6ccc([nH]6)c(-c6cccc(S(=O)(=O)[O-])c6F)c6nc(c(-c7cccc(S(=O)(=O)[O-])c7F)c7ccc4[nH]7)C=C6)C=C5)cc3)ccc21
REMARK SMILES IDX 18 1 17 2 16 3 15 4 14 5 12 6 13 7 11 9 3 10 4 11 89 12 5 13
REMARK SMILES IDX 6 14 9 15 88 16 10 17 87 18 2 19 1 20 7 21 8 22 19 23 20 24
REMARK SMILES IDX 21 25 22 26 23 28 24 29 25 30 86 31 26 32 85 33 27 34 28 35
REMARK SMILES IDX 29 36 79 37 30 38 84 39 78 40 80 41 31 42 83 43 77 44 76 45
REMARK SMILES IDX 32 47 64 48 44 49 63 50 45 51 48 52 62 53 81 54 46 55 47 56
REMARK SMILES IDX 61 58 82 59 49 60 33 61 34 62 42 63 35 64 37 65 43 66 36 67
REMARK SMILES IDX 38 68 39 69 40 70 41 71 65 72 66 73 74 74 67 75 69 76 75 77
REMARK SMILES IDX 68 78 70 79 71 80 72 81 73 82 50 83 51 84 59 85 52 86 54 87
REMARK SMILES IDX 60 88 53 89 55 90 56 91 57 92 58 93
REMARK H PARENT 14 8 21 27 80 46 48 57
REMARK Flexibility Score: inf
ROOT
ATOM      1  C   UNL A   1      35.398  21.989  26.282  1.00  0.00     0.002 C 
ENDROOT
BRANCH   1   2
ATOM      2  C   UNL A   1      33.942  21.586  26.011  1.00  0.00     0.002 C 
BRANCH   2   3
ATOM      3  C   UNL A   1      33.690  21.037  24.600  1.00  0.00     0.021 C 
BRANCH   3   4
ATOM      4  C   UNL A   1      32.516  21.725  23.902  1.00  0.00     0.116 C 
BRANCH   4   5
ATOM      5  N   UNL A   1      32.997  22.475  22.760  1.00  0.00    -0.352 N 
ATOM      6  C   UNL A   1      33.254  23.800  22.541  1.00  0.00     0.251 C 
ATOM      7  O   UNL A   1      33.613  24.118  21.404  1.00  0.00    -0.269 OA
ATOM      8  H   UNL A   1      33.179  21.910  21.973  1.00  0.00     0.163 HD
BRANCH   6   9
ATOM      9  C   UNL A   1      33.184  24.863  23.590  1.00  0.00     0.042 A 
ATOM     10  N   UNL A   1      32.820  28.213  26.025  1.00  0.00    -0.292 N 
ATOM     11  C   UNL A   1      31.905  28.982  25.273  1.00  0.00     0.329 A 
ATOM     12  C   UNL A   1      33.055  27.008  25.354  1.00  0.00     0.069 A 
ATOM     13  O   UNL A   1      31.461  30.087  25.566  1.00  0.00    -0.248 OA
ATOM     14  N   UNL A   1      31.595  28.220  24.125  1.00  0.00    -0.292 N 
ATOM     15  C   UNL A   1      32.318  27.019  24.173  1.00  0.00     0.070 A 
ATOM     16  C   UNL A   1      33.822  25.924  25.714  1.00  0.00     0.029 A 
ATOM     17  C   UNL A   1      32.371  25.970  23.279  1.00  0.00     0.042 A 
ATOM     18  C   UNL A   1      33.847  24.830  24.836  1.00  0.00     0.016 A 
BRANCH  10  19
ATOM     19  C   UNL A   1      33.454  28.631  27.249  1.00  0.00     0.124 C 
ATOM     20  C   UNL A   1      34.857  29.163  27.005  1.00  0.00     0.028 C 
ENDBRANCH  10  19
BRANCH  14  21
ATOM     21  C   UNL A   1      30.639  28.591  23.112  1.00  0.00     0.124 C 
ATOM     22  C   UNL A   1      29.275  27.950  23.302  1.00  0.00     0.028 C 
ENDBRANCH  14  21
ENDBRANCH   6   9
ENDBRANCH   4   5
ENDBRANCH   3   4
ENDBRANCH   2   3
ENDBRANCH   1   2
BRANCH   1  23
ATOM     23  C   UNL A   1      36.408  21.507  25.233  1.00  0.00     0.021 C 
BRANCH  23  24
ATOM     24  C   UNL A   1      37.763  22.208  25.320  1.00  0.00     0.116 C 
BRANCH  24  25
ATOM     25  N   UNL A   1      38.805  21.370  25.872  1.00  0.00    -0.352 N 
ATOM     26  C   UNL A   1      39.891  21.586  26.674  1.00  0.00     0.251 C 
ATOM     27  H   UNL A   1      38.709  20.426  25.611  1.00  0.00     0.163 HD
ATOM     28  O   UNL A   1      40.540  20.582  26.975  1.00  0.00    -0.269 OA
BRANCH  26  29
ATOM     29  C   UNL A   1      40.368  22.920  27.128  1.00  0.00     0.039 A 
ATOM     30  C   UNL A   1      41.427  23.151  28.006  1.00  0.00     0.014 A 
ATOM     31  C   UNL A   1      39.635  24.024  26.653  1.00  0.00     0.014 A 
ATOM     32  C   UNL A   1      41.664  24.428  28.498  1.00  0.00     0.010 A 
ATOM     33  C   UNL A   1      39.886  25.308  27.118  1.00  0.00     0.010 A 
ATOM     34  C   UNL A   1      40.863  25.497  28.087  1.00  0.00    -0.014 A 
BRANCH  34  35
ATOM     35  C   UNL A   1      41.176  26.824  28.604  1.00  0.00     0.031 A 
ATOM     36  C   UNL A   1      42.489  27.351  28.135  1.00  0.00     0.074 A 
ATOM     37  C   UNL A   1      40.322  27.546  29.360  1.00  0.00     0.049 A 
ATOM     38  N   UNL A   1      43.553  27.574  28.836  1.00  0.00    -0.248 NA
ATOM     39  C   UNL A   1      42.689  27.489  26.682  1.00  0.00     0.031 C 
ATOM     40  C   UNL A   1      38.919  27.248  29.664  1.00  0.00     0.029 A 
ATOM     41  N   UNL A   1      40.498  28.773  29.925  1.00  0.00    -0.354 N 
ATOM     42  C   UNL A   1      44.481  28.106  27.942  1.00  0.00     0.074 A 
ATOM     43  C   UNL A   1      43.966  27.867  26.620  1.00  0.00     0.031 C 
ATOM     44  C   UNL A   1      38.315  28.364  30.132  1.00  0.00     0.029 A 
ATOM     45  C   UNL A   1      39.311  29.405  30.300  1.00  0.00     0.049 A 
ATOM     46  H   UNL A   1      41.385  29.179  30.059  1.00  0.00     0.167 HD
ATOM     47  C   UNL A   1      45.481  28.933  28.353  1.00  0.00     0.034 A 
ATOM     48  C   UNL A   1      39.170  30.709  30.653  1.00  0.00     0.034 A 
ATOM     49  C   UNL A   1      45.683  28.874  29.772  1.00  0.00     0.049 A 
ATOM     50  C   UNL A   1      40.512  31.179  31.061  1.00  0.00     0.074 A 
ATOM     51  C   UNL A   1      46.079  27.909  30.673  1.00  0.00     0.029 A 
ATOM     52  N   UNL A   1      45.078  29.866  30.502  1.00  0.00    -0.354 N 
ATOM     53  N   UNL A   1      41.142  30.747  32.115  1.00  0.00    -0.248 NA
ATOM     54  C   UNL A   1      41.325  31.870  30.076  1.00  0.00     0.031 C 
ATOM     55  C   UNL A   1      45.308  28.161  31.845  1.00  0.00     0.029 A 
ATOM     56  C   UNL A   1      44.527  29.296  31.617  1.00  0.00     0.049 A 
ATOM     57  H   UNL A   1      45.047  30.821  30.264  1.00  0.00     0.167 HD
ATOM     58  C   UNL A   1      42.470  30.706  31.721  1.00  0.00     0.074 A 
ATOM     59  C   UNL A   1      42.538  31.527  30.516  1.00  0.00     0.031 C 
ATOM     60  C   UNL A   1      43.319  29.777  32.246  1.00  0.00     0.034 A 
BRANCH  47  61
ATOM     61  C   UNL A   1      46.001  30.086  27.533  1.00  0.00     0.023 A 
ATOM     62  C   UNL A   1      47.393  30.312  27.500  1.00  0.00     0.012 A 
ATOM     63  C   UNL A   1      45.168  31.113  27.032  1.00  0.00     0.148 A 
ATOM     64  C   UNL A   1      47.927  31.504  26.994  1.00  0.00     0.002 A 
ATOM     65  C   UNL A   1      45.704  32.262  26.463  1.00  0.00     0.091 A 
ATOM     66  F   UNL A   1      43.846  31.046  27.228  1.00  0.00    -0.205 F 
ATOM     67  C   UNL A   1      47.084  32.472  26.461  1.00  0.00     0.022 A 
BRANCH  65  68
ATOM     68  S   UNL A   1      44.658  33.532  25.743  1.00  0.00     0.127 S 
ATOM     69  O   UNL A   1      44.003  34.076  26.928  1.00  0.00    -0.237 OA
ATOM     70  O   UNL A   1      45.646  34.410  25.117  1.00  0.00    -0.237 OA
ATOM     71  O   UNL A   1      43.796  32.834  24.796  1.00  0.00    -0.744 OA
ENDBRANCH  65  68
ENDBRANCH  47  61
BRANCH  48  72
ATOM     72  C   UNL A   1      38.066  31.681  30.439  1.00  0.00     0.023 A 
ATOM     73  C   UNL A   1      37.429  31.719  29.176  1.00  0.00     0.012 A 
ATOM     74  C   UNL A   1      37.417  32.311  31.522  1.00  0.00     0.148 A 
ATOM     75  C   UNL A   1      36.159  32.287  29.017  1.00  0.00     0.002 A 
ATOM     76  C   UNL A   1      36.156  32.881  31.356  1.00  0.00     0.091 A 
ATOM     77  F   UNL A   1      37.985  32.264  32.733  1.00  0.00    -0.205 F 
ATOM     78  C   UNL A   1      35.514  32.852  30.110  1.00  0.00     0.022 A 
BRANCH  76  79
ATOM     79  S   UNL A   1      35.252  33.619  32.725  1.00  0.00     0.127 S 
ATOM     80  O   UNL A   1      35.976  34.874  32.930  1.00  0.00    -0.237 OA
ATOM     81  O   UNL A   1      33.915  33.769  32.158  1.00  0.00    -0.237 OA
ATOM     82  O   UNL A   1      35.370  32.674  33.829  1.00  0.00    -0.744 OA
ENDBRANCH  76  79
ENDBRANCH  48  72
BRANCH  60  83
ATOM     83  C   UNL A   1      42.858  29.020  33.462  1.00  0.00     0.023 A 
ATOM     84  C   UNL A   1      41.908  27.980  33.395  1.00  0.00     0.012 A 
ATOM     85  C   UNL A   1      43.544  29.246  34.665  1.00  0.00     0.148 A 
ATOM     86  C   UNL A   1      41.649  27.180  34.513  1.00  0.00     0.002 A 
ATOM     87  C   UNL A   1      43.314  28.425  35.759  1.00  0.00     0.091 A 
ATOM     88  F   UNL A   1      44.448  30.237  34.697  1.00  0.00    -0.205 F 
ATOM     89  C   UNL A   1      42.364  27.392  35.690  1.00  0.00     0.022 A 
BRANCH  87  90
ATOM     90  S   UNL A   1      44.277  28.571  37.265  1.00  0.00     0.127 S 
ATOM     91  O   UNL A   1      45.646  28.583  36.752  1.00  0.00    -0.237 OA
ATOM     92  O   UNL A   1      43.812  29.849  37.804  1.00  0.00    -0.237 OA
ATOM     93  O   UNL A   1      43.932  27.414  38.082  1.00  0.00    -0.744 OA
ENDBRANCH  87  90
ENDBRANCH  60  83
ENDBRANCH  34  35
ENDBRANCH  26  29
ENDBRANCH  24  25
ENDBRANCH  23  24
ENDBRANCH   1  23
TORSDOF 18
ENDMDL
