MODEL 1
REMARK VINA RESULT:     -11.0      0.000      0.000
REMARK SMILES COc1ccc(CCN2C(=O)C[C@@H](C(=O)NCCCCCCNC(=O)c3ccc(-c4c5nc(c(-c6cccc(S(=O)(=O)[O-])c6F)c6ccc([nH]6)c(-c6cccc(S(=O)(=O)[O-])c6F)c6nc(c(-c7cccc(S(=O)(=O)[O-])c7F)c7ccc4[nH]7)C=C6)C=C5)cc3)S/C2=[NH+]\c2ccc(F)cc2)cc1OC
REMARK SMILES IDX 19 1 18 2 17 3 16 4 14 5 15 6 13 8 9 9 10 10 90 11 11 12
REMARK SMILES IDX 12 13 89 14 91 15 8 17 7 18 6 19 3 20 4 21 100 22 5 23 99 24
REMARK SMILES IDX 2 25 1 26 101 27 102 28 92 29 93 30 98 31 94 32 97 33 95 34
REMARK SMILES IDX 96 35 20 36 21 37 22 38 23 39 24 40 25 42 26 43 27 44 88 45
REMARK SMILES IDX 28 46 87 47 29 48 30 49 31 50 81 51 32 52 86 53 80 54 82 55
REMARK SMILES IDX 33 56 85 57 79 58 78 59 34 61 66 62 46 63 65 64 47 65 50 66
REMARK SMILES IDX 64 67 83 68 48 69 49 70 63 72 84 73 51 74 35 75 36 76 44 77
REMARK SMILES IDX 37 78 39 79 45 80 38 81 40 82 41 83 42 84 43 85 67 86 68 87
REMARK SMILES IDX 76 88 69 89 71 90 77 91 70 92 72 93 73 94 74 95 75 96 52 97
REMARK SMILES IDX 53 98 61 99 54 100 56 101 62 102 55 103 57 104 58 105 59 106
REMARK SMILES IDX 60 107
REMARK H PARENT 16 7 91 16 23 41 82 60 50 71
REMARK Flexibility Score: inf
ROOT
ATOM      1  C   UNL A   1      36.369  31.481  28.243  1.00  0.00     0.002 C 
ENDROOT
BRANCH   1   2
ATOM      2  C   UNL A   1      36.364  30.137  27.510  1.00  0.00     0.021 C 
BRANCH   2   3
ATOM      3  C   UNL A   1      35.017  29.410  27.526  1.00  0.00     0.116 C 
BRANCH   3   4
ATOM      4  N   UNL A   1      33.883  30.325  27.544  1.00  0.00    -0.355 N 
ATOM      5  C   UNL A   1      32.604  30.179  27.085  1.00  0.00     0.234 C 
ATOM      6  O   UNL A   1      31.828  31.127  27.240  1.00  0.00    -0.274 OA
ATOM      7  H   UNL A   1      34.071  31.199  27.956  1.00  0.00     0.163 HD
BRANCH   5   8
ATOM      8  C   UNL A   1      32.123  28.893  26.413  1.00  0.00     0.160 C 
ATOM      9  N   UNL A   1      32.614  26.646  24.564  1.00  0.00    -0.191 N 
ATOM     10  C   UNL A   1      32.815  26.460  25.927  1.00  0.00     0.311 C 
ATOM     11  C   UNL A   1      31.691  27.576  24.135  1.00  0.00     0.319 C 
ATOM     12  O   UNL A   1      33.011  25.345  26.415  1.00  0.00    -0.247 OA
ATOM     13  C   UNL A   1      32.948  27.689  26.806  1.00  0.00     0.153 C 
ATOM     14  S   UNL A   1      32.067  29.182  24.643  1.00  0.00    -0.024 SA
ATOM     15  N   UNL A   1      30.648  27.230  23.451  1.00  0.00    -0.235 N 
ATOM     16  H   UNL A   1      30.491  26.266  23.336  1.00  0.00     0.313 HD
BRANCH   9  17
ATOM     17  C   UNL A   1      33.705  26.114  23.710  1.00  0.00     0.251 C 
BRANCH  17  18
ATOM     18  C   UNL A   1      33.607  24.756  22.976  1.00  0.00     0.082 C 
BRANCH  18  19
ATOM     19  C   UNL A   1      34.448  23.626  23.535  1.00  0.00    -0.040 A 
ATOM     20  C   UNL A   1      36.220  21.673  24.594  1.00  0.00     0.160 A 
ATOM     21  C   UNL A   1      36.619  22.530  23.580  1.00  0.00     0.051 A 
ATOM     22  C   UNL A   1      34.879  21.710  25.007  1.00  0.00     0.160 A 
ATOM     23  C   UNL A   1      35.716  23.423  23.018  1.00  0.00     0.008 A 
ATOM     24  C   UNL A   1      34.018  22.721  24.518  1.00  0.00     0.054 A 
BRANCH  20  25
ATOM     25  O   UNL A   1      37.099  20.826  25.213  1.00  0.00    -0.493 OA
ATOM     26  C   UNL A   1      38.357  21.377  25.585  1.00  0.00     0.278 C 
ENDBRANCH  20  25
BRANCH  22  27
ATOM     27  O   UNL A   1      34.285  20.815  25.864  1.00  0.00    -0.493 OA
ATOM     28  C   UNL A   1      33.842  21.343  27.117  1.00  0.00     0.278 C 
ENDBRANCH  22  27
ENDBRANCH  18  19
ENDBRANCH  17  18
ENDBRANCH   9  17
BRANCH  15  29
ATOM     29  C   UNL A   1      29.708  28.111  22.850  1.00  0.00     0.125 A 
ATOM     30  C   UNL A   1      30.214  29.128  22.030  1.00  0.00     0.055 A 
ATOM     31  C   UNL A   1      28.349  28.206  23.210  1.00  0.00     0.055 A 
ATOM     32  C   UNL A   1      29.404  30.190  21.599  1.00  0.00     0.043 A 
ATOM     33  C   UNL A   1      27.527  29.244  22.766  1.00  0.00     0.043 A 
ATOM     34  C   UNL A   1      28.068  30.238  21.975  1.00  0.00     0.123 A 
ATOM     35  F   UNL A   1      27.304  31.275  21.607  1.00  0.00    -0.207 F 
ENDBRANCH  15  29
ENDBRANCH   5   8
ENDBRANCH   3   4
ENDBRANCH   2   3
ENDBRANCH   1   2
BRANCH   1  36
ATOM     36  C   UNL A   1      37.377  31.582  29.391  1.00  0.00     0.002 C 
BRANCH  36  37
ATOM     37  C   UNL A   1      36.982  30.828  30.665  1.00  0.00     0.021 C 
BRANCH  37  38
ATOM     38  C   UNL A   1      37.145  29.316  30.581  1.00  0.00     0.116 C 
BRANCH  38  39
ATOM     39  N   UNL A   1      37.652  28.759  31.825  1.00  0.00    -0.352 N 
ATOM     40  C   UNL A   1      38.942  28.703  32.292  1.00  0.00     0.251 C 
ATOM     41  H   UNL A   1      36.972  28.364  32.418  1.00  0.00     0.163 HD
ATOM     42  O   UNL A   1      39.215  27.996  33.254  1.00  0.00    -0.269 OA
BRANCH  40  43
ATOM     43  C   UNL A   1      39.999  29.492  31.621  1.00  0.00     0.039 A 
ATOM     44  C   UNL A   1      40.713  30.434  32.364  1.00  0.00     0.014 A 
ATOM     45  C   UNL A   1      40.278  29.306  30.265  1.00  0.00     0.014 A 
ATOM     46  C   UNL A   1      41.743  31.156  31.756  1.00  0.00     0.010 A 
ATOM     47  C   UNL A   1      41.355  29.968  29.682  1.00  0.00     0.010 A 
ATOM     48  C   UNL A   1      42.092  30.908  30.417  1.00  0.00    -0.014 A 
BRANCH  48  49
ATOM     49  C   UNL A   1      43.231  31.614  29.777  1.00  0.00     0.031 A 
ATOM     50  C   UNL A   1      44.543  30.906  29.568  1.00  0.00     0.074 A 
ATOM     51  C   UNL A   1      43.108  32.918  29.457  1.00  0.00     0.049 A 
ATOM     52  N   UNL A   1      45.655  31.369  29.059  1.00  0.00    -0.248 NA
ATOM     53  C   UNL A   1      44.626  29.502  30.006  1.00  0.00     0.031 C 
ATOM     54  C   UNL A   1      41.913  33.735  29.679  1.00  0.00     0.029 A 
ATOM     55  N   UNL A   1      44.006  33.792  28.898  1.00  0.00    -0.354 N 
ATOM     56  C   UNL A   1      46.579  30.334  29.155  1.00  0.00     0.074 A 
ATOM     57  C   UNL A   1      45.904  29.225  29.793  1.00  0.00     0.031 C 
ATOM     58  C   UNL A   1      42.147  34.985  29.250  1.00  0.00     0.029 A 
ATOM     59  C   UNL A   1      43.518  35.070  28.757  1.00  0.00     0.049 A 
ATOM     60  H   UNL A   1      44.914  33.529  28.624  1.00  0.00     0.167 HD
ATOM     61  C   UNL A   1      47.863  30.301  28.730  1.00  0.00     0.034 A 
ATOM     62  C   UNL A   1      44.111  36.188  28.291  1.00  0.00     0.034 A 
ATOM     63  C   UNL A   1      48.517  31.391  28.057  1.00  0.00     0.049 A 
ATOM     64  C   UNL A   1      45.530  36.111  27.798  1.00  0.00     0.074 A 
ATOM     65  C   UNL A   1      49.781  31.419  27.496  1.00  0.00     0.029 A 
ATOM     66  N   UNL A   1      47.967  32.649  27.869  1.00  0.00    -0.354 N 
ATOM     67  N   UNL A   1      46.330  35.073  27.740  1.00  0.00    -0.248 NA
ATOM     68  C   UNL A   1      46.118  37.351  27.272  1.00  0.00     0.031 C 
ATOM     69  C   UNL A   1      50.011  32.707  27.002  1.00  0.00     0.029 A 
ATOM     70  C   UNL A   1      48.874  33.468  27.218  1.00  0.00     0.049 A 
ATOM     71  H   UNL A   1      47.065  32.920  28.155  1.00  0.00     0.167 HD
ATOM     72  C   UNL A   1      47.497  35.526  27.135  1.00  0.00     0.074 A 
ATOM     73  C   UNL A   1      47.292  36.925  26.826  1.00  0.00     0.031 C 
ATOM     74  C   UNL A   1      48.640  34.846  26.869  1.00  0.00     0.034 A 
BRANCH  61  75
ATOM     75  C   UNL A   1      48.647  29.032  28.945  1.00  0.00     0.023 A 
ATOM     76  C   UNL A   1      49.477  28.902  30.078  1.00  0.00     0.012 A 
ATOM     77  C   UNL A   1      48.505  27.941  28.065  1.00  0.00     0.148 A 
ATOM     78  C   UNL A   1      50.175  27.719  30.315  1.00  0.00     0.002 A 
ATOM     79  C   UNL A   1      49.166  26.748  28.334  1.00  0.00     0.091 A 
ATOM     80  F   UNL A   1      47.727  28.089  26.983  1.00  0.00    -0.205 F 
ATOM     81  C   UNL A   1      50.011  26.640  29.450  1.00  0.00     0.022 A 
BRANCH  79  82
ATOM     82  S   UNL A   1      48.957  25.275  27.329  1.00  0.00     0.127 S 
ATOM     83  O   UNL A   1      50.024  24.415  27.840  1.00  0.00    -0.237 OA
ATOM     84  O   UNL A   1      47.604  24.848  27.690  1.00  0.00    -0.237 OA
ATOM     85  O   UNL A   1      49.111  25.703  25.947  1.00  0.00    -0.744 OA
ENDBRANCH  79  82
ENDBRANCH  61  75
BRANCH  62  86
ATOM     86  C   UNL A   1      43.346  37.465  28.210  1.00  0.00     0.023 A 
ATOM     87  C   UNL A   1      42.509  37.700  27.102  1.00  0.00     0.012 A 
ATOM     88  C   UNL A   1      43.440  38.444  29.218  1.00  0.00     0.148 A 
ATOM     89  C   UNL A   1      41.812  38.903  26.978  1.00  0.00     0.002 A 
ATOM     90  C   UNL A   1      42.698  39.615  29.118  1.00  0.00     0.091 A 
ATOM     91  F   UNL A   1      44.249  38.206  30.260  1.00  0.00    -0.205 F 
ATOM     92  C   UNL A   1      41.900  39.856  27.989  1.00  0.00     0.022 A 
BRANCH  90  93
ATOM     93  S   UNL A   1      42.650  40.839  30.431  1.00  0.00     0.127 S 
ATOM     94  O   UNL A   1      43.086  40.057  31.585  1.00  0.00    -0.237 OA
ATOM     95  O   UNL A   1      43.616  41.829  29.955  1.00  0.00    -0.237 OA
ATOM     96  O   UNL A   1      41.274  41.316  30.473  1.00  0.00    -0.744 OA
ENDBRANCH  90  93
ENDBRANCH  62  86
BRANCH  74  97
ATOM     97  C   UNL A   1      49.747  35.586  26.164  1.00  0.00     0.023 A 
ATOM     98  C   UNL A   1      49.899  35.466  24.769  1.00  0.00     0.012 A 
ATOM     99  C   UNL A   1      50.592  36.457  26.880  1.00  0.00     0.148 A 
ATOM    100  C   UNL A   1      50.901  36.173  24.103  1.00  0.00     0.002 A 
ATOM    101  C   UNL A   1      51.551  37.200  26.202  1.00  0.00     0.091 A 
ATOM    102  F   UNL A   1      50.441  36.544  28.209  1.00  0.00    -0.205 F 
ATOM    103  C   UNL A   1      51.717  37.048  24.817  1.00  0.00     0.022 A 
BRANCH 101 104
ATOM    104  S   UNL A   1      52.576  38.425  27.021  1.00  0.00     0.127 S 
ATOM    105  O   UNL A   1      53.361  37.595  27.934  1.00  0.00    -0.237 OA
ATOM    106  O   UNL A   1      53.335  38.990  25.906  1.00  0.00    -0.237 OA
ATOM    107  O   UNL A   1      51.658  39.357  27.662  1.00  0.00    -0.744 OA
ENDBRANCH 101 104
ENDBRANCH  74  97
ENDBRANCH  48  49
ENDBRANCH  40  43
ENDBRANCH  38  39
ENDBRANCH  37  38
ENDBRANCH  36  37
ENDBRANCH   1  36
TORSDOF 22
ENDMDL
MODEL 2
REMARK VINA RESULT:     -10.9      8.251     12.719
REMARK SMILES COc1ccc(CCN2C(=O)C[C@@H](C(=O)NCCCCCCNC(=O)c3ccc(-c4c5nc(c(-c6cccc(S(=O)(=O)[O-])c6F)c6ccc([nH]6)c(-c6cccc(S(=O)(=O)[O-])c6F)c6nc(c(-c7cccc(S(=O)(=O)[O-])c7F)c7ccc4[nH]7)C=C6)C=C5)cc3)S/C2=[NH+]\c2ccc(F)cc2)cc1OC
REMARK SMILES IDX 19 1 18 2 17 3 16 4 14 5 15 6 13 8 9 9 10 10 90 11 11 12
REMARK SMILES IDX 12 13 89 14 91 15 8 17 7 18 6 19 3 20 4 21 100 22 5 23 99 24
REMARK SMILES IDX 2 25 1 26 101 27 102 28 92 29 93 30 98 31 94 32 97 33 95 34
REMARK SMILES IDX 96 35 20 36 21 37 22 38 23 39 24 40 25 42 26 43 27 44 88 45
REMARK SMILES IDX 28 46 87 47 29 48 30 49 31 50 81 51 32 52 86 53 80 54 82 55
REMARK SMILES IDX 33 56 85 57 79 58 78 59 34 61 66 62 46 63 65 64 47 65 50 66
REMARK SMILES IDX 64 67 83 68 48 69 49 70 63 72 84 73 51 74 35 75 36 76 44 77
REMARK SMILES IDX 37 78 39 79 45 80 38 81 40 82 41 83 42 84 43 85 67 86 68 87
REMARK SMILES IDX 76 88 69 89 71 90 77 91 70 92 72 93 73 94 74 95 75 96 52 97
REMARK SMILES IDX 53 98 61 99 54 100 56 101 62 102 55 103 57 104 58 105 59 106
REMARK SMILES IDX 60 107
REMARK H PARENT 16 7 91 16 23 41 82 60 50 71
REMARK Flexibility Score: inf
ROOT
ATOM      1  C   UNL A   1      39.612  31.824  35.290  1.00  0.00     0.002 C 
ENDROOT
BRANCH   1   2
ATOM      2  C   UNL A   1      39.859  30.347  34.978  1.00  0.00     0.021 C 
BRANCH   2   3
ATOM      3  C   UNL A   1      41.079  29.745  35.681  1.00  0.00     0.116 C 
BRANCH   3   4
ATOM      4  N   UNL A   1      40.775  28.494  36.364  1.00  0.00    -0.355 N 
ATOM      5  C   UNL A   1      41.477  27.325  36.452  1.00  0.00     0.234 C 
ATOM      6  O   UNL A   1      40.983  26.408  37.116  1.00  0.00    -0.274 OA
ATOM      7  H   UNL A   1      39.915  28.490  36.843  1.00  0.00     0.163 HD
BRANCH   5   8
ATOM      8  C   UNL A   1      42.834  27.138  35.773  1.00  0.00     0.160 C 
ATOM      9  N   UNL A   1      44.719  25.436  34.270  1.00  0.00    -0.191 N 
ATOM     10  C   UNL A   1      43.929  26.347  33.579  1.00  0.00     0.311 C 
ATOM     11  C   UNL A   1      45.068  25.695  35.578  1.00  0.00     0.319 C 
ATOM     12  O   UNL A   1      44.114  26.605  32.388  1.00  0.00    -0.247 OA
ATOM     13  C   UNL A   1      42.712  26.918  34.282  1.00  0.00     0.153 C 
ATOM     14  S   UNL A   1      43.703  25.821  36.627  1.00  0.00    -0.024 SA
ATOM     15  N   UNL A   1      46.303  25.852  35.932  1.00  0.00    -0.235 N 
ATOM     16  H   UNL A   1      46.972  25.877  35.211  1.00  0.00     0.313 HD
BRANCH   9  17
ATOM     17  C   UNL A   1      44.766  24.085  33.657  1.00  0.00     0.251 C 
BRANCH  17  18
ATOM     18  C   UNL A   1      44.363  22.803  34.423  1.00  0.00     0.082 C 
BRANCH  18  19
ATOM     19  C   UNL A   1      45.473  22.084  35.163  1.00  0.00    -0.040 A 
ATOM     20  C   UNL A   1      47.374  20.642  36.706  1.00  0.00     0.160 A 
ATOM     21  C   UNL A   1      46.355  21.361  37.312  1.00  0.00     0.051 A 
ATOM     22  C   UNL A   1      47.519  20.737  35.314  1.00  0.00     0.160 A 
ATOM     23  C   UNL A   1      45.484  22.127  36.547  1.00  0.00     0.008 A 
ATOM     24  C   UNL A   1      46.537  21.409  34.546  1.00  0.00     0.054 A 
BRANCH  20  25
ATOM     25  O   UNL A   1      48.209  19.828  37.423  1.00  0.00    -0.493 OA
ATOM     26  C   UNL A   1      48.427  20.181  38.784  1.00  0.00     0.278 C 
ENDBRANCH  20  25
BRANCH  22  27
ATOM     27  O   UNL A   1      48.573  20.237  34.587  1.00  0.00    -0.493 OA
ATOM     28  C   UNL A   1      48.236  19.569  33.369  1.00  0.00     0.278 C 
ENDBRANCH  22  27
ENDBRANCH  18  19
ENDBRANCH  17  18
ENDBRANCH   9  17
BRANCH  15  29
ATOM     29  C   UNL A   1      46.784  25.990  37.262  1.00  0.00     0.125 A 
ATOM     30  C   UNL A   1      48.049  26.568  37.430  1.00  0.00     0.055 A 
ATOM     31  C   UNL A   1      46.218  25.369  38.393  1.00  0.00     0.055 A 
ATOM     32  C   UNL A   1      48.717  26.519  38.664  1.00  0.00     0.043 A 
ATOM     33  C   UNL A   1      46.861  25.336  39.632  1.00  0.00     0.043 A 
ATOM     34  C   UNL A   1      48.116  25.900  39.752  1.00  0.00     0.123 A 
ATOM     35  F   UNL A   1      48.770  25.808  40.917  1.00  0.00    -0.207 F 
ENDBRANCH  15  29
ENDBRANCH   5   8
ENDBRANCH   3   4
ENDBRANCH   2   3
ENDBRANCH   1   2
BRANCH   1  36
ATOM     36  C   UNL A   1      39.342  32.702  34.065  1.00  0.00     0.002 C 
BRANCH  36  37
ATOM     37  C   UNL A   1      37.867  33.031  33.819  1.00  0.00     0.021 C 
BRANCH  37  38
ATOM     38  C   UNL A   1      37.615  33.963  32.641  1.00  0.00     0.116 C 
BRANCH  38  39
ATOM     39  N   UNL A   1      36.733  33.358  31.654  1.00  0.00    -0.352 N 
ATOM     40  C   UNL A   1      37.024  32.445  30.671  1.00  0.00     0.251 C 
ATOM     41  H   UNL A   1      35.792  33.645  31.698  1.00  0.00     0.163 HD
ATOM     42  O   UNL A   1      36.208  32.218  29.786  1.00  0.00    -0.269 OA
BRANCH  40  43
ATOM     43  C   UNL A   1      38.329  31.748  30.680  1.00  0.00     0.039 A 
ATOM     44  C   UNL A   1      39.444  32.396  30.143  1.00  0.00     0.014 A 
ATOM     45  C   UNL A   1      38.449  30.460  31.207  1.00  0.00     0.014 A 
ATOM     46  C   UNL A   1      40.692  31.768  30.182  1.00  0.00     0.010 A 
ATOM     47  C   UNL A   1      39.704  29.870  31.316  1.00  0.00     0.010 A 
ATOM     48  C   UNL A   1      40.838  30.512  30.796  1.00  0.00    -0.014 A 
BRANCH  48  49
ATOM     49  C   UNL A   1      42.169  29.863  30.911  1.00  0.00     0.031 A 
ATOM     50  C   UNL A   1      42.576  28.788  29.940  1.00  0.00     0.074 A 
ATOM     51  C   UNL A   1      42.978  30.187  31.939  1.00  0.00     0.049 A 
ATOM     52  N   UNL A   1      43.680  28.086  29.905  1.00  0.00    -0.248 NA
ATOM     53  C   UNL A   1      41.612  28.435  28.884  1.00  0.00     0.031 C 
ATOM     54  C   UNL A   1      42.665  31.160  32.989  1.00  0.00     0.029 A 
ATOM     55  N   UNL A   1      44.220  29.717  32.286  1.00  0.00    -0.354 N 
ATOM     56  C   UNL A   1      43.527  27.185  28.858  1.00  0.00     0.074 A 
ATOM     57  C   UNL A   1      42.213  27.411  28.296  1.00  0.00     0.031 C 
ATOM     58  C   UNL A   1      43.690  31.223  33.852  1.00  0.00     0.029 A 
ATOM     59  C   UNL A   1      44.718  30.271  33.442  1.00  0.00     0.049 A 
ATOM     60  H   UNL A   1      44.708  29.046  31.756  1.00  0.00     0.167 HD
ATOM     61  C   UNL A   1      44.407  26.270  28.390  1.00  0.00     0.034 A 
ATOM     62  C   UNL A   1      45.869  30.034  34.102  1.00  0.00     0.034 A 
ATOM     63  C   UNL A   1      45.730  26.079  28.924  1.00  0.00     0.049 A 
ATOM     64  C   UNL A   1      46.841  29.032  33.539  1.00  0.00     0.074 A 
ATOM     65  C   UNL A   1      46.733  25.250  28.454  1.00  0.00     0.029 A 
ATOM     66  N   UNL A   1      46.226  26.709  30.053  1.00  0.00    -0.354 N 
ATOM     67  N   UNL A   1      46.747  28.314  32.446  1.00  0.00    -0.248 NA
ATOM     68  C   UNL A   1      48.094  28.834  34.282  1.00  0.00     0.031 C 
ATOM     69  C   UNL A   1      47.824  25.351  29.323  1.00  0.00     0.029 A 
ATOM     70  C   UNL A   1      47.515  26.273  30.309  1.00  0.00     0.049 A 
ATOM     71  H   UNL A   1      45.735  27.370  30.594  1.00  0.00     0.167 HD
ATOM     72  C   UNL A   1      47.943  27.612  32.349  1.00  0.00     0.074 A 
ATOM     73  C   UNL A   1      48.753  28.007  33.482  1.00  0.00     0.031 C 
ATOM     74  C   UNL A   1      48.331  26.712  31.411  1.00  0.00     0.034 A 
BRANCH  61  75
ATOM     75  C   UNL A   1      43.990  25.422  27.216  1.00  0.00     0.023 A 
ATOM     76  C   UNL A   1      44.450  25.740  25.922  1.00  0.00     0.012 A 
ATOM     77  C   UNL A   1      43.204  24.268  27.406  1.00  0.00     0.148 A 
ATOM     78  C   UNL A   1      44.109  24.942  24.831  1.00  0.00     0.002 A 
ATOM     79  C   UNL A   1      42.909  23.450  26.321  1.00  0.00     0.091 A 
ATOM     80  F   UNL A   1      42.760  23.992  28.640  1.00  0.00    -0.205 F 
ATOM     81  C   UNL A   1      43.350  23.792  25.032  1.00  0.00     0.022 A 
BRANCH  79  82
ATOM     82  S   UNL A   1      42.009  21.906  26.487  1.00  0.00     0.127 S 
ATOM     83  O   UNL A   1      42.628  21.090  25.443  1.00  0.00    -0.237 OA
ATOM     84  O   UNL A   1      42.343  21.502  27.854  1.00  0.00    -0.237 OA
ATOM     85  O   UNL A   1      40.606  22.230  26.273  1.00  0.00    -0.744 OA
ENDBRANCH  79  82
ENDBRANCH  61  75
BRANCH  62  86
ATOM     86  C   UNL A   1      46.198  30.801  35.338  1.00  0.00     0.023 A 
ATOM     87  C   UNL A   1      46.765  32.085  35.224  1.00  0.00     0.012 A 
ATOM     88  C   UNL A   1      45.952  30.271  36.619  1.00  0.00     0.148 A 
ATOM     89  C   UNL A   1      47.121  32.810  36.362  1.00  0.00     0.002 A 
ATOM     90  C   UNL A   1      46.254  31.022  37.749  1.00  0.00     0.091 A 
ATOM     91  F   UNL A   1      45.420  29.044  36.707  1.00  0.00    -0.205 F 
ATOM     92  C   UNL A   1      46.858  32.282  37.623  1.00  0.00     0.022 A 
BRANCH  90  93
ATOM     93  S   UNL A   1      45.832  30.478  39.408  1.00  0.00     0.127 S 
ATOM     94  O   UNL A   1      44.377  30.374  39.327  1.00  0.00    -0.237 OA
ATOM     95  O   UNL A   1      46.538  29.198  39.493  1.00  0.00    -0.237 OA
ATOM     96  O   UNL A   1      46.346  31.506  40.302  1.00  0.00    -0.744 OA
ENDBRANCH  90  93
ENDBRANCH  62  86
BRANCH  74  97
ATOM     97  C   UNL A   1      49.713  26.124  31.535  1.00  0.00     0.023 A 
ATOM     98  C   UNL A   1      50.811  26.768  30.930  1.00  0.00     0.012 A 
ATOM     99  C   UNL A   1      49.931  24.971  32.314  1.00  0.00     0.148 A 
ATOM    100  C   UNL A   1      52.099  26.248  31.065  1.00  0.00     0.002 A 
ATOM    101  C   UNL A   1      51.224  24.492  32.490  1.00  0.00     0.091 A 
ATOM    102  F   UNL A   1      48.872  24.364  32.868  1.00  0.00    -0.205 F 
ATOM    103  C   UNL A   1      52.306  25.120  31.855  1.00  0.00     0.022 A 
BRANCH 101 104
ATOM    104  S   UNL A   1      51.598  23.107  33.571  1.00  0.00     0.127 S 
ATOM    105  O   UNL A   1      53.059  23.072  33.515  1.00  0.00    -0.237 OA
ATOM    106  O   UNL A   1      51.048  23.555  34.850  1.00  0.00    -0.237 OA
ATOM    107  O   UNL A   1      50.925  21.951  32.995  1.00  0.00    -0.744 OA
ENDBRANCH 101 104
ENDBRANCH  74  97
ENDBRANCH  48  49
ENDBRANCH  40  43
ENDBRANCH  38  39
ENDBRANCH  37  38
ENDBRANCH  36  37
ENDBRANCH   1  36
TORSDOF 22
ENDMDL
MODEL 3
REMARK VINA RESULT:     -10.8      3.296      5.857
REMARK SMILES COc1ccc(CCN2C(=O)C[C@@H](C(=O)NCCCCCCNC(=O)c3ccc(-c4c5nc(c(-c6cccc(S(=O)(=O)[O-])c6F)c6ccc([nH]6)c(-c6cccc(S(=O)(=O)[O-])c6F)c6nc(c(-c7cccc(S(=O)(=O)[O-])c7F)c7ccc4[nH]7)C=C6)C=C5)cc3)S/C2=[NH+]\c2ccc(F)cc2)cc1OC
REMARK SMILES IDX 19 1 18 2 17 3 16 4 14 5 15 6 13 8 9 9 10 10 90 11 11 12
REMARK SMILES IDX 12 13 89 14 91 15 8 17 7 18 6 19 3 20 4 21 100 22 5 23 99 24
REMARK SMILES IDX 2 25 1 26 101 27 102 28 92 29 93 30 98 31 94 32 97 33 95 34
REMARK SMILES IDX 96 35 20 36 21 37 22 38 23 39 24 40 25 42 26 43 27 44 88 45
REMARK SMILES IDX 28 46 87 47 29 48 30 49 31 50 81 51 32 52 86 53 80 54 82 55
REMARK SMILES IDX 33 56 85 57 79 58 78 59 34 61 66 62 46 63 65 64 47 65 50 66
REMARK SMILES IDX 64 67 83 68 48 69 49 70 63 72 84 73 51 74 35 75 36 76 44 77
REMARK SMILES IDX 37 78 39 79 45 80 38 81 40 82 41 83 42 84 43 85 67 86 68 87
REMARK SMILES IDX 76 88 69 89 71 90 77 91 70 92 72 93 73 94 74 95 75 96 52 97
REMARK SMILES IDX 53 98 61 99 54 100 56 101 62 102 55 103 57 104 58 105 59 106
REMARK SMILES IDX 60 107
REMARK H PARENT 16 7 91 16 23 41 82 60 50 71
REMARK Flexibility Score: inf
ROOT
ATOM      1  C   UNL A   1      37.709  28.585  28.893  1.00  0.00     0.002 C 
ENDROOT
BRANCH   1   2
ATOM      2  C   UNL A   1      37.026  29.717  28.123  1.00  0.00     0.021 C 
BRANCH   2   3
ATOM      3  C   UNL A   1      35.626  29.379  27.605  1.00  0.00     0.116 C 
BRANCH   3   4
ATOM      4  N   UNL A   1      34.691  30.488  27.743  1.00  0.00    -0.355 N 
ATOM      5  C   UNL A   1      33.378  30.607  27.384  1.00  0.00     0.234 C 
ATOM      6  O   UNL A   1      32.810  31.675  27.631  1.00  0.00    -0.274 OA
ATOM      7  H   UNL A   1      35.071  31.291  28.168  1.00  0.00     0.163 HD
BRANCH   5   8
ATOM      8  C   UNL A   1      32.613  29.467  26.710  1.00  0.00     0.160 C 
ATOM      9  N   UNL A   1      32.524  27.274  24.737  1.00  0.00    -0.191 N 
ATOM     10  C   UNL A   1      32.804  26.980  26.066  1.00  0.00     0.311 C 
ATOM     11  C   UNL A   1      31.754  28.376  24.433  1.00  0.00     0.319 C 
ATOM     12  O   UNL A   1      32.833  25.822  26.489  1.00  0.00    -0.247 OA
ATOM     13  C   UNL A   1      33.234  28.115  26.976  1.00  0.00     0.153 C 
ATOM     14  S   UNL A   1      32.460  29.859  24.966  1.00  0.00    -0.024 SA
ATOM     15  N   UNL A   1      30.611  28.262  23.838  1.00  0.00    -0.235 N 
ATOM     16  H   UNL A   1      30.271  27.349  23.701  1.00  0.00     0.313 HD
BRANCH   9  17
ATOM     17  C   UNL A   1      33.422  26.604  23.764  1.00  0.00     0.251 C 
BRANCH  17  18
ATOM     18  C   UNL A   1      32.936  25.493  22.803  1.00  0.00     0.082 C 
BRANCH  18  19
ATOM     19  C   UNL A   1      33.051  24.069  23.308  1.00  0.00    -0.040 A 
ATOM     20  C   UNL A   1      33.186  21.322  24.024  1.00  0.00     0.160 A 
ATOM     21  C   UNL A   1      32.110  21.825  23.310  1.00  0.00     0.051 A 
ATOM     22  C   UNL A   1      34.155  22.224  24.490  1.00  0.00     0.160 A 
ATOM     23  C   UNL A   1      32.019  23.185  23.040  1.00  0.00     0.008 A 
ATOM     24  C   UNL A   1      34.112  23.579  24.083  1.00  0.00     0.054 A 
BRANCH  20  25
ATOM     25  O   UNL A   1      33.339  19.981  24.252  1.00  0.00    -0.493 OA
ATOM     26  C   UNL A   1      32.543  19.107  23.460  1.00  0.00     0.278 C 
ENDBRANCH  20  25
BRANCH  22  27
ATOM     27  O   UNL A   1      35.178  21.916  25.354  1.00  0.00    -0.493 OA
ATOM     28  C   UNL A   1      34.840  21.881  26.743  1.00  0.00     0.278 C 
ENDBRANCH  22  27
ENDBRANCH  18  19
ENDBRANCH  17  18
ENDBRANCH   9  17
BRANCH  15  29
ATOM     29  C   UNL A   1      29.800  29.328  23.363  1.00  0.00     0.125 A 
ATOM     30  C   UNL A   1      29.476  29.329  22.000  1.00  0.00     0.055 A 
ATOM     31  C   UNL A   1      29.516  30.506  24.082  1.00  0.00     0.055 A 
ATOM     32  C   UNL A   1      28.902  30.455  21.387  1.00  0.00     0.043 A 
ATOM     33  C   UNL A   1      28.922  31.623  23.488  1.00  0.00     0.043 A 
ATOM     34  C   UNL A   1      28.635  31.592  22.138  1.00  0.00     0.123 A 
ATOM     35  F   UNL A   1      28.134  32.684  21.547  1.00  0.00    -0.207 F 
ENDBRANCH  15  29
ENDBRANCH   5   8
ENDBRANCH   3   4
ENDBRANCH   2   3
ENDBRANCH   1   2
BRANCH   1  36
ATOM     36  C   UNL A   1      37.956  28.874  30.375  1.00  0.00     0.002 C 
BRANCH  36  37
ATOM     37  C   UNL A   1      36.811  29.597  31.091  1.00  0.00     0.021 C 
BRANCH  37  38
ATOM     38  C   UNL A   1      37.106  29.972  32.538  1.00  0.00     0.116 C 
BRANCH  38  39
ATOM     39  N   UNL A   1      37.081  31.413  32.736  1.00  0.00    -0.352 N 
ATOM     40  C   UNL A   1      38.085  32.333  32.566  1.00  0.00     0.251 C 
ATOM     41  H   UNL A   1      36.218  31.782  33.037  1.00  0.00     0.163 HD
ATOM     42  O   UNL A   1      37.952  33.472  32.998  1.00  0.00    -0.269 OA
BRANCH  40  43
ATOM     43  C   UNL A   1      39.330  31.940  31.870  1.00  0.00     0.039 A 
ATOM     44  C   UNL A   1      40.384  31.410  32.618  1.00  0.00     0.014 A 
ATOM     45  C   UNL A   1      39.458  32.100  30.488  1.00  0.00     0.014 A 
ATOM     46  C   UNL A   1      41.550  30.995  31.970  1.00  0.00     0.010 A 
ATOM     47  C   UNL A   1      40.587  31.614  29.836  1.00  0.00     0.010 A 
ATOM     48  C   UNL A   1      41.650  31.066  30.570  1.00  0.00    -0.014 A 
BRANCH  48  49
ATOM     49  C   UNL A   1      42.852  30.561  29.859  1.00  0.00     0.031 A 
ATOM     50  C   UNL A   1      42.978  29.100  29.521  1.00  0.00     0.074 A 
ATOM     51  C   UNL A   1      43.867  31.407  29.589  1.00  0.00     0.049 A 
ATOM     52  N   UNL A   1      43.966  28.473  28.936  1.00  0.00    -0.248 NA
ATOM     53  C   UNL A   1      41.860  28.223  29.908  1.00  0.00     0.031 C 
ATOM     54  C   UNL A   1      43.897  32.831  29.934  1.00  0.00     0.029 A 
ATOM     55  N   UNL A   1      45.080  31.189  28.985  1.00  0.00    -0.354 N 
ATOM     56  C   UNL A   1      43.610  27.129  28.924  1.00  0.00     0.074 A 
ATOM     57  C   UNL A   1      42.327  27.026  29.582  1.00  0.00     0.031 C 
ATOM     58  C   UNL A   1      45.061  33.359  29.525  1.00  0.00     0.029 A 
ATOM     59  C   UNL A   1      45.876  32.308  28.923  1.00  0.00     0.049 A 
ATOM     60  H   UNL A   1      45.353  30.313  28.629  1.00  0.00     0.167 HD
ATOM     61  C   UNL A   1      44.280  26.079  28.394  1.00  0.00     0.034 A 
ATOM     62  C   UNL A   1      47.125  32.469  28.443  1.00  0.00     0.034 A 
ATOM     63  C   UNL A   1      45.536  26.193  27.702  1.00  0.00     0.049 A 
ATOM     64  C   UNL A   1      47.831  31.289  27.833  1.00  0.00     0.074 A 
ATOM     65  C   UNL A   1      46.243  25.204  27.039  1.00  0.00     0.029 A 
ATOM     66  N   UNL A   1      46.281  27.356  27.598  1.00  0.00    -0.354 N 
ATOM     67  N   UNL A   1      47.403  30.060  27.677  1.00  0.00    -0.248 NA
ATOM     68  C   UNL A   1      49.180  31.527  27.297  1.00  0.00     0.031 C 
ATOM     69  C   UNL A   1      47.435  25.763  26.567  1.00  0.00     0.029 A 
ATOM     70  C   UNL A   1      47.450  27.107  26.899  1.00  0.00     0.049 A 
ATOM     71  H   UNL A   1      46.017  28.231  27.965  1.00  0.00     0.167 HD
ATOM     72  C   UNL A   1      48.410  29.390  26.992  1.00  0.00     0.074 A 
ATOM     73  C   UNL A   1      49.460  30.355  26.743  1.00  0.00     0.031 C 
ATOM     74  C   UNL A   1      48.465  28.089  26.612  1.00  0.00     0.034 A 
BRANCH  61  75
ATOM     75  C   UNL A   1      43.655  24.712  28.505  1.00  0.00     0.023 A 
ATOM     76  C   UNL A   1      43.921  23.909  29.633  1.00  0.00     0.012 A 
ATOM     77  C   UNL A   1      42.749  24.255  27.528  1.00  0.00     0.148 A 
ATOM     78  C   UNL A   1      43.317  22.660  29.772  1.00  0.00     0.002 A 
ATOM     79  C   UNL A   1      42.114  23.030  27.698  1.00  0.00     0.091 A 
ATOM     80  F   UNL A   1      42.524  25.023  26.454  1.00  0.00    -0.205 F 
ATOM     81  C   UNL A   1      42.406  22.226  28.812  1.00  0.00     0.022 A 
BRANCH  79  82
ATOM     82  S   UNL A   1      40.864  22.419  26.563  1.00  0.00     0.127 S 
ATOM     83  O   UNL A   1      41.666  22.108  25.380  1.00  0.00    -0.237 OA
ATOM     84  O   UNL A   1      40.349  21.249  27.275  1.00  0.00    -0.237 OA
ATOM     85  O   UNL A   1      39.905  23.502  26.398  1.00  0.00    -0.744 OA
ENDBRANCH  79  82
ENDBRANCH  61  75
BRANCH  62  86
ATOM     86  C   UNL A   1      47.771  33.813  28.465  1.00  0.00     0.023 A 
ATOM     87  C   UNL A   1      48.489  34.217  29.607  1.00  0.00     0.012 A 
ATOM     88  C   UNL A   1      47.680  34.690  27.367  1.00  0.00     0.148 A 
ATOM     89  C   UNL A   1      49.070  35.484  29.673  1.00  0.00     0.002 A 
ATOM     90  C   UNL A   1      48.309  35.928  27.415  1.00  0.00     0.091 A 
ATOM     91  F   UNL A   1      46.984  34.292  26.293  1.00  0.00    -0.205 F 
ATOM     92  C   UNL A   1      48.987  36.336  28.575  1.00  0.00     0.022 A 
BRANCH  90  93
ATOM     93  S   UNL A   1      48.365  37.036  26.003  1.00  0.00     0.127 S 
ATOM     94  O   UNL A   1      49.027  36.207  24.998  1.00  0.00    -0.237 OA
ATOM     95  O   UNL A   1      46.943  37.284  25.759  1.00  0.00    -0.237 OA
ATOM     96  O   UNL A   1      49.109  38.206  26.449  1.00  0.00    -0.744 OA
ENDBRANCH  90  93
ENDBRANCH  62  86
BRANCH  74  97
ATOM     97  C   UNL A   1      49.677  27.635  25.841  1.00  0.00     0.023 A 
ATOM     98  C   UNL A   1      50.788  27.101  26.523  1.00  0.00     0.012 A 
ATOM     99  C   UNL A   1      49.683  27.675  24.433  1.00  0.00     0.148 A 
ATOM    100  C   UNL A   1      51.902  26.648  25.815  1.00  0.00     0.002 A 
ATOM    101  C   UNL A   1      50.773  27.171  23.733  1.00  0.00     0.091 A 
ATOM    102  F   UNL A   1      48.624  28.203  23.803  1.00  0.00    -0.205 F 
ATOM    103  C   UNL A   1      51.889  26.672  24.423  1.00  0.00     0.022 A 
BRANCH 101 104
ATOM    104  S   UNL A   1      50.802  27.066  21.941  1.00  0.00     0.127 S 
ATOM    105  O   UNL A   1      50.795  28.478  21.559  1.00  0.00    -0.237 OA
ATOM    106  O   UNL A   1      52.066  26.373  21.691  1.00  0.00    -0.237 OA
ATOM    107  O   UNL A   1      49.615  26.313  21.561  1.00  0.00    -0.744 OA
ENDBRANCH 101 104
ENDBRANCH  74  97
ENDBRANCH  48  49
ENDBRANCH  40  43
ENDBRANCH  38  39
ENDBRANCH  37  38
ENDBRANCH  36  37
ENDBRANCH   1  36
TORSDOF 22
ENDMDL
