MODEL 1
REMARK VINA RESULT:     -10.7      0.000      0.000
REMARK SMILES C[C@@](NC(=O)CCOC1CC[NH2+]CC1)(C(=O)NCCCCCCNC(=O)c1ccc(-c2c3nc(c(-c4cccc(S(=O)(=O)[O-])c4F)c4ccc([nH]4)c(-c4cccc(S(=O)(=O)[O-])c4F)c4nc(c(-c5cccc(S(=O)(=O)[O-])c5F)c5ccc2[nH]5)C=C4)C=C3)cc1)C(F)(F)F
REMARK SMILES IDX 19 1 18 2 17 3 15 4 16 5 2 7 1 8 3 9 4 10 5 12 6 13 7 14
REMARK SMILES IDX 8 15 9 16 10 17 14 18 11 19 13 20 12 21 90 24 91 25 92 26
REMARK SMILES IDX 93 27 20 28 21 29 22 30 23 31 24 32 25 33 26 35 27 36 28 37
REMARK SMILES IDX 89 38 29 39 88 40 30 41 31 42 32 43 82 44 33 45 87 46 81 47
REMARK SMILES IDX 83 48 34 49 86 50 80 51 79 52 35 54 67 55 47 56 66 57 48 58
REMARK SMILES IDX 51 59 65 60 84 61 49 62 50 63 64 65 85 66 52 67 36 68 37 69
REMARK SMILES IDX 45 70 38 71 40 72 46 73 39 74 41 75 42 76 43 77 44 78 68 79
REMARK SMILES IDX 69 80 77 81 70 82 72 83 78 84 71 85 73 86 74 87 75 88 76 89
REMARK SMILES IDX 53 90 54 91 62 92 55 93 57 94 63 95 56 96 58 97 59 98 60 99
REMARK SMILES IDX 61 100
REMARK H PARENT 17 6 3 11 12 22 12 23 24 34 83 53 51 64
REMARK Flexibility Score: inf
ROOT
ATOM      1  C   UNL A   1      33.689  28.219  26.995  1.00  0.00     0.021 C 
ENDROOT
BRANCH   1   2
ATOM      2  C   UNL A   1      33.481  27.173  25.900  1.00  0.00     0.116 C 
BRANCH   2   3
ATOM      3  N   UNL A   1      32.318  26.307  26.067  1.00  0.00    -0.354 N 
ATOM      4  C   UNL A   1      31.880  25.195  25.388  1.00  0.00     0.254 C 
ATOM      5  O   UNL A   1      31.158  24.445  26.055  1.00  0.00    -0.272 OA
ATOM      6  H   UNL A   1      31.731  26.573  26.812  1.00  0.00     0.163 HD
BRANCH   4   7
ATOM      7  C   UNL A   1      32.299  24.821  23.939  1.00  0.00     0.212 C 
ATOM      8  C   UNL A   1      31.221  23.979  23.256  1.00  0.00     0.056 C 
BRANCH   7   9
ATOM      9  N   UNL A   1      32.853  25.878  23.016  1.00  0.00    -0.334 N 
ATOM     10  C   UNL A   1      32.406  27.040  22.487  1.00  0.00     0.223 C 
ATOM     11  H   UNL A   1      33.771  25.669  22.725  1.00  0.00     0.164 HD
ATOM     12  O   UNL A   1      33.246  27.811  22.017  1.00  0.00    -0.275 OA
BRANCH  10  13
ATOM     13  C   UNL A   1      30.946  27.331  22.346  1.00  0.00     0.128 C 
BRANCH  13  14
ATOM     14  C   UNL A   1      30.767  28.824  22.600  1.00  0.00     0.170 C 
BRANCH  14  15
ATOM     15  O   UNL A   1      29.893  29.393  21.609  1.00  0.00    -0.377 OA
BRANCH  15  16
ATOM     16  C   UNL A   1      28.624  29.816  22.126  1.00  0.00     0.129 C 
ATOM     17  C   UNL A   1      27.884  30.598  21.045  1.00  0.00     0.093 C 
ATOM     18  C   UNL A   1      28.795  30.631  23.415  1.00  0.00     0.093 C 
ATOM     19  C   UNL A   1      28.353  32.039  20.898  1.00  0.00     0.263 C 
ATOM     20  C   UNL A   1      29.070  32.124  23.229  1.00  0.00     0.263 C 
ATOM     21  N   UNL A   1      28.310  32.764  22.162  1.00  0.00    -0.346 N 
ATOM     22  H   UNL A   1      27.337  32.836  22.459  1.00  0.00     0.346 HD
ATOM     23  H   UNL A   1      28.735  33.677  21.998  1.00  0.00     0.346 HD
ENDBRANCH  15  16
ENDBRANCH  14  15
ENDBRANCH  13  14
ENDBRANCH  10  13
ENDBRANCH   7   9
BRANCH   7  24
ATOM     24  C   UNL A   1      33.492  23.833  24.135  1.00  0.00     0.420 C 
ATOM     25  F   UNL A   1      33.481  23.212  25.333  1.00  0.00    -0.168 F 
ATOM     26  F   UNL A   1      33.402  22.843  23.190  1.00  0.00    -0.168 F 
ATOM     27  F   UNL A   1      34.704  24.395  23.942  1.00  0.00    -0.168 F 
ENDBRANCH   7  24
ENDBRANCH   4   7
ENDBRANCH   2   3
ENDBRANCH   1   2
BRANCH   1  28
ATOM     28  C   UNL A   1      33.311  29.656  26.633  1.00  0.00     0.002 C 
BRANCH  28  29
ATOM     29  C   UNL A   1      31.844  30.048  26.833  1.00  0.00     0.002 C 
BRANCH  29  30
ATOM     30  C   UNL A   1      31.527  31.546  26.813  1.00  0.00     0.021 C 
BRANCH  30  31
ATOM     31  C   UNL A   1      32.724  32.488  26.725  1.00  0.00     0.116 C 
BRANCH  31  32
ATOM     32  N   UNL A   1      32.492  33.772  27.364  1.00  0.00    -0.352 N 
ATOM     33  C   UNL A   1      33.130  34.362  28.428  1.00  0.00     0.251 C 
ATOM     34  H   UNL A   1      31.761  34.303  26.973  1.00  0.00     0.163 HD
ATOM     35  O   UNL A   1      32.698  35.415  28.880  1.00  0.00    -0.269 OA
BRANCH  33  36
ATOM     36  C   UNL A   1      34.318  33.725  29.041  1.00  0.00     0.039 A 
ATOM     37  C   UNL A   1      34.140  32.544  29.767  1.00  0.00     0.014 A 
ATOM     38  C   UNL A   1      35.589  34.295  28.936  1.00  0.00     0.014 A 
ATOM     39  C   UNL A   1      35.242  31.916  30.353  1.00  0.00     0.010 A 
ATOM     40  C   UNL A   1      36.696  33.626  29.452  1.00  0.00     0.010 A 
ATOM     41  C   UNL A   1      36.532  32.440  30.183  1.00  0.00    -0.014 A 
BRANCH  41  42
ATOM     42  C   UNL A   1      37.714  31.773  30.788  1.00  0.00     0.031 A 
ATOM     43  C   UNL A   1      38.117  32.089  32.205  1.00  0.00     0.074 A 
ATOM     44  C   UNL A   1      38.454  30.923  30.048  1.00  0.00     0.049 A 
ATOM     45  N   UNL A   1      39.136  31.642  32.893  1.00  0.00    -0.248 NA
ATOM     46  C   UNL A   1      37.280  33.054  32.939  1.00  0.00     0.031 C 
ATOM     47  C   UNL A   1      38.211  30.594  28.641  1.00  0.00     0.029 A 
ATOM     48  N   UNL A   1      39.574  30.199  30.368  1.00  0.00    -0.354 N 
ATOM     49  C   UNL A   1      39.074  32.281  34.126  1.00  0.00     0.074 A 
ATOM     50  C   UNL A   1      37.950  33.189  34.073  1.00  0.00     0.031 C 
ATOM     51  C   UNL A   1      39.152  29.732  28.221  1.00  0.00     0.029 A 
ATOM     52  C   UNL A   1      40.079  29.469  29.316  1.00  0.00     0.049 A 
ATOM     53  H   UNL A   1      39.979  30.200  31.266  1.00  0.00     0.167 HD
ATOM     54  C   UNL A   1      39.855  32.103  35.217  1.00  0.00     0.034 A 
ATOM     55  C   UNL A   1      41.173  28.685  29.241  1.00  0.00     0.034 A 
ATOM     56  C   UNL A   1      40.954  31.178  35.275  1.00  0.00     0.049 A 
ATOM     57  C   UNL A   1      42.007  28.483  30.478  1.00  0.00     0.074 A 
ATOM     58  C   UNL A   1      41.782  30.888  36.344  1.00  0.00     0.029 A 
ATOM     59  N   UNL A   1      41.378  30.389  34.216  1.00  0.00    -0.354 N 
ATOM     60  N   UNL A   1      41.854  29.001  31.671  1.00  0.00    -0.248 NA
ATOM     61  C   UNL A   1      43.138  27.549  30.369  1.00  0.00     0.031 C 
ATOM     62  C   UNL A   1      42.718  29.936  35.928  1.00  0.00     0.029 A 
ATOM     63  C   UNL A   1      42.449  29.605  34.610  1.00  0.00     0.049 A 
ATOM     64  H   UNL A   1      40.975  30.385  33.318  1.00  0.00     0.167 HD
ATOM     65  C   UNL A   1      42.837  28.423  32.467  1.00  0.00     0.074 A 
ATOM     66  C   UNL A   1      43.565  27.498  31.624  1.00  0.00     0.031 C 
ATOM     67  C   UNL A   1      43.120  28.644  33.775  1.00  0.00     0.034 A 
BRANCH  54  68
ATOM     68  C   UNL A   1      39.508  32.881  36.461  1.00  0.00     0.023 A 
ATOM     69  C   UNL A   1      40.043  34.175  36.639  1.00  0.00     0.012 A 
ATOM     70  C   UNL A   1      38.614  32.368  37.421  1.00  0.00     0.148 A 
ATOM     71  C   UNL A   1      39.723  34.929  37.767  1.00  0.00     0.002 A 
ATOM     72  C   UNL A   1      38.261  33.145  38.518  1.00  0.00     0.091 A 
ATOM     73  F   UNL A   1      38.127  31.131  37.244  1.00  0.00    -0.205 F 
ATOM     74  C   UNL A   1      38.825  34.419  38.700  1.00  0.00     0.022 A 
BRANCH  72  75
ATOM     75  S   UNL A   1      37.054  32.616  39.738  1.00  0.00     0.127 S 
ATOM     76  O   UNL A   1      35.828  32.576  38.942  1.00  0.00    -0.237 OA
ATOM     77  O   UNL A   1      37.570  31.303  40.128  1.00  0.00    -0.237 OA
ATOM     78  O   UNL A   1      37.078  33.619  40.792  1.00  0.00    -0.744 OA
ENDBRANCH  72  75
ENDBRANCH  54  68
BRANCH  55  79
ATOM     79  C   UNL A   1      41.518  27.993  27.966  1.00  0.00     0.023 A 
ATOM     80  C   UNL A   1      41.992  28.739  26.869  1.00  0.00     0.012 A 
ATOM     81  C   UNL A   1      41.372  26.599  27.833  1.00  0.00     0.148 A 
ATOM     82  C   UNL A   1      42.264  28.118  25.649  1.00  0.00     0.002 A 
ATOM     83  C   UNL A   1      41.703  25.978  26.635  1.00  0.00     0.091 A 
ATOM     84  F   UNL A   1      40.913  25.905  28.885  1.00  0.00    -0.205 F 
ATOM     85  C   UNL A   1      42.127  26.738  25.534  1.00  0.00     0.022 A 
BRANCH  83  86
ATOM     86  S   UNL A   1      41.683  24.193  26.445  1.00  0.00     0.127 S 
ATOM     87  O   UNL A   1      42.393  24.018  25.180  1.00  0.00    -0.237 OA
ATOM     88  O   UNL A   1      42.419  23.752  27.631  1.00  0.00    -0.237 OA
ATOM     89  O   UNL A   1      40.276  23.816  26.441  1.00  0.00    -0.744 OA
ENDBRANCH  83  86
ENDBRANCH  55  79
BRANCH  67  90
ATOM     90  C   UNL A   1      44.219  27.824  34.397  1.00  0.00     0.023 A 
ATOM     91  C   UNL A   1      45.548  28.290  34.385  1.00  0.00     0.012 A 
ATOM     92  C   UNL A   1      43.918  26.608  35.045  1.00  0.00     0.148 A 
ATOM     93  C   UNL A   1      46.568  27.537  34.968  1.00  0.00     0.002 A 
ATOM     94  C   UNL A   1      44.929  25.893  35.672  1.00  0.00     0.091 A 
ATOM     95  F   UNL A   1      42.649  26.173  35.030  1.00  0.00    -0.205 F 
ATOM     96  C   UNL A   1      46.257  26.347  35.620  1.00  0.00     0.022 A 
BRANCH  94  97
ATOM     97  S   UNL A   1      44.603  24.403  36.621  1.00  0.00     0.127 S 
ATOM     98  O   UNL A   1      44.020  24.951  37.845  1.00  0.00    -0.237 OA
ATOM     99  O   UNL A   1      43.657  23.690  35.761  1.00  0.00    -0.237 OA
ATOM    100  O   UNL A   1      45.890  23.741  36.783  1.00  0.00    -0.744 OA
ENDBRANCH  94  97
ENDBRANCH  67  90
ENDBRANCH  41  42
ENDBRANCH  33  36
ENDBRANCH  31  32
ENDBRANCH  30  31
ENDBRANCH  29  30
ENDBRANCH  28  29
ENDBRANCH   1  28
TORSDOF 22
ENDMDL
MODEL 2
REMARK VINA RESULT:     -10.6      1.337      7.562
REMARK SMILES C[C@@](NC(=O)CCOC1CC[NH2+]CC1)(C(=O)NCCCCCCNC(=O)c1ccc(-c2c3nc(c(-c4cccc(S(=O)(=O)[O-])c4F)c4ccc([nH]4)c(-c4cccc(S(=O)(=O)[O-])c4F)c4nc(c(-c5cccc(S(=O)(=O)[O-])c5F)c5ccc2[nH]5)C=C4)C=C3)cc1)C(F)(F)F
REMARK SMILES IDX 19 1 18 2 17 3 15 4 16 5 2 7 1 8 3 9 4 10 5 12 6 13 7 14
REMARK SMILES IDX 8 15 9 16 10 17 14 18 11 19 13 20 12 21 90 24 91 25 92 26
REMARK SMILES IDX 93 27 20 28 21 29 22 30 23 31 24 32 25 33 26 35 27 36 28 37
REMARK SMILES IDX 89 38 29 39 88 40 30 41 31 42 32 43 82 44 33 45 87 46 81 47
REMARK SMILES IDX 83 48 34 49 86 50 80 51 79 52 35 54 67 55 47 56 66 57 48 58
REMARK SMILES IDX 51 59 65 60 84 61 49 62 50 63 64 65 85 66 52 67 36 68 37 69
REMARK SMILES IDX 45 70 38 71 40 72 46 73 39 74 41 75 42 76 43 77 44 78 68 79
REMARK SMILES IDX 69 80 77 81 70 82 72 83 78 84 71 85 73 86 74 87 75 88 76 89
REMARK SMILES IDX 53 90 54 91 62 92 55 93 57 94 63 95 56 96 58 97 59 98 60 99
REMARK SMILES IDX 61 100
REMARK H PARENT 17 6 3 11 12 22 12 23 24 34 83 53 51 64
REMARK Flexibility Score: inf
ROOT
ATOM      1  C   UNL A   1      32.979  28.475  26.341  1.00  0.00     0.021 C 
ENDROOT
BRANCH   1   2
ATOM      2  C   UNL A   1      32.997  26.959  26.535  1.00  0.00     0.116 C 
BRANCH   2   3
ATOM      3  N   UNL A   1      31.690  26.311  26.561  1.00  0.00    -0.354 N 
ATOM      4  C   UNL A   1      31.159  25.258  25.854  1.00  0.00     0.254 C 
ATOM      5  O   UNL A   1      30.236  24.673  26.433  1.00  0.00    -0.272 OA
ATOM      6  H   UNL A   1      31.065  26.706  27.211  1.00  0.00     0.163 HD
BRANCH   4   7
ATOM      7  C   UNL A   1      31.693  24.751  24.485  1.00  0.00     0.212 C 
ATOM      8  C   UNL A   1      30.671  23.846  23.799  1.00  0.00     0.056 C 
BRANCH   7   9
ATOM      9  N   UNL A   1      32.324  25.719  23.516  1.00  0.00    -0.334 N 
ATOM     10  C   UNL A   1      32.019  26.941  23.022  1.00  0.00     0.223 C 
ATOM     11  H   UNL A   1      33.172  25.375  23.150  1.00  0.00     0.164 HD
ATOM     12  O   UNL A   1      32.926  27.578  22.480  1.00  0.00    -0.275 OA
BRANCH  10  13
ATOM     13  C   UNL A   1      30.615  27.454  23.001  1.00  0.00     0.128 C 
BRANCH  13  14
ATOM     14  C   UNL A   1      30.701  28.976  22.960  1.00  0.00     0.170 C 
BRANCH  14  15
ATOM     15  O   UNL A   1      29.961  29.483  21.836  1.00  0.00    -0.377 OA
BRANCH  15  16
ATOM     16  C   UNL A   1      28.602  29.826  22.141  1.00  0.00     0.129 C 
ATOM     17  C   UNL A   1      27.992  30.549  20.943  1.00  0.00     0.093 C 
ATOM     18  C   UNL A   1      28.516  30.661  23.426  1.00  0.00     0.093 C 
ATOM     19  C   UNL A   1      28.385  32.016  20.845  1.00  0.00     0.263 C 
ATOM     20  C   UNL A   1      28.721  32.167  23.257  1.00  0.00     0.263 C 
ATOM     21  N   UNL A   1      28.098  32.747  22.074  1.00  0.00    -0.346 N 
ATOM     22  H   UNL A   1      27.088  32.757  22.213  1.00  0.00     0.346 HD
ATOM     23  H   UNL A   1      28.484  33.684  21.961  1.00  0.00     0.346 HD
ENDBRANCH  15  16
ENDBRANCH  14  15
ENDBRANCH  13  14
ENDBRANCH  10  13
ENDBRANCH   7   9
BRANCH   7  24
ATOM     24  C   UNL A   1      32.863  23.791  24.870  1.00  0.00     0.420 C 
ATOM     25  F   UNL A   1      32.936  23.541  26.194  1.00  0.00    -0.168 F 
ATOM     26  F   UNL A   1      32.655  22.580  24.262  1.00  0.00    -0.168 F 
ATOM     27  F   UNL A   1      34.072  24.202  24.433  1.00  0.00    -0.168 F 
ENDBRANCH   7  24
ENDBRANCH   4   7
ENDBRANCH   2   3
ENDBRANCH   1   2
BRANCH   1  28
ATOM     28  C   UNL A   1      31.632  29.166  26.564  1.00  0.00     0.002 C 
BRANCH  28  29
ATOM     29  C   UNL A   1      31.607  30.687  26.392  1.00  0.00     0.002 C 
BRANCH  29  30
ATOM     30  C   UNL A   1      32.418  31.504  27.402  1.00  0.00     0.021 C 
BRANCH  30  31
ATOM     31  C   UNL A   1      33.093  32.762  26.865  1.00  0.00     0.116 C 
BRANCH  31  32
ATOM     32  N   UNL A   1      32.684  33.973  27.557  1.00  0.00    -0.352 N 
ATOM     33  C   UNL A   1      33.155  34.533  28.719  1.00  0.00     0.251 C 
ATOM     34  H   UNL A   1      31.953  34.470  27.124  1.00  0.00     0.163 HD
ATOM     35  O   UNL A   1      32.588  35.512  29.188  1.00  0.00    -0.269 OA
BRANCH  33  36
ATOM     36  C   UNL A   1      34.326  33.952  29.414  1.00  0.00     0.039 A 
ATOM     37  C   UNL A   1      34.102  33.016  30.428  1.00  0.00     0.014 A 
ATOM     38  C   UNL A   1      35.631  34.344  29.102  1.00  0.00     0.014 A 
ATOM     39  C   UNL A   1      35.186  32.447  31.099  1.00  0.00     0.010 A 
ATOM     40  C   UNL A   1      36.711  33.717  29.716  1.00  0.00     0.010 A 
ATOM     41  C   UNL A   1      36.501  32.776  30.735  1.00  0.00    -0.014 A 
BRANCH  41  42
ATOM     42  C   UNL A   1      37.663  32.165  31.431  1.00  0.00     0.031 A 
ATOM     43  C   UNL A   1      38.409  31.022  30.795  1.00  0.00     0.074 A 
ATOM     44  C   UNL A   1      38.016  32.605  32.656  1.00  0.00     0.049 A 
ATOM     45  N   UNL A   1      39.419  30.333  31.261  1.00  0.00    -0.248 NA
ATOM     46  C   UNL A   1      37.943  30.573  29.471  1.00  0.00     0.031 C 
ATOM     47  C   UNL A   1      37.326  33.655  33.409  1.00  0.00     0.029 A 
ATOM     48  N   UNL A   1      39.028  32.209  33.493  1.00  0.00    -0.354 N 
ATOM     49  C   UNL A   1      39.696  29.365  30.303  1.00  0.00     0.074 A 
ATOM     50  C   UNL A   1      38.713  29.517  29.254  1.00  0.00     0.031 C 
ATOM     51  C   UNL A   1      37.935  33.820  34.594  1.00  0.00     0.029 A 
ATOM     52  C   UNL A   1      39.039  32.873  34.698  1.00  0.00     0.049 A 
ATOM     53  H   UNL A   1      39.685  31.516  33.253  1.00  0.00     0.167 HD
ATOM     54  C   UNL A   1      40.699  28.456  30.277  1.00  0.00     0.034 A 
ATOM     55  C   UNL A   1      39.844  32.726  35.770  1.00  0.00     0.034 A 
ATOM     56  C   UNL A   1      41.693  28.327  31.309  1.00  0.00     0.049 A 
ATOM     57  C   UNL A   1      40.968  31.727  35.702  1.00  0.00     0.074 A 
ATOM     58  C   UNL A   1      42.776  27.469  31.360  1.00  0.00     0.029 A 
ATOM     59  N   UNL A   1      41.724  29.080  32.472  1.00  0.00    -0.354 N 
ATOM     60  N   UNL A   1      41.288  30.908  34.730  1.00  0.00    -0.248 NA
ATOM     61  C   UNL A   1      41.872  31.666  36.859  1.00  0.00     0.031 C 
ATOM     62  C   UNL A   1      43.455  27.692  32.562  1.00  0.00     0.029 A 
ATOM     63  C   UNL A   1      42.814  28.715  33.243  1.00  0.00     0.049 A 
ATOM     64  H   UNL A   1      41.069  29.775  32.714  1.00  0.00     0.167 HD
ATOM     65  C   UNL A   1      42.454  30.270  35.138  1.00  0.00     0.074 A 
ATOM     66  C   UNL A   1      42.796  30.815  36.435  1.00  0.00     0.031 C 
ATOM     67  C   UNL A   1      43.173  29.312  34.502  1.00  0.00     0.034 A 
BRANCH  54  68
ATOM     68  C   UNL A   1      40.811  27.570  29.061  1.00  0.00     0.023 A 
ATOM     69  C   UNL A   1      39.958  26.453  28.940  1.00  0.00     0.012 A 
ATOM     70  C   UNL A   1      41.706  27.870  28.016  1.00  0.00     0.148 A 
ATOM     71  C   UNL A   1      40.020  25.628  27.818  1.00  0.00     0.002 A 
ATOM     72  C   UNL A   1      41.727  27.071  26.879  1.00  0.00     0.091 A 
ATOM     73  F   UNL A   1      42.519  28.927  28.155  1.00  0.00    -0.205 F 
ATOM     74  C   UNL A   1      40.896  25.942  26.784  1.00  0.00     0.022 A 
BRANCH  72  75
ATOM     75  S   UNL A   1      42.762  27.432  25.455  1.00  0.00     0.127 S 
ATOM     76  O   UNL A   1      44.049  27.713  26.090  1.00  0.00    -0.237 OA
ATOM     77  O   UNL A   1      42.711  26.171  24.714  1.00  0.00    -0.237 OA
ATOM     78  O   UNL A   1      42.142  28.563  24.782  1.00  0.00    -0.744 OA
ENDBRANCH  72  75
ENDBRANCH  54  68
BRANCH  55  79
ATOM     79  C   UNL A   1      39.649  33.574  36.980  1.00  0.00     0.023 A 
ATOM     80  C   UNL A   1      40.119  34.903  36.988  1.00  0.00     0.012 A 
ATOM     81  C   UNL A   1      39.008  33.069  38.127  1.00  0.00     0.148 A 
ATOM     82  C   UNL A   1      40.000  35.694  38.131  1.00  0.00     0.002 A 
ATOM     83  C   UNL A   1      38.837  33.882  39.242  1.00  0.00     0.091 A 
ATOM     84  F   UNL A   1      38.574  31.800  38.106  1.00  0.00    -0.205 F 
ATOM     85  C   UNL A   1      39.354  35.186  39.255  1.00  0.00     0.022 A 
BRANCH  83  86
ATOM     86  S   UNL A   1      37.900  33.352  40.678  1.00  0.00     0.127 S 
ATOM     87  O   UNL A   1      38.532  32.073  40.993  1.00  0.00    -0.237 OA
ATOM     88  O   UNL A   1      38.173  34.428  41.632  1.00  0.00    -0.237 OA
ATOM     89  O   UNL A   1      36.513  33.285  40.236  1.00  0.00    -0.744 OA
ENDBRANCH  83  86
ENDBRANCH  55  79
BRANCH  67  90
ATOM     90  C   UNL A   1      44.440  28.838  35.165  1.00  0.00     0.023 A 
ATOM     91  C   UNL A   1      45.665  29.477  34.894  1.00  0.00     0.012 A 
ATOM     92  C   UNL A   1      44.401  27.786  36.103  1.00  0.00     0.148 A 
ATOM     93  C   UNL A   1      46.840  29.047  35.511  1.00  0.00     0.002 A 
ATOM     94  C   UNL A   1      45.564  27.401  36.755  1.00  0.00     0.091 A 
ATOM     95  F   UNL A   1      43.227  27.178  36.333  1.00  0.00    -0.205 F 
ATOM     96  C   UNL A   1      46.787  28.019  36.449  1.00  0.00     0.022 A 
BRANCH  94  97
ATOM     97  S   UNL A   1      45.570  26.156  38.050  1.00  0.00     0.127 S 
ATOM     98  O   UNL A   1      45.182  24.956  37.311  1.00  0.00    -0.237 OA
ATOM     99  O   UNL A   1      46.966  26.176  38.491  1.00  0.00    -0.237 OA
ATOM    100  O   UNL A   1      44.615  26.613  39.050  1.00  0.00    -0.744 OA
ENDBRANCH  94  97
ENDBRANCH  67  90
ENDBRANCH  41  42
ENDBRANCH  33  36
ENDBRANCH  31  32
ENDBRANCH  30  31
ENDBRANCH  29  30
ENDBRANCH  28  29
ENDBRANCH   1  28
TORSDOF 22
ENDMDL
MODEL 3
REMARK VINA RESULT:     -10.5      1.798      3.761
REMARK SMILES C[C@@](NC(=O)CCOC1CC[NH2+]CC1)(C(=O)NCCCCCCNC(=O)c1ccc(-c2c3nc(c(-c4cccc(S(=O)(=O)[O-])c4F)c4ccc([nH]4)c(-c4cccc(S(=O)(=O)[O-])c4F)c4nc(c(-c5cccc(S(=O)(=O)[O-])c5F)c5ccc2[nH]5)C=C4)C=C3)cc1)C(F)(F)F
REMARK SMILES IDX 19 1 18 2 17 3 15 4 16 5 2 7 1 8 3 9 4 10 5 12 6 13 7 14
REMARK SMILES IDX 8 15 9 16 10 17 14 18 11 19 13 20 12 21 90 24 91 25 92 26
REMARK SMILES IDX 93 27 20 28 21 29 22 30 23 31 24 32 25 33 26 35 27 36 28 37
REMARK SMILES IDX 89 38 29 39 88 40 30 41 31 42 32 43 82 44 33 45 87 46 81 47
REMARK SMILES IDX 83 48 34 49 86 50 80 51 79 52 35 54 67 55 47 56 66 57 48 58
REMARK SMILES IDX 51 59 65 60 84 61 49 62 50 63 64 65 85 66 52 67 36 68 37 69
REMARK SMILES IDX 45 70 38 71 40 72 46 73 39 74 41 75 42 76 43 77 44 78 68 79
REMARK SMILES IDX 69 80 77 81 70 82 72 83 78 84 71 85 73 86 74 87 75 88 76 89
REMARK SMILES IDX 53 90 54 91 62 92 55 93 57 94 63 95 56 96 58 97 59 98 60 99
REMARK SMILES IDX 61 100
REMARK H PARENT 17 6 3 11 12 22 12 23 24 34 83 53 51 64
REMARK Flexibility Score: inf
ROOT
ATOM      1  C   UNL A   1      33.266  28.554  26.640  1.00  0.00     0.021 C 
ENDROOT
BRANCH   1   2
ATOM      2  C   UNL A   1      33.033  27.224  25.923  1.00  0.00     0.116 C 
BRANCH   2   3
ATOM      3  N   UNL A   1      33.664  27.095  24.613  1.00  0.00    -0.354 N 
ATOM      4  C   UNL A   1      33.153  27.004  23.340  1.00  0.00     0.254 C 
ATOM      5  O   UNL A   1      33.928  27.382  22.454  1.00  0.00    -0.272 OA
ATOM      6  H   UNL A   1      34.647  27.068  24.648  1.00  0.00     0.163 HD
BRANCH   4   7
ATOM      7  C   UNL A   1      31.704  26.557  22.997  1.00  0.00     0.212 C 
ATOM      8  C   UNL A   1      31.559  26.262  21.504  1.00  0.00     0.056 C 
BRANCH   7   9
ATOM      9  N   UNL A   1      31.015  25.515  23.843  1.00  0.00    -0.334 N 
ATOM     10  C   UNL A   1      31.340  24.305  24.353  1.00  0.00     0.223 C 
ATOM     11  H   UNL A   1      30.098  25.783  24.084  1.00  0.00     0.164 HD
ATOM     12  O   UNL A   1      30.637  23.866  25.267  1.00  0.00    -0.275 OA
BRANCH  10  13
ATOM     13  C   UNL A   1      32.418  23.460  23.754  1.00  0.00     0.128 C 
BRANCH  13  14
ATOM     14  C   UNL A   1      33.456  23.227  24.846  1.00  0.00     0.170 C 
BRANCH  14  15
ATOM     15  O   UNL A   1      34.538  24.166  24.708  1.00  0.00    -0.377 OA
BRANCH  15  16
ATOM     16  C   UNL A   1      35.684  23.855  25.511  1.00  0.00     0.129 C 
ATOM     17  C   UNL A   1      36.873  23.580  24.595  1.00  0.00     0.093 C 
ATOM     18  C   UNL A   1      35.397  22.679  26.455  1.00  0.00     0.093 C 
ATOM     19  C   UNL A   1      36.869  22.185  23.985  1.00  0.00     0.263 C 
ATOM     20  C   UNL A   1      35.598  21.284  25.862  1.00  0.00     0.263 C 
ATOM     21  N   UNL A   1      36.762  21.142  24.997  1.00  0.00    -0.346 N 
ATOM     22  H   UNL A   1      37.600  21.170  25.578  1.00  0.00     0.346 HD
ATOM     23  H   UNL A   1      36.662  20.255  24.503  1.00  0.00     0.346 HD
ENDBRANCH  15  16
ENDBRANCH  14  15
ENDBRANCH  13  14
ENDBRANCH  10  13
ENDBRANCH   7   9
BRANCH   7  24
ATOM     24  C   UNL A   1      30.849  27.844  23.220  1.00  0.00     0.420 C 
ATOM     25  F   UNL A   1      31.542  28.986  23.026  1.00  0.00    -0.168 F 
ATOM     26  F   UNL A   1      29.827  27.857  22.307  1.00  0.00    -0.168 F 
ATOM     27  F   UNL A   1      30.246  27.897  24.427  1.00  0.00    -0.168 F 
ENDBRANCH   7  24
ENDBRANCH   4   7
ENDBRANCH   2   3
ENDBRANCH   1   2
BRANCH   1  28
ATOM     28  C   UNL A   1      32.878  29.813  25.864  1.00  0.00     0.002 C 
BRANCH  28  29
ATOM     29  C   UNL A   1      31.481  30.379  26.132  1.00  0.00     0.002 C 
BRANCH  29  30
ATOM     30  C   UNL A   1      31.405  31.856  26.527  1.00  0.00     0.021 C 
BRANCH  30  31
ATOM     31  C   UNL A   1      32.720  32.515  26.934  1.00  0.00     0.116 C 
BRANCH  31  32
ATOM     32  N   UNL A   1      32.542  33.820  27.548  1.00  0.00    -0.352 N 
ATOM     33  C   UNL A   1      33.235  34.421  28.571  1.00  0.00     0.251 C 
ATOM     34  H   UNL A   1      31.809  34.358  27.172  1.00  0.00     0.163 HD
ATOM     35  O   UNL A   1      32.845  35.495  29.011  1.00  0.00    -0.269 OA
BRANCH  33  36
ATOM     36  C   UNL A   1      34.431  33.772  29.154  1.00  0.00     0.039 A 
ATOM     37  C   UNL A   1      34.244  32.734  30.072  1.00  0.00     0.014 A 
ATOM     38  C   UNL A   1      35.723  34.196  28.833  1.00  0.00     0.014 A 
ATOM     39  C   UNL A   1      35.353  32.098  30.636  1.00  0.00     0.010 A 
ATOM     40  C   UNL A   1      36.825  33.509  29.334  1.00  0.00     0.010 A 
ATOM     41  C   UNL A   1      36.653  32.466  30.256  1.00  0.00    -0.014 A 
BRANCH  41  42
ATOM     42  C   UNL A   1      37.840  31.787  30.837  1.00  0.00     0.031 A 
ATOM     43  C   UNL A   1      38.344  32.182  32.201  1.00  0.00     0.074 A 
ATOM     44  C   UNL A   1      38.493  30.851  30.119  1.00  0.00     0.049 A 
ATOM     45  N   UNL A   1      39.384  31.735  32.857  1.00  0.00    -0.248 NA
ATOM     46  C   UNL A   1      37.599  33.236  32.910  1.00  0.00     0.031 C 
ATOM     47  C   UNL A   1      38.148  30.436  28.758  1.00  0.00     0.029 A 
ATOM     48  N   UNL A   1      39.598  30.097  30.424  1.00  0.00    -0.354 N 
ATOM     49  C   UNL A   1      39.428  32.463  34.042  1.00  0.00     0.074 A 
ATOM     50  C   UNL A   1      38.344  33.418  33.990  1.00  0.00     0.031 C 
ATOM     51  C   UNL A   1      39.021  29.501  28.347  1.00  0.00     0.029 A 
ATOM     52  C   UNL A   1      40.003  29.271  29.400  1.00  0.00     0.049 A 
ATOM     53  H   UNL A   1      40.058  30.142  31.294  1.00  0.00     0.167 HD
ATOM     54  C   UNL A   1      40.268  32.325  35.094  1.00  0.00     0.034 A 
ATOM     55  C   UNL A   1      41.054  28.432  29.318  1.00  0.00     0.034 A 
ATOM     56  C   UNL A   1      41.326  31.353  35.155  1.00  0.00     0.049 A 
ATOM     57  C   UNL A   1      41.955  28.277  30.515  1.00  0.00     0.074 A 
ATOM     58  C   UNL A   1      42.206  31.100  36.191  1.00  0.00     0.029 A 
ATOM     59  N   UNL A   1      41.647  30.471  34.134  1.00  0.00    -0.354 N 
ATOM     60  N   UNL A   1      41.901  28.886  31.674  1.00  0.00    -0.248 NA
ATOM     61  C   UNL A   1      43.034  27.284  30.408  1.00  0.00     0.031 C 
ATOM     62  C   UNL A   1      43.071  30.076  35.792  1.00  0.00     0.029 A 
ATOM     63  C   UNL A   1      42.705  29.666  34.519  1.00  0.00     0.049 A 
ATOM     64  H   UNL A   1      41.189  30.423  33.264  1.00  0.00     0.167 HD
ATOM     65  C   UNL A   1      42.905  28.318  32.450  1.00  0.00     0.074 A 
ATOM     66  C   UNL A   1      43.536  27.301  31.636  1.00  0.00     0.031 C 
ATOM     67  C   UNL A   1      43.279  28.617  33.719  1.00  0.00     0.034 A 
BRANCH  54  68
ATOM     68  C   UNL A   1      40.035  33.205  36.297  1.00  0.00     0.023 A 
ATOM     69  C   UNL A   1      40.560  34.514  36.307  1.00  0.00     0.012 A 
ATOM     70  C   UNL A   1      39.252  32.768  37.383  1.00  0.00     0.148 A 
ATOM     71  C   UNL A   1      40.343  35.360  37.393  1.00  0.00     0.002 A 
ATOM     72  C   UNL A   1      38.999  33.635  38.441  1.00  0.00     0.091 A 
ATOM     73  F   UNL A   1      38.774  31.515  37.364  1.00  0.00    -0.205 F 
ATOM     74  C   UNL A   1      39.555  34.925  38.453  1.00  0.00     0.022 A 
BRANCH  72  75
ATOM     75  S   UNL A   1      37.933  33.202  39.820  1.00  0.00     0.127 S 
ATOM     76  O   UNL A   1      36.661  32.953  39.142  1.00  0.00    -0.237 OA
ATOM     77  O   UNL A   1      38.587  32.003  40.346  1.00  0.00    -0.237 OA
ATOM     78  O   UNL A   1      37.945  34.348  40.715  1.00  0.00    -0.744 OA
ENDBRANCH  72  75
ENDBRANCH  54  68
BRANCH  55  79
ATOM     79  C   UNL A   1      41.287  27.635  28.080  1.00  0.00     0.023 A 
ATOM     80  C   UNL A   1      41.794  28.265  26.926  1.00  0.00     0.012 A 
ATOM     81  C   UNL A   1      41.003  26.257  28.038  1.00  0.00     0.148 A 
ATOM     82  C   UNL A   1      41.963  27.550  25.739  1.00  0.00     0.002 A 
ATOM     83  C   UNL A   1      41.232  25.537  26.871  1.00  0.00     0.091 A 
ATOM     84  F   UNL A   1      40.514  25.675  29.142  1.00  0.00    -0.205 F 
ATOM     85  C   UNL A   1      41.689  26.185  25.714  1.00  0.00     0.022 A 
BRANCH  83  86
ATOM     86  S   UNL A   1      41.033  23.754  26.792  1.00  0.00     0.127 S 
ATOM     87  O   UNL A   1      41.918  23.403  25.685  1.00  0.00    -0.237 OA
ATOM     88  O   UNL A   1      41.502  23.337  28.114  1.00  0.00    -0.237 OA
ATOM     89  O   UNL A   1      39.611  23.529  26.566  1.00  0.00    -0.744 OA
ENDBRANCH  83  86
ENDBRANCH  55  79
BRANCH  67  90
ATOM     90  C   UNL A   1      44.378  27.790  34.334  1.00  0.00     0.023 A 
ATOM     91  C   UNL A   1      45.715  28.229  34.276  1.00  0.00     0.012 A 
ATOM     92  C   UNL A   1      44.070  26.597  35.019  1.00  0.00     0.148 A 
ATOM     93  C   UNL A   1      46.734  27.470  34.851  1.00  0.00     0.002 A 
ATOM     94  C   UNL A   1      45.083  25.877  35.637  1.00  0.00     0.091 A 
ATOM     95  F   UNL A   1      42.793  26.187  35.046  1.00  0.00    -0.205 F 
ATOM     96  C   UNL A   1      46.417  26.303  35.541  1.00  0.00     0.022 A 
BRANCH  94  97
ATOM     97  S   UNL A   1      44.753  24.418  36.631  1.00  0.00     0.127 S 
ATOM     98  O   UNL A   1      46.099  24.035  37.055  1.00  0.00    -0.237 OA
ATOM     99  O   UNL A   1      43.907  24.955  37.698  1.00  0.00    -0.237 OA
ATOM    100  O   UNL A   1      44.082  23.474  35.747  1.00  0.00    -0.744 OA
ENDBRANCH  94  97
ENDBRANCH  67  90
ENDBRANCH  41  42
ENDBRANCH  33  36
ENDBRANCH  31  32
ENDBRANCH  30  31
ENDBRANCH  29  30
ENDBRANCH  28  29
ENDBRANCH   1  28
TORSDOF 22
ENDMDL
