MODEL 1
REMARK VINA RESULT:     -11.8      0.000      0.000
REMARK SMILES Cc1cccc(C[C@H](C(=O)NCCCCCCNC(=O)c2ccc(-c3c4nc(c(-c5cccc(S(=O)(=O)[O-])c5F)c5ccc([nH]5)c(-c5cccc(S(=O)(=O)[O-])c5F)c5nc(c(-c6cccc(S(=O)(=O)[O-])c6F)c6ccc3[nH]6)C=C5)C=C4)cc2)[C@@H]2CCCC[C@@H]2O)c1
REMARK SMILES IDX 15 1 14 2 13 3 12 4 11 5 9 6 10 7 8 9 7 10 6 11 1 12 2 13
REMARK SMILES IDX 3 14 91 15 4 16 5 17 84 18 85 19 89 20 86 21 88 22 87 23
REMARK SMILES IDX 90 24 16 26 17 27 18 28 19 29 20 31 21 32 22 33 83 34 23 35
REMARK SMILES IDX 82 36 24 37 25 38 26 39 76 40 27 41 81 42 75 43 77 44 28 45
REMARK SMILES IDX 80 46 74 47 73 48 29 50 61 51 41 52 60 53 42 54 45 55 59 56
REMARK SMILES IDX 78 57 43 58 44 59 58 61 79 62 46 63 30 64 31 65 39 66 32 67
REMARK SMILES IDX 34 68 40 69 33 70 35 71 36 72 37 73 38 74 62 75 63 76 71 77
REMARK SMILES IDX 64 78 66 79 72 80 65 81 67 82 68 83 69 84 70 85 47 86 48 87
REMARK SMILES IDX 56 88 49 89 51 90 57 91 50 92 52 93 53 94 54 95 55 96
REMARK H PARENT 11 8 90 25 18 30 77 49 45 60
REMARK Flexibility Score: inf
ROOT
ATOM      1  C   UNL A   1      33.982  28.860  25.917  1.00  0.00     0.002 C 
ENDROOT
BRANCH   1   2
ATOM      2  C   UNL A   1      34.115  28.415  24.446  1.00  0.00     0.002 C 
BRANCH   2   3
ATOM      3  C   UNL A   1      32.803  28.295  23.653  1.00  0.00     0.021 C 
BRANCH   3   4
ATOM      4  C   UNL A   1      32.110  26.924  23.728  1.00  0.00     0.116 C 
BRANCH   4   5
ATOM      5  N   UNL A   1      31.394  26.697  24.979  1.00  0.00    -0.356 N 
ATOM      6  C   UNL A   1      31.430  25.702  25.913  1.00  0.00     0.223 C 
ATOM      7  O   UNL A   1      30.565  25.767  26.792  1.00  0.00    -0.275 OA
ATOM      8  H   UNL A   1      30.752  27.410  25.195  1.00  0.00     0.163 HD
BRANCH   6   9
ATOM      9  C   UNL A   1      32.470  24.555  25.885  1.00  0.00     0.088 C 
BRANCH   9  10
ATOM     10  C   UNL A   1      33.929  25.041  25.917  1.00  0.00     0.049 C 
BRANCH  10  11
ATOM     11  C   UNL A   1      35.028  24.376  25.116  1.00  0.00    -0.047 A 
ATOM     12  C   UNL A   1      38.444  22.952  26.030  1.00  0.00     0.044 C 
ATOM     13  C   UNL A   1      37.222  23.291  25.231  1.00  0.00    -0.051 A 
ATOM     14  C   UNL A   1      37.012  22.740  23.967  1.00  0.00     0.003 A 
ATOM     15  C   UNL A   1      36.234  24.111  25.791  1.00  0.00     0.007 A 
ATOM     16  C   UNL A   1      35.846  23.028  23.265  1.00  0.00     0.001 A 
ATOM     17  C   UNL A   1      34.870  23.852  23.827  1.00  0.00     0.004 A 
ENDBRANCH  10  11
ENDBRANCH   9  10
BRANCH   9  18
ATOM     18  C   UNL A   1      32.127  23.388  26.919  1.00  0.00     0.030 C 
ATOM     19  C   UNL A   1      33.302  22.633  27.587  1.00  0.00     0.007 C 
ATOM     20  C   UNL A   1      31.182  22.305  26.344  1.00  0.00     0.118 C 
ATOM     21  C   UNL A   1      33.993  21.553  26.743  1.00  0.00     0.001 C 
ATOM     22  C   UNL A   1      31.881  21.470  25.275  1.00  0.00     0.032 C 
ATOM     23  C   UNL A   1      33.066  20.712  25.865  1.00  0.00     0.003 C 
BRANCH  20  24
ATOM     24  O   UNL A   1      29.956  22.834  25.864  1.00  0.00    -0.393 OA
ATOM     25  H   UNL A   1      29.221  22.463  26.377  1.00  0.00     0.210 HD
ENDBRANCH  20  24
ENDBRANCH   9  18
ENDBRANCH   6   9
ENDBRANCH   4   5
ENDBRANCH   3   4
ENDBRANCH   2   3
ENDBRANCH   1   2
BRANCH   1  26
ATOM     26  C   UNL A   1      33.569  30.304  26.207  1.00  0.00     0.021 C 
BRANCH  26  27
ATOM     27  C   UNL A   1      33.504  30.703  27.675  1.00  0.00     0.116 C 
BRANCH  27  28
ATOM     28  N   UNL A   1      34.461  31.750  28.014  1.00  0.00    -0.352 N 
ATOM     29  C   UNL A   1      35.755  31.671  28.547  1.00  0.00     0.251 C 
ATOM     30  H   UNL A   1      34.145  32.666  27.838  1.00  0.00     0.163 HD
ATOM     31  O   UNL A   1      36.331  32.669  28.879  1.00  0.00    -0.269 OA
BRANCH  29  32
ATOM     32  C   UNL A   1      36.434  30.348  28.518  1.00  0.00     0.039 A 
ATOM     33  C   UNL A   1      36.695  29.774  29.768  1.00  0.00     0.014 A 
ATOM     34  C   UNL A   1      37.144  29.953  27.394  1.00  0.00     0.014 A 
ATOM     35  C   UNL A   1      37.890  29.091  29.955  1.00  0.00     0.010 A 
ATOM     36  C   UNL A   1      38.379  29.383  27.595  1.00  0.00     0.010 A 
ATOM     37  C   UNL A   1      38.783  29.046  28.894  1.00  0.00    -0.014 A 
BRANCH  37  38
ATOM     38  C   UNL A   1      40.171  28.646  29.008  1.00  0.00     0.031 A 
ATOM     39  C   UNL A   1      40.480  27.203  28.894  1.00  0.00     0.074 A 
ATOM     40  C   UNL A   1      41.146  29.589  28.990  1.00  0.00     0.049 A 
ATOM     41  N   UNL A   1      41.651  26.703  29.085  1.00  0.00    -0.248 NA
ATOM     42  C   UNL A   1      39.469  26.191  28.569  1.00  0.00     0.031 C 
ATOM     43  C   UNL A   1      42.551  29.378  28.645  1.00  0.00     0.029 A 
ATOM     44  N   UNL A   1      41.135  30.922  29.425  1.00  0.00    -0.354 N 
ATOM     45  C   UNL A   1      41.624  25.434  28.561  1.00  0.00     0.074 A 
ATOM     46  C   UNL A   1      40.232  25.106  28.407  1.00  0.00     0.031 C 
ATOM     47  C   UNL A   1      43.281  30.376  29.170  1.00  0.00     0.029 A 
ATOM     48  C   UNL A   1      42.387  31.109  30.045  1.00  0.00     0.049 A 
ATOM     49  H   UNL A   1      40.412  31.582  29.321  1.00  0.00     0.167 HD
ATOM     50  C   UNL A   1      42.792  24.887  28.141  1.00  0.00     0.034 A 
ATOM     51  C   UNL A   1      42.582  31.243  31.396  1.00  0.00     0.034 A 
ATOM     52  C   UNL A   1      43.941  25.617  28.683  1.00  0.00     0.049 A 
ATOM     53  C   UNL A   1      43.554  30.219  31.987  1.00  0.00     0.074 A 
ATOM     54  C   UNL A   1      44.871  26.485  28.140  1.00  0.00     0.029 A 
ATOM     55  N   UNL A   1      44.075  25.717  30.068  1.00  0.00    -0.354 N 
ATOM     56  N   UNL A   1      43.981  29.163  31.346  1.00  0.00    -0.248 NA
ATOM     57  C   UNL A   1      44.114  30.290  33.338  1.00  0.00     0.031 C 
ATOM     58  C   UNL A   1      45.454  27.220  29.216  1.00  0.00     0.029 A 
ATOM     59  C   UNL A   1      44.926  26.754  30.410  1.00  0.00     0.049 A 
ATOM     60  H   UNL A   1      43.623  25.128  30.716  1.00  0.00     0.167 HD
ATOM     61  C   UNL A   1      44.726  28.369  32.176  1.00  0.00     0.074 A 
ATOM     62  C   UNL A   1      44.848  29.162  33.389  1.00  0.00     0.031 C 
ATOM     63  C   UNL A   1      45.124  27.107  31.815  1.00  0.00     0.034 A 
BRANCH  50  64
ATOM     64  C   UNL A   1      42.896  23.800  27.093  1.00  0.00     0.023 A 
ATOM     65  C   UNL A   1      43.536  24.125  25.879  1.00  0.00     0.012 A 
ATOM     66  C   UNL A   1      42.301  22.513  27.162  1.00  0.00     0.148 A 
ATOM     67  C   UNL A   1      43.595  23.227  24.805  1.00  0.00     0.002 A 
ATOM     68  C   UNL A   1      42.433  21.588  26.124  1.00  0.00     0.091 A 
ATOM     69  F   UNL A   1      41.493  22.197  28.181  1.00  0.00    -0.205 F 
ATOM     70  C   UNL A   1      43.068  21.948  24.934  1.00  0.00     0.022 A 
BRANCH  68  71
ATOM     71  S   UNL A   1      41.831  19.896  26.275  1.00  0.00     0.127 S 
ATOM     72  O   UNL A   1      42.520  19.222  25.176  1.00  0.00    -0.237 OA
ATOM     73  O   UNL A   1      42.293  19.512  27.610  1.00  0.00    -0.237 OA
ATOM     74  O   UNL A   1      40.380  19.977  26.151  1.00  0.00    -0.744 OA
ENDBRANCH  68  71
ENDBRANCH  50  64
BRANCH  51  75
ATOM     75  C   UNL A   1      41.423  31.848  32.115  1.00  0.00     0.023 A 
ATOM     76  C   UNL A   1      41.056  33.160  31.728  1.00  0.00     0.012 A 
ATOM     77  C   UNL A   1      40.494  31.066  32.825  1.00  0.00     0.148 A 
ATOM     78  C   UNL A   1      39.742  33.605  31.867  1.00  0.00     0.002 A 
ATOM     79  C   UNL A   1      39.187  31.530  32.984  1.00  0.00     0.091 A 
ATOM     80  F   UNL A   1      40.876  29.867  33.279  1.00  0.00    -0.205 F 
ATOM     81  C   UNL A   1      38.797  32.772  32.454  1.00  0.00     0.022 A 
BRANCH  79  82
ATOM     82  S   UNL A   1      37.909  30.527  33.758  1.00  0.00     0.127 S 
ATOM     83  O   UNL A   1      36.699  31.087  33.165  1.00  0.00    -0.237 OA
ATOM     84  O   UNL A   1      38.248  29.178  33.304  1.00  0.00    -0.237 OA
ATOM     85  O   UNL A   1      38.083  30.735  35.188  1.00  0.00    -0.744 OA
ENDBRANCH  79  82
ENDBRANCH  51  75
BRANCH  63  86
ATOM     86  C   UNL A   1      45.713  26.070  32.761  1.00  0.00     0.023 A 
ATOM     87  C   UNL A   1      47.103  25.893  32.915  1.00  0.00     0.012 A 
ATOM     88  C   UNL A   1      44.883  25.336  33.651  1.00  0.00     0.148 A 
ATOM     89  C   UNL A   1      47.643  24.989  33.838  1.00  0.00     0.002 A 
ATOM     90  C   UNL A   1      45.428  24.522  34.643  1.00  0.00     0.091 A 
ATOM     91  F   UNL A   1      43.549  25.408  33.532  1.00  0.00    -0.205 F 
ATOM     92  C   UNL A   1      46.806  24.319  34.719  1.00  0.00     0.022 A 
BRANCH  90  93
ATOM     93  S   UNL A   1      44.396  23.838  35.950  1.00  0.00     0.127 S 
ATOM     94  O   UNL A   1      43.450  23.019  35.194  1.00  0.00    -0.237 OA
ATOM     95  O   UNL A   1      45.356  23.075  36.749  1.00  0.00    -0.237 OA
ATOM     96  O   UNL A   1      43.840  24.997  36.638  1.00  0.00    -0.744 OA
ENDBRANCH  90  93
ENDBRANCH  63  86
ENDBRANCH  37  38
ENDBRANCH  29  32
ENDBRANCH  27  28
ENDBRANCH  26  27
ENDBRANCH   1  26
TORSDOF 20
ENDMDL
MODEL 2
REMARK VINA RESULT:     -10.9      2.789      3.823
REMARK SMILES Cc1cccc(C[C@H](C(=O)NCCCCCCNC(=O)c2ccc(-c3c4nc(c(-c5cccc(S(=O)(=O)[O-])c5F)c5ccc([nH]5)c(-c5cccc(S(=O)(=O)[O-])c5F)c5nc(c(-c6cccc(S(=O)(=O)[O-])c6F)c6ccc3[nH]6)C=C5)C=C4)cc2)[C@@H]2CCCC[C@@H]2O)c1
REMARK SMILES IDX 15 1 14 2 13 3 12 4 11 5 9 6 10 7 8 9 7 10 6 11 1 12 2 13
REMARK SMILES IDX 3 14 91 15 4 16 5 17 84 18 85 19 89 20 86 21 88 22 87 23
REMARK SMILES IDX 90 24 16 26 17 27 18 28 19 29 20 31 21 32 22 33 83 34 23 35
REMARK SMILES IDX 82 36 24 37 25 38 26 39 76 40 27 41 81 42 75 43 77 44 28 45
REMARK SMILES IDX 80 46 74 47 73 48 29 50 61 51 41 52 60 53 42 54 45 55 59 56
REMARK SMILES IDX 78 57 43 58 44 59 58 61 79 62 46 63 30 64 31 65 39 66 32 67
REMARK SMILES IDX 34 68 40 69 33 70 35 71 36 72 37 73 38 74 62 75 63 76 71 77
REMARK SMILES IDX 64 78 66 79 72 80 65 81 67 82 68 83 69 84 70 85 47 86 48 87
REMARK SMILES IDX 56 88 49 89 51 90 57 91 50 92 52 93 53 94 54 95 55 96
REMARK H PARENT 11 8 90 25 18 30 77 49 45 60
REMARK Flexibility Score: inf
ROOT
ATOM      1  C   UNL A   1      33.392  30.095  27.037  1.00  0.00     0.002 C 
ENDROOT
BRANCH   1   2
ATOM      2  C   UNL A   1      32.226  29.100  27.221  1.00  0.00     0.002 C 
BRANCH   2   3
ATOM      3  C   UNL A   1      32.593  27.608  27.156  1.00  0.00     0.021 C 
BRANCH   3   4
ATOM      4  C   UNL A   1      31.740  26.760  26.197  1.00  0.00     0.116 C 
BRANCH   4   5
ATOM      5  N   UNL A   1      31.152  25.581  26.823  1.00  0.00    -0.356 N 
ATOM      6  C   UNL A   1      31.280  24.240  26.605  1.00  0.00     0.223 C 
ATOM      7  O   UNL A   1      30.506  23.521  27.244  1.00  0.00    -0.275 OA
ATOM      8  H   UNL A   1      30.534  25.798  27.558  1.00  0.00     0.163 HD
BRANCH   6   9
ATOM      9  C   UNL A   1      32.313  23.640  25.618  1.00  0.00     0.088 C 
BRANCH   9  10
ATOM     10  C   UNL A   1      33.328  22.695  26.283  1.00  0.00     0.049 C 
BRANCH  10  11
ATOM     11  C   UNL A   1      34.794  22.678  25.910  1.00  0.00    -0.047 A 
ATOM     12  C   UNL A   1      37.205  19.915  24.869  1.00  0.00     0.044 C 
ATOM     13  C   UNL A   1      36.657  21.283  25.145  1.00  0.00    -0.051 A 
ATOM     14  C   UNL A   1      37.356  22.429  24.764  1.00  0.00     0.003 A 
ATOM     15  C   UNL A   1      35.388  21.417  25.722  1.00  0.00     0.007 A 
ATOM     16  C   UNL A   1      36.804  23.687  24.983  1.00  0.00     0.001 A 
ATOM     17  C   UNL A   1      35.542  23.812  25.566  1.00  0.00     0.004 A 
ENDBRANCH  10  11
ENDBRANCH   9  10
BRANCH   9  18
ATOM     18  C   UNL A   1      31.637  23.074  24.288  1.00  0.00     0.030 C 
ATOM     19  C   UNL A   1      32.509  22.232  23.325  1.00  0.00     0.007 C 
ATOM     20  C   UNL A   1      30.957  24.163  23.424  1.00  0.00     0.118 C 
ATOM     21  C   UNL A   1      33.456  23.009  22.400  1.00  0.00     0.001 C 
ATOM     22  C   UNL A   1      31.988  25.089  22.784  1.00  0.00     0.032 C 
ATOM     23  C   UNL A   1      32.897  24.315  21.833  1.00  0.00     0.003 C 
BRANCH  20  24
ATOM     24  O   UNL A   1      29.972  24.901  24.131  1.00  0.00    -0.393 OA
ATOM     25  H   UNL A   1      30.139  25.850  24.024  1.00  0.00     0.210 HD
ENDBRANCH  20  24
ENDBRANCH   9  18
ENDBRANCH   6   9
ENDBRANCH   4   5
ENDBRANCH   3   4
ENDBRANCH   2   3
ENDBRANCH   1   2
BRANCH   1  26
ATOM     26  C   UNL A   1      34.720  29.797  27.734  1.00  0.00     0.021 C 
BRANCH  26  27
ATOM     27  C   UNL A   1      35.425  30.987  28.373  1.00  0.00     0.116 C 
BRANCH  27  28
ATOM     28  N   UNL A   1      34.578  32.173  28.433  1.00  0.00    -0.352 N 
ATOM     29  C   UNL A   1      34.672  33.325  29.226  1.00  0.00     0.251 C 
ATOM     30  H   UNL A   1      33.814  32.163  27.813  1.00  0.00     0.163 HD
ATOM     31  O   UNL A   1      33.788  34.136  29.216  1.00  0.00    -0.269 OA
BRANCH  29  32
ATOM     32  C   UNL A   1      35.959  33.580  29.925  1.00  0.00     0.039 A 
ATOM     33  C   UNL A   1      37.046  33.890  29.098  1.00  0.00     0.014 A 
ATOM     34  C   UNL A   1      36.161  33.103  31.212  1.00  0.00     0.014 A 
ATOM     35  C   UNL A   1      38.299  33.384  29.421  1.00  0.00     0.010 A 
ATOM     36  C   UNL A   1      37.367  32.499  31.481  1.00  0.00     0.010 A 
ATOM     37  C   UNL A   1      38.398  32.562  30.534  1.00  0.00    -0.014 A 
BRANCH  37  38
ATOM     38  C   UNL A   1      39.542  31.723  30.834  1.00  0.00     0.031 A 
ATOM     39  C   UNL A   1      39.556  30.356  30.268  1.00  0.00     0.074 A 
ATOM     40  C   UNL A   1      40.640  32.267  31.416  1.00  0.00     0.049 A 
ATOM     41  N   UNL A   1      40.453  29.475  30.544  1.00  0.00    -0.248 NA
ATOM     42  C   UNL A   1      38.529  29.861  29.344  1.00  0.00     0.031 C 
ATOM     43  C   UNL A   1      41.998  31.727  31.382  1.00  0.00     0.029 A 
ATOM     44  N   UNL A   1      40.763  33.348  32.302  1.00  0.00    -0.354 N 
ATOM     45  C   UNL A   1      40.340  28.490  29.593  1.00  0.00     0.074 A 
ATOM     46  C   UNL A   1      39.052  28.685  28.984  1.00  0.00     0.031 C 
ATOM     47  C   UNL A   1      42.696  32.241  32.408  1.00  0.00     0.029 A 
ATOM     48  C   UNL A   1      41.733  32.936  33.239  1.00  0.00     0.049 A 
ATOM     49  H   UNL A   1      40.279  34.204  32.276  1.00  0.00     0.167 HD
ATOM     50  C   UNL A   1      41.436  27.745  29.306  1.00  0.00     0.034 A 
ATOM     51  C   UNL A   1      41.471  32.603  34.544  1.00  0.00     0.034 A 
ATOM     52  C   UNL A   1      42.453  27.878  30.352  1.00  0.00     0.049 A 
ATOM     53  C   UNL A   1      41.936  31.197  34.930  1.00  0.00     0.074 A 
ATOM     54  C   UNL A   1      43.676  28.521  30.426  1.00  0.00     0.029 A 
ATOM     55  N   UNL A   1      42.117  27.525  31.658  1.00  0.00    -0.354 N 
ATOM     56  N   UNL A   1      42.323  30.293  34.069  1.00  0.00    -0.248 NA
ATOM     57  C   UNL A   1      41.995  30.690  36.303  1.00  0.00     0.031 C 
ATOM     58  C   UNL A   1      43.993  28.686  31.808  1.00  0.00     0.029 A 
ATOM     59  C   UNL A   1      42.998  28.089  32.566  1.00  0.00     0.049 A 
ATOM     60  H   UNL A   1      41.355  26.951  31.902  1.00  0.00     0.167 HD
ATOM     61  C   UNL A   1      42.547  29.098  34.699  1.00  0.00     0.074 A 
ATOM     62  C   UNL A   1      42.407  29.423  36.109  1.00  0.00     0.031 C 
ATOM     63  C   UNL A   1      42.767  27.937  34.002  1.00  0.00     0.034 A 
BRANCH  50  64
ATOM     64  C   UNL A   1      41.662  27.035  27.989  1.00  0.00     0.023 A 
ATOM     65  C   UNL A   1      41.657  27.820  26.817  1.00  0.00     0.012 A 
ATOM     66  C   UNL A   1      41.757  25.630  27.802  1.00  0.00     0.148 A 
ATOM     67  C   UNL A   1      41.754  27.251  25.540  1.00  0.00     0.002 A 
ATOM     68  C   UNL A   1      41.939  25.071  26.535  1.00  0.00     0.091 A 
ATOM     69  F   UNL A   1      41.555  24.798  28.830  1.00  0.00    -0.205 F 
ATOM     70  C   UNL A   1      41.921  25.879  25.398  1.00  0.00     0.022 A 
BRANCH  68  71
ATOM     71  S   UNL A   1      42.234  23.307  26.308  1.00  0.00     0.127 S 
ATOM     72  O   UNL A   1      40.889  22.749  26.428  1.00  0.00    -0.237 OA
ATOM     73  O   UNL A   1      42.798  23.251  24.958  1.00  0.00    -0.237 OA
ATOM     74  O   UNL A   1      43.171  22.922  27.357  1.00  0.00    -0.744 OA
ENDBRANCH  68  71
ENDBRANCH  50  64
BRANCH  51  75
ATOM     75  C   UNL A   1      40.291  33.312  35.123  1.00  0.00     0.023 A 
ATOM     76  C   UNL A   1      39.025  32.725  34.886  1.00  0.00     0.012 A 
ATOM     77  C   UNL A   1      40.421  34.249  36.163  1.00  0.00     0.148 A 
ATOM     78  C   UNL A   1      37.971  32.914  35.780  1.00  0.00     0.002 A 
ATOM     79  C   UNL A   1      39.353  34.453  37.039  1.00  0.00     0.091 A 
ATOM     80  F   UNL A   1      41.592  34.878  36.321  1.00  0.00    -0.205 F 
ATOM     81  C   UNL A   1      38.151  33.743  36.881  1.00  0.00     0.022 A 
BRANCH  79  82
ATOM     82  S   UNL A   1      39.491  35.530  38.473  1.00  0.00     0.127 S 
ATOM     83  O   UNL A   1      39.355  36.849  37.862  1.00  0.00    -0.237 OA
ATOM     84  O   UNL A   1      38.353  35.113  39.292  1.00  0.00    -0.237 OA
ATOM     85  O   UNL A   1      40.788  35.218  39.054  1.00  0.00    -0.744 OA
ENDBRANCH  79  82
ENDBRANCH  51  75
BRANCH  63  86
ATOM     86  C   UNL A   1      42.757  26.539  34.605  1.00  0.00     0.023 A 
ATOM     87  C   UNL A   1      41.632  26.014  35.274  1.00  0.00     0.012 A 
ATOM     88  C   UNL A   1      43.834  25.639  34.383  1.00  0.00     0.148 A 
ATOM     89  C   UNL A   1      41.600  24.703  35.764  1.00  0.00     0.002 A 
ATOM     90  C   UNL A   1      43.753  24.303  34.774  1.00  0.00     0.091 A 
ATOM     91  F   UNL A   1      44.960  26.077  33.803  1.00  0.00    -0.205 F 
ATOM     92  C   UNL A   1      42.652  23.839  35.495  1.00  0.00     0.022 A 
BRANCH  90  93
ATOM     93  S   UNL A   1      44.979  23.103  34.229  1.00  0.00     0.127 S 
ATOM     94  O   UNL A   1      46.179  23.552  34.931  1.00  0.00    -0.237 OA
ATOM     95  O   UNL A   1      44.426  21.838  34.718  1.00  0.00    -0.237 OA
ATOM     96  O   UNL A   1      45.000  23.218  32.776  1.00  0.00    -0.744 OA
ENDBRANCH  90  93
ENDBRANCH  63  86
ENDBRANCH  37  38
ENDBRANCH  29  32
ENDBRANCH  27  28
ENDBRANCH  26  27
ENDBRANCH   1  26
TORSDOF 20
ENDMDL
MODEL 3
REMARK VINA RESULT:     -10.4      2.960      4.593
REMARK SMILES Cc1cccc(C[C@H](C(=O)NCCCCCCNC(=O)c2ccc(-c3c4nc(c(-c5cccc(S(=O)(=O)[O-])c5F)c5ccc([nH]5)c(-c5cccc(S(=O)(=O)[O-])c5F)c5nc(c(-c6cccc(S(=O)(=O)[O-])c6F)c6ccc3[nH]6)C=C5)C=C4)cc2)[C@@H]2CCCC[C@@H]2O)c1
REMARK SMILES IDX 15 1 14 2 13 3 12 4 11 5 9 6 10 7 8 9 7 10 6 11 1 12 2 13
REMARK SMILES IDX 3 14 91 15 4 16 5 17 84 18 85 19 89 20 86 21 88 22 87 23
REMARK SMILES IDX 90 24 16 26 17 27 18 28 19 29 20 31 21 32 22 33 83 34 23 35
REMARK SMILES IDX 82 36 24 37 25 38 26 39 76 40 27 41 81 42 75 43 77 44 28 45
REMARK SMILES IDX 80 46 74 47 73 48 29 50 61 51 41 52 60 53 42 54 45 55 59 56
REMARK SMILES IDX 78 57 43 58 44 59 58 61 79 62 46 63 30 64 31 65 39 66 32 67
REMARK SMILES IDX 34 68 40 69 33 70 35 71 36 72 37 73 38 74 62 75 63 76 71 77
REMARK SMILES IDX 64 78 66 79 72 80 65 81 67 82 68 83 69 84 70 85 47 86 48 87
REMARK SMILES IDX 56 88 49 89 51 90 57 91 50 92 52 93 53 94 54 95 55 96
REMARK H PARENT 11 8 90 25 18 30 77 49 45 60
REMARK Flexibility Score: inf
ROOT
ATOM      1  C   UNL A   1      34.338  29.897  26.828  1.00  0.00     0.002 C 
ENDROOT
BRANCH   1   2
ATOM      2  C   UNL A   1      33.846  28.436  26.899  1.00  0.00     0.002 C 
BRANCH   2   3
ATOM      3  C   UNL A   1      32.412  28.229  27.415  1.00  0.00     0.021 C 
BRANCH   3   4
ATOM      4  C   UNL A   1      31.412  27.680  26.382  1.00  0.00     0.116 C 
BRANCH   4   5
ATOM      5  N   UNL A   1      30.728  26.468  26.818  1.00  0.00    -0.356 N 
ATOM      6  C   UNL A   1      30.503  25.255  26.232  1.00  0.00     0.223 C 
ATOM      7  O   UNL A   1      29.747  24.498  26.849  1.00  0.00    -0.275 OA
ATOM      8  H   UNL A   1      30.349  26.538  27.723  1.00  0.00     0.163 HD
BRANCH   6   9
ATOM      9  C   UNL A   1      31.136  24.841  24.880  1.00  0.00     0.088 C 
BRANCH   9  10
ATOM     10  C   UNL A   1      30.292  25.230  23.655  1.00  0.00     0.049 C 
BRANCH  10  11
ATOM     11  C   UNL A   1      29.493  26.513  23.589  1.00  0.00    -0.047 A 
ATOM     12  C   UNL A   1      30.075  29.880  21.899  1.00  0.00     0.044 C 
ATOM     13  C   UNL A   1      29.394  28.772  22.644  1.00  0.00    -0.051 A 
ATOM     14  C   UNL A   1      28.032  28.834  22.942  1.00  0.00     0.003 A 
ATOM     15  C   UNL A   1      30.114  27.617  22.977  1.00  0.00     0.007 A 
ATOM     16  C   UNL A   1      27.410  27.769  23.587  1.00  0.00     0.001 A 
ATOM     17  C   UNL A   1      28.138  26.626  23.923  1.00  0.00     0.004 A 
ENDBRANCH  10  11
ENDBRANCH   9  10
BRANCH   9  18
ATOM     18  C   UNL A   1      32.682  25.226  24.782  1.00  0.00     0.030 C 
ATOM     19  C   UNL A   1      33.224  25.736  23.424  1.00  0.00     0.007 C 
ATOM     20  C   UNL A   1      33.636  24.094  25.236  1.00  0.00     0.118 C 
ATOM     21  C   UNL A   1      33.519  24.672  22.359  1.00  0.00     0.001 C 
ATOM     22  C   UNL A   1      33.623  22.929  24.250  1.00  0.00     0.032 C 
ATOM     23  C   UNL A   1      34.130  23.371  22.880  1.00  0.00     0.003 C 
BRANCH  20  24
ATOM     24  O   UNL A   1      33.383  23.651  26.560  1.00  0.00    -0.393 OA
ATOM     25  H   UNL A   1      33.045  22.742  26.539  1.00  0.00     0.210 HD
ENDBRANCH  20  24
ENDBRANCH   9  18
ENDBRANCH   6   9
ENDBRANCH   4   5
ENDBRANCH   3   4
ENDBRANCH   2   3
ENDBRANCH   1   2
BRANCH   1  26
ATOM     26  C   UNL A   1      35.569  30.291  27.644  1.00  0.00     0.021 C 
BRANCH  26  27
ATOM     27  C   UNL A   1      35.308  30.773  29.065  1.00  0.00     0.116 C 
BRANCH  27  28
ATOM     28  N   UNL A   1      34.469  31.966  29.107  1.00  0.00    -0.352 N 
ATOM     29  C   UNL A   1      34.639  33.182  29.784  1.00  0.00     0.251 C 
ATOM     30  H   UNL A   1      33.647  31.908  28.568  1.00  0.00     0.163 HD
ATOM     31  O   UNL A   1      33.757  33.994  29.792  1.00  0.00    -0.269 OA
BRANCH  29  32
ATOM     32  C   UNL A   1      35.990  33.487  30.327  1.00  0.00     0.039 A 
ATOM     33  C   UNL A   1      36.991  33.702  29.372  1.00  0.00     0.014 A 
ATOM     34  C   UNL A   1      36.314  33.135  31.628  1.00  0.00     0.014 A 
ATOM     35  C   UNL A   1      38.268  33.215  29.619  1.00  0.00     0.010 A 
ATOM     36  C   UNL A   1      37.539  32.545  31.836  1.00  0.00     0.010 A 
ATOM     37  C   UNL A   1      38.474  32.503  30.793  1.00  0.00    -0.014 A 
BRANCH  37  38
ATOM     38  C   UNL A   1      39.639  31.684  31.061  1.00  0.00     0.031 A 
ATOM     39  C   UNL A   1      39.669  30.324  30.478  1.00  0.00     0.074 A 
ATOM     40  C   UNL A   1      40.737  32.243  31.628  1.00  0.00     0.049 A 
ATOM     41  N   UNL A   1      40.588  29.458  30.726  1.00  0.00    -0.248 NA
ATOM     42  C   UNL A   1      38.634  29.820  29.568  1.00  0.00     0.031 C 
ATOM     43  C   UNL A   1      42.105  31.729  31.561  1.00  0.00     0.029 A 
ATOM     44  N   UNL A   1      40.856  33.315  32.524  1.00  0.00    -0.354 N 
ATOM     45  C   UNL A   1      40.475  28.482  29.766  1.00  0.00     0.074 A 
ATOM     46  C   UNL A   1      39.172  28.659  29.184  1.00  0.00     0.031 C 
ATOM     47  C   UNL A   1      42.812  32.245  32.580  1.00  0.00     0.029 A 
ATOM     48  C   UNL A   1      41.852  32.911  33.438  1.00  0.00     0.049 A 
ATOM     49  H   UNL A   1      40.356  34.162  32.517  1.00  0.00     0.167 HD
ATOM     50  C   UNL A   1      41.580  27.762  29.449  1.00  0.00     0.034 A 
ATOM     51  C   UNL A   1      41.622  32.558  34.743  1.00  0.00     0.034 A 
ATOM     52  C   UNL A   1      42.615  27.903  30.477  1.00  0.00     0.049 A 
ATOM     53  C   UNL A   1      42.121  31.157  35.104  1.00  0.00     0.074 A 
ATOM     54  C   UNL A   1      43.826  28.569  30.536  1.00  0.00     0.029 A 
ATOM     55  N   UNL A   1      42.311  27.528  31.785  1.00  0.00    -0.354 N 
ATOM     56  N   UNL A   1      42.509  30.271  34.225  1.00  0.00    -0.248 NA
ATOM     57  C   UNL A   1      42.216  30.636  36.469  1.00  0.00     0.031 C 
ATOM     58  C   UNL A   1      44.166  28.723  31.913  1.00  0.00     0.029 A 
ATOM     59  C   UNL A   1      43.198  28.099  32.683  1.00  0.00     0.049 A 
ATOM     60  H   UNL A   1      41.565  26.936  32.037  1.00  0.00     0.167 HD
ATOM     61  C   UNL A   1      42.769  29.074  34.836  1.00  0.00     0.074 A 
ATOM     62  C   UNL A   1      42.650  29.380  36.252  1.00  0.00     0.031 C 
ATOM     63  C   UNL A   1      42.997  27.926  34.121  1.00  0.00     0.034 A 
BRANCH  50  64
ATOM     64  C   UNL A   1      41.795  27.072  28.119  1.00  0.00     0.023 A 
ATOM     65  C   UNL A   1      41.752  27.870  26.958  1.00  0.00     0.012 A 
ATOM     66  C   UNL A   1      41.913  25.671  27.913  1.00  0.00     0.148 A 
ATOM     67  C   UNL A   1      41.836  27.318  25.672  1.00  0.00     0.002 A 
ATOM     68  C   UNL A   1      42.081  25.130  26.637  1.00  0.00     0.091 A 
ATOM     69  F   UNL A   1      41.746  24.823  28.935  1.00  0.00    -0.205 F 
ATOM     70  C   UNL A   1      42.026  25.951  25.510  1.00  0.00     0.022 A 
BRANCH  68  71
ATOM     71  S   UNL A   1      42.406  23.376  26.383  1.00  0.00     0.127 S 
ATOM     72  O   UNL A   1      41.080  22.786  26.558  1.00  0.00    -0.237 OA
ATOM     73  O   UNL A   1      42.910  23.342  25.009  1.00  0.00    -0.237 OA
ATOM     74  O   UNL A   1      43.396  23.004  27.387  1.00  0.00    -0.744 OA
ENDBRANCH  68  71
ENDBRANCH  50  64
BRANCH  51  75
ATOM     75  C   UNL A   1      40.440  33.237  35.353  1.00  0.00     0.023 A 
ATOM     76  C   UNL A   1      39.204  32.553  35.262  1.00  0.00     0.012 A 
ATOM     77  C   UNL A   1      40.578  34.265  36.303  1.00  0.00     0.148 A 
ATOM     78  C   UNL A   1      38.206  32.750  36.216  1.00  0.00     0.002 A 
ATOM     79  C   UNL A   1      39.564  34.473  37.239  1.00  0.00     0.091 A 
ATOM     80  F   UNL A   1      41.711  34.978  36.320  1.00  0.00    -0.205 F 
ATOM     81  C   UNL A   1      38.406  33.678  37.231  1.00  0.00     0.022 A 
BRANCH  79  82
ATOM     82  S   UNL A   1      39.729  35.674  38.568  1.00  0.00     0.127 S 
ATOM     83  O   UNL A   1      38.590  35.332  39.415  1.00  0.00    -0.237 OA
ATOM     84  O   UNL A   1      41.036  35.342  39.134  1.00  0.00    -0.237 OA
ATOM     85  O   UNL A   1      39.678  36.972  37.911  1.00  0.00    -0.744 OA
ENDBRANCH  79  82
ENDBRANCH  51  75
BRANCH  63  86
ATOM     86  C   UNL A   1      43.026  26.520  34.707  1.00  0.00     0.023 A 
ATOM     87  C   UNL A   1      41.851  25.831  35.071  1.00  0.00     0.012 A 
ATOM     88  C   UNL A   1      44.236  25.779  34.769  1.00  0.00     0.148 A 
ATOM     89  C   UNL A   1      41.876  24.512  35.542  1.00  0.00     0.002 A 
ATOM     90  C   UNL A   1      44.242  24.433  35.132  1.00  0.00     0.091 A 
ATOM     91  F   UNL A   1      45.402  26.380  34.492  1.00  0.00    -0.205 F 
ATOM     92  C   UNL A   1      43.069  23.804  35.552  1.00  0.00     0.022 A 
BRANCH  90  93
ATOM     93  S   UNL A   1      45.717  23.423  34.921  1.00  0.00     0.127 S 
ATOM     94  O   UNL A   1      45.193  22.073  35.117  1.00  0.00    -0.237 OA
ATOM     95  O   UNL A   1      46.118  23.726  33.546  1.00  0.00    -0.237 OA
ATOM     96  O   UNL A   1      46.652  23.905  35.930  1.00  0.00    -0.744 OA
ENDBRANCH  90  93
ENDBRANCH  63  86
ENDBRANCH  37  38
ENDBRANCH  29  32
ENDBRANCH  27  28
ENDBRANCH  26  27
ENDBRANCH   1  26
TORSDOF 20
ENDMDL
