MODEL 1
REMARK VINA RESULT:     -11.6      0.000      0.000
REMARK SMILES C[C@@H](C(=O)NCCCCCCNC(=O)c1ccc(-c2c3nc(c(-c4cccc(S(=O)(=O)[O-])c4F)c4ccc([nH]4)c(-c4cccc(S(=O)(=O)[O-])c4F)c4nc(c(-c5cccc(S(=O)(=O)[O-])c5F)c5ccc2[nH]5)C=C4)C=C3)cc1)c1cccc(C(=O)c2ccccc2)c1
REMARK SMILES IDX 8 1 7 2 6 3 5 4 3 5 4 6 2 8 1 9 78 10 79 11 91 12 80 13
REMARK SMILES IDX 82 14 81 15 83 16 84 17 85 18 86 19 90 20 87 21 89 22 88 23
REMARK SMILES IDX 9 24 10 25 11 26 12 27 13 28 14 30 15 31 16 32 77 33 17 34
REMARK SMILES IDX 76 35 18 36 19 37 20 38 70 39 21 40 75 41 69 42 71 43 22 44
REMARK SMILES IDX 74 45 68 46 67 47 23 49 55 50 35 51 54 52 36 53 39 54 53 55
REMARK SMILES IDX 72 56 37 57 38 58 52 60 73 61 40 62 24 63 25 64 33 65 26 66
REMARK SMILES IDX 28 67 34 68 27 69 29 70 30 71 31 72 32 73 56 74 57 75 65 76
REMARK SMILES IDX 58 77 60 78 66 79 59 80 61 81 62 82 63 83 64 84 41 85 42 86
REMARK SMILES IDX 50 87 43 88 45 89 51 90 44 91 46 92 47 93 48 94 49 95
REMARK H PARENT 5 7 12 29 71 48 39 59
REMARK Flexibility Score: inf
ROOT
ATOM      1  C   UNL A   1      34.395  24.803  23.802  1.00  0.00     0.002 C 
ENDROOT
BRANCH   1   2
ATOM      2  C   UNL A   1      33.184  25.076  22.899  1.00  0.00     0.021 C 
BRANCH   2   3
ATOM      3  C   UNL A   1      33.333  26.308  22.002  1.00  0.00     0.116 C 
BRANCH   3   4
ATOM      4  N   UNL A   1      32.038  26.870  21.690  1.00  0.00    -0.356 N 
ATOM      5  C   UNL A   1      31.366  27.916  22.243  1.00  0.00     0.227 C 
ATOM      6  O   UNL A   1      30.232  28.123  21.803  1.00  0.00    -0.274 OA
ATOM      7  H   UNL A   1      31.562  26.421  20.953  1.00  0.00     0.163 HD
BRANCH   5   8
ATOM      8  C   UNL A   1      32.035  28.801  23.314  1.00  0.00     0.105 C 
ATOM      9  C   UNL A   1      33.564  28.863  23.194  1.00  0.00     0.023 C 
BRANCH   8  10
ATOM     10  C   UNL A   1      31.723  28.343  24.740  1.00  0.00    -0.035 A 
ATOM     11  C   UNL A   1      32.029  29.144  25.845  1.00  0.00     0.004 A 
ATOM     12  C   UNL A   1      31.205  27.055  24.964  1.00  0.00     0.016 A 
ATOM     13  C   UNL A   1      31.831  28.660  27.140  1.00  0.00     0.001 A 
ATOM     14  C   UNL A   1      31.036  26.548  26.254  1.00  0.00     0.023 A 
ATOM     15  C   UNL A   1      31.346  27.365  27.346  1.00  0.00     0.012 A 
BRANCH  14  16
ATOM     16  C   UNL A   1      30.511  25.169  26.492  1.00  0.00     0.193 C 
ATOM     17  O   UNL A   1      29.348  25.000  26.849  1.00  0.00    -0.289 OA
BRANCH  16  18
ATOM     18  C   UNL A   1      31.362  23.976  26.263  1.00  0.00     0.022 A 
ATOM     19  C   UNL A   1      32.527  23.838  27.023  1.00  0.00     0.012 A 
ATOM     20  C   UNL A   1      31.009  22.992  25.332  1.00  0.00     0.012 A 
ATOM     21  C   UNL A   1      33.310  22.692  26.890  1.00  0.00     0.001 A 
ATOM     22  C   UNL A   1      31.790  21.842  25.210  1.00  0.00     0.001 A 
ATOM     23  C   UNL A   1      32.935  21.689  25.993  1.00  0.00     0.000 A 
ENDBRANCH  16  18
ENDBRANCH  14  16
ENDBRANCH   8  10
ENDBRANCH   5   8
ENDBRANCH   3   4
ENDBRANCH   2   3
ENDBRANCH   1   2
BRANCH   1  24
ATOM     24  C   UNL A   1      35.031  23.420  23.638  1.00  0.00     0.002 C 
BRANCH  24  25
ATOM     25  C   UNL A   1      36.512  23.342  24.012  1.00  0.00     0.021 C 
BRANCH  25  26
ATOM     26  C   UNL A   1      36.790  23.406  25.510  1.00  0.00     0.116 C 
BRANCH  26  27
ATOM     27  N   UNL A   1      37.784  22.429  25.920  1.00  0.00    -0.352 N 
ATOM     28  C   UNL A   1      39.027  22.638  26.456  1.00  0.00     0.251 C 
ATOM     29  H   UNL A   1      37.529  21.486  25.795  1.00  0.00     0.163 HD
ATOM     30  O   UNL A   1      39.814  21.693  26.559  1.00  0.00    -0.269 OA
BRANCH  28  31
ATOM     31  C   UNL A   1      39.429  23.988  26.903  1.00  0.00     0.039 A 
ATOM     32  C   UNL A   1      40.067  24.840  25.998  1.00  0.00     0.014 A 
ATOM     33  C   UNL A   1      39.209  24.405  28.220  1.00  0.00     0.014 A 
ATOM     34  C   UNL A   1      40.463  26.115  26.405  1.00  0.00     0.010 A 
ATOM     35  C   UNL A   1      39.533  25.704  28.602  1.00  0.00     0.010 A 
ATOM     36  C   UNL A   1      40.190  26.562  27.709  1.00  0.00    -0.014 A 
BRANCH  36  37
ATOM     37  C   UNL A   1      40.627  27.906  28.166  1.00  0.00     0.031 A 
ATOM     38  C   UNL A   1      42.089  28.268  28.147  1.00  0.00     0.074 A 
ATOM     39  C   UNL A   1      39.722  28.776  28.655  1.00  0.00     0.049 A 
ATOM     40  N   UNL A   1      42.668  29.380  28.518  1.00  0.00    -0.248 NA
ATOM     41  C   UNL A   1      43.029  27.236  27.679  1.00  0.00     0.031 C 
ATOM     42  C   UNL A   1      38.289  28.515  28.800  1.00  0.00     0.029 A 
ATOM     43  N   UNL A   1      39.878  30.052  29.136  1.00  0.00    -0.354 N 
ATOM     44  C   UNL A   1      44.033  29.167  28.371  1.00  0.00     0.074 A 
ATOM     45  C   UNL A   1      44.201  27.808  27.910  1.00  0.00     0.031 C 
ATOM     46  C   UNL A   1      37.694  29.601  29.321  1.00  0.00     0.029 A 
ATOM     47  C   UNL A   1      38.704  30.626  29.567  1.00  0.00     0.049 A 
ATOM     48  H   UNL A   1      40.747  30.512  29.172  1.00  0.00     0.167 HD
ATOM     49  C   UNL A   1      45.056  30.033  28.568  1.00  0.00     0.034 A 
ATOM     50  C   UNL A   1      38.470  31.844  30.095  1.00  0.00     0.034 A 
ATOM     51  C   UNL A   1      44.881  31.404  28.966  1.00  0.00     0.049 A 
ATOM     52  C   UNL A   1      39.616  32.810  30.239  1.00  0.00     0.074 A 
ATOM     53  C   UNL A   1      45.841  32.391  29.096  1.00  0.00     0.029 A 
ATOM     54  N   UNL A   1      43.666  31.979  29.302  1.00  0.00    -0.354 N 
ATOM     55  N   UNL A   1      40.880  32.643  29.935  1.00  0.00    -0.248 NA
ATOM     56  C   UNL A   1      39.294  34.148  30.757  1.00  0.00     0.031 C 
ATOM     57  C   UNL A   1      45.208  33.560  29.532  1.00  0.00     0.029 A 
ATOM     58  C   UNL A   1      43.850  33.307  29.645  1.00  0.00     0.049 A 
ATOM     59  H   UNL A   1      42.799  31.512  29.297  1.00  0.00     0.167 HD
ATOM     60  C   UNL A   1      41.495  33.866  30.179  1.00  0.00     0.074 A 
ATOM     61  C   UNL A   1      40.460  34.768  30.642  1.00  0.00     0.031 C 
ATOM     62  C   UNL A   1      42.800  34.209  30.043  1.00  0.00     0.034 A 
BRANCH  49  63
ATOM     63  C   UNL A   1      46.455  29.539  28.304  1.00  0.00     0.023 A 
ATOM     64  C   UNL A   1      46.997  29.635  27.005  1.00  0.00     0.012 A 
ATOM     65  C   UNL A   1      47.251  29.026  29.347  1.00  0.00     0.148 A 
ATOM     66  C   UNL A   1      48.293  29.194  26.740  1.00  0.00     0.002 A 
ATOM     67  C   UNL A   1      48.558  28.632  29.085  1.00  0.00     0.091 A 
ATOM     68  F   UNL A   1      46.713  28.920  30.569  1.00  0.00    -0.205 F 
ATOM     69  C   UNL A   1      49.076  28.702  27.781  1.00  0.00     0.022 A 
BRANCH  67  70
ATOM     70  S   UNL A   1      49.673  28.063  30.374  1.00  0.00     0.127 S 
ATOM     71  O   UNL A   1      49.018  26.829  30.807  1.00  0.00    -0.237 OA
ATOM     72  O   UNL A   1      50.921  27.863  29.635  1.00  0.00    -0.237 OA
ATOM     73  O   UNL A   1      49.718  29.129  31.365  1.00  0.00    -0.744 OA
ENDBRANCH  67  70
ENDBRANCH  49  63
BRANCH  50  74
ATOM     74  C   UNL A   1      37.079  32.253  30.438  1.00  0.00     0.023 A 
ATOM     75  C   UNL A   1      36.603  32.046  31.749  1.00  0.00     0.012 A 
ATOM     76  C   UNL A   1      36.235  32.863  29.491  1.00  0.00     0.148 A 
ATOM     77  C   UNL A   1      35.301  32.403  32.099  1.00  0.00     0.002 A 
ATOM     78  C   UNL A   1      34.957  33.267  29.861  1.00  0.00     0.091 A 
ATOM     79  F   UNL A   1      36.702  33.044  28.247  1.00  0.00    -0.205 F 
ATOM     80  C   UNL A   1      34.482  33.022  31.159  1.00  0.00     0.022 A 
BRANCH  78  81
ATOM     81  S   UNL A   1      33.879  34.184  28.755  1.00  0.00     0.127 S 
ATOM     82  O   UNL A   1      32.839  34.651  29.669  1.00  0.00    -0.237 OA
ATOM     83  O   UNL A   1      34.776  35.228  28.257  1.00  0.00    -0.237 OA
ATOM     84  O   UNL A   1      33.450  33.230  27.742  1.00  0.00    -0.744 OA
ENDBRANCH  78  81
ENDBRANCH  50  74
BRANCH  62  85
ATOM     85  C   UNL A   1      43.184  35.634  30.345  1.00  0.00     0.023 A 
ATOM     86  C   UNL A   1      43.697  35.974  31.612  1.00  0.00     0.012 A 
ATOM     87  C   UNL A   1      43.103  36.623  29.344  1.00  0.00     0.148 A 
ATOM     88  C   UNL A   1      44.085  37.285  31.891  1.00  0.00     0.002 A 
ATOM     89  C   UNL A   1      43.541  37.915  29.613  1.00  0.00     0.091 A 
ATOM     90  F   UNL A   1      42.594  36.286  28.149  1.00  0.00    -0.205 F 
ATOM     91  C   UNL A   1      44.019  38.250  30.888  1.00  0.00     0.022 A 
BRANCH  89  92
ATOM     92  S   UNL A   1      43.587  39.191  28.350  1.00  0.00     0.127 S 
ATOM     93  O   UNL A   1      44.414  38.562  27.321  1.00  0.00    -0.237 OA
ATOM     94  O   UNL A   1      42.175  39.331  27.995  1.00  0.00    -0.237 OA
ATOM     95  O   UNL A   1      44.165  40.365  28.989  1.00  0.00    -0.744 OA
ENDBRANCH  89  92
ENDBRANCH  62  85
ENDBRANCH  36  37
ENDBRANCH  28  31
ENDBRANCH  26  27
ENDBRANCH  25  26
ENDBRANCH  24  25
ENDBRANCH   1  24
TORSDOF 19
ENDMDL
MODEL 2
REMARK VINA RESULT:     -11.2      1.234      2.915
REMARK SMILES C[C@@H](C(=O)NCCCCCCNC(=O)c1ccc(-c2c3nc(c(-c4cccc(S(=O)(=O)[O-])c4F)c4ccc([nH]4)c(-c4cccc(S(=O)(=O)[O-])c4F)c4nc(c(-c5cccc(S(=O)(=O)[O-])c5F)c5ccc2[nH]5)C=C4)C=C3)cc1)c1cccc(C(=O)c2ccccc2)c1
REMARK SMILES IDX 8 1 7 2 6 3 5 4 3 5 4 6 2 8 1 9 78 10 79 11 91 12 80 13
REMARK SMILES IDX 82 14 81 15 83 16 84 17 85 18 86 19 90 20 87 21 89 22 88 23
REMARK SMILES IDX 9 24 10 25 11 26 12 27 13 28 14 30 15 31 16 32 77 33 17 34
REMARK SMILES IDX 76 35 18 36 19 37 20 38 70 39 21 40 75 41 69 42 71 43 22 44
REMARK SMILES IDX 74 45 68 46 67 47 23 49 55 50 35 51 54 52 36 53 39 54 53 55
REMARK SMILES IDX 72 56 37 57 38 58 52 60 73 61 40 62 24 63 25 64 33 65 26 66
REMARK SMILES IDX 28 67 34 68 27 69 29 70 30 71 31 72 32 73 56 74 57 75 65 76
REMARK SMILES IDX 58 77 60 78 66 79 59 80 61 81 62 82 63 83 64 84 41 85 42 86
REMARK SMILES IDX 50 87 43 88 45 89 51 90 44 91 46 92 47 93 48 94 49 95
REMARK H PARENT 5 7 12 29 71 48 39 59
REMARK Flexibility Score: inf
ROOT
ATOM      1  C   UNL A   1      34.957  21.208  24.648  1.00  0.00     0.002 C 
ENDROOT
BRANCH   1   2
ATOM      2  C   UNL A   1      33.891  21.080  25.745  1.00  0.00     0.021 C 
BRANCH   2   3
ATOM      3  C   UNL A   1      32.451  21.209  25.239  1.00  0.00     0.116 C 
BRANCH   3   4
ATOM      4  N   UNL A   1      31.646  21.954  26.182  1.00  0.00    -0.356 N 
ATOM      5  C   UNL A   1      31.543  23.293  26.401  1.00  0.00     0.227 C 
ATOM      6  O   UNL A   1      30.810  23.633  27.333  1.00  0.00    -0.274 OA
ATOM      7  H   UNL A   1      31.075  21.399  26.762  1.00  0.00     0.163 HD
BRANCH   5   8
ATOM      8  C   UNL A   1      32.271  24.297  25.484  1.00  0.00     0.105 C 
ATOM      9  C   UNL A   1      33.477  24.974  26.149  1.00  0.00     0.023 C 
BRANCH   8  10
ATOM     10  C   UNL A   1      31.355  25.416  24.987  1.00  0.00    -0.035 A 
ATOM     11  C   UNL A   1      30.239  25.143  24.189  1.00  0.00     0.004 A 
ATOM     12  C   UNL A   1      31.682  26.759  25.251  1.00  0.00     0.016 A 
ATOM     13  C   UNL A   1      29.479  26.189  23.661  1.00  0.00     0.001 A 
ATOM     14  C   UNL A   1      30.949  27.813  24.700  1.00  0.00     0.023 A 
ATOM     15  C   UNL A   1      29.836  27.518  23.907  1.00  0.00     0.012 A 
BRANCH  14  16
ATOM     16  C   UNL A   1      31.313  29.239  24.959  1.00  0.00     0.193 C 
ATOM     17  O   UNL A   1      30.635  30.148  24.489  1.00  0.00    -0.289 OA
BRANCH  16  18
ATOM     18  C   UNL A   1      32.469  29.590  25.820  1.00  0.00     0.022 A 
ATOM     19  C   UNL A   1      32.321  30.639  26.731  1.00  0.00     0.012 A 
ATOM     20  C   UNL A   1      33.675  28.882  25.751  1.00  0.00     0.012 A 
ATOM     21  C   UNL A   1      33.360  30.946  27.610  1.00  0.00     0.001 A 
ATOM     22  C   UNL A   1      34.708  29.186  26.639  1.00  0.00     0.001 A 
ATOM     23  C   UNL A   1      34.547  30.212  27.572  1.00  0.00     0.000 A 
ENDBRANCH  16  18
ENDBRANCH  14  16
ENDBRANCH   8  10
ENDBRANCH   5   8
ENDBRANCH   3   4
ENDBRANCH   2   3
ENDBRANCH   1   2
BRANCH   1  24
ATOM     24  C   UNL A   1      35.055  22.589  23.994  1.00  0.00     0.002 C 
BRANCH  24  25
ATOM     25  C   UNL A   1      36.405  23.289  24.163  1.00  0.00     0.021 C 
BRANCH  25  26
ATOM     26  C   UNL A   1      36.849  23.466  25.610  1.00  0.00     0.116 C 
BRANCH  26  27
ATOM     27  N   UNL A   1      37.832  22.470  26.002  1.00  0.00    -0.352 N 
ATOM     28  C   UNL A   1      39.092  22.656  26.506  1.00  0.00     0.251 C 
ATOM     29  H   UNL A   1      37.554  21.532  25.890  1.00  0.00     0.163 HD
ATOM     30  O   UNL A   1      39.862  21.696  26.595  1.00  0.00    -0.269 OA
BRANCH  28  31
ATOM     31  C   UNL A   1      39.534  24.001  26.933  1.00  0.00     0.039 A 
ATOM     32  C   UNL A   1      39.359  24.379  28.267  1.00  0.00     0.014 A 
ATOM     33  C   UNL A   1      40.088  24.901  26.017  1.00  0.00     0.014 A 
ATOM     34  C   UNL A   1      39.761  25.649  28.686  1.00  0.00     0.010 A 
ATOM     35  C   UNL A   1      40.560  26.135  26.453  1.00  0.00     0.010 A 
ATOM     36  C   UNL A   1      40.374  26.535  27.784  1.00  0.00    -0.014 A 
BRANCH  36  37
ATOM     37  C   UNL A   1      40.784  27.898  28.208  1.00  0.00     0.031 A 
ATOM     38  C   UNL A   1      42.243  28.276  28.220  1.00  0.00     0.074 A 
ATOM     39  C   UNL A   1      39.856  28.774  28.641  1.00  0.00     0.049 A 
ATOM     40  N   UNL A   1      42.799  29.407  28.570  1.00  0.00    -0.248 NA
ATOM     41  C   UNL A   1      43.206  27.239  27.815  1.00  0.00     0.031 C 
ATOM     42  C   UNL A   1      38.422  28.502  28.752  1.00  0.00     0.029 A 
ATOM     43  N   UNL A   1      39.984  30.067  29.083  1.00  0.00    -0.354 N 
ATOM     44  C   UNL A   1      44.169  29.204  28.470  1.00  0.00     0.074 A 
ATOM     45  C   UNL A   1      44.364  27.831  28.061  1.00  0.00     0.031 C 
ATOM     46  C   UNL A   1      37.801  29.599  29.218  1.00  0.00     0.029 A 
ATOM     47  C   UNL A   1      38.793  30.642  29.459  1.00  0.00     0.049 A 
ATOM     48  H   UNL A   1      40.847  30.538  29.128  1.00  0.00     0.167 HD
ATOM     49  C   UNL A   1      45.177  30.087  28.668  1.00  0.00     0.034 A 
ATOM     50  C   UNL A   1      38.530  31.875  29.938  1.00  0.00     0.034 A 
ATOM     51  C   UNL A   1      44.976  31.468  29.014  1.00  0.00     0.049 A 
ATOM     52  C   UNL A   1      39.661  32.858  30.083  1.00  0.00     0.074 A 
ATOM     53  C   UNL A   1      45.922  32.471  29.139  1.00  0.00     0.029 A 
ATOM     54  N   UNL A   1      43.746  32.041  29.294  1.00  0.00    -0.354 N 
ATOM     55  N   UNL A   1      40.936  32.695  29.822  1.00  0.00    -0.248 NA
ATOM     56  C   UNL A   1      39.311  34.208  30.545  1.00  0.00     0.031 C 
ATOM     57  C   UNL A   1      45.264  33.646  29.516  1.00  0.00     0.029 A 
ATOM     58  C   UNL A   1      43.906  33.382  29.597  1.00  0.00     0.049 A 
ATOM     59  H   UNL A   1      42.884  31.565  29.279  1.00  0.00     0.167 HD
ATOM     60  C   UNL A   1      41.531  33.932  30.042  1.00  0.00     0.074 A 
ATOM     61  C   UNL A   1      40.473  34.838  30.444  1.00  0.00     0.031 C 
ATOM     62  C   UNL A   1      42.836  34.285  29.934  1.00  0.00     0.034 A 
BRANCH  49  63
ATOM     63  C   UNL A   1      46.588  29.600  28.462  1.00  0.00     0.023 A 
ATOM     64  C   UNL A   1      47.217  29.787  27.213  1.00  0.00     0.012 A 
ATOM     65  C   UNL A   1      47.310  29.004  29.515  1.00  0.00     0.148 A 
ATOM     66  C   UNL A   1      48.526  29.354  27.004  1.00  0.00     0.002 A 
ATOM     67  C   UNL A   1      48.630  28.617  29.313  1.00  0.00     0.091 A 
ATOM     68  F   UNL A   1      46.689  28.813  30.688  1.00  0.00    -0.205 F 
ATOM     69  C   UNL A   1      49.234  28.779  28.055  1.00  0.00     0.022 A 
BRANCH  67  70
ATOM     70  S   UNL A   1      49.652  27.943  30.628  1.00  0.00     0.127 S 
ATOM     71  O   UNL A   1      49.043  26.629  30.830  1.00  0.00    -0.237 OA
ATOM     72  O   UNL A   1      50.975  27.912  30.003  1.00  0.00    -0.237 OA
ATOM     73  O   UNL A   1      49.530  28.868  31.745  1.00  0.00    -0.744 OA
ENDBRANCH  67  70
ENDBRANCH  49  63
BRANCH  50  74
ATOM     74  C   UNL A   1      37.126  32.279  30.226  1.00  0.00     0.023 A 
ATOM     75  C   UNL A   1      36.540  31.909  31.453  1.00  0.00     0.012 A 
ATOM     76  C   UNL A   1      36.376  33.043  29.311  1.00  0.00     0.148 A 
ATOM     77  C   UNL A   1      35.222  32.259  31.747  1.00  0.00     0.002 A 
ATOM     78  C   UNL A   1      35.081  33.435  29.633  1.00  0.00     0.091 A 
ATOM     79  F   UNL A   1      36.948  33.377  28.145  1.00  0.00    -0.205 F 
ATOM     80  C   UNL A   1      34.496  33.029  30.843  1.00  0.00     0.022 A 
BRANCH  78  81
ATOM     81  S   UNL A   1      34.119  34.532  28.587  1.00  0.00     0.127 S 
ATOM     82  O   UNL A   1      32.751  34.162  28.942  1.00  0.00    -0.237 OA
ATOM     83  O   UNL A   1      34.543  35.851  29.062  1.00  0.00    -0.237 OA
ATOM     84  O   UNL A   1      34.524  34.229  27.222  1.00  0.00    -0.744 OA
ENDBRANCH  78  81
ENDBRANCH  50  74
BRANCH  62  85
ATOM     85  C   UNL A   1      43.196  35.724  30.197  1.00  0.00     0.023 A 
ATOM     86  C   UNL A   1      43.668  36.111  31.467  1.00  0.00     0.012 A 
ATOM     87  C   UNL A   1      43.133  36.677  29.162  1.00  0.00     0.148 A 
ATOM     88  C   UNL A   1      44.035  37.435  31.712  1.00  0.00     0.002 A 
ATOM     89  C   UNL A   1      43.550  37.982  29.400  1.00  0.00     0.091 A 
ATOM     90  F   UNL A   1      42.663  36.295  27.965  1.00  0.00    -0.205 F 
ATOM     91  C   UNL A   1      43.988  38.365  30.676  1.00  0.00     0.022 A 
BRANCH  89  92
ATOM     92  S   UNL A   1      43.620  39.216  28.096  1.00  0.00     0.127 S 
ATOM     93  O   UNL A   1      43.003  40.371  28.746  1.00  0.00    -0.237 OA
ATOM     94  O   UNL A   1      45.058  39.344  27.862  1.00  0.00    -0.237 OA
ATOM     95  O   UNL A   1      42.877  38.655  26.976  1.00  0.00    -0.744 OA
ENDBRANCH  89  92
ENDBRANCH  62  85
ENDBRANCH  36  37
ENDBRANCH  28  31
ENDBRANCH  26  27
ENDBRANCH  25  26
ENDBRANCH  24  25
ENDBRANCH   1  24
TORSDOF 19
ENDMDL
MODEL 3
REMARK VINA RESULT:     -11.1      4.696      9.513
REMARK SMILES C[C@@H](C(=O)NCCCCCCNC(=O)c1ccc(-c2c3nc(c(-c4cccc(S(=O)(=O)[O-])c4F)c4ccc([nH]4)c(-c4cccc(S(=O)(=O)[O-])c4F)c4nc(c(-c5cccc(S(=O)(=O)[O-])c5F)c5ccc2[nH]5)C=C4)C=C3)cc1)c1cccc(C(=O)c2ccccc2)c1
REMARK SMILES IDX 8 1 7 2 6 3 5 4 3 5 4 6 2 8 1 9 78 10 79 11 91 12 80 13
REMARK SMILES IDX 82 14 81 15 83 16 84 17 85 18 86 19 90 20 87 21 89 22 88 23
REMARK SMILES IDX 9 24 10 25 11 26 12 27 13 28 14 30 15 31 16 32 77 33 17 34
REMARK SMILES IDX 76 35 18 36 19 37 20 38 70 39 21 40 75 41 69 42 71 43 22 44
REMARK SMILES IDX 74 45 68 46 67 47 23 49 55 50 35 51 54 52 36 53 39 54 53 55
REMARK SMILES IDX 72 56 37 57 38 58 52 60 73 61 40 62 24 63 25 64 33 65 26 66
REMARK SMILES IDX 28 67 34 68 27 69 29 70 30 71 31 72 32 73 56 74 57 75 65 76
REMARK SMILES IDX 58 77 60 78 66 79 59 80 61 81 62 82 63 83 64 84 41 85 42 86
REMARK SMILES IDX 50 87 43 88 45 89 51 90 44 91 46 92 47 93 48 94 49 95
REMARK H PARENT 5 7 12 29 71 48 39 59
REMARK Flexibility Score: inf
ROOT
ATOM      1  C   UNL A   1      31.542  29.487  25.206  1.00  0.00     0.002 C 
ENDROOT
BRANCH   1   2
ATOM      2  C   UNL A   1      30.862  29.163  23.868  1.00  0.00     0.021 C 
BRANCH   2   3
ATOM      3  C   UNL A   1      30.174  27.795  23.829  1.00  0.00     0.116 C 
BRANCH   3   4
ATOM      4  N   UNL A   1      30.579  27.056  22.654  1.00  0.00    -0.356 N 
ATOM      5  C   UNL A   1      31.676  26.284  22.423  1.00  0.00     0.227 C 
ATOM      6  O   UNL A   1      31.784  25.827  21.282  1.00  0.00    -0.274 OA
ATOM      7  H   UNL A   1      29.956  27.120  21.893  1.00  0.00     0.163 HD
BRANCH   5   8
ATOM      8  C   UNL A   1      32.674  25.978  23.559  1.00  0.00     0.105 C 
ATOM      9  C   UNL A   1      34.143  26.069  23.126  1.00  0.00     0.023 C 
BRANCH   8  10
ATOM     10  C   UNL A   1      32.476  24.586  24.161  1.00  0.00    -0.035 A 
ATOM     11  C   UNL A   1      31.245  24.195  24.699  1.00  0.00     0.004 A 
ATOM     12  C   UNL A   1      33.568  23.707  24.267  1.00  0.00     0.016 A 
ATOM     13  C   UNL A   1      31.119  22.959  25.337  1.00  0.00     0.001 A 
ATOM     14  C   UNL A   1      33.462  22.484  24.933  1.00  0.00     0.023 A 
ATOM     15  C   UNL A   1      32.223  22.110  25.463  1.00  0.00     0.012 A 
BRANCH  14  16
ATOM     16  C   UNL A   1      34.629  21.562  25.069  1.00  0.00     0.193 C 
ATOM     17  O   UNL A   1      34.491  20.354  24.899  1.00  0.00    -0.289 OA
BRANCH  16  18
ATOM     18  C   UNL A   1      35.985  22.083  25.370  1.00  0.00     0.022 A 
ATOM     19  C   UNL A   1      36.094  23.345  25.960  1.00  0.00     0.012 A 
ATOM     20  C   UNL A   1      37.136  21.331  25.099  1.00  0.00     0.012 A 
ATOM     21  C   UNL A   1      37.348  23.833  26.328  1.00  0.00     0.001 A 
ATOM     22  C   UNL A   1      38.387  21.819  25.479  1.00  0.00     0.001 A 
ATOM     23  C   UNL A   1      38.491  23.065  26.098  1.00  0.00     0.000 A 
ENDBRANCH  16  18
ENDBRANCH  14  16
ENDBRANCH   8  10
ENDBRANCH   5   8
ENDBRANCH   3   4
ENDBRANCH   2   3
ENDBRANCH   1   2
BRANCH   1  24
ATOM     24  C   UNL A   1      31.607  28.325  26.201  1.00  0.00     0.002 C 
BRANCH  24  25
ATOM     25  C   UNL A   1      33.020  27.877  26.578  1.00  0.00     0.021 C 
BRANCH  25  26
ATOM     26  C   UNL A   1      34.120  28.856  26.185  1.00  0.00     0.116 C 
BRANCH  26  27
ATOM     27  N   UNL A   1      33.879  30.186  26.718  1.00  0.00    -0.352 N 
ATOM     28  C   UNL A   1      34.561  30.856  27.699  1.00  0.00     0.251 C 
ATOM     29  H   UNL A   1      33.122  30.672  26.320  1.00  0.00     0.163 HD
ATOM     30  O   UNL A   1      34.093  31.900  28.163  1.00  0.00    -0.269 OA
BRANCH  28  31
ATOM     31  C   UNL A   1      35.846  30.330  28.207  1.00  0.00     0.039 A 
ATOM     32  C   UNL A   1      37.010  30.556  27.468  1.00  0.00     0.014 A 
ATOM     33  C   UNL A   1      35.901  29.589  29.392  1.00  0.00     0.014 A 
ATOM     34  C   UNL A   1      38.230  30.058  27.928  1.00  0.00     0.010 A 
ATOM     35  C   UNL A   1      37.129  29.162  29.888  1.00  0.00     0.010 A 
ATOM     36  C   UNL A   1      38.303  29.365  29.148  1.00  0.00    -0.014 A 
BRANCH  36  37
ATOM     37  C   UNL A   1      39.588  28.807  29.638  1.00  0.00     0.031 A 
ATOM     38  C   UNL A   1      40.318  29.481  30.771  1.00  0.00     0.074 A 
ATOM     39  C   UNL A   1      40.132  27.736  29.028  1.00  0.00     0.049 A 
ATOM     40  N   UNL A   1      41.456  29.157  31.328  1.00  0.00    -0.248 NA
ATOM     41  C   UNL A   1      39.706  30.697  31.333  1.00  0.00     0.031 C 
ATOM     42  C   UNL A   1      39.564  27.043  27.870  1.00  0.00     0.029 A 
ATOM     43  N   UNL A   1      41.294  27.053  29.287  1.00  0.00    -0.354 N 
ATOM     44  C   UNL A   1      41.715  30.145  32.269  1.00  0.00     0.074 A 
ATOM     45  C   UNL A   1      40.635  31.102  32.185  1.00  0.00     0.031 C 
ATOM     46  C   UNL A   1      40.371  26.024  27.528  1.00  0.00     0.029 A 
ATOM     47  C   UNL A   1      41.522  26.006  28.425  1.00  0.00     0.049 A 
ATOM     48  H   UNL A   1      41.907  27.291  30.020  1.00  0.00     0.167 HD
ATOM     49  C   UNL A   1      42.741  30.235  33.149  1.00  0.00     0.034 A 
ATOM     50  C   UNL A   1      42.542  25.126  28.369  1.00  0.00     0.034 A 
ATOM     51  C   UNL A   1      43.780  29.250  33.272  1.00  0.00     0.049 A 
ATOM     52  C   UNL A   1      43.634  25.208  29.403  1.00  0.00     0.074 A 
ATOM     53  C   UNL A   1      44.808  29.193  34.196  1.00  0.00     0.029 A 
ATOM     54  N   UNL A   1      43.926  28.148  32.443  1.00  0.00    -0.354 N 
ATOM     55  N   UNL A   1      43.772  26.057  30.393  1.00  0.00    -0.248 NA
ATOM     56  C   UNL A   1      44.687  24.185  29.338  1.00  0.00     0.031 C 
ATOM     57  C   UNL A   1      45.589  28.068  33.912  1.00  0.00     0.029 A 
ATOM     58  C   UNL A   1      45.030  27.408  32.829  1.00  0.00     0.049 A 
ATOM     59  H   UNL A   1      43.332  27.925  31.691  1.00  0.00     0.167 HD
ATOM     60  C   UNL A   1      44.898  25.641  31.096  1.00  0.00     0.074 A 
ATOM     61  C   UNL A   1      45.394  24.457  30.426  1.00  0.00     0.031 C 
ATOM     62  C   UNL A   1      45.475  26.197  32.191  1.00  0.00     0.034 A 
BRANCH  49  63
ATOM     63  C   UNL A   1      42.761  31.415  34.086  1.00  0.00     0.023 A 
ATOM     64  C   UNL A   1      43.414  32.604  33.699  1.00  0.00     0.012 A 
ATOM     65  C   UNL A   1      42.094  31.368  35.326  1.00  0.00     0.148 A 
ATOM     66  C   UNL A   1      43.436  33.712  34.545  1.00  0.00     0.002 A 
ATOM     67  C   UNL A   1      42.080  32.492  36.144  1.00  0.00     0.091 A 
ATOM     68  F   UNL A   1      41.499  30.223  35.688  1.00  0.00    -0.205 F 
ATOM     69  C   UNL A   1      42.762  33.659  35.762  1.00  0.00     0.022 A 
BRANCH  67  70
ATOM     70  S   UNL A   1      41.170  32.550  37.692  1.00  0.00     0.127 S 
ATOM     71  O   UNL A   1      41.148  33.986  37.967  1.00  0.00    -0.237 OA
ATOM     72  O   UNL A   1      39.877  31.982  37.311  1.00  0.00    -0.237 OA
ATOM     73  O   UNL A   1      41.933  31.745  38.635  1.00  0.00    -0.744 OA
ENDBRANCH  67  70
ENDBRANCH  49  63
BRANCH  50  74
ATOM     74  C   UNL A   1      42.531  24.034  27.357  1.00  0.00     0.023 A 
ATOM     75  C   UNL A   1      43.071  24.275  26.077  1.00  0.00     0.012 A 
ATOM     76  C   UNL A   1      42.014  22.758  27.654  1.00  0.00     0.148 A 
ATOM     77  C   UNL A   1      43.062  23.278  25.101  1.00  0.00     0.002 A 
ATOM     78  C   UNL A   1      42.058  21.753  26.694  1.00  0.00     0.091 A 
ATOM     79  F   UNL A   1      41.497  22.551  28.873  1.00  0.00    -0.205 F 
ATOM     80  C   UNL A   1      42.565  22.016  25.411  1.00  0.00     0.022 A 
BRANCH  78  81
ATOM     81  S   UNL A   1      41.558  20.064  27.045  1.00  0.00     0.127 S 
ATOM     82  O   UNL A   1      40.398  20.268  27.909  1.00  0.00    -0.237 OA
ATOM     83  O   UNL A   1      41.247  19.557  25.707  1.00  0.00    -0.237 OA
ATOM     84  O   UNL A   1      42.712  19.434  27.671  1.00  0.00    -0.744 OA
ENDBRANCH  78  81
ENDBRANCH  50  74
BRANCH  62  85
ATOM     85  C   UNL A   1      46.679  25.504  32.774  1.00  0.00     0.023 A 
ATOM     86  C   UNL A   1      47.973  25.861  32.349  1.00  0.00     0.012 A 
ATOM     87  C   UNL A   1      46.527  24.547  33.797  1.00  0.00     0.148 A 
ATOM     88  C   UNL A   1      49.096  25.249  32.906  1.00  0.00     0.002 A 
ATOM     89  C   UNL A   1      47.652  23.980  34.384  1.00  0.00     0.091 A 
ATOM     90  F   UNL A   1      45.286  24.205  34.176  1.00  0.00    -0.205 F 
ATOM     91  C   UNL A   1      48.935  24.319  33.931  1.00  0.00     0.022 A 
BRANCH  89  92
ATOM     92  S   UNL A   1      47.537  22.853  35.778  1.00  0.00     0.127 S 
ATOM     93  O   UNL A   1      46.563  23.532  36.631  1.00  0.00    -0.237 OA
ATOM     94  O   UNL A   1      47.047  21.626  35.150  1.00  0.00    -0.237 OA
ATOM     95  O   UNL A   1      48.885  22.752  36.322  1.00  0.00    -0.744 OA
ENDBRANCH  89  92
ENDBRANCH  62  85
ENDBRANCH  36  37
ENDBRANCH  28  31
ENDBRANCH  26  27
ENDBRANCH  25  26
ENDBRANCH  24  25
ENDBRANCH   1  24
TORSDOF 19
ENDMDL
