MODEL 1
REMARK VINA RESULT:     -12.5      0.000      0.000
REMARK SMILES O=C(NCCCCCCNC(=O)c1ccc(N2C(=O)/C(=C/c3ccco3)SC2=S)cc1)c1ccc(-c2c3nc(c(-c4cccc(S(=O)(=O)[O-])c4F)c4ccc([nH]4)c(-c4cccc(S(=O)(=O)[O-])c4F)c4nc(c(-c5cccc(S(=O)(=O)[O-])c5F)c5ccc2[nH]5)C=C4)C=C3)cc1
REMARK SMILES IDX 6 1 5 2 4 3 3 4 1 5 2 6 32 8 33 9 94 10 34 11 93 12 35 13
REMARK SMILES IDX 36 14 37 15 87 16 38 17 92 18 86 19 88 20 39 21 91 22 85 23
REMARK SMILES IDX 84 24 40 26 72 27 52 28 71 29 53 30 56 31 70 32 89 33 54 34
REMARK SMILES IDX 55 35 69 37 90 38 57 39 41 40 42 41 50 42 43 43 45 44 51 45
REMARK SMILES IDX 44 46 46 47 47 48 48 49 49 50 73 51 74 52 82 53 75 54 77 55
REMARK SMILES IDX 83 56 76 57 78 58 79 59 80 60 81 61 58 62 59 63 67 64 60 65
REMARK SMILES IDX 62 66 68 67 61 68 63 69 64 70 65 71 66 72 7 73 8 74 9 75
REMARK SMILES IDX 10 76 11 77 12 79 13 80 14 81 31 82 15 83 30 84 16 85 17 86
REMARK SMILES IDX 18 87 28 88 19 89 20 90 27 91 29 92 21 93 22 94 23 95 26 96
REMARK SMILES IDX 24 97 25 98
REMARK H PARENT 3 7 88 25 56 36 10 78
REMARK Flexibility Score: inf
ROOT
ATOM      1  C   UNL A   1      31.023  31.171  25.483  1.00  0.00     0.002 C 
ENDROOT
BRANCH   1   2
ATOM      2  C   UNL A   1      31.388  31.696  26.872  1.00  0.00     0.021 C 
BRANCH   2   3
ATOM      3  C   UNL A   1      32.696  32.476  26.935  1.00  0.00     0.116 C 
BRANCH   3   4
ATOM      4  N   UNL A   1      32.506  33.821  27.454  1.00  0.00    -0.352 N 
ATOM      5  O   UNL A   1      32.705  35.512  28.927  1.00  0.00    -0.269 OA
ATOM      6  C   UNL A   1      33.137  34.444  28.503  1.00  0.00     0.251 C 
ATOM      7  H   UNL A   1      31.831  34.362  26.986  1.00  0.00     0.163 HD
BRANCH   6   8
ATOM      8  C   UNL A   1      34.314  33.808  29.130  1.00  0.00     0.039 A 
ATOM      9  C   UNL A   1      34.157  32.759  30.042  1.00  0.00     0.014 A 
ATOM     10  C   UNL A   1      35.591  34.265  28.798  1.00  0.00     0.014 A 
ATOM     11  C   UNL A   1      35.263  32.261  30.723  1.00  0.00     0.010 A 
ATOM     12  C   UNL A   1      36.708  33.706  29.424  1.00  0.00     0.010 A 
ATOM     13  C   UNL A   1      36.551  32.723  30.413  1.00  0.00    -0.014 A 
BRANCH  13  14
ATOM     14  C   UNL A   1      37.736  32.133  31.086  1.00  0.00     0.031 A 
ATOM     15  C   UNL A   1      38.486  30.988  30.465  1.00  0.00     0.074 A 
ATOM     16  C   UNL A   1      38.105  32.609  32.291  1.00  0.00     0.049 A 
ATOM     17  N   UNL A   1      39.494  30.308  30.945  1.00  0.00    -0.248 NA
ATOM     18  C   UNL A   1      38.040  30.543  29.135  1.00  0.00     0.031 C 
ATOM     19  C   UNL A   1      37.435  33.696  33.006  1.00  0.00     0.029 A 
ATOM     20  N   UNL A   1      39.111  32.222  33.138  1.00  0.00    -0.354 N 
ATOM     21  C   UNL A   1      39.775  29.324  30.003  1.00  0.00     0.074 A 
ATOM     22  C   UNL A   1      38.825  29.494  28.924  1.00  0.00     0.031 C 
ATOM     23  C   UNL A   1      38.044  33.888  34.185  1.00  0.00     0.029 A 
ATOM     24  C   UNL A   1      39.106  32.900  34.335  1.00  0.00     0.049 A 
ATOM     25  H   UNL A   1      39.773  31.529  32.914  1.00  0.00     0.167 HD
ATOM     26  C   UNL A   1      40.739  28.373  30.033  1.00  0.00     0.034 A 
ATOM     27  C   UNL A   1      39.844  32.724  35.447  1.00  0.00     0.034 A 
ATOM     28  C   UNL A   1      41.687  28.220  31.106  1.00  0.00     0.049 A 
ATOM     29  C   UNL A   1      40.901  31.658  35.459  1.00  0.00     0.074 A 
ATOM     30  C   UNL A   1      42.740  27.329  31.202  1.00  0.00     0.029 A 
ATOM     31  N   UNL A   1      41.683  28.962  32.278  1.00  0.00    -0.354 N 
ATOM     32  N   UNL A   1      41.228  30.813  34.513  1.00  0.00    -0.248 NA
ATOM     33  C   UNL A   1      41.712  31.541  36.678  1.00  0.00     0.031 C 
ATOM     34  C   UNL A   1      43.348  27.504  32.449  1.00  0.00     0.029 A 
ATOM     35  C   UNL A   1      42.706  28.538  33.110  1.00  0.00     0.049 A 
ATOM     36  H   UNL A   1      41.047  29.683  32.488  1.00  0.00     0.167 HD
ATOM     37  C   UNL A   1      42.308  30.089  35.004  1.00  0.00     0.074 A 
ATOM     38  C   UNL A   1      42.584  30.604  36.330  1.00  0.00     0.031 C 
ATOM     39  C   UNL A   1      43.004  29.090  34.409  1.00  0.00     0.034 A 
BRANCH  26  40
ATOM     40  C   UNL A   1      40.820  27.420  28.866  1.00  0.00     0.023 A 
ATOM     41  C   UNL A   1      39.923  26.336  28.778  1.00  0.00     0.012 A 
ATOM     42  C   UNL A   1      41.757  27.623  27.833  1.00  0.00     0.148 A 
ATOM     43  C   UNL A   1      39.987  25.443  27.708  1.00  0.00     0.002 A 
ATOM     44  C   UNL A   1      41.785  26.757  26.746  1.00  0.00     0.091 A 
ATOM     45  F   UNL A   1      42.615  28.647  27.940  1.00  0.00    -0.205 F 
ATOM     46  C   UNL A   1      40.912  25.659  26.689  1.00  0.00     0.022 A 
BRANCH  44  47
ATOM     47  S   UNL A   1      42.881  27.000  25.344  1.00  0.00     0.127 S 
ATOM     48  O   UNL A   1      44.172  27.180  26.008  1.00  0.00    -0.237 OA
ATOM     49  O   UNL A   1      42.741  25.736  24.620  1.00  0.00    -0.237 OA
ATOM     50  O   UNL A   1      42.373  28.165  24.634  1.00  0.00    -0.744 OA
ENDBRANCH  44  47
ENDBRANCH  26  40
BRANCH  27  51
ATOM     51  C   UNL A   1      39.615  33.606  36.624  1.00  0.00     0.023 A 
ATOM     52  C   UNL A   1      39.968  34.967  36.552  1.00  0.00     0.012 A 
ATOM     53  C   UNL A   1      38.989  33.115  37.787  1.00  0.00     0.148 A 
ATOM     54  C   UNL A   1      39.722  35.820  37.628  1.00  0.00     0.002 A 
ATOM     55  C   UNL A   1      38.694  33.983  38.831  1.00  0.00     0.091 A 
ATOM     56  F   UNL A   1      38.664  31.815  37.832  1.00  0.00    -0.205 F 
ATOM     57  C   UNL A   1      39.075  35.331  38.761  1.00  0.00     0.022 A 
BRANCH  55  58
ATOM     58  S   UNL A   1      37.745  33.477  40.270  1.00  0.00     0.127 S 
ATOM     59  O   UNL A   1      36.520  32.973  39.655  1.00  0.00    -0.237 OA
ATOM     60  O   UNL A   1      38.611  32.451  40.851  1.00  0.00    -0.237 OA
ATOM     61  O   UNL A   1      37.593  34.674  41.086  1.00  0.00    -0.744 OA
ENDBRANCH  55  58
ENDBRANCH  27  51
BRANCH  39  62
ATOM     62  C   UNL A   1      44.181  28.516  35.152  1.00  0.00     0.023 A 
ATOM     63  C   UNL A   1      45.474  29.034  34.946  1.00  0.00     0.012 A 
ATOM     64  C   UNL A   1      43.982  27.515  36.124  1.00  0.00     0.148 A 
ATOM     65  C   UNL A   1      46.556  28.548  35.681  1.00  0.00     0.002 A 
ATOM     66  C   UNL A   1      45.053  27.075  36.890  1.00  0.00     0.091 A 
ATOM     67  F   UNL A   1      42.746  27.022  36.288  1.00  0.00    -0.205 F 
ATOM     68  C   UNL A   1      46.344  27.580  36.662  1.00  0.00     0.022 A 
BRANCH  66  69
ATOM     69  S   UNL A   1      44.856  25.909  38.242  1.00  0.00     0.127 S 
ATOM     70  O   UNL A   1      44.001  26.660  39.160  1.00  0.00    -0.237 OA
ATOM     71  O   UNL A   1      44.200  24.780  37.583  1.00  0.00    -0.237 OA
ATOM     72  O   UNL A   1      46.198  25.629  38.733  1.00  0.00    -0.744 OA
ENDBRANCH  66  69
ENDBRANCH  39  62
ENDBRANCH  13  14
ENDBRANCH   6   8
ENDBRANCH   3   4
ENDBRANCH   2   3
ENDBRANCH   1   2
BRANCH   1  73
ATOM     73  C   UNL A   1      31.487  29.742  25.185  1.00  0.00     0.002 C 
BRANCH  73  74
ATOM     74  C   UNL A   1      30.506  28.895  24.369  1.00  0.00     0.021 C 
BRANCH  74  75
ATOM     75  C   UNL A   1      30.942  28.622  22.932  1.00  0.00     0.116 C 
BRANCH  75  76
ATOM     76  N   UNL A   1      32.269  29.151  22.662  1.00  0.00    -0.352 N 
ATOM     77  C   UNL A   1      33.485  28.560  22.877  1.00  0.00     0.251 C 
ATOM     78  H   UNL A   1      32.297  30.055  22.273  1.00  0.00     0.163 HD
ATOM     79  O   UNL A   1      34.527  29.207  22.791  1.00  0.00    -0.269 OA
BRANCH  77  80
ATOM     80  C   UNL A   1      33.540  27.128  23.223  1.00  0.00     0.039 A 
ATOM     81  C   UNL A   1      33.575  26.182  22.200  1.00  0.00     0.016 A 
ATOM     82  C   UNL A   1      33.552  26.724  24.560  1.00  0.00     0.016 A 
ATOM     83  C   UNL A   1      33.672  24.825  22.518  1.00  0.00     0.027 A 
ATOM     84  C   UNL A   1      33.646  25.368  24.873  1.00  0.00     0.027 A 
ATOM     85  C   UNL A   1      33.698  24.401  23.858  1.00  0.00     0.051 A 
BRANCH  85  86
ATOM     86  N   UNL A   1      33.799  23.014  24.175  1.00  0.00    -0.261 N 
ATOM     87  C   UNL A   1      32.812  22.133  23.735  1.00  0.00     0.270 C 
ATOM     88  C   UNL A   1      34.825  22.462  24.933  1.00  0.00     0.152 C 
ATOM     89  O   UNL A   1      31.807  22.395  23.086  1.00  0.00    -0.268 OA
ATOM     90  C   UNL A   1      33.139  20.744  24.158  1.00  0.00     0.084 C 
ATOM     91  S   UNL A   1      34.603  20.720  25.051  1.00  0.00    -0.054 SA
ATOM     92  S   UNL A   1      36.065  23.203  25.779  1.00  0.00    -0.051 S 
ATOM     93  C   UNL A   1      32.361  19.708  23.818  1.00  0.00     0.068 C 
BRANCH  93  94
ATOM     94  C   UNL A   1      32.620  18.376  24.238  1.00  0.00     0.127 A 
ATOM     95  C   UNL A   1      33.228  17.331  23.551  1.00  0.00     0.050 A 
ATOM     96  O   UNL A   1      32.293  17.915  25.491  1.00  0.00    -0.465 OA
ATOM     97  C   UNL A   1      33.224  16.197  24.395  1.00  0.00     0.042 A 
ATOM     98  C   UNL A   1      32.635  16.605  25.564  1.00  0.00     0.195 A 
ENDBRANCH  93  94
ENDBRANCH  85  86
ENDBRANCH  77  80
ENDBRANCH  75  76
ENDBRANCH  74  75
ENDBRANCH  73  74
ENDBRANCH   1  73
TORSDOF 18
ENDMDL
MODEL 2
REMARK VINA RESULT:     -12.1      5.778     12.086
REMARK SMILES O=C(NCCCCCCNC(=O)c1ccc(N2C(=O)/C(=C/c3ccco3)SC2=S)cc1)c1ccc(-c2c3nc(c(-c4cccc(S(=O)(=O)[O-])c4F)c4ccc([nH]4)c(-c4cccc(S(=O)(=O)[O-])c4F)c4nc(c(-c5cccc(S(=O)(=O)[O-])c5F)c5ccc2[nH]5)C=C4)C=C3)cc1
REMARK SMILES IDX 6 1 5 2 4 3 3 4 1 5 2 6 32 8 33 9 94 10 34 11 93 12 35 13
REMARK SMILES IDX 36 14 37 15 87 16 38 17 92 18 86 19 88 20 39 21 91 22 85 23
REMARK SMILES IDX 84 24 40 26 72 27 52 28 71 29 53 30 56 31 70 32 89 33 54 34
REMARK SMILES IDX 55 35 69 37 90 38 57 39 41 40 42 41 50 42 43 43 45 44 51 45
REMARK SMILES IDX 44 46 46 47 47 48 48 49 49 50 73 51 74 52 82 53 75 54 77 55
REMARK SMILES IDX 83 56 76 57 78 58 79 59 80 60 81 61 58 62 59 63 67 64 60 65
REMARK SMILES IDX 62 66 68 67 61 68 63 69 64 70 65 71 66 72 7 73 8 74 9 75
REMARK SMILES IDX 10 76 11 77 12 79 13 80 14 81 31 82 15 83 30 84 16 85 17 86
REMARK SMILES IDX 18 87 28 88 19 89 20 90 27 91 29 92 21 93 22 94 23 95 26 96
REMARK SMILES IDX 24 97 25 98
REMARK H PARENT 3 7 88 25 56 36 10 78
REMARK Flexibility Score: inf
ROOT
ATOM      1  C   UNL A   1      38.670  22.290  25.911  1.00  0.00     0.002 C 
ENDROOT
BRANCH   1   2
ATOM      2  C   UNL A   1      39.092  20.898  25.441  1.00  0.00     0.021 C 
BRANCH   2   3
ATOM      3  C   UNL A   1      39.655  19.999  26.536  1.00  0.00     0.116 C 
BRANCH   3   4
ATOM      4  N   UNL A   1      40.789  19.216  26.072  1.00  0.00    -0.352 N 
ATOM      5  O   UNL A   1      42.836  18.862  25.206  1.00  0.00    -0.269 OA
ATOM      6  C   UNL A   1      42.066  19.627  25.778  1.00  0.00     0.251 C 
ATOM      7  H   UNL A   1      40.617  18.255  25.953  1.00  0.00     0.163 HD
BRANCH   6   8
ATOM      8  C   UNL A   1      42.492  20.998  26.130  1.00  0.00     0.039 A 
ATOM      9  C   UNL A   1      42.650  21.972  25.139  1.00  0.00     0.014 A 
ATOM     10  C   UNL A   1      42.733  21.312  27.469  1.00  0.00     0.014 A 
ATOM     11  C   UNL A   1      43.178  23.215  25.468  1.00  0.00     0.010 A 
ATOM     12  C   UNL A   1      43.186  22.589  27.807  1.00  0.00     0.010 A 
ATOM     13  C   UNL A   1      43.442  23.540  26.807  1.00  0.00    -0.014 A 
BRANCH  13  14
ATOM     14  C   UNL A   1      43.933  24.897  27.163  1.00  0.00     0.031 A 
ATOM     15  C   UNL A   1      43.007  25.920  27.757  1.00  0.00     0.074 A 
ATOM     16  C   UNL A   1      45.215  25.215  26.901  1.00  0.00     0.049 A 
ATOM     17  N   UNL A   1      43.247  27.169  28.060  1.00  0.00    -0.248 NA
ATOM     18  C   UNL A   1      41.629  25.488  28.040  1.00  0.00     0.031 C 
ATOM     19  C   UNL A   1      46.199  24.313  26.298  1.00  0.00     0.029 A 
ATOM     20  N   UNL A   1      45.903  26.387  27.080  1.00  0.00    -0.354 N 
ATOM     21  C   UNL A   1      42.043  27.689  28.523  1.00  0.00     0.074 A 
ATOM     22  C   UNL A   1      41.072  26.618  28.455  1.00  0.00     0.031 C 
ATOM     23  C   UNL A   1      47.361  24.965  26.153  1.00  0.00     0.029 A 
ATOM     24  C   UNL A   1      47.188  26.344  26.594  1.00  0.00     0.049 A 
ATOM     25  H   UNL A   1      45.515  27.182  27.513  1.00  0.00     0.167 HD
ATOM     26  C   UNL A   1      41.776  28.940  28.968  1.00  0.00     0.034 A 
ATOM     27  C   UNL A   1      48.115  27.313  26.478  1.00  0.00     0.034 A 
ATOM     28  C   UNL A   1      42.753  29.994  29.042  1.00  0.00     0.049 A 
ATOM     29  C   UNL A   1      47.793  28.693  26.971  1.00  0.00     0.074 A 
ATOM     30  C   UNL A   1      42.598  31.277  29.536  1.00  0.00     0.029 A 
ATOM     31  N   UNL A   1      44.061  29.896  28.590  1.00  0.00    -0.354 N 
ATOM     32  N   UNL A   1      46.686  29.136  27.513  1.00  0.00    -0.248 NA
ATOM     33  C   UNL A   1      48.857  29.701  26.867  1.00  0.00     0.031 C 
ATOM     34  C   UNL A   1      43.799  31.967  29.346  1.00  0.00     0.029 A 
ATOM     35  C   UNL A   1      44.719  31.100  28.780  1.00  0.00     0.049 A 
ATOM     36  H   UNL A   1      44.462  29.090  28.193  1.00  0.00     0.167 HD
ATOM     37  C   UNL A   1      46.929  30.462  27.852  1.00  0.00     0.074 A 
ATOM     38  C   UNL A   1      48.295  30.746  27.461  1.00  0.00     0.031 C 
ATOM     39  C   UNL A   1      46.095  31.359  28.432  1.00  0.00     0.034 A 
BRANCH  26  40
ATOM     40  C   UNL A   1      40.366  29.238  29.415  1.00  0.00     0.023 A 
ATOM     41  C   UNL A   1      39.416  29.708  28.484  1.00  0.00     0.012 A 
ATOM     42  C   UNL A   1      39.968  29.014  30.748  1.00  0.00     0.148 A 
ATOM     43  C   UNL A   1      38.110  29.994  28.881  1.00  0.00     0.002 A 
ATOM     44  C   UNL A   1      38.653  29.254  31.126  1.00  0.00     0.091 A 
ATOM     45  F   UNL A   1      40.886  28.584  31.625  1.00  0.00    -0.205 F 
ATOM     46  C   UNL A   1      37.727  29.759  30.199  1.00  0.00     0.022 A 
BRANCH  44  47
ATOM     47  S   UNL A   1      38.042  28.903  32.779  1.00  0.00     0.127 S 
ATOM     48  O   UNL A   1      36.653  29.350  32.680  1.00  0.00    -0.237 OA
ATOM     49  O   UNL A   1      38.210  27.452  32.867  1.00  0.00    -0.237 OA
ATOM     50  O   UNL A   1      38.885  29.666  33.688  1.00  0.00    -0.744 OA
ENDBRANCH  44  47
ENDBRANCH  26  40
BRANCH  27  51
ATOM     51  C   UNL A   1      49.444  26.987  25.891  1.00  0.00     0.023 A 
ATOM     52  C   UNL A   1      50.388  26.278  26.658  1.00  0.00     0.012 A 
ATOM     53  C   UNL A   1      49.749  27.319  24.556  1.00  0.00     0.148 A 
ATOM     54  C   UNL A   1      51.622  25.925  26.113  1.00  0.00     0.002 A 
ATOM     55  C   UNL A   1      50.956  26.913  24.001  1.00  0.00     0.091 A 
ATOM     56  F   UNL A   1      48.835  27.996  23.846  1.00  0.00    -0.205 F 
ATOM     57  C   UNL A   1      51.901  26.231  24.782  1.00  0.00     0.022 A 
BRANCH  55  58
ATOM     58  S   UNL A   1      51.347  27.141  22.263  1.00  0.00     0.127 S 
ATOM     59  O   UNL A   1      51.511  28.590  22.183  1.00  0.00    -0.237 OA
ATOM     60  O   UNL A   1      52.585  26.372  22.133  1.00  0.00    -0.237 OA
ATOM     61  O   UNL A   1      50.215  26.595  21.526  1.00  0.00    -0.744 OA
ENDBRANCH  55  58
ENDBRANCH  27  51
BRANCH  39  62
ATOM     62  C   UNL A   1      46.643  32.725  28.746  1.00  0.00     0.023 A 
ATOM     63  C   UNL A   1      47.294  32.966  29.972  1.00  0.00     0.012 A 
ATOM     64  C   UNL A   1      46.587  33.748  27.779  1.00  0.00     0.148 A 
ATOM     65  C   UNL A   1      47.860  34.214  30.238  1.00  0.00     0.002 A 
ATOM     66  C   UNL A   1      47.200  34.969  28.028  1.00  0.00     0.091 A 
ATOM     67  F   UNL A   1      45.944  33.503  26.628  1.00  0.00    -0.205 F 
ATOM     68  C   UNL A   1      47.826  35.209  29.262  1.00  0.00     0.022 A 
BRANCH  66  69
ATOM     69  S   UNL A   1      47.295  36.269  26.794  1.00  0.00     0.127 S 
ATOM     70  O   UNL A   1      47.956  35.580  25.686  1.00  0.00    -0.237 OA
ATOM     71  O   UNL A   1      45.884  36.580  26.563  1.00  0.00    -0.237 OA
ATOM     72  O   UNL A   1      48.063  37.348  27.401  1.00  0.00    -0.744 OA
ENDBRANCH  66  69
ENDBRANCH  39  62
ENDBRANCH  13  14
ENDBRANCH   6   8
ENDBRANCH   3   4
ENDBRANCH   2   3
ENDBRANCH   1   2
BRANCH   1  73
ATOM     73  C   UNL A   1      37.202  22.646  25.655  1.00  0.00     0.002 C 
BRANCH  73  74
ATOM     74  C   UNL A   1      36.259  21.450  25.500  1.00  0.00     0.021 C 
BRANCH  74  75
ATOM     75  C   UNL A   1      35.138  21.649  24.483  1.00  0.00     0.116 C 
BRANCH  75  76
ATOM     76  N   UNL A   1      33.984  20.816  24.784  1.00  0.00    -0.352 N 
ATOM     77  C   UNL A   1      32.673  21.188  24.916  1.00  0.00     0.251 C 
ATOM     78  H   UNL A   1      34.170  19.858  24.910  1.00  0.00     0.163 HD
ATOM     79  O   UNL A   1      31.838  20.410  25.374  1.00  0.00    -0.269 OA
BRANCH  77  80
ATOM     80  C   UNL A   1      32.263  22.545  24.509  1.00  0.00     0.039 A 
ATOM     81  C   UNL A   1      32.250  23.564  25.460  1.00  0.00     0.016 A 
ATOM     82  C   UNL A   1      31.885  22.804  23.190  1.00  0.00     0.016 A 
ATOM     83  C   UNL A   1      31.905  24.862  25.074  1.00  0.00     0.027 A 
ATOM     84  C   UNL A   1      31.539  24.100  22.810  1.00  0.00     0.027 A 
ATOM     85  C   UNL A   1      31.536  25.144  23.747  1.00  0.00     0.051 A 
BRANCH  85  86
ATOM     86  N   UNL A   1      31.186  26.471  23.361  1.00  0.00    -0.261 N 
ATOM     87  C   UNL A   1      29.864  26.898  23.477  1.00  0.00     0.270 C 
ATOM     88  C   UNL A   1      32.087  27.392  22.840  1.00  0.00     0.152 C 
ATOM     89  O   UNL A   1      28.900  26.256  23.877  1.00  0.00    -0.268 OA
ATOM     90  C   UNL A   1      29.743  28.317  23.044  1.00  0.00     0.084 C 
ATOM     91  S   UNL A   1      31.267  28.920  22.540  1.00  0.00    -0.054 SA
ATOM     92  S   UNL A   1      33.687  27.202  22.383  1.00  0.00    -0.051 S 
ATOM     93  C   UNL A   1      28.574  28.968  23.103  1.00  0.00     0.068 C 
BRANCH  93  94
ATOM     94  C   UNL A   1      28.412  30.308  22.661  1.00  0.00     0.127 A 
ATOM     95  C   UNL A   1      28.045  30.792  21.410  1.00  0.00     0.050 A 
ATOM     96  O   UNL A   1      28.592  31.391  23.489  1.00  0.00    -0.465 OA
ATOM     97  C   UNL A   1      28.053  32.204  21.473  1.00  0.00     0.042 A 
ATOM     98  C   UNL A   1      28.400  32.518  22.761  1.00  0.00     0.195 A 
ENDBRANCH  93  94
ENDBRANCH  85  86
ENDBRANCH  77  80
ENDBRANCH  75  76
ENDBRANCH  74  75
ENDBRANCH  73  74
ENDBRANCH   1  73
TORSDOF 18
ENDMDL
MODEL 3
REMARK VINA RESULT:     -11.8      3.000      8.178
REMARK SMILES O=C(NCCCCCCNC(=O)c1ccc(N2C(=O)/C(=C/c3ccco3)SC2=S)cc1)c1ccc(-c2c3nc(c(-c4cccc(S(=O)(=O)[O-])c4F)c4ccc([nH]4)c(-c4cccc(S(=O)(=O)[O-])c4F)c4nc(c(-c5cccc(S(=O)(=O)[O-])c5F)c5ccc2[nH]5)C=C4)C=C3)cc1
REMARK SMILES IDX 6 1 5 2 4 3 3 4 1 5 2 6 32 8 33 9 94 10 34 11 93 12 35 13
REMARK SMILES IDX 36 14 37 15 87 16 38 17 92 18 86 19 88 20 39 21 91 22 85 23
REMARK SMILES IDX 84 24 40 26 72 27 52 28 71 29 53 30 56 31 70 32 89 33 54 34
REMARK SMILES IDX 55 35 69 37 90 38 57 39 41 40 42 41 50 42 43 43 45 44 51 45
REMARK SMILES IDX 44 46 46 47 47 48 48 49 49 50 73 51 74 52 82 53 75 54 77 55
REMARK SMILES IDX 83 56 76 57 78 58 79 59 80 60 81 61 58 62 59 63 67 64 60 65
REMARK SMILES IDX 62 66 68 67 61 68 63 69 64 70 65 71 66 72 7 73 8 74 9 75
REMARK SMILES IDX 10 76 11 77 12 79 13 80 14 81 31 82 15 83 30 84 16 85 17 86
REMARK SMILES IDX 18 87 28 88 19 89 20 90 27 91 29 92 21 93 22 94 23 95 26 96
REMARK SMILES IDX 24 97 25 98
REMARK H PARENT 3 7 88 25 56 36 10 78
REMARK Flexibility Score: inf
ROOT
ATOM      1  C   UNL A   1      32.759  29.695  25.420  1.00  0.00     0.002 C 
ENDROOT
BRANCH   1   2
ATOM      2  C   UNL A   1      33.058  29.003  26.751  1.00  0.00     0.021 C 
BRANCH   2   3
ATOM      3  C   UNL A   1      34.289  29.530  27.479  1.00  0.00     0.116 C 
BRANCH   3   4
ATOM      4  N   UNL A   1      34.076  30.861  28.022  1.00  0.00    -0.352 N 
ATOM      5  O   UNL A   1      34.382  32.588  29.434  1.00  0.00    -0.269 OA
ATOM      6  C   UNL A   1      34.825  31.555  28.941  1.00  0.00     0.251 C 
ATOM      7  H   UNL A   1      33.282  31.333  27.683  1.00  0.00     0.163 HD
BRANCH   6   8
ATOM      8  C   UNL A   1      36.148  31.036  29.346  1.00  0.00     0.039 A 
ATOM      9  C   UNL A   1      37.319  31.542  28.773  1.00  0.00     0.014 A 
ATOM     10  C   UNL A   1      36.217  30.034  30.316  1.00  0.00     0.014 A 
ATOM     11  C   UNL A   1      38.544  30.953  29.066  1.00  0.00     0.010 A 
ATOM     12  C   UNL A   1      37.458  29.500  30.669  1.00  0.00     0.010 A 
ATOM     13  C   UNL A   1      38.628  29.932  30.025  1.00  0.00    -0.014 A 
BRANCH  13  14
ATOM     14  C   UNL A   1      39.948  29.360  30.392  1.00  0.00     0.031 A 
ATOM     15  C   UNL A   1      40.769  29.962  31.497  1.00  0.00     0.074 A 
ATOM     16  C   UNL A   1      40.425  28.317  29.685  1.00  0.00     0.049 A 
ATOM     17  N   UNL A   1      41.969  29.637  31.902  1.00  0.00    -0.248 NA
ATOM     18  C   UNL A   1      40.167  31.081  32.241  1.00  0.00     0.031 C 
ATOM     19  C   UNL A   1      39.731  27.669  28.571  1.00  0.00     0.029 A 
ATOM     20  N   UNL A   1      41.613  27.639  29.779  1.00  0.00    -0.354 N 
ATOM     21  C   UNL A   1      42.290  30.538  32.911  1.00  0.00     0.074 A 
ATOM     22  C   UNL A   1      41.157  31.427  33.054  1.00  0.00     0.031 C 
ATOM     23  C   UNL A   1      40.506  26.690  28.081  1.00  0.00     0.029 A 
ATOM     24  C   UNL A   1      41.772  26.682  28.804  1.00  0.00     0.049 A 
ATOM     25  H   UNL A   1      42.286  27.818  30.474  1.00  0.00     0.167 HD
ATOM     26  C   UNL A   1      43.421  30.611  33.653  1.00  0.00     0.034 A 
ATOM     27  C   UNL A   1      42.830  25.909  28.497  1.00  0.00     0.034 A 
ATOM     28  C   UNL A   1      44.537  29.713  33.511  1.00  0.00     0.049 A 
ATOM     29  C   UNL A   1      44.075  26.014  29.329  1.00  0.00     0.074 A 
ATOM     30  C   UNL A   1      45.702  29.664  34.256  1.00  0.00     0.029 A 
ATOM     31  N   UNL A   1      44.638  28.721  32.547  1.00  0.00    -0.354 N 
ATOM     32  N   UNL A   1      44.317  26.793  30.355  1.00  0.00    -0.248 NA
ATOM     33  C   UNL A   1      45.182  25.113  28.984  1.00  0.00     0.031 C 
ATOM     34  C   UNL A   1      46.525  28.671  33.717  1.00  0.00     0.029 A 
ATOM     35  C   UNL A   1      45.852  28.065  32.668  1.00  0.00     0.049 A 
ATOM     36  H   UNL A   1      43.949  28.514  31.876  1.00  0.00     0.167 HD
ATOM     37  C   UNL A   1      45.586  26.450  30.804  1.00  0.00     0.074 A 
ATOM     38  C   UNL A   1      46.059  25.386  29.942  1.00  0.00     0.031 C 
ATOM     39  C   UNL A   1      46.294  26.973  31.836  1.00  0.00     0.034 A 
BRANCH  26  40
ATOM     40  C   UNL A   1      43.507  31.701  34.693  1.00  0.00     0.023 A 
ATOM     41  C   UNL A   1      44.043  32.960  34.351  1.00  0.00     0.012 A 
ATOM     42  C   UNL A   1      43.020  31.494  35.999  1.00  0.00     0.148 A 
ATOM     43  C   UNL A   1      44.135  33.977  35.301  1.00  0.00     0.002 A 
ATOM     44  C   UNL A   1      43.070  32.527  36.927  1.00  0.00     0.091 A 
ATOM     45  F   UNL A   1      42.530  30.286  36.314  1.00  0.00    -0.205 F 
ATOM     46  C   UNL A   1      43.641  33.763  36.585  1.00  0.00     0.022 A 
BRANCH  44  47
ATOM     47  S   UNL A   1      42.384  32.375  38.580  1.00  0.00     0.127 S 
ATOM     48  O   UNL A   1      43.206  31.305  39.143  1.00  0.00    -0.237 OA
ATOM     49  O   UNL A   1      42.641  33.701  39.143  1.00  0.00    -0.237 OA
ATOM     50  O   UNL A   1      40.975  32.056  38.401  1.00  0.00    -0.744 OA
ENDBRANCH  44  47
ENDBRANCH  26  40
BRANCH  27  51
ATOM     51  C   UNL A   1      42.731  24.952  27.362  1.00  0.00     0.023 A 
ATOM     52  C   UNL A   1      43.304  25.284  26.120  1.00  0.00     0.012 A 
ATOM     53  C   UNL A   1      42.130  23.688  27.529  1.00  0.00     0.148 A 
ATOM     54  C   UNL A   1      43.260  24.383  25.056  1.00  0.00     0.002 A 
ATOM     55  C   UNL A   1      42.141  22.774  26.483  1.00  0.00     0.091 A 
ATOM     56  F   UNL A   1      41.590  23.396  28.720  1.00  0.00    -0.205 F 
ATOM     57  C   UNL A   1      42.691  23.125  25.241  1.00  0.00     0.022 A 
BRANCH  55  58
ATOM     58  S   UNL A   1      41.555  21.086  26.668  1.00  0.00     0.127 S 
ATOM     59  O   UNL A   1      40.112  21.283  26.770  1.00  0.00    -0.237 OA
ATOM     60  O   UNL A   1      42.008  20.476  25.417  1.00  0.00    -0.237 OA
ATOM     61  O   UNL A   1      42.206  20.569  27.864  1.00  0.00    -0.744 OA
ENDBRANCH  55  58
ENDBRANCH  27  51
BRANCH  39  62
ATOM     62  C   UNL A   1      47.637  26.366  32.143  1.00  0.00     0.023 A 
ATOM     63  C   UNL A   1      48.799  26.853  31.513  1.00  0.00     0.012 A 
ATOM     64  C   UNL A   1      47.751  25.368  33.131  1.00  0.00     0.148 A 
ATOM     65  C   UNL A   1      50.052  26.336  31.844  1.00  0.00     0.002 A 
ATOM     66  C   UNL A   1      49.005  24.897  33.495  1.00  0.00     0.091 A 
ATOM     67  F   UNL A   1      46.629  24.905  33.703  1.00  0.00    -0.205 F 
ATOM     68  C   UNL A   1      50.156  25.370  32.844  1.00  0.00     0.022 A 
BRANCH  66  69
ATOM     69  S   UNL A   1      49.244  23.732  34.840  1.00  0.00     0.127 S 
ATOM     70  O   UNL A   1      50.519  23.113  34.476  1.00  0.00    -0.237 OA
ATOM     71  O   UNL A   1      49.306  24.614  36.005  1.00  0.00    -0.237 OA
ATOM     72  O   UNL A   1      48.092  22.841  34.814  1.00  0.00    -0.744 OA
ENDBRANCH  66  69
ENDBRANCH  39  62
ENDBRANCH  13  14
ENDBRANCH   6   8
ENDBRANCH   3   4
ENDBRANCH   2   3
ENDBRANCH   1   2
BRANCH   1  73
ATOM     73  C   UNL A   1      31.300  29.614  24.959  1.00  0.00     0.002 C 
BRANCH  73  74
ATOM     74  C   UNL A   1      30.854  28.242  24.444  1.00  0.00     0.021 C 
BRANCH  74  75
ATOM     75  C   UNL A   1      30.863  28.098  22.925  1.00  0.00     0.116 C 
BRANCH  75  76
ATOM     76  N   UNL A   1      32.114  28.562  22.347  1.00  0.00    -0.352 N 
ATOM     77  C   UNL A   1      33.337  27.947  22.351  1.00  0.00     0.251 C 
ATOM     78  H   UNL A   1      32.077  29.435  21.893  1.00  0.00     0.163 HD
ATOM     79  O   UNL A   1      34.350  28.552  22.003  1.00  0.00    -0.269 OA
BRANCH  77  80
ATOM     80  C   UNL A   1      33.438  26.543  22.787  1.00  0.00     0.039 A 
ATOM     81  C   UNL A   1      33.212  25.526  21.862  1.00  0.00     0.016 A 
ATOM     82  C   UNL A   1      33.750  26.235  24.114  1.00  0.00     0.016 A 
ATOM     83  C   UNL A   1      33.349  24.192  22.255  1.00  0.00     0.027 A 
ATOM     84  C   UNL A   1      33.883  24.902  24.503  1.00  0.00     0.027 A 
ATOM     85  C   UNL A   1      33.676  23.864  23.582  1.00  0.00     0.051 A 
BRANCH  85  86
ATOM     86  N   UNL A   1      33.814  22.501  23.976  1.00  0.00    -0.261 N 
ATOM     87  C   UNL A   1      32.805  21.588  23.672  1.00  0.00     0.270 C 
ATOM     88  C   UNL A   1      34.903  22.002  24.682  1.00  0.00     0.152 C 
ATOM     89  O   UNL A   1      31.748  21.804  23.090  1.00  0.00    -0.268 OA
ATOM     90  C   UNL A   1      33.178  20.230  24.153  1.00  0.00     0.084 C 
ATOM     91  S   UNL A   1      34.708  20.270  24.926  1.00  0.00    -0.054 SA
ATOM     92  S   UNL A   1      36.199  22.801  25.379  1.00  0.00    -0.051 S 
ATOM     93  C   UNL A   1      32.385  19.172  23.942  1.00  0.00     0.068 C 
BRANCH  93  94
ATOM     94  C   UNL A   1      32.690  17.870  24.422  1.00  0.00     0.127 A 
ATOM     95  C   UNL A   1      33.502  16.886  23.868  1.00  0.00     0.050 A 
ATOM     96  O   UNL A   1      32.195  17.380  25.607  1.00  0.00    -0.465 OA
ATOM     97  C   UNL A   1      33.456  15.757  24.716  1.00  0.00     0.042 A 
ATOM     98  C   UNL A   1      32.639  16.108  25.760  1.00  0.00     0.195 A 
ENDBRANCH  93  94
ENDBRANCH  85  86
ENDBRANCH  77  80
ENDBRANCH  75  76
ENDBRANCH  74  75
ENDBRANCH  73  74
ENDBRANCH   1  73
TORSDOF 18
ENDMDL
