MODEL 1
REMARK VINA RESULT:     -10.5      0.000      0.000
REMARK SMILES CCCC[C@H](C(=O)NCCCCCCNC(=O)c1ccc(-c2c3nc(c(-c4cccc(S(=O)(=O)[O-])c4F)c4ccc([nH]4)c(-c4cccc(S(=O)(=O)[O-])c4F)c4nc(c(-c5cccc(S(=O)(=O)[O-])c5F)c5ccc2[nH]5)C=C4)C=C3)cc1)[C@H](O)c1ccc(C(F)(F)F)cc1
REMARK SMILES IDX 11 1 10 2 9 3 8 4 6 5 7 6 5 8 4 9 3 10 2 11 1 12 81 13 83 14
REMARK SMILES IDX 84 15 92 16 85 17 91 18 86 19 87 20 88 21 89 22 90 23 82 24
REMARK SMILES IDX 12 26 13 27 14 28 15 29 16 30 17 32 18 33 19 34 80 35 20 36
REMARK SMILES IDX 79 37 21 38 22 39 23 40 73 41 24 42 78 43 72 44 74 45 25 46
REMARK SMILES IDX 77 47 71 48 70 49 26 51 58 52 38 53 57 54 39 55 42 56 56 57
REMARK SMILES IDX 75 58 40 59 41 60 55 62 76 63 43 64 27 65 28 66 36 67 29 68
REMARK SMILES IDX 31 69 37 70 30 71 32 72 33 73 34 74 35 75 59 76 60 77 68 78
REMARK SMILES IDX 61 79 63 80 69 81 62 82 64 83 65 84 66 85 67 86 44 87 45 88
REMARK SMILES IDX 53 89 46 90 48 91 54 92 47 93 49 94 50 95 51 96 52 97
REMARK H PARENT 8 7 82 25 15 31 74 50 42 61
REMARK Flexibility Score: inf
ROOT
ATOM      1  C   UNL A   1      35.278  23.507  24.021  1.00  0.00     0.002 C 
ENDROOT
BRANCH   1   2
ATOM      2  C   UNL A   1      35.170  24.119  25.425  1.00  0.00     0.021 C 
BRANCH   2   3
ATOM      3  C   UNL A   1      34.481  25.477  25.496  1.00  0.00     0.116 C 
BRANCH   3   4
ATOM      4  N   UNL A   1      34.130  25.986  24.184  1.00  0.00    -0.356 N 
ATOM      5  C   UNL A   1      32.936  26.398  23.684  1.00  0.00     0.226 C 
ATOM      6  O   UNL A   1      32.936  26.821  22.523  1.00  0.00    -0.275 OA
ATOM      7  H   UNL A   1      34.881  26.043  23.552  1.00  0.00     0.163 HD
BRANCH   5   8
ATOM      8  C   UNL A   1      31.649  26.317  24.499  1.00  0.00     0.111 C 
BRANCH   8   9
ATOM      9  C   UNL A   1      30.979  27.719  24.521  1.00  0.00     0.016 C 
BRANCH   9  10
ATOM     10  C   UNL A   1      31.365  28.606  25.717  1.00  0.00     0.001 C 
BRANCH  10  11
ATOM     11  C   UNL A   1      32.492  29.614  25.513  1.00  0.00    -0.003 C 
ATOM     12  C   UNL A   1      33.834  29.192  26.087  1.00  0.00     0.004 C 
ENDBRANCH  10  11
ENDBRANCH   9  10
ENDBRANCH   8   9
BRANCH   8  13
ATOM     13  C   UNL A   1      30.770  25.245  23.794  1.00  0.00     0.157 C 
BRANCH  13  14
ATOM     14  C   UNL A   1      31.325  23.834  23.953  1.00  0.00    -0.019 A 
ATOM     15  C   UNL A   1      31.729  23.101  22.830  1.00  0.00     0.007 A 
ATOM     16  C   UNL A   1      31.451  23.241  25.220  1.00  0.00     0.007 A 
ATOM     17  C   UNL A   1      32.232  21.803  22.969  1.00  0.00     0.013 A 
ATOM     18  C   UNL A   1      31.937  21.939  25.359  1.00  0.00     0.013 A 
ATOM     19  C   UNL A   1      32.329  21.203  24.233  1.00  0.00     0.056 A 
BRANCH  19  20
ATOM     20  C   UNL A   1      32.853  19.795  24.364  1.00  0.00     0.416 C 
ATOM     21  F   UNL A   1      32.820  19.117  23.181  1.00  0.00    -0.166 F 
ATOM     22  F   UNL A   1      34.149  19.756  24.779  1.00  0.00    -0.166 F 
ATOM     23  F   UNL A   1      32.152  19.029  25.246  1.00  0.00    -0.166 F 
ENDBRANCH  19  20
ENDBRANCH  13  14
BRANCH  13  24
ATOM     24  O   UNL A   1      29.426  25.255  24.293  1.00  0.00    -0.388 OA
ATOM     25  H   UNL A   1      29.273  26.071  24.795  1.00  0.00     0.211 HD
ENDBRANCH  13  24
ENDBRANCH   8  13
ENDBRANCH   5   8
ENDBRANCH   3   4
ENDBRANCH   2   3
ENDBRANCH   1   2
BRANCH   1  26
ATOM     26  C   UNL A   1      36.637  22.909  23.642  1.00  0.00     0.002 C 
BRANCH  26  27
ATOM     27  C   UNL A   1      36.869  21.454  24.052  1.00  0.00     0.021 C 
BRANCH  27  28
ATOM     28  C   UNL A   1      37.245  21.231  25.513  1.00  0.00     0.116 C 
BRANCH  28  29
ATOM     29  N   UNL A   1      38.296  20.240  25.684  1.00  0.00    -0.352 N 
ATOM     30  C   UNL A   1      39.579  20.404  26.149  1.00  0.00     0.251 C 
ATOM     31  H   UNL A   1      38.053  19.320  25.429  1.00  0.00     0.163 HD
ATOM     32  O   UNL A   1      40.373  19.467  26.107  1.00  0.00    -0.269 OA
BRANCH  30  33
ATOM     33  C   UNL A   1      40.013  21.719  26.668  1.00  0.00     0.039 A 
ATOM     34  C   UNL A   1      40.921  21.757  27.730  1.00  0.00     0.014 A 
ATOM     35  C   UNL A   1      39.547  22.907  26.099  1.00  0.00     0.014 A 
ATOM     36  C   UNL A   1      41.427  22.985  28.165  1.00  0.00     0.010 A 
ATOM     37  C   UNL A   1      40.100  24.125  26.491  1.00  0.00     0.010 A 
ATOM     38  C   UNL A   1      41.056  24.175  27.518  1.00  0.00    -0.014 A 
BRANCH  38  39
ATOM     39  C   UNL A   1      41.698  25.473  27.853  1.00  0.00     0.031 A 
ATOM     40  C   UNL A   1      40.914  26.564  28.526  1.00  0.00     0.074 A 
ATOM     41  C   UNL A   1      42.963  25.705  27.444  1.00  0.00     0.049 A 
ATOM     42  N   UNL A   1      41.283  27.786  28.811  1.00  0.00    -0.248 NA
ATOM     43  C   UNL A   1      39.529  26.250  28.909  1.00  0.00     0.031 C 
ATOM     44  C   UNL A   1      43.803  24.752  26.715  1.00  0.00     0.029 A 
ATOM     45  N   UNL A   1      43.750  26.825  27.551  1.00  0.00    -0.354 N 
ATOM     46  C   UNL A   1      40.170  28.398  29.372  1.00  0.00     0.074 A 
ATOM     47  C   UNL A   1      39.104  27.420  29.367  1.00  0.00     0.031 C 
ATOM     48  C   UNL A   1      44.980  25.329  26.433  1.00  0.00     0.029 A 
ATOM     49  C   UNL A   1      44.970  26.702  26.928  1.00  0.00     0.049 A 
ATOM     50  H   UNL A   1      43.467  27.639  28.027  1.00  0.00     0.167 HD
ATOM     51  C   UNL A   1      40.054  29.652  29.871  1.00  0.00     0.034 A 
ATOM     52  C   UNL A   1      45.963  27.598  26.756  1.00  0.00     0.034 A 
ATOM     53  C   UNL A   1      41.127  30.610  29.909  1.00  0.00     0.049 A 
ATOM     54  C   UNL A   1      45.813  28.978  27.333  1.00  0.00     0.074 A 
ATOM     55  C   UNL A   1      41.137  31.867  30.487  1.00  0.00     0.029 A 
ATOM     56  N   UNL A   1      42.375  30.425  29.335  1.00  0.00    -0.354 N 
ATOM     57  N   UNL A   1      44.814  29.481  28.017  1.00  0.00    -0.248 NA
ATOM     58  C   UNL A   1      46.936  29.907  27.140  1.00  0.00     0.031 C 
ATOM     59  C   UNL A   1      42.382  32.453  30.238  1.00  0.00     0.029 A 
ATOM     60  C   UNL A   1      43.156  31.553  29.524  1.00  0.00     0.049 A 
ATOM     61  H   UNL A   1      42.665  29.611  28.863  1.00  0.00     0.167 HD
ATOM     62  C   UNL A   1      45.197  30.774  28.355  1.00  0.00     0.074 A 
ATOM     63  C   UNL A   1      46.530  30.968  27.825  1.00  0.00     0.031 C 
ATOM     64  C   UNL A   1      44.499  31.721  29.031  1.00  0.00     0.034 A 
BRANCH  51  65
ATOM     65  C   UNL A   1      38.729  30.050  30.468  1.00  0.00     0.023 A 
ATOM     66  C   UNL A   1      38.427  29.678  31.794  1.00  0.00     0.012 A 
ATOM     67  C   UNL A   1      37.817  30.847  29.749  1.00  0.00     0.148 A 
ATOM     68  C   UNL A   1      37.226  30.066  32.385  1.00  0.00     0.002 A 
ATOM     69  C   UNL A   1      36.639  31.264  30.359  1.00  0.00     0.091 A 
ATOM     70  F   UNL A   1      38.111  31.173  28.482  1.00  0.00    -0.205 F 
ATOM     71  C   UNL A   1      36.338  30.866  31.672  1.00  0.00     0.022 A 
BRANCH  69  72
ATOM     72  S   UNL A   1      35.466  32.359  29.552  1.00  0.00     0.127 S 
ATOM     73  O   UNL A   1      34.348  32.340  30.496  1.00  0.00    -0.237 OA
ATOM     74  O   UNL A   1      36.203  33.622  29.507  1.00  0.00    -0.237 OA
ATOM     75  O   UNL A   1      35.195  31.767  28.250  1.00  0.00    -0.744 OA
ENDBRANCH  69  72
ENDBRANCH  51  65
BRANCH  52  76
ATOM     76  C   UNL A   1      47.209  27.195  26.044  1.00  0.00     0.023 A 
ATOM     77  C   UNL A   1      47.346  27.490  24.674  1.00  0.00     0.012 A 
ATOM     78  C   UNL A   1      48.267  26.559  26.719  1.00  0.00     0.148 A 
ATOM     79  C   UNL A   1      48.505  27.134  23.982  1.00  0.00     0.002 A 
ATOM     80  C   UNL A   1      49.442  26.257  26.038  1.00  0.00     0.091 A 
ATOM     81  F   UNL A   1      48.111  26.273  28.019  1.00  0.00    -0.205 F 
ATOM     82  C   UNL A   1      49.556  26.529  24.666  1.00  0.00     0.022 A 
BRANCH  80  83
ATOM     83  S   UNL A   1      50.894  25.603  26.870  1.00  0.00     0.127 S 
ATOM     84  O   UNL A   1      51.261  26.710  27.748  1.00  0.00    -0.237 OA
ATOM     85  O   UNL A   1      50.349  24.428  27.552  1.00  0.00    -0.237 OA
ATOM     86  O   UNL A   1      51.845  25.291  25.811  1.00  0.00    -0.744 OA
ENDBRANCH  80  83
ENDBRANCH  52  76
BRANCH  64  87
ATOM     87  C   UNL A   1      45.160  33.055  29.251  1.00  0.00     0.023 A 
ATOM     88  C   UNL A   1      45.917  33.271  30.420  1.00  0.00     0.012 A 
ATOM     89  C   UNL A   1      45.105  34.061  28.266  1.00  0.00     0.148 A 
ATOM     90  C   UNL A   1      46.589  34.477  30.616  1.00  0.00     0.002 A 
ATOM     91  C   UNL A   1      45.815  35.242  28.447  1.00  0.00     0.091 A 
ATOM     92  F   UNL A   1      44.366  33.841  27.169  1.00  0.00    -0.205 F 
ATOM     93  C   UNL A   1      46.549  35.456  29.626  1.00  0.00     0.022 A 
BRANCH  91  94
ATOM     94  S   UNL A   1      45.899  36.524  27.191  1.00  0.00     0.127 S 
ATOM     95  O   UNL A   1      44.512  36.981  27.140  1.00  0.00    -0.237 OA
ATOM     96  O   UNL A   1      46.835  37.478  27.786  1.00  0.00    -0.237 OA
ATOM     97  O   UNL A   1      46.385  35.872  25.982  1.00  0.00    -0.744 OA
ENDBRANCH  91  94
ENDBRANCH  64  87
ENDBRANCH  38  39
ENDBRANCH  30  33
ENDBRANCH  28  29
ENDBRANCH  27  28
ENDBRANCH  26  27
ENDBRANCH   1  26
TORSDOF 23
ENDMDL
MODEL 2
REMARK VINA RESULT:     -10.5      2.613      3.810
REMARK SMILES CCCC[C@H](C(=O)NCCCCCCNC(=O)c1ccc(-c2c3nc(c(-c4cccc(S(=O)(=O)[O-])c4F)c4ccc([nH]4)c(-c4cccc(S(=O)(=O)[O-])c4F)c4nc(c(-c5cccc(S(=O)(=O)[O-])c5F)c5ccc2[nH]5)C=C4)C=C3)cc1)[C@H](O)c1ccc(C(F)(F)F)cc1
REMARK SMILES IDX 11 1 10 2 9 3 8 4 6 5 7 6 5 8 4 9 3 10 2 11 1 12 81 13 83 14
REMARK SMILES IDX 84 15 92 16 85 17 91 18 86 19 87 20 88 21 89 22 90 23 82 24
REMARK SMILES IDX 12 26 13 27 14 28 15 29 16 30 17 32 18 33 19 34 80 35 20 36
REMARK SMILES IDX 79 37 21 38 22 39 23 40 73 41 24 42 78 43 72 44 74 45 25 46
REMARK SMILES IDX 77 47 71 48 70 49 26 51 58 52 38 53 57 54 39 55 42 56 56 57
REMARK SMILES IDX 75 58 40 59 41 60 55 62 76 63 43 64 27 65 28 66 36 67 29 68
REMARK SMILES IDX 31 69 37 70 30 71 32 72 33 73 34 74 35 75 59 76 60 77 68 78
REMARK SMILES IDX 61 79 63 80 69 81 62 82 64 83 65 84 66 85 67 86 44 87 45 88
REMARK SMILES IDX 53 89 46 90 48 91 54 92 47 93 49 94 50 95 51 96 52 97
REMARK H PARENT 8 7 82 25 15 31 74 50 42 61
REMARK Flexibility Score: inf
ROOT
ATOM      1  C   UNL A   1      36.122  21.071  25.280  1.00  0.00     0.002 C 
ENDROOT
BRANCH   1   2
ATOM      2  C   UNL A   1      35.564  22.481  25.046  1.00  0.00     0.021 C 
BRANCH   2   3
ATOM      3  C   UNL A   1      35.528  23.385  26.274  1.00  0.00     0.116 C 
BRANCH   3   4
ATOM      4  N   UNL A   1      34.664  22.863  27.315  1.00  0.00    -0.356 N 
ATOM      5  C   UNL A   1      33.314  22.717  27.356  1.00  0.00     0.226 C 
ATOM      6  O   UNL A   1      32.840  22.206  28.376  1.00  0.00    -0.275 OA
ATOM      7  H   UNL A   1      35.134  22.566  28.127  1.00  0.00     0.163 HD
BRANCH   5   8
ATOM      8  C   UNL A   1      32.417  23.187  26.214  1.00  0.00     0.111 C 
BRANCH   8   9
ATOM      9  C   UNL A   1      31.690  21.955  25.608  1.00  0.00     0.016 C 
BRANCH   9  10
ATOM     10  C   UNL A   1      32.568  21.051  24.725  1.00  0.00     0.001 C 
BRANCH  10  11
ATOM     11  C   UNL A   1      32.382  19.543  24.856  1.00  0.00    -0.003 C 
ATOM     12  C   UNL A   1      33.436  18.708  24.148  1.00  0.00     0.004 C 
ENDBRANCH  10  11
ENDBRANCH   9  10
ENDBRANCH   8   9
BRANCH   8  13
ATOM     13  C   UNL A   1      31.433  24.211  26.846  1.00  0.00     0.157 C 
BRANCH  13  14
ATOM     14  C   UNL A   1      31.073  25.345  25.892  1.00  0.00    -0.019 A 
ATOM     15  C   UNL A   1      31.553  26.642  26.119  1.00  0.00     0.007 A 
ATOM     16  C   UNL A   1      30.264  25.118  24.766  1.00  0.00     0.007 A 
ATOM     17  C   UNL A   1      31.219  27.687  25.252  1.00  0.00     0.013 A 
ATOM     18  C   UNL A   1      29.918  26.165  23.908  1.00  0.00     0.013 A 
ATOM     19  C   UNL A   1      30.388  27.463  24.144  1.00  0.00     0.056 A 
BRANCH  19  20
ATOM     20  C   UNL A   1      30.020  28.605  23.230  1.00  0.00     0.416 C 
ATOM     21  F   UNL A   1      28.694  28.606  22.909  1.00  0.00    -0.166 F 
ATOM     22  F   UNL A   1      30.267  29.822  23.789  1.00  0.00    -0.166 F 
ATOM     23  F   UNL A   1      30.686  28.593  22.043  1.00  0.00    -0.166 F 
ENDBRANCH  19  20
ENDBRANCH  13  14
BRANCH  13  24
ATOM     24  O   UNL A   1      30.216  23.582  27.269  1.00  0.00    -0.388 OA
ATOM     25  H   UNL A   1      30.155  22.699  26.873  1.00  0.00     0.211 HD
ENDBRANCH  13  24
ENDBRANCH   8  13
ENDBRANCH   5   8
ENDBRANCH   3   4
ENDBRANCH   2   3
ENDBRANCH   1   2
BRANCH   1  26
ATOM     26  C   UNL A   1      37.285  20.640  24.380  1.00  0.00     0.002 C 
BRANCH  26  27
ATOM     27  C   UNL A   1      38.175  19.520  24.920  1.00  0.00     0.021 C 
BRANCH  27  28
ATOM     28  C   UNL A   1      39.099  19.907  26.070  1.00  0.00     0.116 C 
BRANCH  28  29
ATOM     29  N   UNL A   1      40.378  19.216  26.027  1.00  0.00    -0.352 N 
ATOM     30  C   UNL A   1      41.645  19.720  26.206  1.00  0.00     0.251 C 
ATOM     31  H   UNL A   1      40.330  18.250  25.842  1.00  0.00     0.163 HD
ATOM     32  O   UNL A   1      42.624  19.004  26.009  1.00  0.00    -0.269 OA
BRANCH  30  33
ATOM     33  C   UNL A   1      41.828  21.133  26.603  1.00  0.00     0.039 A 
ATOM     34  C   UNL A   1      42.166  21.421  27.928  1.00  0.00     0.014 A 
ATOM     35  C   UNL A   1      41.689  22.166  25.673  1.00  0.00     0.014 A 
ATOM     36  C   UNL A   1      42.450  22.738  28.300  1.00  0.00     0.010 A 
ATOM     37  C   UNL A   1      42.033  23.468  26.030  1.00  0.00     0.010 A 
ATOM     38  C   UNL A   1      42.430  23.766  27.343  1.00  0.00    -0.014 A 
BRANCH  38  39
ATOM     39  C   UNL A   1      42.882  25.142  27.674  1.00  0.00     0.031 A 
ATOM     40  C   UNL A   1      41.931  26.133  28.285  1.00  0.00     0.074 A 
ATOM     41  C   UNL A   1      44.123  25.531  27.316  1.00  0.00     0.049 A 
ATOM     42  N   UNL A   1      42.124  27.398  28.556  1.00  0.00    -0.248 NA
ATOM     43  C   UNL A   1      40.582  25.647  28.614  1.00  0.00     0.031 C 
ATOM     44  C   UNL A   1      45.114  24.683  26.648  1.00  0.00     0.029 A 
ATOM     45  N   UNL A   1      44.751  26.747  27.430  1.00  0.00    -0.354 N 
ATOM     46  C   UNL A   1      40.915  27.869  29.052  1.00  0.00     0.074 A 
ATOM     47  C   UNL A   1      39.987  26.759  29.024  1.00  0.00     0.031 C 
ATOM     48  C   UNL A   1      46.218  25.405  26.405  1.00  0.00     0.029 A 
ATOM     49  C   UNL A   1      46.005  26.773  26.865  1.00  0.00     0.049 A 
ATOM     50  H   UNL A   1      44.343  27.525  27.874  1.00  0.00     0.167 HD
ATOM     51  C   UNL A   1      40.613  29.106  29.515  1.00  0.00     0.034 A 
ATOM     52  C   UNL A   1      46.879  27.788  26.716  1.00  0.00     0.034 A 
ATOM     53  C   UNL A   1      41.549  30.197  29.577  1.00  0.00     0.049 A 
ATOM     54  C   UNL A   1      46.524  29.148  27.252  1.00  0.00     0.074 A 
ATOM     55  C   UNL A   1      41.367  31.455  30.124  1.00  0.00     0.029 A 
ATOM     56  N   UNL A   1      42.836  30.167  29.064  1.00  0.00    -0.354 N 
ATOM     57  N   UNL A   1      45.437  29.528  27.878  1.00  0.00    -0.248 NA
ATOM     58  C   UNL A   1      47.524  30.212  27.086  1.00  0.00     0.031 C 
ATOM     59  C   UNL A   1      42.536  32.195  29.916  1.00  0.00     0.029 A 
ATOM     60  C   UNL A   1      43.454  31.391  29.259  1.00  0.00     0.049 A 
ATOM     61  H   UNL A   1      43.252  29.389  28.625  1.00  0.00     0.167 HD
ATOM     62  C   UNL A   1      45.631  30.865  28.202  1.00  0.00     0.074 A 
ATOM     63  C   UNL A   1      46.952  31.223  27.727  1.00  0.00     0.031 C 
ATOM     64  C   UNL A   1      44.785  31.725  28.822  1.00  0.00     0.034 A 
BRANCH  51  65
ATOM     65  C   UNL A   1      39.221  29.337  30.043  1.00  0.00     0.023 A 
ATOM     66  C   UNL A   1      38.889  28.894  31.339  1.00  0.00     0.012 A 
ATOM     67  C   UNL A   1      38.267  30.050  29.290  1.00  0.00     0.148 A 
ATOM     68  C   UNL A   1      37.622  29.129  31.868  1.00  0.00     0.002 A 
ATOM     69  C   UNL A   1      37.018  30.316  29.840  1.00  0.00     0.091 A 
ATOM     70  F   UNL A   1      38.593  30.445  28.051  1.00  0.00    -0.205 F 
ATOM     71  C   UNL A   1      36.691  29.848  31.124  1.00  0.00     0.022 A 
BRANCH  69  72
ATOM     72  S   UNL A   1      35.776  31.299  28.992  1.00  0.00     0.127 S 
ATOM     73  O   UNL A   1      36.598  32.330  28.359  1.00  0.00    -0.237 OA
ATOM     74  O   UNL A   1      35.194  30.328  28.065  1.00  0.00    -0.237 OA
ATOM     75  O   UNL A   1      34.865  31.773  30.025  1.00  0.00    -0.744 OA
ENDBRANCH  69  72
ENDBRANCH  51  65
BRANCH  52  76
ATOM     76  C   UNL A   1      48.200  27.540  26.070  1.00  0.00     0.023 A 
ATOM     77  C   UNL A   1      49.299  27.166  26.867  1.00  0.00     0.012 A 
ATOM     78  C   UNL A   1      48.363  27.636  24.675  1.00  0.00     0.148 A 
ATOM     79  C   UNL A   1      50.545  26.918  26.289  1.00  0.00     0.002 A 
ATOM     80  C   UNL A   1      49.593  27.332  24.099  1.00  0.00     0.091 A 
ATOM     81  F   UNL A   1      47.309  28.007  23.935  1.00  0.00    -0.205 F 
ATOM     82  C   UNL A   1      50.688  26.990  24.906  1.00  0.00     0.022 A 
BRANCH  80  83
ATOM     83  S   UNL A   1      49.830  27.266  22.319  1.00  0.00     0.127 S 
ATOM     84  O   UNL A   1      48.850  26.260  21.924  1.00  0.00    -0.237 OA
ATOM     85  O   UNL A   1      49.506  28.636  21.919  1.00  0.00    -0.237 OA
ATOM     86  O   UNL A   1      51.227  26.902  22.124  1.00  0.00    -0.744 OA
ENDBRANCH  80  83
ENDBRANCH  52  76
BRANCH  64  87
ATOM     87  C   UNL A   1      45.256  33.138  29.039  1.00  0.00     0.023 A 
ATOM     88  C   UNL A   1      45.969  33.461  30.211  1.00  0.00     0.012 A 
ATOM     89  C   UNL A   1      45.069  34.122  28.049  1.00  0.00     0.148 A 
ATOM     90  C   UNL A   1      46.468  34.749  30.404  1.00  0.00     0.002 A 
ATOM     91  C   UNL A   1      45.609  35.391  28.228  1.00  0.00     0.091 A 
ATOM     92  F   UNL A   1      44.373  33.798  26.949  1.00  0.00    -0.205 F 
ATOM     93  C   UNL A   1      46.299  35.708  29.409  1.00  0.00     0.022 A 
BRANCH  91  94
ATOM     94  S   UNL A   1      45.523  36.667  26.966  1.00  0.00     0.127 S 
ATOM     95  O   UNL A   1      46.164  36.006  25.831  1.00  0.00    -0.237 OA
ATOM     96  O   UNL A   1      44.080  36.863  26.823  1.00  0.00    -0.237 OA
ATOM     97  O   UNL A   1      46.240  37.815  27.504  1.00  0.00    -0.744 OA
ENDBRANCH  91  94
ENDBRANCH  64  87
ENDBRANCH  38  39
ENDBRANCH  30  33
ENDBRANCH  28  29
ENDBRANCH  27  28
ENDBRANCH  26  27
ENDBRANCH   1  26
TORSDOF 23
ENDMDL
MODEL 3
REMARK VINA RESULT:     -10.5      2.373      8.040
REMARK SMILES CCCC[C@H](C(=O)NCCCCCCNC(=O)c1ccc(-c2c3nc(c(-c4cccc(S(=O)(=O)[O-])c4F)c4ccc([nH]4)c(-c4cccc(S(=O)(=O)[O-])c4F)c4nc(c(-c5cccc(S(=O)(=O)[O-])c5F)c5ccc2[nH]5)C=C4)C=C3)cc1)[C@H](O)c1ccc(C(F)(F)F)cc1
REMARK SMILES IDX 11 1 10 2 9 3 8 4 6 5 7 6 5 8 4 9 3 10 2 11 1 12 81 13 83 14
REMARK SMILES IDX 84 15 92 16 85 17 91 18 86 19 87 20 88 21 89 22 90 23 82 24
REMARK SMILES IDX 12 26 13 27 14 28 15 29 16 30 17 32 18 33 19 34 80 35 20 36
REMARK SMILES IDX 79 37 21 38 22 39 23 40 73 41 24 42 78 43 72 44 74 45 25 46
REMARK SMILES IDX 77 47 71 48 70 49 26 51 58 52 38 53 57 54 39 55 42 56 56 57
REMARK SMILES IDX 75 58 40 59 41 60 55 62 76 63 43 64 27 65 28 66 36 67 29 68
REMARK SMILES IDX 31 69 37 70 30 71 32 72 33 73 34 74 35 75 59 76 60 77 68 78
REMARK SMILES IDX 61 79 63 80 69 81 62 82 64 83 65 84 66 85 67 86 44 87 45 88
REMARK SMILES IDX 53 89 46 90 48 91 54 92 47 93 49 94 50 95 51 96 52 97
REMARK H PARENT 8 7 82 25 15 31 74 50 42 61
REMARK Flexibility Score: inf
ROOT
ATOM      1  C   UNL A   1      34.304  25.436  24.874  1.00  0.00     0.002 C 
ENDROOT
BRANCH   1   2
ATOM      2  C   UNL A   1      34.050  26.527  23.825  1.00  0.00     0.021 C 
BRANCH   2   3
ATOM      3  C   UNL A   1      33.633  26.028  22.446  1.00  0.00     0.116 C 
BRANCH   3   4
ATOM      4  N   UNL A   1      32.463  26.721  21.941  1.00  0.00    -0.356 N 
ATOM      5  C   UNL A   1      31.320  27.102  22.567  1.00  0.00     0.226 C 
ATOM      6  O   UNL A   1      30.491  27.717  21.886  1.00  0.00    -0.275 OA
ATOM      7  H   UNL A   1      32.506  26.955  20.986  1.00  0.00     0.163 HD
BRANCH   5   8
ATOM      8  C   UNL A   1      31.050  26.764  24.030  1.00  0.00     0.111 C 
BRANCH   8   9
ATOM      9  C   UNL A   1      30.416  28.002  24.723  1.00  0.00     0.016 C 
BRANCH   9  10
ATOM     10  C   UNL A   1      31.371  29.191  24.931  1.00  0.00     0.001 C 
BRANCH  10  11
ATOM     11  C   UNL A   1      31.770  29.532  26.363  1.00  0.00    -0.003 C 
ATOM     12  C   UNL A   1      31.655  28.381  27.348  1.00  0.00     0.004 C 
ENDBRANCH  10  11
ENDBRANCH   9  10
ENDBRANCH   8   9
BRANCH   8  13
ATOM     13  C   UNL A   1      30.096  25.536  24.010  1.00  0.00     0.157 C 
BRANCH  13  14
ATOM     14  C   UNL A   1      30.817  24.227  24.310  1.00  0.00    -0.019 A 
ATOM     15  C   UNL A   1      31.316  23.437  23.266  1.00  0.00     0.007 A 
ATOM     16  C   UNL A   1      31.007  23.787  25.631  1.00  0.00     0.007 A 
ATOM     17  C   UNL A   1      31.971  22.231  23.534  1.00  0.00     0.013 A 
ATOM     18  C   UNL A   1      31.647  22.575  25.900  1.00  0.00     0.013 A 
ATOM     19  C   UNL A   1      32.133  21.781  24.853  1.00  0.00     0.056 A 
BRANCH  19  20
ATOM     20  C   UNL A   1      32.824  20.468  25.126  1.00  0.00     0.416 C 
ATOM     21  F   UNL A   1      33.902  20.272  24.314  1.00  0.00    -0.166 F 
ATOM     22  F   UNL A   1      33.297  20.381  26.399  1.00  0.00    -0.166 F 
ATOM     23  F   UNL A   1      32.025  19.380  24.945  1.00  0.00    -0.166 F 
ENDBRANCH  19  20
ENDBRANCH  13  14
BRANCH  13  24
ATOM     24  O   UNL A   1      29.028  25.683  24.955  1.00  0.00    -0.388 OA
ATOM     25  H   UNL A   1      28.345  25.018  24.777  1.00  0.00     0.211 HD
ENDBRANCH  13  24
ENDBRANCH   8  13
ENDBRANCH   5   8
ENDBRANCH   3   4
ENDBRANCH   2   3
ENDBRANCH   1   2
BRANCH   1  26
ATOM     26  C   UNL A   1      34.974  24.152  24.372  1.00  0.00     0.002 C 
BRANCH  26  27
ATOM     27  C   UNL A   1      36.006  23.523  25.308  1.00  0.00     0.021 C 
BRANCH  27  28
ATOM     28  C   UNL A   1      37.431  23.451  24.768  1.00  0.00     0.116 C 
BRANCH  28  29
ATOM     29  N   UNL A   1      38.275  22.529  25.513  1.00  0.00    -0.352 N 
ATOM     30  C   UNL A   1      39.250  22.801  26.444  1.00  0.00     0.251 C 
ATOM     31  H   UNL A   1      38.127  21.575  25.323  1.00  0.00     0.163 HD
ATOM     32  O   UNL A   1      39.952  21.892  26.881  1.00  0.00    -0.269 OA
BRANCH  30  33
ATOM     33  C   UNL A   1      39.475  24.192  26.891  1.00  0.00     0.039 A 
ATOM     34  C   UNL A   1      39.082  24.555  28.183  1.00  0.00     0.014 A 
ATOM     35  C   UNL A   1      40.089  25.128  26.055  1.00  0.00     0.014 A 
ATOM     36  C   UNL A   1      39.383  25.832  28.665  1.00  0.00     0.010 A 
ATOM     37  C   UNL A   1      40.444  26.377  26.558  1.00  0.00     0.010 A 
ATOM     38  C   UNL A   1      40.107  26.738  27.873  1.00  0.00    -0.014 A 
BRANCH  38  39
ATOM     39  C   UNL A   1      40.578  28.038  28.416  1.00  0.00     0.031 A 
ATOM     40  C   UNL A   1      42.044  28.293  28.628  1.00  0.00     0.074 A 
ATOM     41  C   UNL A   1      39.670  28.948  28.825  1.00  0.00     0.049 A 
ATOM     42  N   UNL A   1      42.629  29.328  29.173  1.00  0.00    -0.248 NA
ATOM     43  C   UNL A   1      42.974  27.239  28.192  1.00  0.00     0.031 C 
ATOM     44  C   UNL A   1      38.216  28.786  28.742  1.00  0.00     0.029 A 
ATOM     45  N   UNL A   1      39.833  30.173  29.424  1.00  0.00    -0.354 N 
ATOM     46  C   UNL A   1      43.987  29.039  29.179  1.00  0.00     0.074 A 
ATOM     47  C   UNL A   1      44.139  27.719  28.603  1.00  0.00     0.031 C 
ATOM     48  C   UNL A   1      37.623  29.863  29.277  1.00  0.00     0.029 A 
ATOM     49  C   UNL A   1      38.647  30.777  29.772  1.00  0.00     0.049 A 
ATOM     50  H   UNL A   1      40.714  30.580  29.589  1.00  0.00     0.167 HD
ATOM     51  C   UNL A   1      45.016  29.812  29.600  1.00  0.00     0.034 A 
ATOM     52  C   UNL A   1      38.409  31.927  30.434  1.00  0.00     0.034 A 
ATOM     53  C   UNL A   1      44.865  31.138  30.136  1.00  0.00     0.049 A 
ATOM     54  C   UNL A   1      39.570  32.772  30.878  1.00  0.00     0.074 A 
ATOM     55  C   UNL A   1      45.853  32.038  30.494  1.00  0.00     0.029 A 
ATOM     56  N   UNL A   1      43.651  31.750  30.407  1.00  0.00    -0.354 N 
ATOM     57  N   UNL A   1      40.854  32.559  30.715  1.00  0.00    -0.248 NA
ATOM     58  C   UNL A   1      39.254  34.029  31.571  1.00  0.00     0.031 C 
ATOM     59  C   UNL A   1      45.236  33.184  31.007  1.00  0.00     0.029 A 
ATOM     60  C   UNL A   1      43.863  33.006  30.948  1.00  0.00     0.049 A 
ATOM     61  H   UNL A   1      42.767  31.350  30.238  1.00  0.00     0.167 HD
ATOM     62  C   UNL A   1      41.495  33.663  31.263  1.00  0.00     0.074 A 
ATOM     63  C   UNL A   1      40.459  34.557  31.738  1.00  0.00     0.031 C 
ATOM     64  C   UNL A   1      42.824  33.908  31.378  1.00  0.00     0.034 A 
BRANCH  51  65
ATOM     65  C   UNL A   1      46.412  29.264  29.451  1.00  0.00     0.023 A 
ATOM     66  C   UNL A   1      46.975  28.505  30.496  1.00  0.00     0.012 A 
ATOM     67  C   UNL A   1      47.138  29.439  28.256  1.00  0.00     0.148 A 
ATOM     68  C   UNL A   1      48.248  27.953  30.369  1.00  0.00     0.002 A 
ATOM     69  C   UNL A   1      48.391  28.852  28.120  1.00  0.00     0.091 A 
ATOM     70  F   UNL A   1      46.596  30.182  27.280  1.00  0.00    -0.205 F 
ATOM     71  C   UNL A   1      48.951  28.118  29.179  1.00  0.00     0.022 A 
BRANCH  69  72
ATOM     72  S   UNL A   1      49.343  28.941  26.600  1.00  0.00     0.127 S 
ATOM     73  O   UNL A   1      49.678  30.364  26.545  1.00  0.00    -0.237 OA
ATOM     74  O   UNL A   1      50.474  28.061  26.892  1.00  0.00    -0.237 OA
ATOM     75  O   UNL A   1      48.460  28.466  25.544  1.00  0.00    -0.744 OA
ENDBRANCH  69  72
ENDBRANCH  51  65
BRANCH  52  76
ATOM     76  C   UNL A   1      37.004  32.367  30.672  1.00  0.00     0.023 A 
ATOM     77  C   UNL A   1      36.439  32.209  31.952  1.00  0.00     0.012 A 
ATOM     78  C   UNL A   1      36.242  32.971  29.655  1.00  0.00     0.148 A 
ATOM     79  C   UNL A   1      35.131  32.620  32.208  1.00  0.00     0.002 A 
ATOM     80  C   UNL A   1      34.958  33.431  29.930  1.00  0.00     0.091 A 
ATOM     81  F   UNL A   1      36.793  33.100  28.439  1.00  0.00    -0.205 F 
ATOM     82  C   UNL A   1      34.395  33.241  31.201  1.00  0.00     0.022 A 
BRANCH  80  83
ATOM     83  S   UNL A   1      33.993  34.362  28.734  1.00  0.00     0.127 S 
ATOM     84  O   UNL A   1      33.823  33.386  27.662  1.00  0.00    -0.237 OA
ATOM     85  O   UNL A   1      32.779  34.663  29.494  1.00  0.00    -0.237 OA
ATOM     86  O   UNL A   1      34.798  35.531  28.407  1.00  0.00    -0.744 OA
ENDBRANCH  80  83
ENDBRANCH  52  76
BRANCH  64  87
ATOM     87  C   UNL A   1      43.247  35.196  32.032  1.00  0.00     0.023 A 
ATOM     88  C   UNL A   1      43.397  35.248  33.432  1.00  0.00     0.012 A 
ATOM     89  C   UNL A   1      43.578  36.326  31.258  1.00  0.00     0.148 A 
ATOM     90  C   UNL A   1      43.846  36.412  34.054  1.00  0.00     0.002 A 
ATOM     91  C   UNL A   1      44.069  37.468  31.881  1.00  0.00     0.091 A 
ATOM     92  F   UNL A   1      43.412  36.260  29.929  1.00  0.00    -0.205 F 
ATOM     93  C   UNL A   1      44.194  37.516  33.279  1.00  0.00     0.022 A 
BRANCH  91  94
ATOM     94  S   UNL A   1      44.628  38.907  30.962  1.00  0.00     0.127 S 
ATOM     95  O   UNL A   1      43.417  39.289  30.241  1.00  0.00    -0.237 OA
ATOM     96  O   UNL A   1      45.017  39.824  32.033  1.00  0.00    -0.237 OA
ATOM     97  O   UNL A   1      45.732  38.448  30.127  1.00  0.00    -0.744 OA
ENDBRANCH  91  94
ENDBRANCH  64  87
ENDBRANCH  38  39
ENDBRANCH  30  33
ENDBRANCH  28  29
ENDBRANCH  27  28
ENDBRANCH  26  27
ENDBRANCH   1  26
TORSDOF 23
ENDMDL
