MODEL 1
REMARK VINA RESULT:     -10.4      0.000      0.000
REMARK SMILES CC1(C)CCN(C(=O)CC(C)(C)C(=O)NCCCCCCNC(=O)c2ccc(-c3c4nc(c(-c5cccc(S(=O)(=O)[O-])c5F)c5ccc([nH]5)c(-c5cccc(S(=O)(=O)[O-])c5F)c5nc(c(-c6cccc(S(=O)(=O)[O-])c6F)c6ccc3[nH]6)C=C5)C=C4)cc2)C1
REMARK SMILES IDX 18 1 17 2 16 3 15 4 13 5 14 6 10 8 11 9 12 10 9 11 7 12 8 13
REMARK SMILES IDX 6 14 1 15 2 16 3 17 4 18 88 19 5 20 19 21 20 22 21 23 22 24
REMARK SMILES IDX 23 25 24 27 25 28 26 29 87 30 27 31 86 32 28 33 29 34 30 35
REMARK SMILES IDX 80 36 31 37 85 38 79 39 81 40 32 41 84 42 78 43 77 44 33 46
REMARK SMILES IDX 65 47 45 48 64 49 46 50 49 51 63 52 82 53 47 54 48 55 62 57
REMARK SMILES IDX 83 58 50 59 34 60 35 61 43 62 36 63 38 64 44 65 37 66 39 67
REMARK SMILES IDX 40 68 41 69 42 70 66 71 67 72 75 73 68 74 70 75 76 76 69 77
REMARK SMILES IDX 71 78 72 79 73 80 74 81 51 82 52 83 60 84 53 85 55 86 61 87
REMARK SMILES IDX 54 88 56 89 57 90 58 91 59 92
REMARK H PARENT 15 7 22 26 81 45 49 56
REMARK Flexibility Score: inf
ROOT
ATOM      1  C   UNL A   1      38.554  22.316  25.964  1.00  0.00     0.002 C 
ENDROOT
BRANCH   1   2
ATOM      2  C   UNL A   1      37.811  23.649  26.038  1.00  0.00     0.021 C 
BRANCH   2   3
ATOM      3  C   UNL A   1      36.314  23.570  25.782  1.00  0.00     0.116 C 
BRANCH   3   4
ATOM      4  N   UNL A   1      35.982  23.673  24.377  1.00  0.00    -0.356 N 
ATOM      5  C   UNL A   1      34.931  23.205  23.650  1.00  0.00     0.226 C 
ATOM      6  O   UNL A   1      34.998  23.411  22.437  1.00  0.00    -0.274 OA
ATOM      7  H   UNL A   1      36.641  24.178  23.847  1.00  0.00     0.163 HD
BRANCH   5   8
ATOM      8  C   UNL A   1      33.783  22.388  24.277  1.00  0.00     0.052 C 
ATOM      9  C   UNL A   1      34.241  21.014  24.775  1.00  0.00     0.022 C 
ATOM     10  C   UNL A   1      32.700  22.171  23.197  1.00  0.00     0.022 C 
BRANCH   8  11
ATOM     11  C   UNL A   1      33.102  23.168  25.457  1.00  0.00     0.116 C 
BRANCH  11  12
ATOM     12  C   UNL A   1      31.709  23.790  25.291  1.00  0.00     0.223 C 
ATOM     13  O   UNL A   1      30.703  23.124  25.558  1.00  0.00    -0.275 OA
BRANCH  12  14
ATOM     14  N   UNL A   1      31.574  25.115  24.943  1.00  0.00    -0.342 N 
ATOM     15  C   UNL A   1      29.052  26.367  23.984  1.00  0.00     0.013 C 
ATOM     16  C   UNL A   1      30.504  26.872  23.845  1.00  0.00    -0.016 C 
ATOM     17  C   UNL A   1      30.564  27.883  22.705  1.00  0.00     0.013 C 
ATOM     18  C   UNL A   1      30.999  27.408  25.200  1.00  0.00     0.030 C 
ATOM     19  C   UNL A   1      31.523  25.744  23.641  1.00  0.00     0.126 C 
ATOM     20  C   UNL A   1      31.375  26.131  25.971  1.00  0.00     0.120 C 
ENDBRANCH  12  14
ENDBRANCH  11  12
ENDBRANCH   8  11
ENDBRANCH   5   8
ENDBRANCH   3   4
ENDBRANCH   2   3
ENDBRANCH   1   2
BRANCH   1  21
ATOM     21  C   UNL A   1      38.038  21.334  24.909  1.00  0.00     0.002 C 
BRANCH  21  22
ATOM     22  C   UNL A   1      38.629  19.923  24.968  1.00  0.00     0.021 C 
BRANCH  22  23
ATOM     23  C   UNL A   1      39.293  19.548  26.288  1.00  0.00     0.116 C 
BRANCH  23  24
ATOM     24  N   UNL A   1      40.543  18.836  26.095  1.00  0.00    -0.352 N 
ATOM     25  C   UNL A   1      41.821  19.330  26.009  1.00  0.00     0.251 C 
ATOM     26  H   UNL A   1      40.464  17.857  26.012  1.00  0.00     0.163 HD
ATOM     27  O   UNL A   1      42.740  18.594  25.670  1.00  0.00    -0.269 OA
BRANCH  25  28
ATOM     28  C   UNL A   1      42.081  20.755  26.308  1.00  0.00     0.039 A 
ATOM     29  C   UNL A   1      42.285  21.134  27.638  1.00  0.00     0.014 A 
ATOM     30  C   UNL A   1      42.117  21.713  25.291  1.00  0.00     0.014 A 
ATOM     31  C   UNL A   1      42.576  22.465  27.940  1.00  0.00     0.010 A 
ATOM     32  C   UNL A   1      42.480  23.025  25.586  1.00  0.00     0.010 A 
ATOM     33  C   UNL A   1      42.705  23.417  26.914  1.00  0.00    -0.014 A 
BRANCH  33  34
ATOM     34  C   UNL A   1      43.093  24.818  27.220  1.00  0.00     0.031 A 
ATOM     35  C   UNL A   1      42.107  25.766  27.851  1.00  0.00     0.074 A 
ATOM     36  C   UNL A   1      44.314  25.261  26.858  1.00  0.00     0.049 A 
ATOM     37  N   UNL A   1      42.264  27.025  28.166  1.00  0.00    -0.248 NA
ATOM     38  C   UNL A   1      40.763  25.241  28.143  1.00  0.00     0.031 C 
ATOM     39  C   UNL A   1      45.328  24.466  26.160  1.00  0.00     0.029 A 
ATOM     40  N   UNL A   1      44.903  26.493  27.001  1.00  0.00    -0.354 N 
ATOM     41  C   UNL A   1      41.034  27.454  28.650  1.00  0.00     0.074 A 
ATOM     42  C   UNL A   1      40.133  26.326  28.570  1.00  0.00     0.031 C 
ATOM     43  C   UNL A   1      46.410  25.229  25.936  1.00  0.00     0.029 A 
ATOM     44  C   UNL A   1      46.157  26.574  26.444  1.00  0.00     0.049 A 
ATOM     45  H   UNL A   1      44.467  27.247  27.459  1.00  0.00     0.167 HD
ATOM     46  C   UNL A   1      40.693  28.670  29.137  1.00  0.00     0.034 A 
ATOM     47  C   UNL A   1      47.006  27.616  26.338  1.00  0.00     0.034 A 
ATOM     48  C   UNL A   1      41.605  29.775  29.261  1.00  0.00     0.049 A 
ATOM     49  C   UNL A   1      46.616  28.939  26.941  1.00  0.00     0.074 A 
ATOM     50  C   UNL A   1      41.386  31.007  29.852  1.00  0.00     0.029 A 
ATOM     51  N   UNL A   1      42.900  29.793  28.770  1.00  0.00    -0.354 N 
ATOM     52  N   UNL A   1      45.513  29.267  27.568  1.00  0.00    -0.248 NA
ATOM     53  C   UNL A   1      47.603  30.026  26.856  1.00  0.00     0.031 C 
ATOM     54  C   UNL A   1      42.535  31.785  29.681  1.00  0.00     0.029 A 
ATOM     55  C   UNL A   1      43.485  31.022  29.022  1.00  0.00     0.049 A 
ATOM     56  H   UNL A   1      43.340  29.042  28.310  1.00  0.00     0.167 HD
ATOM     57  C   UNL A   1      45.687  30.583  27.981  1.00  0.00     0.074 A 
ATOM     58  C   UNL A   1      47.013  30.983  27.557  1.00  0.00     0.031 C 
ATOM     59  C   UNL A   1      44.821  31.393  28.639  1.00  0.00     0.034 A 
BRANCH  46  60
ATOM     60  C   UNL A   1      39.278  28.874  29.614  1.00  0.00     0.023 A 
ATOM     61  C   UNL A   1      38.912  28.481  30.917  1.00  0.00     0.012 A 
ATOM     62  C   UNL A   1      38.339  29.541  28.802  1.00  0.00     0.148 A 
ATOM     63  C   UNL A   1      37.625  28.727  31.397  1.00  0.00     0.002 A 
ATOM     64  C   UNL A   1      37.074  29.824  29.303  1.00  0.00     0.091 A 
ATOM     65  F   UNL A   1      38.702  29.887  27.559  1.00  0.00    -0.205 F 
ATOM     66  C   UNL A   1      36.712  29.409  30.595  1.00  0.00     0.022 A 
BRANCH  64  67
ATOM     67  S   UNL A   1      35.857  30.771  28.384  1.00  0.00     0.127 S 
ATOM     68  O   UNL A   1      34.948  31.194  29.449  1.00  0.00    -0.237 OA
ATOM     69  O   UNL A   1      36.670  31.845  27.815  1.00  0.00    -0.237 OA
ATOM     70  O   UNL A   1      35.284  29.855  27.407  1.00  0.00    -0.744 OA
ENDBRANCH  64  67
ENDBRANCH  46  60
BRANCH  47  71
ATOM     71  C   UNL A   1      48.326  27.443  25.667  1.00  0.00     0.023 A 
ATOM     72  C   UNL A   1      49.466  27.137  26.436  1.00  0.00     0.012 A 
ATOM     73  C   UNL A   1      48.455  27.577  24.272  1.00  0.00     0.148 A 
ATOM     74  C   UNL A   1      50.718  27.012  25.832  1.00  0.00     0.002 A 
ATOM     75  C   UNL A   1      49.693  27.390  23.670  1.00  0.00     0.091 A 
ATOM     76  F   UNL A   1      47.361  27.880  23.558  1.00  0.00    -0.205 F 
ATOM     77  C   UNL A   1      50.830  27.129  24.449  1.00  0.00     0.022 A 
BRANCH  75  78
ATOM     78  S   UNL A   1      49.900  27.388  21.886  1.00  0.00     0.127 S 
ATOM     79  O   UNL A   1      48.888  26.423  21.466  1.00  0.00    -0.237 OA
ATOM     80  O   UNL A   1      49.604  28.780  21.544  1.00  0.00    -0.237 OA
ATOM     81  O   UNL A   1      51.285  27.000  21.652  1.00  0.00    -0.744 OA
ENDBRANCH  75  78
ENDBRANCH  47  71
BRANCH  59  82
ATOM     82  C   UNL A   1      45.288  32.784  28.982  1.00  0.00     0.023 A 
ATOM     83  C   UNL A   1      45.920  33.031  30.216  1.00  0.00     0.012 A 
ATOM     84  C   UNL A   1      45.160  33.832  28.048  1.00  0.00     0.148 A 
ATOM     85  C   UNL A   1      46.382  34.308  30.532  1.00  0.00     0.002 A 
ATOM     86  C   UNL A   1      45.672  35.089  28.347  1.00  0.00     0.091 A 
ATOM     87  F   UNL A   1      44.541  33.581  26.885  1.00  0.00    -0.205 F 
ATOM     88  C   UNL A   1      46.269  35.332  29.595  1.00  0.00     0.022 A 
BRANCH  86  89
ATOM     89  S   UNL A   1      45.662  36.439  27.163  1.00  0.00     0.127 S 
ATOM     90  O   UNL A   1      46.335  35.834  26.016  1.00  0.00    -0.237 OA
ATOM     91  O   UNL A   1      44.229  36.674  26.976  1.00  0.00    -0.237 OA
ATOM     92  O   UNL A   1      46.375  37.537  27.800  1.00  0.00    -0.744 OA
ENDBRANCH  86  89
ENDBRANCH  59  82
ENDBRANCH  33  34
ENDBRANCH  25  28
ENDBRANCH  23  24
ENDBRANCH  22  23
ENDBRANCH  21  22
ENDBRANCH   1  21
TORSDOF 19
ENDMDL
MODEL 2
REMARK VINA RESULT:     -10.3      1.332      2.958
REMARK SMILES CC1(C)CCN(C(=O)CC(C)(C)C(=O)NCCCCCCNC(=O)c2ccc(-c3c4nc(c(-c5cccc(S(=O)(=O)[O-])c5F)c5ccc([nH]5)c(-c5cccc(S(=O)(=O)[O-])c5F)c5nc(c(-c6cccc(S(=O)(=O)[O-])c6F)c6ccc3[nH]6)C=C5)C=C4)cc2)C1
REMARK SMILES IDX 18 1 17 2 16 3 15 4 13 5 14 6 10 8 11 9 12 10 9 11 7 12 8 13
REMARK SMILES IDX 6 14 1 15 2 16 3 17 4 18 88 19 5 20 19 21 20 22 21 23 22 24
REMARK SMILES IDX 23 25 24 27 25 28 26 29 87 30 27 31 86 32 28 33 29 34 30 35
REMARK SMILES IDX 80 36 31 37 85 38 79 39 81 40 32 41 84 42 78 43 77 44 33 46
REMARK SMILES IDX 65 47 45 48 64 49 46 50 49 51 63 52 82 53 47 54 48 55 62 57
REMARK SMILES IDX 83 58 50 59 34 60 35 61 43 62 36 63 38 64 44 65 37 66 39 67
REMARK SMILES IDX 40 68 41 69 42 70 66 71 67 72 75 73 68 74 70 75 76 76 69 77
REMARK SMILES IDX 71 78 72 79 73 80 74 81 51 82 52 83 60 84 53 85 55 86 61 87
REMARK SMILES IDX 54 88 56 89 57 90 58 91 59 92
REMARK H PARENT 15 7 22 26 81 45 49 56
REMARK Flexibility Score: inf
ROOT
ATOM      1  C   UNL A   1      37.373  22.177  25.713  1.00  0.00     0.002 C 
ENDROOT
BRANCH   1   2
ATOM      2  C   UNL A   1      36.149  23.090  25.747  1.00  0.00     0.021 C 
BRANCH   2   3
ATOM      3  C   UNL A   1      34.820  22.384  25.967  1.00  0.00     0.116 C 
BRANCH   3   4
ATOM      4  N   UNL A   1      33.693  23.292  25.928  1.00  0.00    -0.356 N 
ATOM      5  C   UNL A   1      32.862  23.672  24.921  1.00  0.00     0.226 C 
ATOM      6  O   UNL A   1      32.036  24.537  25.218  1.00  0.00    -0.274 OA
ATOM      7  H   UNL A   1      33.489  23.712  26.795  1.00  0.00     0.163 HD
BRANCH   5   8
ATOM      8  C   UNL A   1      33.000  23.137  23.480  1.00  0.00     0.052 C 
ATOM      9  C   UNL A   1      34.459  22.918  23.070  1.00  0.00     0.022 C 
ATOM     10  C   UNL A   1      32.381  24.177  22.519  1.00  0.00     0.022 C 
BRANCH   8  11
ATOM     11  C   UNL A   1      32.199  21.801  23.285  1.00  0.00     0.116 C 
BRANCH  11  12
ATOM     12  C   UNL A   1      32.295  20.668  24.317  1.00  0.00     0.223 C 
ATOM     13  O   UNL A   1      31.693  20.763  25.392  1.00  0.00    -0.275 OA
BRANCH  12  14
ATOM     14  N   UNL A   1      32.964  19.504  24.013  1.00  0.00    -0.342 N 
ATOM     15  C   UNL A   1      32.713  16.960  25.533  1.00  0.00     0.013 C 
ATOM     16  C   UNL A   1      33.820  17.403  24.554  1.00  0.00    -0.016 C 
ATOM     17  C   UNL A   1      35.069  16.568  24.815  1.00  0.00     0.013 C 
ATOM     18  C   UNL A   1      33.294  17.330  23.109  1.00  0.00     0.030 C 
ATOM     19  C   UNL A   1      34.130  18.904  24.625  1.00  0.00     0.126 C 
ATOM     20  C   UNL A   1      32.465  18.618  22.967  1.00  0.00     0.120 C 
ENDBRANCH  12  14
ENDBRANCH  11  12
ENDBRANCH   8  11
ENDBRANCH   5   8
ENDBRANCH   3   4
ENDBRANCH   2   3
ENDBRANCH   1   2
BRANCH   1  21
ATOM     21  C   UNL A   1      37.353  21.091  24.635  1.00  0.00     0.002 C 
BRANCH  21  22
ATOM     22  C   UNL A   1      38.158  19.827  24.948  1.00  0.00     0.021 C 
BRANCH  22  23
ATOM     23  C   UNL A   1      39.119  19.940  26.125  1.00  0.00     0.116 C 
BRANCH  23  24
ATOM     24  N   UNL A   1      40.226  19.005  26.027  1.00  0.00    -0.352 N 
ATOM     25  C   UNL A   1      41.576  19.252  26.046  1.00  0.00     0.251 C 
ATOM     26  H   UNL A   1      39.972  18.059  25.933  1.00  0.00     0.163 HD
ATOM     27  O   UNL A   1      42.365  18.354  25.775  1.00  0.00    -0.269 OA
BRANCH  25  28
ATOM     28  C   UNL A   1      42.073  20.606  26.372  1.00  0.00     0.039 A 
ATOM     29  C   UNL A   1      42.684  21.356  25.364  1.00  0.00     0.014 A 
ATOM     30  C   UNL A   1      41.946  21.132  27.661  1.00  0.00     0.014 A 
ATOM     31  C   UNL A   1      43.120  22.654  25.637  1.00  0.00     0.010 A 
ATOM     32  C   UNL A   1      42.315  22.452  27.911  1.00  0.00     0.010 A 
ATOM     33  C   UNL A   1      42.914  23.224  26.904  1.00  0.00    -0.014 A 
BRANCH  33  34
ATOM     34  C   UNL A   1      43.303  24.631  27.178  1.00  0.00     0.031 A 
ATOM     35  C   UNL A   1      42.321  25.589  27.801  1.00  0.00     0.074 A 
ATOM     36  C   UNL A   1      44.519  25.069  26.794  1.00  0.00     0.049 A 
ATOM     37  N   UNL A   1      42.479  26.855  28.090  1.00  0.00    -0.248 NA
ATOM     38  C   UNL A   1      40.982  25.067  28.119  1.00  0.00     0.031 C 
ATOM     39  C   UNL A   1      45.527  24.263  26.100  1.00  0.00     0.029 A 
ATOM     40  N   UNL A   1      45.106  26.305  26.906  1.00  0.00    -0.354 N 
ATOM     41  C   UNL A   1      41.254  27.290  28.580  1.00  0.00     0.074 A 
ATOM     42  C   UNL A   1      40.354  26.160  28.532  1.00  0.00     0.031 C 
ATOM     43  C   UNL A   1      46.604  25.024  25.849  1.00  0.00     0.029 A 
ATOM     44  C   UNL A   1      46.354  26.378  26.333  1.00  0.00     0.049 A 
ATOM     45  H   UNL A   1      44.674  27.067  27.354  1.00  0.00     0.167 HD
ATOM     46  C   UNL A   1      40.916  28.515  29.047  1.00  0.00     0.034 A 
ATOM     47  C   UNL A   1      47.199  27.419  26.198  1.00  0.00     0.034 A 
ATOM     48  C   UNL A   1      41.827  29.624  29.138  1.00  0.00     0.049 A 
ATOM     49  C   UNL A   1      46.813  28.753  26.779  1.00  0.00     0.074 A 
ATOM     50  C   UNL A   1      41.611  30.867  29.708  1.00  0.00     0.029 A 
ATOM     51  N   UNL A   1      43.116  29.635  28.633  1.00  0.00    -0.354 N 
ATOM     52  N   UNL A   1      45.716  29.091  27.411  1.00  0.00    -0.248 NA
ATOM     53  C   UNL A   1      47.797  29.840  26.662  1.00  0.00     0.031 C 
ATOM     54  C   UNL A   1      42.757  31.643  29.508  1.00  0.00     0.029 A 
ATOM     55  C   UNL A   1      43.701  30.870  28.854  1.00  0.00     0.049 A 
ATOM     56  H   UNL A   1      43.553  28.876  28.183  1.00  0.00     0.167 HD
ATOM     57  C   UNL A   1      45.892  30.415  27.797  1.00  0.00     0.074 A 
ATOM     58  C   UNL A   1      47.212  30.809  27.351  1.00  0.00     0.031 C 
ATOM     59  C   UNL A   1      45.032  31.236  28.449  1.00  0.00     0.034 A 
BRANCH  46  60
ATOM     60  C   UNL A   1      39.505  28.725  29.535  1.00  0.00     0.023 A 
ATOM     61  C   UNL A   1      39.150  28.339  30.843  1.00  0.00     0.012 A 
ATOM     62  C   UNL A   1      38.561  29.392  28.729  1.00  0.00     0.148 A 
ATOM     63  C   UNL A   1      37.869  28.591  31.333  1.00  0.00     0.002 A 
ATOM     64  C   UNL A   1      37.302  29.681  29.240  1.00  0.00     0.091 A 
ATOM     65  F   UNL A   1      38.914  29.731  27.481  1.00  0.00    -0.205 F 
ATOM     66  C   UNL A   1      36.951  29.273  30.537  1.00  0.00     0.022 A 
BRANCH  64  67
ATOM     67  S   UNL A   1      36.079  30.628  28.328  1.00  0.00     0.127 S 
ATOM     68  O   UNL A   1      35.734  29.702  27.250  1.00  0.00    -0.237 OA
ATOM     69  O   UNL A   1      35.029  30.816  29.329  1.00  0.00    -0.237 OA
ATOM     70  O   UNL A   1      36.747  31.851  27.906  1.00  0.00    -0.744 OA
ENDBRANCH  64  67
ENDBRANCH  46  60
BRANCH  47  71
ATOM     71  C   UNL A   1      48.512  27.236  25.516  1.00  0.00     0.023 A 
ATOM     72  C   UNL A   1      49.639  26.843  26.263  1.00  0.00     0.012 A 
ATOM     73  C   UNL A   1      48.647  27.445  24.130  1.00  0.00     0.148 A 
ATOM     74  C   UNL A   1      50.886  26.707  25.650  1.00  0.00     0.002 A 
ATOM     75  C   UNL A   1      49.877  27.247  23.516  1.00  0.00     0.091 A 
ATOM     76  F   UNL A   1      47.565  27.830  23.437  1.00  0.00    -0.205 F 
ATOM     77  C   UNL A   1      51.003  26.899  24.277  1.00  0.00     0.022 A 
BRANCH  75  78
ATOM     78  S   UNL A   1      50.084  27.340  21.734  1.00  0.00     0.127 S 
ATOM     79  O   UNL A   1      49.097  26.372  21.265  1.00  0.00    -0.237 OA
ATOM     80  O   UNL A   1      49.752  28.739  21.463  1.00  0.00    -0.237 OA
ATOM     81  O   UNL A   1      51.478  26.999  21.484  1.00  0.00    -0.744 OA
ENDBRANCH  75  78
ENDBRANCH  47  71
BRANCH  59  82
ATOM     82  C   UNL A   1      45.499  32.634  28.759  1.00  0.00     0.023 A 
ATOM     83  C   UNL A   1      46.262  32.882  29.917  1.00  0.00     0.012 A 
ATOM     84  C   UNL A   1      45.239  33.691  27.864  1.00  0.00     0.148 A 
ATOM     85  C   UNL A   1      46.725  34.167  30.199  1.00  0.00     0.002 A 
ATOM     86  C   UNL A   1      45.749  34.957  28.123  1.00  0.00     0.091 A 
ATOM     87  F   UNL A   1      44.497  33.439  26.776  1.00  0.00    -0.205 F 
ATOM     88  C   UNL A   1      46.479  35.200  29.298  1.00  0.00     0.022 A 
BRANCH  86  89
ATOM     89  S   UNL A   1      45.569  36.323  26.971  1.00  0.00     0.127 S 
ATOM     90  O   UNL A   1      46.343  37.372  27.631  1.00  0.00    -0.237 OA
ATOM     91  O   UNL A   1      46.181  35.785  25.756  1.00  0.00    -0.237 OA
ATOM     92  O   UNL A   1      44.138  36.573  26.866  1.00  0.00    -0.744 OA
ENDBRANCH  86  89
ENDBRANCH  59  82
ENDBRANCH  33  34
ENDBRANCH  25  28
ENDBRANCH  23  24
ENDBRANCH  22  23
ENDBRANCH  21  22
ENDBRANCH   1  21
TORSDOF 19
ENDMDL
MODEL 3
REMARK VINA RESULT:     -10.2      2.131      8.051
REMARK SMILES CC1(C)CCN(C(=O)CC(C)(C)C(=O)NCCCCCCNC(=O)c2ccc(-c3c4nc(c(-c5cccc(S(=O)(=O)[O-])c5F)c5ccc([nH]5)c(-c5cccc(S(=O)(=O)[O-])c5F)c5nc(c(-c6cccc(S(=O)(=O)[O-])c6F)c6ccc3[nH]6)C=C5)C=C4)cc2)C1
REMARK SMILES IDX 18 1 17 2 16 3 15 4 13 5 14 6 10 8 11 9 12 10 9 11 7 12 8 13
REMARK SMILES IDX 6 14 1 15 2 16 3 17 4 18 88 19 5 20 19 21 20 22 21 23 22 24
REMARK SMILES IDX 23 25 24 27 25 28 26 29 87 30 27 31 86 32 28 33 29 34 30 35
REMARK SMILES IDX 80 36 31 37 85 38 79 39 81 40 32 41 84 42 78 43 77 44 33 46
REMARK SMILES IDX 65 47 45 48 64 49 46 50 49 51 63 52 82 53 47 54 48 55 62 57
REMARK SMILES IDX 83 58 50 59 34 60 35 61 43 62 36 63 38 64 44 65 37 66 39 67
REMARK SMILES IDX 40 68 41 69 42 70 66 71 67 72 75 73 68 74 70 75 76 76 69 77
REMARK SMILES IDX 71 78 72 79 73 80 74 81 51 82 52 83 60 84 53 85 55 86 61 87
REMARK SMILES IDX 54 88 56 89 57 90 58 91 59 92
REMARK H PARENT 15 7 22 26 81 45 49 56
REMARK Flexibility Score: inf
ROOT
ATOM      1  C   UNL A   1      33.624  19.948  24.917  1.00  0.00     0.002 C 
ENDROOT
BRANCH   1   2
ATOM      2  C   UNL A   1      32.720  21.174  25.026  1.00  0.00     0.021 C 
BRANCH   2   3
ATOM      3  C   UNL A   1      32.817  21.935  26.340  1.00  0.00     0.116 C 
BRANCH   3   4
ATOM      4  N   UNL A   1      31.519  22.267  26.888  1.00  0.00    -0.356 N 
ATOM      5  C   UNL A   1      30.671  23.306  26.660  1.00  0.00     0.226 C 
ATOM      6  O   UNL A   1      29.660  23.325  27.365  1.00  0.00    -0.274 OA
ATOM      7  H   UNL A   1      31.187  21.618  27.550  1.00  0.00     0.163 HD
BRANCH   5   8
ATOM      8  C   UNL A   1      30.990  24.439  25.662  1.00  0.00     0.052 C 
ATOM      9  C   UNL A   1      30.968  23.965  24.206  1.00  0.00     0.022 C 
ATOM     10  C   UNL A   1      32.406  24.971  25.974  1.00  0.00     0.022 C 
BRANCH   8  11
ATOM     11  C   UNL A   1      30.000  25.646  25.830  1.00  0.00     0.116 C 
BRANCH  11  12
ATOM     12  C   UNL A   1      29.515  26.444  24.611  1.00  0.00     0.223 C 
ATOM     13  O   UNL A   1      28.367  26.279  24.186  1.00  0.00    -0.275 OA
BRANCH  12  14
ATOM     14  N   UNL A   1      30.315  27.412  24.049  1.00  0.00    -0.342 N 
ATOM     15  C   UNL A   1      32.890  26.884  22.656  1.00  0.00     0.013 C 
ATOM     16  C   UNL A   1      32.355  28.207  23.245  1.00  0.00    -0.016 C 
ATOM     17  C   UNL A   1      33.530  29.153  23.471  1.00  0.00     0.013 C 
ATOM     18  C   UNL A   1      31.249  28.770  22.335  1.00  0.00     0.030 C 
ATOM     19  C   UNL A   1      31.541  28.015  24.530  1.00  0.00     0.126 C 
ATOM     20  C   UNL A   1      30.014  27.941  22.723  1.00  0.00     0.120 C 
ENDBRANCH  12  14
ENDBRANCH  11  12
ENDBRANCH   8  11
ENDBRANCH   5   8
ENDBRANCH   3   4
ENDBRANCH   2   3
ENDBRANCH   1   2
BRANCH   1  21
ATOM     21  C   UNL A   1      35.128  20.236  24.942  1.00  0.00     0.002 C 
BRANCH  21  22
ATOM     22  C   UNL A   1      35.551  21.613  24.424  1.00  0.00     0.021 C 
BRANCH  22  23
ATOM     23  C   UNL A   1      37.041  21.918  24.524  1.00  0.00     0.116 C 
BRANCH  23  24
ATOM     24  N   UNL A   1      37.790  20.826  25.119  1.00  0.00    -0.352 N 
ATOM     25  C   UNL A   1      38.949  20.865  25.854  1.00  0.00     0.251 C 
ATOM     26  H   UNL A   1      37.413  19.927  24.975  1.00  0.00     0.163 HD
ATOM     27  O   UNL A   1      39.534  19.824  26.129  1.00  0.00    -0.269 OA
BRANCH  25  28
ATOM     28  C   UNL A   1      39.498  22.166  26.293  1.00  0.00     0.039 A 
ATOM     29  C   UNL A   1      40.713  22.181  26.984  1.00  0.00     0.014 A 
ATOM     30  C   UNL A   1      38.822  23.362  26.034  1.00  0.00     0.014 A 
ATOM     31  C   UNL A   1      41.273  23.400  27.370  1.00  0.00     0.010 A 
ATOM     32  C   UNL A   1      39.419  24.579  26.354  1.00  0.00     0.010 A 
ATOM     33  C   UNL A   1      40.646  24.612  27.033  1.00  0.00    -0.014 A 
BRANCH  33  34
ATOM     34  C   UNL A   1      41.276  25.914  27.368  1.00  0.00     0.031 A 
ATOM     35  C   UNL A   1      42.694  26.208  26.954  1.00  0.00     0.074 A 
ATOM     36  C   UNL A   1      40.595  26.806  28.117  1.00  0.00     0.049 A 
ATOM     37  N   UNL A   1      43.410  27.279  27.179  1.00  0.00    -0.248 NA
ATOM     38  C   UNL A   1      43.409  25.157  26.211  1.00  0.00     0.031 C 
ATOM     39  C   UNL A   1      39.248  26.602  28.656  1.00  0.00     0.029 A 
ATOM     40  N   UNL A   1      40.950  28.049  28.578  1.00  0.00    -0.354 N 
ATOM     41  C   UNL A   1      44.667  27.016  26.649  1.00  0.00     0.074 A 
ATOM     42  C   UNL A   1      44.624  25.676  26.106  1.00  0.00     0.031 C 
ATOM     43  C   UNL A   1      38.892  27.680  29.373  1.00  0.00     0.029 A 
ATOM     44  C   UNL A   1      39.994  28.637  29.372  1.00  0.00     0.049 A 
ATOM     45  H   UNL A   1      41.808  28.479  28.359  1.00  0.00     0.167 HD
ATOM     46  C   UNL A   1      45.752  27.824  26.599  1.00  0.00     0.034 A 
ATOM     47  C   UNL A   1      40.004  29.809  30.038  1.00  0.00     0.034 A 
ATOM     48  C   UNL A   1      45.776  29.173  27.096  1.00  0.00     0.049 A 
ATOM     49  C   UNL A   1      41.206  30.708  29.915  1.00  0.00     0.074 A 
ATOM     50  C   UNL A   1      46.788  30.111  26.985  1.00  0.00     0.029 A 
ATOM     51  N   UNL A   1      44.755  29.772  27.816  1.00  0.00    -0.354 N 
ATOM     52  N   UNL A   1      42.315  30.515  29.245  1.00  0.00    -0.248 NA
ATOM     53  C   UNL A   1      41.142  32.003  30.609  1.00  0.00     0.031 C 
ATOM     54  C   UNL A   1      46.394  31.263  27.673  1.00  0.00     0.029 A 
ATOM     55  C   UNL A   1      45.120  31.058  28.176  1.00  0.00     0.049 A 
ATOM     56  H   UNL A   1      43.896  29.346  28.037  1.00  0.00     0.167 HD
ATOM     57  C   UNL A   1      43.064  31.675  29.407  1.00  0.00     0.074 A 
ATOM     58  C   UNL A   1      42.270  32.576  30.217  1.00  0.00     0.031 C 
ATOM     59  C   UNL A   1      44.304  31.963  28.940  1.00  0.00     0.034 A 
BRANCH  46  60
ATOM     60  C   UNL A   1      47.005  27.294  25.952  1.00  0.00     0.023 A 
ATOM     61  C   UNL A   1      47.258  27.555  24.591  1.00  0.00     0.012 A 
ATOM     62  C   UNL A   1      47.976  26.619  26.719  1.00  0.00     0.148 A 
ATOM     63  C   UNL A   1      48.446  27.131  23.995  1.00  0.00     0.002 A 
ATOM     64  C   UNL A   1      49.176  26.241  26.132  1.00  0.00     0.091 A 
ATOM     65  F   UNL A   1      47.706  26.363  28.007  1.00  0.00    -0.205 F 
ATOM     66  C   UNL A   1      49.409  26.487  24.769  1.00  0.00     0.022 A 
BRANCH  64  67
ATOM     67  S   UNL A   1      50.514  25.483  27.059  1.00  0.00     0.127 S 
ATOM     68  O   UNL A   1      50.831  26.531  28.029  1.00  0.00    -0.237 OA
ATOM     69  O   UNL A   1      49.863  24.303  27.628  1.00  0.00    -0.237 OA
ATOM     70  O   UNL A   1      51.564  25.195  26.092  1.00  0.00    -0.744 OA
ENDBRANCH  64  67
ENDBRANCH  46  60
BRANCH  47  71
ATOM     71  C   UNL A   1      38.825  30.220  30.853  1.00  0.00     0.023 A 
ATOM     72  C   UNL A   1      38.710  29.781  32.186  1.00  0.00     0.012 A 
ATOM     73  C   UNL A   1      37.822  31.047  30.313  1.00  0.00     0.148 A 
ATOM     74  C   UNL A   1      37.593  30.122  32.952  1.00  0.00     0.002 A 
ATOM     75  C   UNL A   1      36.744  31.433  31.100  1.00  0.00     0.091 A 
ATOM     76  F   UNL A   1      37.943  31.446  29.038  1.00  0.00    -0.205 F 
ATOM     77  C   UNL A   1      36.616  30.954  32.413  1.00  0.00     0.022 A 
BRANCH  75  78
ATOM     78  S   UNL A   1      35.514  32.611  30.530  1.00  0.00     0.127 S 
ATOM     79  O   UNL A   1      34.775  32.893  31.757  1.00  0.00    -0.237 OA
ATOM     80  O   UNL A   1      36.349  33.711  30.045  1.00  0.00    -0.237 OA
ATOM     81  O   UNL A   1      34.769  31.923  29.484  1.00  0.00    -0.744 OA
ENDBRANCH  75  78
ENDBRANCH  47  71
BRANCH  59  82
ATOM     82  C   UNL A   1      44.871  33.323  29.255  1.00  0.00     0.023 A 
ATOM     83  C   UNL A   1      45.620  33.519  30.433  1.00  0.00     0.012 A 
ATOM     84  C   UNL A   1      44.718  34.390  28.347  1.00  0.00     0.148 A 
ATOM     85  C   UNL A   1      46.175  34.765  30.720  1.00  0.00     0.002 A 
ATOM     86  C   UNL A   1      45.320  35.614  28.613  1.00  0.00     0.091 A 
ATOM     87  F   UNL A   1      43.988  34.188  27.241  1.00  0.00    -0.205 F 
ATOM     88  C   UNL A   1      46.035  35.808  29.807  1.00  0.00     0.022 A 
BRANCH  86  89
ATOM     89  S   UNL A   1      45.278  36.980  27.450  1.00  0.00     0.127 S 
ATOM     90  O   UNL A   1      45.915  38.046  28.219  1.00  0.00    -0.237 OA
ATOM     91  O   UNL A   1      46.081  36.466  26.340  1.00  0.00    -0.237 OA
ATOM     92  O   UNL A   1      43.873  37.193  27.130  1.00  0.00    -0.744 OA
ENDBRANCH  86  89
ENDBRANCH  59  82
ENDBRANCH  33  34
ENDBRANCH  25  28
ENDBRANCH  23  24
ENDBRANCH  22  23
ENDBRANCH  21  22
ENDBRANCH   1  21
TORSDOF 19
ENDMDL
