MODEL 1
REMARK VINA RESULT:     -13.0      0.000      0.000
REMARK SMILES C[C@H]1CCCC[C@H]1[N@H+]1[C@@H](C(=O)NCCCCCCNC(=O)c2ccc(-c3c4nc(c(-c5cccc(S(=O)(=O)[O-])c5F)c5ccc([nH]5)c(-c5cccc(S(=O)(=O)[O-])c5F)c5nc(c(-c6cccc(S(=O)(=O)[O-])c6F)c6ccc3[nH]6)C=C5)C=C4)cc2)CC[C@@H]2CCCC[C@@H]21
REMARK SMILES IDX 16 1 15 2 14 3 13 4 12 5 10 6 11 7 9 9 8 10 92 11 85 13
REMARK SMILES IDX 87 14 91 15 86 16 88 17 90 18 89 19 7 20 1 21 2 22 3 23 4 24
REMARK SMILES IDX 6 25 5 26 17 27 18 28 19 29 20 30 21 32 22 33 23 34 84 35
REMARK SMILES IDX 24 36 83 37 25 38 26 39 27 40 77 41 28 42 82 43 76 44 78 45
REMARK SMILES IDX 29 46 81 47 75 48 74 49 30 51 62 52 42 53 61 54 43 55 46 56
REMARK SMILES IDX 60 57 79 58 44 59 45 60 59 62 80 63 47 64 31 65 32 66 40 67
REMARK SMILES IDX 33 68 35 69 41 70 34 71 36 72 37 73 38 74 39 75 63 76 64 77
REMARK SMILES IDX 72 78 65 79 67 80 73 81 66 82 68 83 69 84 70 85 71 86 48 87
REMARK SMILES IDX 49 88 57 89 50 90 52 91 58 92 51 93 53 94 54 95 55 96 56 97
REMARK H PARENT 12 8 8 12 19 31 78 50 46 61
REMARK Flexibility Score: inf
ROOT
ATOM      1  C   UNL A   1      31.742  29.461  24.852  1.00  0.00     0.002 C 
ENDROOT
BRANCH   1   2
ATOM      2  C   UNL A   1      33.154  28.991  25.214  1.00  0.00     0.002 C 
BRANCH   2   3
ATOM      3  C   UNL A   1      33.881  28.210  24.119  1.00  0.00     0.021 C 
BRANCH   3   4
ATOM      4  C   UNL A   1      33.313  28.385  22.713  1.00  0.00     0.116 C 
BRANCH   4   5
ATOM      5  N   UNL A   1      33.606  27.273  21.813  1.00  0.00    -0.351 N 
ATOM      6  C   UNL A   1      33.057  26.011  21.757  1.00  0.00     0.278 C 
ATOM      7  O   UNL A   1      33.278  25.325  20.755  1.00  0.00    -0.268 OA
ATOM      8  H   UNL A   1      34.303  27.454  21.142  1.00  0.00     0.163 HD
BRANCH   6   9
ATOM      9  C   UNL A   1      32.123  25.543  22.864  1.00  0.00     0.274 C 
ATOM     10  N   UNL A   1      32.333  24.240  23.568  1.00  0.00    -0.319 N 
ATOM     11  C   UNL A   1      31.159  23.931  24.455  1.00  0.00     0.188 C 
ATOM     12  H   UNL A   1      33.179  24.472  24.088  1.00  0.00     0.349 HD
ATOM     13  C   UNL A   1      30.651  25.828  22.552  1.00  0.00     0.076 C 
ATOM     14  C   UNL A   1      30.483  25.213  25.019  1.00  0.00     0.048 C 
ATOM     15  C   UNL A   1      31.396  22.979  25.657  1.00  0.00     0.065 C 
ATOM     16  C   UNL A   1      29.917  26.079  23.875  1.00  0.00     0.016 C 
ATOM     17  C   UNL A   1      31.421  25.971  25.998  1.00  0.00     0.010 C 
ATOM     18  C   UNL A   1      31.738  23.681  26.975  1.00  0.00     0.006 C 
ATOM     19  C   UNL A   1      32.383  25.034  26.740  1.00  0.00     0.001 C 
BRANCH  10  20
ATOM     20  C   UNL A   1      33.019  23.064  22.970  1.00  0.00     0.187 C 
ATOM     21  C   UNL A   1      35.567  23.512  23.499  1.00  0.00     0.014 C 
ATOM     22  C   UNL A   1      34.397  22.534  23.466  1.00  0.00     0.044 C 
ATOM     23  C   UNL A   1      34.245  21.792  24.785  1.00  0.00     0.009 C 
ATOM     24  C   UNL A   1      33.406  20.532  24.609  1.00  0.00     0.001 C 
ATOM     25  C   UNL A   1      32.153  21.810  22.686  1.00  0.00     0.065 C 
ATOM     26  C   UNL A   1      32.201  20.637  23.672  1.00  0.00     0.006 C 
ENDBRANCH  10  20
ENDBRANCH   6   9
ENDBRANCH   4   5
ENDBRANCH   3   4
ENDBRANCH   2   3
ENDBRANCH   1   2
BRANCH   1  27
ATOM     27  C   UNL A   1      31.224  30.668  25.638  1.00  0.00     0.021 C 
BRANCH  27  28
ATOM     28  C   UNL A   1      32.067  31.068  26.846  1.00  0.00     0.116 C 
BRANCH  28  29
ATOM     29  N   UNL A   1      32.134  32.512  27.023  1.00  0.00    -0.352 N 
ATOM     30  C   UNL A   1      33.093  33.271  27.650  1.00  0.00     0.251 C 
ATOM     31  H   UNL A   1      31.383  33.019  26.639  1.00  0.00     0.163 HD
ATOM     32  O   UNL A   1      32.891  34.467  27.856  1.00  0.00    -0.269 OA
BRANCH  30  33
ATOM     33  C   UNL A   1      34.356  32.648  28.102  1.00  0.00     0.039 A 
ATOM     34  C   UNL A   1      35.521  33.420  28.124  1.00  0.00     0.014 A 
ATOM     35  C   UNL A   1      34.393  31.314  28.516  1.00  0.00     0.014 A 
ATOM     36  C   UNL A   1      36.700  32.882  28.648  1.00  0.00     0.010 A 
ATOM     37  C   UNL A   1      35.550  30.802  29.098  1.00  0.00     0.010 A 
ATOM     38  C   UNL A   1      36.711  31.586  29.186  1.00  0.00    -0.014 A 
BRANCH  38  39
ATOM     39  C   UNL A   1      37.897  31.062  29.916  1.00  0.00     0.031 A 
ATOM     40  C   UNL A   1      38.810  30.052  29.280  1.00  0.00     0.074 A 
ATOM     41  C   UNL A   1      38.085  31.421  31.202  1.00  0.00     0.049 A 
ATOM     42  N   UNL A   1      39.846  29.439  29.794  1.00  0.00    -0.248 NA
ATOM     43  C   UNL A   1      38.514  29.664  27.892  1.00  0.00     0.031 C 
ATOM     44  C   UNL A   1      37.232  32.343  31.955  1.00  0.00     0.029 A 
ATOM     45  N   UNL A   1      39.036  31.033  32.114  1.00  0.00    -0.354 N 
ATOM     46  C   UNL A   1      40.299  28.566  28.814  1.00  0.00     0.074 A 
ATOM     47  C   UNL A   1      39.416  28.717  27.677  1.00  0.00     0.031 C 
ATOM     48  C   UNL A   1      37.699  32.453  33.208  1.00  0.00     0.029 A 
ATOM     49  C   UNL A   1      38.857  31.579  33.364  1.00  0.00     0.049 A 
ATOM     50  H   UNL A   1      39.777  30.422  31.894  1.00  0.00     0.167 HD
ATOM     51  C   UNL A   1      41.363  27.728  28.851  1.00  0.00     0.034 A 
ATOM     52  C   UNL A   1      39.534  31.387  34.514  1.00  0.00     0.034 A 
ATOM     53  C   UNL A   1      42.255  27.602  29.975  1.00  0.00     0.049 A 
ATOM     54  C   UNL A   1      40.709  30.449  34.525  1.00  0.00     0.074 A 
ATOM     55  C   UNL A   1      43.419  26.859  30.066  1.00  0.00     0.029 A 
ATOM     56  N   UNL A   1      42.070  28.206  31.208  1.00  0.00    -0.354 N 
ATOM     57  N   UNL A   1      41.227  29.763  33.535  1.00  0.00    -0.248 NA
ATOM     58  C   UNL A   1      41.408  30.273  35.807  1.00  0.00     0.031 C 
ATOM     59  C   UNL A   1      43.912  26.977  31.370  1.00  0.00     0.029 A 
ATOM     60  C   UNL A   1      43.077  27.826  32.078  1.00  0.00     0.049 A 
ATOM     61  H   UNL A   1      41.330  28.817  31.432  1.00  0.00     0.167 HD
ATOM     62  C   UNL A   1      42.329  29.101  34.065  1.00  0.00     0.074 A 
ATOM     63  C   UNL A   1      42.417  29.486  35.458  1.00  0.00     0.031 C 
ATOM     64  C   UNL A   1      43.181  28.242  33.455  1.00  0.00     0.034 A 
BRANCH  51  65
ATOM     65  C   UNL A   1      41.642  26.889  27.630  1.00  0.00     0.023 A 
ATOM     66  C   UNL A   1      42.210  27.483  26.485  1.00  0.00     0.012 A 
ATOM     67  C   UNL A   1      41.406  25.500  27.642  1.00  0.00     0.148 A 
ATOM     68  C   UNL A   1      42.505  26.716  25.358  1.00  0.00     0.002 A 
ATOM     69  C   UNL A   1      41.746  24.734  26.533  1.00  0.00     0.091 A 
ATOM     70  F   UNL A   1      40.849  24.956  28.733  1.00  0.00    -0.205 F 
ATOM     71  C   UNL A   1      42.283  25.342  25.386  1.00  0.00     0.022 A 
BRANCH  69  72
ATOM     72  S   UNL A   1      41.575  22.946  26.501  1.00  0.00     0.127 S 
ATOM     73  O   UNL A   1      42.279  22.605  25.266  1.00  0.00    -0.237 OA
ATOM     74  O   UNL A   1      42.269  22.550  27.727  1.00  0.00    -0.237 OA
ATOM     75  O   UNL A   1      40.144  22.679  26.498  1.00  0.00    -0.744 OA
ENDBRANCH  69  72
ENDBRANCH  51  65
BRANCH  52  76
ATOM     76  C   UNL A   1      39.144  32.135  35.742  1.00  0.00     0.023 A 
ATOM     77  C   UNL A   1      39.521  33.486  35.875  1.00  0.00     0.012 A 
ATOM     78  C   UNL A   1      38.386  31.531  36.764  1.00  0.00     0.148 A 
ATOM     79  C   UNL A   1      39.177  34.213  37.015  1.00  0.00     0.002 A 
ATOM     80  C   UNL A   1      37.997  32.277  37.870  1.00  0.00     0.091 A 
ATOM     81  F   UNL A   1      38.045  30.242  36.623  1.00  0.00    -0.205 F 
ATOM     82  C   UNL A   1      38.406  33.612  38.007  1.00  0.00     0.022 A 
BRANCH  80  83
ATOM     83  S   UNL A   1      36.898  31.627  39.134  1.00  0.00     0.127 S 
ATOM     84  O   UNL A   1      37.738  31.700  40.327  1.00  0.00    -0.237 OA
ATOM     85  O   UNL A   1      35.796  32.589  39.096  1.00  0.00    -0.237 OA
ATOM     86  O   UNL A   1      36.541  30.285  38.697  1.00  0.00    -0.744 OA
ENDBRANCH  80  83
ENDBRANCH  52  76
BRANCH  64  87
ATOM     87  C   UNL A   1      44.305  27.665  34.277  1.00  0.00     0.023 A 
ATOM     88  C   UNL A   1      45.535  28.347  34.358  1.00  0.00     0.012 A 
ATOM     89  C   UNL A   1      44.116  26.490  35.033  1.00  0.00     0.148 A 
ATOM     90  C   UNL A   1      46.569  27.853  35.153  1.00  0.00     0.002 A 
ATOM     91  C   UNL A   1      45.132  26.033  35.863  1.00  0.00     0.091 A 
ATOM     92  F   UNL A   1      42.944  25.848  34.931  1.00  0.00    -0.205 F 
ATOM     93  C   UNL A   1      46.364  26.705  35.914  1.00  0.00     0.022 A 
BRANCH  91  94
ATOM     94  S   UNL A   1      44.930  24.620  36.953  1.00  0.00     0.127 S 
ATOM     95  O   UNL A   1      46.207  24.607  37.663  1.00  0.00    -0.237 OA
ATOM     96  O   UNL A   1      43.782  25.021  37.768  1.00  0.00    -0.237 OA
ATOM     97  O   UNL A   1      44.689  23.472  36.088  1.00  0.00    -0.744 OA
ENDBRANCH  91  94
ENDBRANCH  64  87
ENDBRANCH  38  39
ENDBRANCH  30  33
ENDBRANCH  28  29
ENDBRANCH  27  28
ENDBRANCH   1  27
TORSDOF 17
ENDMDL
MODEL 2
REMARK VINA RESULT:     -12.8      5.213     10.358
REMARK SMILES C[C@H]1CCCC[C@H]1[N@H+]1[C@@H](C(=O)NCCCCCCNC(=O)c2ccc(-c3c4nc(c(-c5cccc(S(=O)(=O)[O-])c5F)c5ccc([nH]5)c(-c5cccc(S(=O)(=O)[O-])c5F)c5nc(c(-c6cccc(S(=O)(=O)[O-])c6F)c6ccc3[nH]6)C=C5)C=C4)cc2)CC[C@@H]2CCCC[C@@H]21
REMARK SMILES IDX 16 1 15 2 14 3 13 4 12 5 10 6 11 7 9 9 8 10 92 11 85 13
REMARK SMILES IDX 87 14 91 15 86 16 88 17 90 18 89 19 7 20 1 21 2 22 3 23 4 24
REMARK SMILES IDX 6 25 5 26 17 27 18 28 19 29 20 30 21 32 22 33 23 34 84 35
REMARK SMILES IDX 24 36 83 37 25 38 26 39 27 40 77 41 28 42 82 43 76 44 78 45
REMARK SMILES IDX 29 46 81 47 75 48 74 49 30 51 62 52 42 53 61 54 43 55 46 56
REMARK SMILES IDX 60 57 79 58 44 59 45 60 59 62 80 63 47 64 31 65 32 66 40 67
REMARK SMILES IDX 33 68 35 69 41 70 34 71 36 72 37 73 38 74 39 75 63 76 64 77
REMARK SMILES IDX 72 78 65 79 67 80 73 81 66 82 68 83 69 84 70 85 71 86 48 87
REMARK SMILES IDX 49 88 57 89 50 90 52 91 58 92 51 93 53 94 54 95 55 96 56 97
REMARK H PARENT 12 8 8 12 19 31 78 50 46 61
REMARK Flexibility Score: inf
ROOT
ATOM      1  C   UNL A   1      35.161  21.282  25.117  1.00  0.00     0.002 C 
ENDROOT
BRANCH   1   2
ATOM      2  C   UNL A   1      35.538  22.563  25.869  1.00  0.00     0.002 C 
BRANCH   2   3
ATOM      3  C   UNL A   1      34.568  22.976  26.976  1.00  0.00     0.021 C 
BRANCH   3   4
ATOM      4  C   UNL A   1      33.358  22.063  27.152  1.00  0.00     0.116 C 
BRANCH   4   5
ATOM      5  N   UNL A   1      32.130  22.768  27.511  1.00  0.00    -0.351 N 
ATOM      6  C   UNL A   1      31.210  23.407  26.710  1.00  0.00     0.278 C 
ATOM      7  O   UNL A   1      30.122  23.713  27.205  1.00  0.00    -0.268 OA
ATOM      8  H   UNL A   1      31.929  22.788  28.474  1.00  0.00     0.163 HD
BRANCH   6   9
ATOM      9  C   UNL A   1      31.513  23.621  25.234  1.00  0.00     0.274 C 
ATOM     10  N   UNL A   1      31.331  24.955  24.582  1.00  0.00    -0.319 N 
ATOM     11  C   UNL A   1      31.495  24.835  23.092  1.00  0.00     0.188 C 
ATOM     12  H   UNL A   1      32.096  25.460  25.030  1.00  0.00     0.349 HD
ATOM     13  C   UNL A   1      31.039  22.455  24.361  1.00  0.00     0.076 C 
ATOM     14  C   UNL A   1      32.495  23.713  22.690  1.00  0.00     0.048 C 
ATOM     15  C   UNL A   1      31.906  26.109  22.308  1.00  0.00     0.065 C 
ATOM     16  C   UNL A   1      31.987  22.336  23.160  1.00  0.00     0.016 C 
ATOM     17  C   UNL A   1      33.944  24.052  23.136  1.00  0.00     0.010 C 
ATOM     18  C   UNL A   1      33.413  26.272  22.091  1.00  0.00     0.006 C 
ATOM     19  C   UNL A   1      34.215  25.563  23.166  1.00  0.00     0.001 C 
BRANCH  10  20
ATOM     20  C   UNL A   1      30.371  25.992  25.045  1.00  0.00     0.187 C 
ATOM     21  C   UNL A   1      31.696  27.237  26.959  1.00  0.00     0.014 C 
ATOM     22  C   UNL A   1      30.810  27.324  25.720  1.00  0.00     0.044 C 
ATOM     23  C   UNL A   1      31.376  28.289  24.690  1.00  0.00     0.009 C 
ATOM     24  C   UNL A   1      30.303  28.715  23.695  1.00  0.00     0.001 C 
ATOM     25  C   UNL A   1      29.210  26.359  24.086  1.00  0.00     0.065 C 
ATOM     26  C   UNL A   1      29.321  27.634  23.241  1.00  0.00     0.006 C 
ENDBRANCH  10  20
ENDBRANCH   6   9
ENDBRANCH   4   5
ENDBRANCH   3   4
ENDBRANCH   2   3
ENDBRANCH   1   2
BRANCH   1  27
ATOM     27  C   UNL A   1      36.298  20.279  24.907  1.00  0.00     0.021 C 
BRANCH  27  28
ATOM     28  C   UNL A   1      37.706  20.864  24.992  1.00  0.00     0.116 C 
BRANCH  28  29
ATOM     29  N   UNL A   1      38.693  19.878  25.409  1.00  0.00    -0.352 N 
ATOM     30  C   UNL A   1      39.897  20.062  26.046  1.00  0.00     0.251 C 
ATOM     31  H   UNL A   1      38.467  18.943  25.203  1.00  0.00     0.163 HD
ATOM     32  O   UNL A   1      40.682  19.122  26.160  1.00  0.00    -0.269 OA
BRANCH  30  33
ATOM     33  C   UNL A   1      40.263  21.396  26.572  1.00  0.00     0.039 A 
ATOM     34  C   UNL A   1      41.155  21.479  27.644  1.00  0.00     0.014 A 
ATOM     35  C   UNL A   1      39.742  22.561  26.003  1.00  0.00     0.014 A 
ATOM     36  C   UNL A   1      41.595  22.730  28.086  1.00  0.00     0.010 A 
ATOM     37  C   UNL A   1      40.232  23.804  26.400  1.00  0.00     0.010 A 
ATOM     38  C   UNL A   1      41.177  23.900  27.433  1.00  0.00    -0.014 A 
BRANCH  38  39
ATOM     39  C   UNL A   1      41.774  25.223  27.761  1.00  0.00     0.031 A 
ATOM     40  C   UNL A   1      40.961  26.290  28.438  1.00  0.00     0.074 A 
ATOM     41  C   UNL A   1      43.027  25.497  27.343  1.00  0.00     0.049 A 
ATOM     42  N   UNL A   1      41.300  27.519  28.734  1.00  0.00    -0.248 NA
ATOM     43  C   UNL A   1      39.584  25.941  28.817  1.00  0.00     0.031 C 
ATOM     44  C   UNL A   1      43.897  24.569  26.617  1.00  0.00     0.029 A 
ATOM     45  N   UNL A   1      43.777  26.643  27.442  1.00  0.00    -0.354 N 
ATOM     46  C   UNL A   1      40.170  28.102  29.294  1.00  0.00     0.074 A 
ATOM     47  C   UNL A   1      39.129  27.096  29.283  1.00  0.00     0.031 C 
ATOM     48  C   UNL A   1      45.060  25.178  26.342  1.00  0.00     0.029 A 
ATOM     49  C   UNL A   1      45.006  26.552  26.830  1.00  0.00     0.049 A 
ATOM     50  H   UNL A   1      43.466  27.453  27.907  1.00  0.00     0.167 HD
ATOM     51  C   UNL A   1      40.019  29.355  29.786  1.00  0.00     0.034 A 
ATOM     52  C   UNL A   1      45.976  27.473  26.662  1.00  0.00     0.034 A 
ATOM     53  C   UNL A   1      41.065  30.343  29.820  1.00  0.00     0.049 A 
ATOM     54  C   UNL A   1      45.778  28.856  27.218  1.00  0.00     0.074 A 
ATOM     55  C   UNL A   1      41.037  31.602  30.396  1.00  0.00     0.029 A 
ATOM     56  N   UNL A   1      42.313  30.200  29.234  1.00  0.00    -0.354 N 
ATOM     57  N   UNL A   1      44.766  29.334  27.899  1.00  0.00    -0.248 NA
ATOM     58  C   UNL A   1      46.866  29.822  27.001  1.00  0.00     0.031 C 
ATOM     59  C   UNL A   1      42.252  32.238  30.115  1.00  0.00     0.029 A 
ATOM     60  C   UNL A   1      43.051  31.360  29.401  1.00  0.00     0.049 A 
ATOM     61  H   UNL A   1      42.628  29.392  28.767  1.00  0.00     0.167 HD
ATOM     62  C   UNL A   1      45.106  30.644  28.219  1.00  0.00     0.074 A 
ATOM     63  C   UNL A   1      46.428  30.876  27.678  1.00  0.00     0.031 C 
ATOM     64  C   UNL A   1      44.382  31.572  28.891  1.00  0.00     0.034 A 
BRANCH  51  65
ATOM     65  C   UNL A   1      38.674  29.731  30.355  1.00  0.00     0.023 A 
ATOM     66  C   UNL A   1      38.342  29.365  31.675  1.00  0.00     0.012 A 
ATOM     67  C   UNL A   1      37.767  30.505  29.604  1.00  0.00     0.148 A 
ATOM     68  C   UNL A   1      37.115  29.732  32.227  1.00  0.00     0.002 A 
ATOM     69  C   UNL A   1      36.566  30.908  30.178  1.00  0.00     0.091 A 
ATOM     70  F   UNL A   1      38.092  30.828  28.345  1.00  0.00    -0.205 F 
ATOM     71  C   UNL A   1      36.233  30.512  31.483  1.00  0.00     0.022 A 
BRANCH  69  72
ATOM     72  S   UNL A   1      35.400  31.981  29.331  1.00  0.00     0.127 S 
ATOM     73  O   UNL A   1      34.862  31.083  28.310  1.00  0.00    -0.237 OA
ATOM     74  O   UNL A   1      34.461  32.318  30.402  1.00  0.00    -0.237 OA
ATOM     75  O   UNL A   1      36.178  33.104  28.828  1.00  0.00    -0.744 OA
ENDBRANCH  69  72
ENDBRANCH  51  65
BRANCH  52  76
ATOM     76  C   UNL A   1      47.245  27.103  25.973  1.00  0.00     0.023 A 
ATOM     77  C   UNL A   1      47.408  27.422  24.611  1.00  0.00     0.012 A 
ATOM     78  C   UNL A   1      48.296  26.463  26.659  1.00  0.00     0.148 A 
ATOM     79  C   UNL A   1      48.581  27.085  23.936  1.00  0.00     0.002 A 
ATOM     80  C   UNL A   1      49.484  26.182  25.995  1.00  0.00     0.091 A 
ATOM     81  F   UNL A   1      48.118  26.160  27.952  1.00  0.00    -0.205 F 
ATOM     82  C   UNL A   1      49.623  26.474  24.630  1.00  0.00     0.022 A 
BRANCH  80  83
ATOM     83  S   UNL A   1      50.925  25.515  26.837  1.00  0.00     0.127 S 
ATOM     84  O   UNL A   1      51.323  26.636  27.683  1.00  0.00    -0.237 OA
ATOM     85  O   UNL A   1      50.352  24.375  27.554  1.00  0.00    -0.237 OA
ATOM     86  O   UNL A   1      51.865  25.154  25.786  1.00  0.00    -0.744 OA
ENDBRANCH  80  83
ENDBRANCH  52  76
BRANCH  64  87
ATOM     87  C   UNL A   1      45.005  32.929  29.102  1.00  0.00     0.023 A 
ATOM     88  C   UNL A   1      45.815  33.160  30.231  1.00  0.00     0.012 A 
ATOM     89  C   UNL A   1      44.850  33.950  28.143  1.00  0.00     0.148 A 
ATOM     90  C   UNL A   1      46.439  34.394  30.417  1.00  0.00     0.002 A 
ATOM     91  C   UNL A   1      45.515  35.159  28.308  1.00  0.00     0.091 A 
ATOM     92  F   UNL A   1      44.063  33.717  27.083  1.00  0.00    -0.205 F 
ATOM     93  C   UNL A   1      46.299  35.387  29.451  1.00  0.00     0.022 A 
BRANCH  91  94
ATOM     94  S   UNL A   1      45.475  36.463  27.073  1.00  0.00     0.127 S 
ATOM     95  O   UNL A   1      46.227  37.526  27.740  1.00  0.00    -0.237 OA
ATOM     96  O   UNL A   1      46.168  35.841  25.945  1.00  0.00    -0.237 OA
ATOM     97  O   UNL A   1      44.068  36.754  26.837  1.00  0.00    -0.744 OA
ENDBRANCH  91  94
ENDBRANCH  64  87
ENDBRANCH  38  39
ENDBRANCH  30  33
ENDBRANCH  28  29
ENDBRANCH  27  28
ENDBRANCH   1  27
TORSDOF 17
ENDMDL
MODEL 3
REMARK VINA RESULT:     -12.8      1.808      2.326
REMARK SMILES C[C@H]1CCCC[C@H]1[N@H+]1[C@@H](C(=O)NCCCCCCNC(=O)c2ccc(-c3c4nc(c(-c5cccc(S(=O)(=O)[O-])c5F)c5ccc([nH]5)c(-c5cccc(S(=O)(=O)[O-])c5F)c5nc(c(-c6cccc(S(=O)(=O)[O-])c6F)c6ccc3[nH]6)C=C5)C=C4)cc2)CC[C@@H]2CCCC[C@@H]21
REMARK SMILES IDX 16 1 15 2 14 3 13 4 12 5 10 6 11 7 9 9 8 10 92 11 85 13
REMARK SMILES IDX 87 14 91 15 86 16 88 17 90 18 89 19 7 20 1 21 2 22 3 23 4 24
REMARK SMILES IDX 6 25 5 26 17 27 18 28 19 29 20 30 21 32 22 33 23 34 84 35
REMARK SMILES IDX 24 36 83 37 25 38 26 39 27 40 77 41 28 42 82 43 76 44 78 45
REMARK SMILES IDX 29 46 81 47 75 48 74 49 30 51 62 52 42 53 61 54 43 55 46 56
REMARK SMILES IDX 60 57 79 58 44 59 45 60 59 62 80 63 47 64 31 65 32 66 40 67
REMARK SMILES IDX 33 68 35 69 41 70 34 71 36 72 37 73 38 74 39 75 63 76 64 77
REMARK SMILES IDX 72 78 65 79 67 80 73 81 66 82 68 83 69 84 70 85 71 86 48 87
REMARK SMILES IDX 49 88 57 89 50 90 52 91 58 92 51 93 53 94 54 95 55 96 56 97
REMARK H PARENT 12 8 8 12 19 31 78 50 46 61
REMARK Flexibility Score: inf
ROOT
ATOM      1  C   UNL A   1      32.100  29.870  26.582  1.00  0.00     0.002 C 
ENDROOT
BRANCH   1   2
ATOM      2  C   UNL A   1      31.593  29.176  25.313  1.00  0.00     0.002 C 
BRANCH   2   3
ATOM      3  C   UNL A   1      32.542  29.232  24.117  1.00  0.00     0.021 C 
BRANCH   3   4
ATOM      4  C   UNL A   1      33.771  28.332  24.222  1.00  0.00     0.116 C 
BRANCH   4   5
ATOM      5  N   UNL A   1      34.049  27.565  23.010  1.00  0.00    -0.351 N 
ATOM      6  C   UNL A   1      33.361  26.510  22.453  1.00  0.00     0.278 C 
ATOM      7  O   UNL A   1      33.637  26.185  21.295  1.00  0.00    -0.268 OA
ATOM      8  H   UNL A   1      34.852  27.848  22.516  1.00  0.00     0.163 HD
BRANCH   6   9
ATOM      9  C   UNL A   1      32.228  25.853  23.227  1.00  0.00     0.274 C 
ATOM     10  N   UNL A   1      32.323  24.440  23.708  1.00  0.00    -0.319 N 
ATOM     11  C   UNL A   1      30.998  23.981  24.248  1.00  0.00     0.188 C 
ATOM     12  H   UNL A   1      33.031  24.562  24.431  1.00  0.00     0.349 HD
ATOM     13  C   UNL A   1      30.849  26.205  22.663  1.00  0.00     0.076 C 
ATOM     14  C   UNL A   1      30.177  25.142  24.880  1.00  0.00     0.048 C 
ATOM     15  C   UNL A   1      31.002  22.820  25.277  1.00  0.00     0.065 C 
ATOM     16  C   UNL A   1      29.842  26.212  23.821  1.00  0.00     0.016 C 
ATOM     17  C   UNL A   1      30.861  25.695  26.161  1.00  0.00     0.010 C 
ATOM     18  C   UNL A   1      31.033  23.260  26.743  1.00  0.00     0.006 C 
ATOM     19  C   UNL A   1      31.671  24.627  26.906  1.00  0.00     0.001 C 
BRANCH  10  20
ATOM     20  C   UNL A   1      33.158  23.389  23.066  1.00  0.00     0.187 C 
ATOM     21  C   UNL A   1      35.544  23.773  24.127  1.00  0.00     0.014 C 
ATOM     22  C   UNL A   1      34.443  22.801  23.717  1.00  0.00     0.044 C 
ATOM     23  C   UNL A   1      34.086  21.846  24.845  1.00  0.00     0.009 C 
ATOM     24  C   UNL A   1      33.348  20.623  24.313  1.00  0.00     0.001 C 
ATOM     25  C   UNL A   1      32.413  22.190  22.424  1.00  0.00     0.065 C 
ATOM     26  C   UNL A   1      32.331  20.868  23.197  1.00  0.00     0.006 C 
ENDBRANCH  10  20
ENDBRANCH   6   9
ENDBRANCH   4   5
ENDBRANCH   3   4
ENDBRANCH   2   3
ENDBRANCH   1   2
BRANCH   1  27
ATOM     27  C   UNL A   1      31.905  31.388  26.628  1.00  0.00     0.021 C 
BRANCH  27  28
ATOM     28  C   UNL A   1      32.983  32.160  27.385  1.00  0.00     0.116 C 
BRANCH  28  29
ATOM     29  N   UNL A   1      32.621  33.554  27.600  1.00  0.00    -0.352 N 
ATOM     30  C   UNL A   1      33.120  34.457  28.507  1.00  0.00     0.251 C 
ATOM     31  H   UNL A   1      31.914  33.901  27.009  1.00  0.00     0.163 HD
ATOM     32  O   UNL A   1      32.566  35.544  28.661  1.00  0.00    -0.269 OA
BRANCH  30  33
ATOM     33  C   UNL A   1      34.308  34.114  29.321  1.00  0.00     0.039 A 
ATOM     34  C   UNL A   1      34.127  33.439  30.531  1.00  0.00     0.014 A 
ATOM     35  C   UNL A   1      35.596  34.442  28.888  1.00  0.00     0.014 A 
ATOM     36  C   UNL A   1      35.240  33.012  31.261  1.00  0.00     0.010 A 
ATOM     37  C   UNL A   1      36.703  33.958  29.582  1.00  0.00     0.010 A 
ATOM     38  C   UNL A   1      36.537  33.223  30.766  1.00  0.00    -0.014 A 
BRANCH  38  39
ATOM     39  C   UNL A   1      37.724  32.617  31.426  1.00  0.00     0.031 A 
ATOM     40  C   UNL A   1      38.455  31.465  30.794  1.00  0.00     0.074 A 
ATOM     41  C   UNL A   1      38.076  33.041  32.657  1.00  0.00     0.049 A 
ATOM     42  N   UNL A   1      39.462  30.774  31.262  1.00  0.00    -0.248 NA
ATOM     43  C   UNL A   1      37.983  31.019  29.475  1.00  0.00     0.031 C 
ATOM     44  C   UNL A   1      37.406  34.106  33.407  1.00  0.00     0.029 A 
ATOM     45  N   UNL A   1      39.063  32.609  33.509  1.00  0.00    -0.354 N 
ATOM     46  C   UNL A   1      39.719  29.787  30.318  1.00  0.00     0.074 A 
ATOM     47  C   UNL A   1      38.750  29.960  29.257  1.00  0.00     0.031 C 
ATOM     48  C   UNL A   1      38.004  34.249  34.599  1.00  0.00     0.029 A 
ATOM     49  C   UNL A   1      39.069  33.259  34.721  1.00  0.00     0.049 A 
ATOM     50  H   UNL A   1      39.708  31.902  33.273  1.00  0.00     0.167 HD
ATOM     51  C   UNL A   1      40.683  28.835  30.328  1.00  0.00     0.034 A 
ATOM     52  C   UNL A   1      39.830  33.070  35.818  1.00  0.00     0.034 A 
ATOM     53  C   UNL A   1      41.662  28.685  31.374  1.00  0.00     0.049 A 
ATOM     54  C   UNL A   1      40.890  32.004  35.800  1.00  0.00     0.074 A 
ATOM     55  C   UNL A   1      42.741  27.820  31.420  1.00  0.00     0.029 A 
ATOM     56  N   UNL A   1      41.666  29.392  32.566  1.00  0.00    -0.354 N 
ATOM     57  N   UNL A   1      41.230  31.196  34.825  1.00  0.00    -0.248 NA
ATOM     58  C   UNL A   1      41.688  31.839  37.023  1.00  0.00     0.031 C 
ATOM     59  C   UNL A   1      43.370  27.971  32.661  1.00  0.00     0.029 A 
ATOM     60  C   UNL A   1      42.706  28.959  33.370  1.00  0.00     0.049 A 
ATOM     61  H   UNL A   1      41.023  30.099  32.805  1.00  0.00     0.167 HD
ATOM     62  C   UNL A   1      42.300  30.448  35.307  1.00  0.00     0.074 A 
ATOM     63  C   UNL A   1      42.566  30.917  36.650  1.00  0.00     0.031 C 
ATOM     64  C   UNL A   1      42.989  29.455  34.694  1.00  0.00     0.034 A 
BRANCH  51  65
ATOM     65  C   UNL A   1      40.748  27.886  29.158  1.00  0.00     0.023 A 
ATOM     66  C   UNL A   1      39.895  26.765  29.115  1.00  0.00     0.012 A 
ATOM     67  C   UNL A   1      41.605  28.144  28.070  1.00  0.00     0.148 A 
ATOM     68  C   UNL A   1      39.919  25.895  28.026  1.00  0.00     0.002 A 
ATOM     69  C   UNL A   1      41.589  27.299  26.966  1.00  0.00     0.091 A 
ATOM     70  F   UNL A   1      42.422  29.205  28.137  1.00  0.00    -0.205 F 
ATOM     71  C   UNL A   1      40.757  26.168  26.948  1.00  0.00     0.022 A 
BRANCH  69  72
ATOM     72  S   UNL A   1      42.572  27.609  25.494  1.00  0.00     0.127 S 
ATOM     73  O   UNL A   1      41.984  28.855  25.005  1.00  0.00    -0.237 OA
ATOM     74  O   UNL A   1      43.919  27.747  26.049  1.00  0.00    -0.237 OA
ATOM     75  O   UNL A   1      42.384  26.450  24.633  1.00  0.00    -0.744 OA
ENDBRANCH  69  72
ENDBRANCH  51  65
BRANCH  52  76
ATOM     76  C   UNL A   1      39.647  33.943  37.012  1.00  0.00     0.023 A 
ATOM     77  C   UNL A   1      40.072  35.285  36.956  1.00  0.00     0.012 A 
ATOM     78  C   UNL A   1      39.035  33.465  38.187  1.00  0.00     0.148 A 
ATOM     79  C   UNL A   1      39.919  36.126  38.058  1.00  0.00     0.002 A 
ATOM     80  C   UNL A   1      38.834  34.324  39.261  1.00  0.00     0.091 A 
ATOM     81  F   UNL A   1      38.645  32.183  38.223  1.00  0.00    -0.205 F 
ATOM     82  C   UNL A   1      39.291  35.649  39.206  1.00  0.00     0.022 A 
BRANCH  80  83
ATOM     83  S   UNL A   1      37.921  33.836  40.730  1.00  0.00     0.127 S 
ATOM     84  O   UNL A   1      37.760  35.113  41.420  1.00  0.00    -0.237 OA
ATOM     85  O   UNL A   1      36.694  33.289  40.151  1.00  0.00    -0.237 OA
ATOM     86  O   UNL A   1      38.756  32.855  41.407  1.00  0.00    -0.744 OA
ENDBRANCH  80  83
ENDBRANCH  52  76
BRANCH  64  87
ATOM     87  C   UNL A   1      44.118  28.810  35.456  1.00  0.00     0.023 A 
ATOM     88  C   UNL A   1      45.422  29.333  35.353  1.00  0.00     0.012 A 
ATOM     89  C   UNL A   1      43.873  27.736  36.336  1.00  0.00     0.148 A 
ATOM     90  C   UNL A   1      46.470  28.780  36.089  1.00  0.00     0.002 A 
ATOM     91  C   UNL A   1      44.911  27.224  37.105  1.00  0.00     0.091 A 
ATOM     92  F   UNL A   1      42.629  27.243  36.410  1.00  0.00    -0.205 F 
ATOM     93  C   UNL A   1      46.212  27.735  36.973  1.00  0.00     0.022 A 
BRANCH  91  94
ATOM     94  S   UNL A   1      44.661  25.944  38.341  1.00  0.00     0.127 S 
ATOM     95  O   UNL A   1      43.790  26.623  39.299  1.00  0.00    -0.237 OA
ATOM     96  O   UNL A   1      44.009  24.889  37.564  1.00  0.00    -0.237 OA
ATOM     97  O   UNL A   1      45.985  25.600  38.841  1.00  0.00    -0.744 OA
ENDBRANCH  91  94
ENDBRANCH  64  87
ENDBRANCH  38  39
ENDBRANCH  30  33
ENDBRANCH  28  29
ENDBRANCH  27  28
ENDBRANCH   1  27
TORSDOF 17
ENDMDL
