MODEL 1
REMARK VINA RESULT:      -9.5      0.000      0.000
REMARK SMILES CCCCCCNC(=O)Oc1cccc(-c2ccc([C@H](C)C(=O)NCCCCCCNC(=O)c3ccc(-c4c5nc(c(-c6cccc(S(=O)(=O)[O-])c6F)c6ccc([nH]6)c(-c6cccc(S(=O)(=O)[O-])c6F)c6nc(c(-c7cccc(S(=O)(=O)[O-])c7F)c7ccc4[nH]7)C=C6)C=C5)cc3)cc2F)c1
REMARK SMILES IDX 22 1 23 2 24 3 20 5 21 6 19 7 16 8 17 9 98 10 18 11 97 12
REMARK SMILES IDX 99 13 15 14 11 15 12 16 100 17 13 18 14 19 10 20 8 21 7 22
REMARK SMILES IDX 9 24 6 25 5 26 4 27 3 28 2 29 1 30 25 31 26 32 27 33 28 34
REMARK SMILES IDX 29 35 30 36 31 37 32 38 33 40 34 41 35 42 96 43 36 44 95 45
REMARK SMILES IDX 37 46 38 47 39 48 89 49 40 50 94 51 88 52 90 53 41 54 93 55
REMARK SMILES IDX 87 56 86 57 42 59 74 60 54 61 73 62 55 63 58 64 72 65 91 66
REMARK SMILES IDX 56 67 57 68 71 70 92 71 59 72 43 73 44 74 52 75 45 76 47 77
REMARK SMILES IDX 53 78 46 79 48 80 49 81 50 82 51 83 75 84 76 85 84 86 77 87
REMARK SMILES IDX 79 88 85 89 78 90 80 91 81 92 82 93 83 94 60 95 61 96 69 97
REMARK SMILES IDX 62 98 64 99 70 100 63 101 65 102 66 103 67 104 68 105
REMARK H PARENT 24 4 7 23 31 39 90 58 58 69
REMARK Flexibility Score: inf
ROOT
ATOM      1  C   UNL A   1      40.861  22.761  27.486  1.00  0.00     0.227 C 
ATOM      2  O   UNL A   1      40.923  22.102  28.529  1.00  0.00    -0.274 OA
ATOM      3  N   UNL A   1      41.087  24.102  27.566  1.00  0.00    -0.356 N 
ATOM      4  H   UNL A   1      41.296  24.436  28.468  1.00  0.00     0.163 HD
ENDROOT
BRANCH   1   5
ATOM      5  C   UNL A   1      40.541  22.088  26.147  1.00  0.00     0.105 C 
ATOM      6  C   UNL A   1      41.402  20.828  25.992  1.00  0.00     0.023 C 
BRANCH   5   7
ATOM      7  C   UNL A   1      39.045  21.921  25.889  1.00  0.00    -0.033 A 
ATOM      8  C   UNL A   1      36.242  21.641  25.459  1.00  0.00     0.018 A 
ATOM      9  C   UNL A   1      37.128  20.591  25.178  1.00  0.00     0.012 A 
ATOM     10  C   UNL A   1      36.789  22.837  25.934  1.00  0.00     0.131 A 
ATOM     11  C   UNL A   1      38.507  20.730  25.380  1.00  0.00     0.005 A 
ATOM     12  C   UNL A   1      38.160  22.984  26.135  1.00  0.00     0.044 A 
ATOM     13  F   UNL A   1      35.995  23.883  26.214  1.00  0.00    -0.206 F 
BRANCH   8  14
ATOM     14  C   UNL A   1      34.804  21.493  25.207  1.00  0.00    -0.012 A 
ATOM     15  C   UNL A   1      32.586  22.464  25.081  1.00  0.00     0.133 A 
ATOM     16  C   UNL A   1      32.050  21.250  24.659  1.00  0.00     0.047 A 
ATOM     17  C   UNL A   1      33.942  22.584  25.380  1.00  0.00     0.056 A 
ATOM     18  C   UNL A   1      32.892  20.152  24.501  1.00  0.00     0.004 A 
ATOM     19  C   UNL A   1      34.260  20.274  24.766  1.00  0.00     0.009 A 
BRANCH  15  20
ATOM     20  O   UNL A   1      31.692  23.525  25.290  1.00  0.00    -0.410 OA
BRANCH  20  21
ATOM     21  C   UNL A   1      31.245  23.760  26.580  1.00  0.00     0.412 C 
ATOM     22  N   UNL A   1      30.691  24.997  26.741  1.00  0.00    -0.321 N 
ATOM     23  H   UNL A   1      30.364  25.220  27.644  1.00  0.00     0.167 HD
ATOM     24  O   UNL A   1      31.314  22.984  27.533  1.00  0.00    -0.224 OA
BRANCH  22  25
ATOM     25  C   UNL A   1      30.533  26.015  25.723  1.00  0.00     0.119 C 
BRANCH  25  26
ATOM     26  C   UNL A   1      31.408  27.236  26.000  1.00  0.00     0.021 C 
BRANCH  26  27
ATOM     27  C   UNL A   1      32.852  26.915  26.405  1.00  0.00     0.002 C 
BRANCH  27  28
ATOM     28  C   UNL A   1      33.733  26.328  25.297  1.00  0.00    -0.000 C 
BRANCH  28  29
ATOM     29  C   UNL A   1      33.262  26.609  23.868  1.00  0.00    -0.003 C 
ATOM     30  C   UNL A   1      33.639  25.513  22.884  1.00  0.00     0.004 C 
ENDBRANCH  28  29
ENDBRANCH  27  28
ENDBRANCH  26  27
ENDBRANCH  25  26
ENDBRANCH  22  25
ENDBRANCH  20  21
ENDBRANCH  15  20
ENDBRANCH   8  14
ENDBRANCH   5   7
ENDBRANCH   1   5
BRANCH   3  31
ATOM     31  C   UNL A   1      41.069  25.112  26.524  1.00  0.00     0.116 C 
BRANCH  31  32
ATOM     32  C   UNL A   1      40.022  26.182  26.824  1.00  0.00     0.021 C 
BRANCH  32  33
ATOM     33  C   UNL A   1      39.904  26.538  28.310  1.00  0.00     0.002 C 
BRANCH  33  34
ATOM     34  C   UNL A   1      39.601  28.012  28.600  1.00  0.00     0.002 C 
BRANCH  34  35
ATOM     35  C   UNL A   1      38.118  28.346  28.771  1.00  0.00     0.021 C 
BRANCH  35  36
ATOM     36  C   UNL A   1      37.826  29.821  29.030  1.00  0.00     0.116 C 
BRANCH  36  37
ATOM     37  N   UNL A   1      37.049  30.019  30.245  1.00  0.00    -0.352 N 
ATOM     38  C   UNL A   1      37.366  29.689  31.539  1.00  0.00     0.251 C 
ATOM     39  H   UNL A   1      36.173  30.450  30.120  1.00  0.00     0.163 HD
ATOM     40  O   UNL A   1      36.509  29.753  32.415  1.00  0.00    -0.269 OA
BRANCH  38  41
ATOM     41  C   UNL A   1      38.737  29.244  31.868  1.00  0.00     0.039 A 
ATOM     42  C   UNL A   1      38.944  27.917  32.252  1.00  0.00     0.014 A 
ATOM     43  C   UNL A   1      39.813  30.134  31.801  1.00  0.00     0.014 A 
ATOM     44  C   UNL A   1      40.240  27.469  32.515  1.00  0.00     0.010 A 
ATOM     45  C   UNL A   1      41.110  29.665  31.988  1.00  0.00     0.010 A 
ATOM     46  C   UNL A   1      41.338  28.332  32.356  1.00  0.00    -0.014 A 
BRANCH  46  47
ATOM     47  C   UNL A   1      42.728  27.853  32.562  1.00  0.00     0.031 A 
ATOM     48  C   UNL A   1      43.568  27.426  31.389  1.00  0.00     0.074 A 
ATOM     49  C   UNL A   1      43.208  27.726  33.815  1.00  0.00     0.049 A 
ATOM     50  N   UNL A   1      44.785  26.947  31.377  1.00  0.00    -0.248 NA
ATOM     51  C   UNL A   1      42.950  27.522  30.057  1.00  0.00     0.031 C 
ATOM     52  C   UNL A   1      42.465  28.034  35.039  1.00  0.00     0.029 A 
ATOM     53  N   UNL A   1      44.425  27.285  34.268  1.00  0.00    -0.354 N 
ATOM     54  C   UNL A   1      45.066  26.653  30.049  1.00  0.00     0.074 A 
ATOM     55  C   UNL A   1      43.877  26.971  29.288  1.00  0.00     0.031 C 
ATOM     56  C   UNL A   1      43.246  27.783  36.102  1.00  0.00     0.029 A 
ATOM     57  C   UNL A   1      44.531  27.267  35.639  1.00  0.00     0.049 A 
ATOM     58  H   UNL A   1      45.155  27.007  33.668  1.00  0.00     0.167 HD
ATOM     59  C   UNL A   1      46.217  26.191  29.504  1.00  0.00     0.034 A 
ATOM     60  C   UNL A   1      45.545  26.876  36.436  1.00  0.00     0.034 A 
ATOM     61  C   UNL A   1      47.407  25.907  30.261  1.00  0.00     0.049 A 
ATOM     62  C   UNL A   1      46.823  26.394  35.807  1.00  0.00     0.074 A 
ATOM     63  C   UNL A   1      48.651  25.519  29.796  1.00  0.00     0.029 A 
ATOM     64  N   UNL A   1      47.499  25.969  31.644  1.00  0.00    -0.354 N 
ATOM     65  N   UNL A   1      47.125  26.274  34.536  1.00  0.00    -0.248 NA
ATOM     66  C   UNL A   1      47.915  26.027  36.721  1.00  0.00     0.031 C 
ATOM     67  C   UNL A   1      49.486  25.315  30.899  1.00  0.00     0.029 A 
ATOM     68  C   UNL A   1      48.773  25.612  32.050  1.00  0.00     0.049 A 
ATOM     69  H   UNL A   1      46.767  26.230  32.247  1.00  0.00     0.167 HD
ATOM     70  C   UNL A   1      48.449  25.854  34.497  1.00  0.00     0.074 A 
ATOM     71  C   UNL A   1      48.897  25.758  35.871  1.00  0.00     0.031 C 
ATOM     72  C   UNL A   1      49.221  25.562  33.420  1.00  0.00     0.034 A 
BRANCH  59  73
ATOM     73  C   UNL A   1      46.254  26.002  28.009  1.00  0.00     0.023 A 
ATOM     74  C   UNL A   1      46.716  27.049  27.184  1.00  0.00     0.012 A 
ATOM     75  C   UNL A   1      45.867  24.783  27.420  1.00  0.00     0.148 A 
ATOM     76  C   UNL A   1      46.749  26.904  25.798  1.00  0.00     0.002 A 
ATOM     77  C   UNL A   1      45.949  24.626  26.041  1.00  0.00     0.091 A 
ATOM     78  F   UNL A   1      45.410  23.804  28.215  1.00  0.00    -0.205 F 
ATOM     79  C   UNL A   1      46.375  25.690  25.228  1.00  0.00     0.022 A 
BRANCH  77  80
ATOM     80  S   UNL A   1      45.568  23.077  25.218  1.00  0.00     0.127 S 
ATOM     81  O   UNL A   1      44.114  23.017  25.360  1.00  0.00    -0.237 OA
ATOM     82  O   UNL A   1      46.038  23.328  23.855  1.00  0.00    -0.237 OA
ATOM     83  O   UNL A   1      46.311  22.049  25.934  1.00  0.00    -0.744 OA
ENDBRANCH  77  80
ENDBRANCH  59  73
BRANCH  60  84
ATOM     84  C   UNL A   1      45.414  26.998  37.914  1.00  0.00     0.023 A 
ATOM     85  C   UNL A   1      44.980  25.887  38.663  1.00  0.00     0.012 A 
ATOM     86  C   UNL A   1      45.755  28.189  38.585  1.00  0.00     0.148 A 
ATOM     87  C   UNL A   1      44.861  25.967  40.050  1.00  0.00     0.002 A 
ATOM     88  C   UNL A   1      45.687  28.244  39.972  1.00  0.00     0.091 A 
ATOM     89  F   UNL A   1      46.160  29.236  37.854  1.00  0.00    -0.205 F 
ATOM     90  C   UNL A   1      45.224  27.140  40.705  1.00  0.00     0.022 A 
BRANCH  88  91
ATOM     91  S   UNL A   1      46.253  29.666  40.913  1.00  0.00     0.127 S 
ATOM     92  O   UNL A   1      45.019  30.430  41.075  1.00  0.00    -0.237 OA
ATOM     93  O   UNL A   1      46.755  29.037  42.134  1.00  0.00    -0.237 OA
ATOM     94  O   UNL A   1      47.281  30.298  40.095  1.00  0.00    -0.744 OA
ENDBRANCH  88  91
ENDBRANCH  60  84
BRANCH  72  95
ATOM     95  C   UNL A   1      50.647  25.144  33.674  1.00  0.00     0.023 A 
ATOM     96  C   UNL A   1      51.620  26.116  33.982  1.00  0.00     0.012 A 
ATOM     97  C   UNL A   1      51.007  23.782  33.677  1.00  0.00     0.148 A 
ATOM     98  C   UNL A   1      52.937  25.740  34.251  1.00  0.00     0.002 A 
ATOM     99  C   UNL A   1      52.307  23.411  33.997  1.00  0.00     0.091 A 
ATOM    100  F   UNL A   1      50.071  22.874  33.363  1.00  0.00    -0.205 F 
ATOM    101  C   UNL A   1      53.276  24.390  34.271  1.00  0.00     0.022 A 
BRANCH  99 102
ATOM    102  S   UNL A   1      52.812  21.694  34.144  1.00  0.00     0.127 S 
ATOM    103  O   UNL A   1      52.067  21.266  35.328  1.00  0.00    -0.237 OA
ATOM    104  O   UNL A   1      52.336  21.123  32.884  1.00  0.00    -0.237 OA
ATOM    105  O   UNL A   1      54.261  21.712  34.291  1.00  0.00    -0.744 OA
ENDBRANCH  99 102
ENDBRANCH  72  95
ENDBRANCH  46  47
ENDBRANCH  38  41
ENDBRANCH  36  37
ENDBRANCH  35  36
ENDBRANCH  34  35
ENDBRANCH  33  34
ENDBRANCH  32  33
ENDBRANCH  31  32
ENDBRANCH   3  31
TORSDOF 25
ENDMDL
MODEL 2
REMARK VINA RESULT:      -9.1      1.556      2.040
REMARK SMILES CCCCCCNC(=O)Oc1cccc(-c2ccc([C@H](C)C(=O)NCCCCCCNC(=O)c3ccc(-c4c5nc(c(-c6cccc(S(=O)(=O)[O-])c6F)c6ccc([nH]6)c(-c6cccc(S(=O)(=O)[O-])c6F)c6nc(c(-c7cccc(S(=O)(=O)[O-])c7F)c7ccc4[nH]7)C=C6)C=C5)cc3)cc2F)c1
REMARK SMILES IDX 22 1 23 2 24 3 20 5 21 6 19 7 16 8 17 9 98 10 18 11 97 12
REMARK SMILES IDX 99 13 15 14 11 15 12 16 100 17 13 18 14 19 10 20 8 21 7 22
REMARK SMILES IDX 9 24 6 25 5 26 4 27 3 28 2 29 1 30 25 31 26 32 27 33 28 34
REMARK SMILES IDX 29 35 30 36 31 37 32 38 33 40 34 41 35 42 96 43 36 44 95 45
REMARK SMILES IDX 37 46 38 47 39 48 89 49 40 50 94 51 88 52 90 53 41 54 93 55
REMARK SMILES IDX 87 56 86 57 42 59 74 60 54 61 73 62 55 63 58 64 72 65 91 66
REMARK SMILES IDX 56 67 57 68 71 70 92 71 59 72 43 73 44 74 52 75 45 76 47 77
REMARK SMILES IDX 53 78 46 79 48 80 49 81 50 82 51 83 75 84 76 85 84 86 77 87
REMARK SMILES IDX 79 88 85 89 78 90 80 91 81 92 82 93 83 94 60 95 61 96 69 97
REMARK SMILES IDX 62 98 64 99 70 100 63 101 65 102 66 103 67 104 68 105
REMARK H PARENT 24 4 7 23 31 39 90 58 58 69
REMARK Flexibility Score: inf
ROOT
ATOM      1  C   UNL A   1      40.766  22.363  27.372  1.00  0.00     0.227 C 
ATOM      2  O   UNL A   1      40.716  21.814  28.477  1.00  0.00    -0.274 OA
ATOM      3  N   UNL A   1      41.200  23.653  27.322  1.00  0.00    -0.356 N 
ATOM      4  H   UNL A   1      41.452  24.043  28.190  1.00  0.00     0.163 HD
ENDROOT
BRANCH   1   5
ATOM      5  C   UNL A   1      40.353  21.614  26.101  1.00  0.00     0.105 C 
ATOM      6  C   UNL A   1      40.948  20.200  26.128  1.00  0.00     0.023 C 
BRANCH   5   7
ATOM      7  C   UNL A   1      38.862  21.714  25.788  1.00  0.00    -0.033 A 
ATOM      8  C   UNL A   1      36.070  21.932  25.259  1.00  0.00     0.018 A 
ATOM      9  C   UNL A   1      36.782  20.768  24.936  1.00  0.00     0.012 A 
ATOM     10  C   UNL A   1      36.788  22.990  25.826  1.00  0.00     0.131 A 
ATOM     11  C   UNL A   1      38.156  20.662  25.187  1.00  0.00     0.005 A 
ATOM     12  C   UNL A   1      38.156  22.894  26.076  1.00  0.00     0.044 A 
ATOM     13  F   UNL A   1      36.167  24.136  26.149  1.00  0.00    -0.206 F 
BRANCH   8  14
ATOM     14  C   UNL A   1      34.639  22.042  24.956  1.00  0.00    -0.012 A 
ATOM     15  C   UNL A   1      32.667  23.409  24.610  1.00  0.00     0.133 A 
ATOM     16  C   UNL A   1      31.907  22.284  24.305  1.00  0.00     0.047 A 
ATOM     17  C   UNL A   1      34.011  23.295  24.960  1.00  0.00     0.056 A 
ATOM     18  C   UNL A   1      32.513  21.030  24.316  1.00  0.00     0.004 A 
ATOM     19  C   UNL A   1      33.870  20.911  24.632  1.00  0.00     0.009 A 
BRANCH  15  20
ATOM     20  O   UNL A   1      32.001  24.644  24.651  1.00  0.00    -0.410 OA
BRANCH  20  21
ATOM     21  C   UNL A   1      31.103  24.870  25.682  1.00  0.00     0.412 C 
ATOM     22  N   UNL A   1      29.977  25.528  25.283  1.00  0.00    -0.321 N 
ATOM     23  H   UNL A   1      29.308  25.723  25.979  1.00  0.00     0.167 HD
ATOM     24  O   UNL A   1      31.245  24.546  26.861  1.00  0.00    -0.224 OA
BRANCH  22  25
ATOM     25  C   UNL A   1      29.663  25.970  23.939  1.00  0.00     0.119 C 
BRANCH  25  26
ATOM     26  C   UNL A   1      29.895  27.469  23.765  1.00  0.00     0.021 C 
BRANCH  26  27
ATOM     27  C   UNL A   1      31.281  27.961  24.199  1.00  0.00     0.002 C 
BRANCH  27  28
ATOM     28  C   UNL A   1      31.286  29.080  25.247  1.00  0.00    -0.000 C 
BRANCH  28  29
ATOM     29  C   UNL A   1      32.068  28.775  26.526  1.00  0.00    -0.003 C 
ATOM     30  C   UNL A   1      32.738  30.001  27.127  1.00  0.00     0.004 C 
ENDBRANCH  28  29
ENDBRANCH  27  28
ENDBRANCH  26  27
ENDBRANCH  25  26
ENDBRANCH  22  25
ENDBRANCH  20  21
ENDBRANCH  15  20
ENDBRANCH   8  14
ENDBRANCH   5   7
ENDBRANCH   1   5
BRANCH   3  31
ATOM     31  C   UNL A   1      41.347  24.542  26.183  1.00  0.00     0.116 C 
BRANCH  31  32
ATOM     32  C   UNL A   1      40.525  25.813  26.375  1.00  0.00     0.021 C 
BRANCH  32  33
ATOM     33  C   UNL A   1      40.200  26.128  27.840  1.00  0.00     0.002 C 
BRANCH  33  34
ATOM     34  C   UNL A   1      40.119  27.620  28.178  1.00  0.00     0.002 C 
BRANCH  34  35
ATOM     35  C   UNL A   1      38.706  28.209  28.176  1.00  0.00     0.021 C 
BRANCH  35  36
ATOM     36  C   UNL A   1      38.653  29.728  28.047  1.00  0.00     0.116 C 
BRANCH  36  37
ATOM     37  N   UNL A   1      38.075  30.356  29.226  1.00  0.00    -0.352 N 
ATOM     38  C   UNL A   1      38.558  30.398  30.509  1.00  0.00     0.251 C 
ATOM     39  H   UNL A   1      37.216  30.815  29.082  1.00  0.00     0.163 HD
ATOM     40  O   UNL A   1      37.844  30.806  31.421  1.00  0.00    -0.269 OA
BRANCH  38  41
ATOM     41  C   UNL A   1      39.935  29.937  30.791  1.00  0.00     0.039 A 
ATOM     42  C   UNL A   1      40.118  28.752  31.508  1.00  0.00     0.014 A 
ATOM     43  C   UNL A   1      41.039  30.674  30.351  1.00  0.00     0.014 A 
ATOM     44  C   UNL A   1      41.412  28.278  31.736  1.00  0.00     0.010 A 
ATOM     45  C   UNL A   1      42.322  30.158  30.513  1.00  0.00     0.010 A 
ATOM     46  C   UNL A   1      42.523  28.961  31.214  1.00  0.00    -0.014 A 
BRANCH  46  47
ATOM     47  C   UNL A   1      43.901  28.433  31.385  1.00  0.00     0.031 A 
ATOM     48  C   UNL A   1      44.563  27.662  30.277  1.00  0.00     0.074 A 
ATOM     49  C   UNL A   1      44.525  28.578  32.571  1.00  0.00     0.049 A 
ATOM     50  N   UNL A   1      45.741  27.094  30.257  1.00  0.00    -0.248 NA
ATOM     51  C   UNL A   1      43.791  27.479  29.037  1.00  0.00     0.031 C 
ATOM     52  C   UNL A   1      43.958  29.238  33.749  1.00  0.00     0.029 A 
ATOM     53  N   UNL A   1      45.763  28.161  32.988  1.00  0.00    -0.354 N 
ATOM     54  C   UNL A   1      45.839  26.461  29.024  1.00  0.00     0.074 A 
ATOM     55  C   UNL A   1      44.584  26.680  28.339  1.00  0.00     0.031 C 
ATOM     56  C   UNL A   1      44.850  29.191  34.751  1.00  0.00     0.029 A 
ATOM     57  C   UNL A   1      46.037  28.472  34.300  1.00  0.00     0.049 A 
ATOM     58  H   UNL A   1      46.396  27.684  32.404  1.00  0.00     0.167 HD
ATOM     59  C   UNL A   1      46.887  25.784  28.496  1.00  0.00     0.034 A 
ATOM     60  C   UNL A   1      47.119  28.205  35.056  1.00  0.00     0.034 A 
ATOM     61  C   UNL A   1      48.144  25.596  29.168  1.00  0.00     0.049 A 
ATOM     62  C   UNL A   1      48.282  27.478  34.438  1.00  0.00     0.074 A 
ATOM     63  C   UNL A   1      49.298  25.002  28.687  1.00  0.00     0.029 A 
ATOM     64  N   UNL A   1      48.411  25.988  30.472  1.00  0.00    -0.354 N 
ATOM     65  N   UNL A   1      48.416  27.024  33.214  1.00  0.00    -0.248 NA
ATOM     66  C   UNL A   1      49.456  27.256  35.293  1.00  0.00     0.031 C 
ATOM     67  C   UNL A   1      50.251  25.007  29.710  1.00  0.00     0.029 A 
ATOM     68  C   UNL A   1      49.704  25.635  30.817  1.00  0.00     0.049 A 
ATOM     69  H   UNL A   1      47.775  26.449  31.064  1.00  0.00     0.167 HD
ATOM     70  C   UNL A   1      49.700  26.497  33.142  1.00  0.00     0.074 A 
ATOM     71  C   UNL A   1      50.310  26.705  34.440  1.00  0.00     0.031 C 
ATOM     72  C   UNL A   1      50.315  25.886  32.099  1.00  0.00     0.034 A 
BRANCH  59  73
ATOM     73  C   UNL A   1      46.727  25.231  27.101  1.00  0.00     0.023 A 
ATOM     74  C   UNL A   1      47.249  25.946  26.003  1.00  0.00     0.012 A 
ATOM     75  C   UNL A   1      46.095  23.992  26.878  1.00  0.00     0.148 A 
ATOM     76  C   UNL A   1      47.104  25.462  24.703  1.00  0.00     0.002 A 
ATOM     77  C   UNL A   1      45.998  23.491  25.585  1.00  0.00     0.091 A 
ATOM     78  F   UNL A   1      45.585  23.334  27.930  1.00  0.00    -0.205 F 
ATOM     79  C   UNL A   1      46.488  24.231  24.496  1.00  0.00     0.022 A 
BRANCH  77  80
ATOM     80  S   UNL A   1      45.296  21.879  25.222  1.00  0.00     0.127 S 
ATOM     81  O   UNL A   1      44.067  21.908  26.014  1.00  0.00    -0.237 OA
ATOM     82  O   UNL A   1      45.089  21.951  23.775  1.00  0.00    -0.237 OA
ATOM     83  O   UNL A   1      46.291  20.904  25.644  1.00  0.00    -0.744 OA
ENDBRANCH  77  80
ENDBRANCH  59  73
BRANCH  60  84
ATOM     84  C   UNL A   1      47.180  28.697  36.461  1.00  0.00     0.023 A 
ATOM     85  C   UNL A   1      47.656  29.998  36.717  1.00  0.00     0.012 A 
ATOM     86  C   UNL A   1      46.733  27.904  37.536  1.00  0.00     0.148 A 
ATOM     87  C   UNL A   1      47.711  30.491  38.020  1.00  0.00     0.002 A 
ATOM     88  C   UNL A   1      46.740  28.422  38.826  1.00  0.00     0.091 A 
ATOM     89  F   UNL A   1      46.291  26.667  37.271  1.00  0.00    -0.205 F 
ATOM     90  C   UNL A   1      47.245  29.708  39.073  1.00  0.00     0.022 A 
BRANCH  88  91
ATOM     91  S   UNL A   1      46.043  27.538  40.226  1.00  0.00     0.127 S 
ATOM     92  O   UNL A   1      46.198  28.511  41.304  1.00  0.00    -0.237 OA
ATOM     93  O   UNL A   1      44.665  27.320  39.785  1.00  0.00    -0.237 OA
ATOM     94  O   UNL A   1      46.832  26.320  40.360  1.00  0.00    -0.744 OA
ENDBRANCH  88  91
ENDBRANCH  60  84
BRANCH  72  95
ATOM     95  C   UNL A   1      51.737  25.426  32.298  1.00  0.00     0.023 A 
ATOM     96  C   UNL A   1      52.797  26.348  32.186  1.00  0.00     0.012 A 
ATOM     97  C   UNL A   1      52.016  24.094  32.663  1.00  0.00     0.148 A 
ATOM     98  C   UNL A   1      54.115  25.942  32.399  1.00  0.00     0.002 A 
ATOM     99  C   UNL A   1      53.326  23.709  32.925  1.00  0.00     0.091 A 
ATOM    100  F   UNL A   1      50.995  23.227  32.746  1.00  0.00    -0.205 F 
ATOM    101  C   UNL A   1      54.377  24.628  32.779  1.00  0.00     0.022 A 
BRANCH  99 102
ATOM    102  S   UNL A   1      53.748  22.067  33.517  1.00  0.00     0.127 S 
ATOM    103  O   UNL A   1      55.162  22.227  33.853  1.00  0.00    -0.237 OA
ATOM    104  O   UNL A   1      52.859  21.915  34.669  1.00  0.00    -0.237 OA
ATOM    105  O   UNL A   1      53.467  21.158  32.413  1.00  0.00    -0.744 OA
ENDBRANCH  99 102
ENDBRANCH  72  95
ENDBRANCH  46  47
ENDBRANCH  38  41
ENDBRANCH  36  37
ENDBRANCH  35  36
ENDBRANCH  34  35
ENDBRANCH  33  34
ENDBRANCH  32  33
ENDBRANCH  31  32
ENDBRANCH   3  31
TORSDOF 25
ENDMDL
MODEL 3
REMARK VINA RESULT:      -9.1      6.813      9.772
REMARK SMILES CCCCCCNC(=O)Oc1cccc(-c2ccc([C@H](C)C(=O)NCCCCCCNC(=O)c3ccc(-c4c5nc(c(-c6cccc(S(=O)(=O)[O-])c6F)c6ccc([nH]6)c(-c6cccc(S(=O)(=O)[O-])c6F)c6nc(c(-c7cccc(S(=O)(=O)[O-])c7F)c7ccc4[nH]7)C=C6)C=C5)cc3)cc2F)c1
REMARK SMILES IDX 22 1 23 2 24 3 20 5 21 6 19 7 16 8 17 9 98 10 18 11 97 12
REMARK SMILES IDX 99 13 15 14 11 15 12 16 100 17 13 18 14 19 10 20 8 21 7 22
REMARK SMILES IDX 9 24 6 25 5 26 4 27 3 28 2 29 1 30 25 31 26 32 27 33 28 34
REMARK SMILES IDX 29 35 30 36 31 37 32 38 33 40 34 41 35 42 96 43 36 44 95 45
REMARK SMILES IDX 37 46 38 47 39 48 89 49 40 50 94 51 88 52 90 53 41 54 93 55
REMARK SMILES IDX 87 56 86 57 42 59 74 60 54 61 73 62 55 63 58 64 72 65 91 66
REMARK SMILES IDX 56 67 57 68 71 70 92 71 59 72 43 73 44 74 52 75 45 76 47 77
REMARK SMILES IDX 53 78 46 79 48 80 49 81 50 82 51 83 75 84 76 85 84 86 77 87
REMARK SMILES IDX 79 88 85 89 78 90 80 91 81 92 82 93 83 94 60 95 61 96 69 97
REMARK SMILES IDX 62 98 64 99 70 100 63 101 65 102 66 103 67 104 68 105
REMARK H PARENT 24 4 7 23 31 39 90 58 58 69
REMARK Flexibility Score: inf
ROOT
ATOM      1  C   UNL A   1      35.102  32.625  28.494  1.00  0.00     0.227 C 
ATOM      2  O   UNL A   1      35.924  32.721  27.578  1.00  0.00    -0.274 OA
ATOM      3  N   UNL A   1      35.530  32.871  29.763  1.00  0.00    -0.356 N 
ATOM      4  H   UNL A   1      36.480  33.120  29.841  1.00  0.00     0.163 HD
ENDROOT
BRANCH   1   5
ATOM      5  C   UNL A   1      33.646  32.242  28.209  1.00  0.00     0.105 C 
ATOM      6  C   UNL A   1      32.908  33.451  27.618  1.00  0.00     0.023 C 
BRANCH   5   7
ATOM      7  C   UNL A   1      33.497  30.924  27.452  1.00  0.00    -0.033 A 
ATOM      8  C   UNL A   1      33.156  28.467  26.050  1.00  0.00     0.018 A 
ATOM      9  C   UNL A   1      34.246  28.668  26.909  1.00  0.00     0.012 A 
ATOM     10  C   UNL A   1      32.257  29.526  25.889  1.00  0.00     0.131 A 
ATOM     11  C   UNL A   1      34.420  29.878  27.592  1.00  0.00     0.005 A 
ATOM     12  C   UNL A   1      32.425  30.735  26.563  1.00  0.00     0.044 A 
ATOM     13  F   UNL A   1      31.198  29.402  25.073  1.00  0.00    -0.206 F 
BRANCH   8  14
ATOM     14  C   UNL A   1      33.007  27.207  25.313  1.00  0.00    -0.012 A 
ATOM     15  C   UNL A   1      31.857  25.100  24.971  1.00  0.00     0.133 A 
ATOM     16  C   UNL A   1      32.655  24.813  23.867  1.00  0.00     0.047 A 
ATOM     17  C   UNL A   1      32.043  26.268  25.708  1.00  0.00     0.056 A 
ATOM     18  C   UNL A   1      33.629  25.727  23.475  1.00  0.00     0.004 A 
ATOM     19  C   UNL A   1      33.799  26.918  24.188  1.00  0.00     0.009 A 
BRANCH  15  20
ATOM     20  O   UNL A   1      30.933  24.121  25.370  1.00  0.00    -0.410 OA
BRANCH  20  21
ATOM     21  C   UNL A   1      31.277  23.285  26.420  1.00  0.00     0.412 C 
ATOM     22  N   UNL A   1      31.698  22.052  26.012  1.00  0.00    -0.321 N 
ATOM     23  H   UNL A   1      31.946  21.414  26.719  1.00  0.00     0.167 HD
ATOM     24  O   UNL A   1      31.227  23.555  27.619  1.00  0.00    -0.224 OA
BRANCH  22  25
ATOM     25  C   UNL A   1      31.816  21.587  24.645  1.00  0.00     0.119 C 
BRANCH  25  26
ATOM     26  C   UNL A   1      33.056  20.717  24.447  1.00  0.00     0.021 C 
BRANCH  26  27
ATOM     27  C   UNL A   1      34.379  21.489  24.366  1.00  0.00     0.002 C 
BRANCH  27  28
ATOM     28  C   UNL A   1      35.072  21.752  25.707  1.00  0.00    -0.000 C 
BRANCH  28  29
ATOM     29  C   UNL A   1      35.896  23.040  25.777  1.00  0.00    -0.003 C 
ATOM     30  C   UNL A   1      36.301  23.569  24.410  1.00  0.00     0.004 C 
ENDBRANCH  28  29
ENDBRANCH  27  28
ENDBRANCH  26  27
ENDBRANCH  25  26
ENDBRANCH  22  25
ENDBRANCH  20  21
ENDBRANCH  15  20
ENDBRANCH   8  14
ENDBRANCH   5   7
ENDBRANCH   1   5
BRANCH   3  31
ATOM     31  C   UNL A   1      34.802  32.823  31.018  1.00  0.00     0.116 C 
BRANCH  31  32
ATOM     32  C   UNL A   1      34.432  34.228  31.486  1.00  0.00     0.021 C 
BRANCH  32  33
ATOM     33  C   UNL A   1      34.625  34.453  32.990  1.00  0.00     0.002 C 
BRANCH  33  34
ATOM     34  C   UNL A   1      34.919  33.187  33.801  1.00  0.00     0.002 C 
BRANCH  34  35
ATOM     35  C   UNL A   1      36.187  33.245  34.655  1.00  0.00     0.021 C 
BRANCH  35  36
ATOM     36  C   UNL A   1      37.329  32.366  34.155  1.00  0.00     0.116 C 
BRANCH  36  37
ATOM     37  N   UNL A   1      36.849  31.103  33.614  1.00  0.00    -0.352 N 
ATOM     38  C   UNL A   1      37.298  30.402  32.523  1.00  0.00     0.251 C 
ATOM     39  H   UNL A   1      36.097  30.694  34.099  1.00  0.00     0.163 HD
ATOM     40  O   UNL A   1      36.650  29.451  32.096  1.00  0.00    -0.269 OA
BRANCH  38  41
ATOM     41  C   UNL A   1      38.555  30.805  31.858  1.00  0.00     0.039 A 
ATOM     42  C   UNL A   1      38.538  31.077  30.487  1.00  0.00     0.014 A 
ATOM     43  C   UNL A   1      39.746  30.913  32.583  1.00  0.00     0.014 A 
ATOM     44  C   UNL A   1      39.706  31.510  29.856  1.00  0.00     0.010 A 
ATOM     45  C   UNL A   1      40.887  31.418  31.967  1.00  0.00     0.010 A 
ATOM     46  C   UNL A   1      40.883  31.713  30.596  1.00  0.00    -0.014 A 
BRANCH  46  47
ATOM     47  C   UNL A   1      42.113  32.241  29.954  1.00  0.00     0.031 A 
ATOM     48  C   UNL A   1      43.259  31.321  29.632  1.00  0.00     0.074 A 
ATOM     49  C   UNL A   1      42.231  33.566  29.735  1.00  0.00     0.049 A 
ATOM     50  N   UNL A   1      44.423  31.607  29.109  1.00  0.00    -0.248 NA
ATOM     51  C   UNL A   1      43.088  29.899  29.970  1.00  0.00     0.031 C 
ATOM     52  C   UNL A   1      41.222  34.571  30.074  1.00  0.00     0.029 A 
ATOM     53  N   UNL A   1      43.259  34.297  29.195  1.00  0.00    -0.354 N 
ATOM     54  C   UNL A   1      45.133  30.412  29.084  1.00  0.00     0.074 A 
ATOM     55  C   UNL A   1      44.283  29.406  29.682  1.00  0.00     0.031 C 
ATOM     56  C   UNL A   1      41.676  35.785  29.724  1.00  0.00     0.029 A 
ATOM     57  C   UNL A   1      43.018  35.650  29.167  1.00  0.00     0.049 A 
ATOM     58  H   UNL A   1      44.091  33.890  28.860  1.00  0.00     0.167 HD
ATOM     59  C   UNL A   1      46.367  30.166  28.582  1.00  0.00     0.034 A 
ATOM     60  C   UNL A   1      43.792  36.670  28.744  1.00  0.00     0.034 A 
ATOM     61  C   UNL A   1      47.195  31.162  27.958  1.00  0.00     0.049 A 
ATOM     62  C   UNL A   1      45.146  36.368  28.164  1.00  0.00     0.074 A 
ATOM     63  C   UNL A   1      48.423  30.999  27.340  1.00  0.00     0.029 A 
ATOM     64  N   UNL A   1      46.888  32.513  27.883  1.00  0.00    -0.354 N 
ATOM     65  N   UNL A   1      45.736  35.207  28.004  1.00  0.00    -0.248 NA
ATOM     66  C   UNL A   1      45.927  37.512  27.673  1.00  0.00     0.031 C 
ATOM     67  C   UNL A   1      48.871  32.255  26.920  1.00  0.00     0.029 A 
ATOM     68  C   UNL A   1      47.907  33.197  27.243  1.00  0.00     0.049 A 
ATOM     69  H   UNL A   1      46.065  32.925  28.232  1.00  0.00     0.167 HD
ATOM     70  C   UNL A   1      46.939  35.476  27.362  1.00  0.00     0.074 A 
ATOM     71  C   UNL A   1      46.985  36.908  27.146  1.00  0.00     0.031 C 
ATOM     72  C   UNL A   1      47.922  34.617  26.995  1.00  0.00     0.034 A 
BRANCH  59  73
ATOM     73  C   UNL A   1      46.877  28.748  28.652  1.00  0.00     0.023 A 
ATOM     74  C   UNL A   1      47.672  28.345  29.746  1.00  0.00     0.012 A 
ATOM     75  C   UNL A   1      46.545  27.806  27.660  1.00  0.00     0.148 A 
ATOM     76  C   UNL A   1      48.165  27.044  29.828  1.00  0.00     0.002 A 
ATOM     77  C   UNL A   1      46.999  26.496  27.773  1.00  0.00     0.091 A 
ATOM     78  F   UNL A   1      45.807  28.209  26.615  1.00  0.00    -0.205 F 
ATOM     79  C   UNL A   1      47.821  26.118  28.848  1.00  0.00     0.022 A 
BRANCH  77  80
ATOM     80  S   UNL A   1      46.544  25.211  26.606  1.00  0.00     0.127 S 
ATOM     81  O   UNL A   1      47.338  24.081  27.087  1.00  0.00    -0.237 OA
ATOM     82  O   UNL A   1      45.104  25.083  26.832  1.00  0.00    -0.237 OA
ATOM     83  O   UNL A   1      46.907  25.717  25.289  1.00  0.00    -0.744 OA
ENDBRANCH  77  80
ENDBRANCH  59  73
BRANCH  60  84
ATOM     84  C   UNL A   1      43.268  38.063  28.787  1.00  0.00     0.023 A 
ATOM     85  C   UNL A   1      42.564  38.570  27.678  1.00  0.00     0.012 A 
ATOM     86  C   UNL A   1      43.424  38.871  29.930  1.00  0.00     0.148 A 
ATOM     87  C   UNL A   1      42.050  39.867  27.694  1.00  0.00     0.002 A 
ATOM     88  C   UNL A   1      42.862  40.142  29.960  1.00  0.00     0.091 A 
ATOM     89  F   UNL A   1      44.103  38.371  30.972  1.00  0.00    -0.205 F 
ATOM     90  C   UNL A   1      42.190  40.648  28.837  1.00  0.00     0.022 A 
BRANCH  88  91
ATOM     91  S   UNL A   1      42.880  41.172  31.432  1.00  0.00     0.127 S 
ATOM     92  O   UNL A   1      43.307  40.224  32.458  1.00  0.00    -0.237 OA
ATOM     93  O   UNL A   1      43.874  42.185  31.076  1.00  0.00    -0.237 OA
ATOM     94  O   UNL A   1      41.523  41.684  31.574  1.00  0.00    -0.744 OA
ENDBRANCH  88  91
ENDBRANCH  60  84
BRANCH  72  95
ATOM     95  C   UNL A   1      49.123  35.190  26.286  1.00  0.00     0.023 A 
ATOM     96  C   UNL A   1      49.051  35.492  24.912  1.00  0.00     0.012 A 
ATOM     97  C   UNL A   1      50.300  35.494  26.999  1.00  0.00     0.148 A 
ATOM     98  C   UNL A   1      50.144  36.052  24.250  1.00  0.00     0.002 A 
ATOM     99  C   UNL A   1      51.366  36.101  26.345  1.00  0.00     0.091 A 
ATOM    100  F   UNL A   1      50.356  35.182  28.303  1.00  0.00    -0.205 F 
ATOM    101  C   UNL A   1      51.295  36.367  24.969  1.00  0.00     0.022 A 
BRANCH  99 102
ATOM    102  S   UNL A   1      52.849  36.633  27.208  1.00  0.00     0.127 S 
ATOM    103  O   UNL A   1      53.844  36.597  26.138  1.00  0.00    -0.237 OA
ATOM    104  O   UNL A   1      52.481  37.976  27.656  1.00  0.00    -0.237 OA
ATOM    105  O   UNL A   1      53.054  35.672  28.284  1.00  0.00    -0.744 OA
ENDBRANCH  99 102
ENDBRANCH  72  95
ENDBRANCH  46  47
ENDBRANCH  38  41
ENDBRANCH  36  37
ENDBRANCH  35  36
ENDBRANCH  34  35
ENDBRANCH  33  34
ENDBRANCH  32  33
ENDBRANCH  31  32
ENDBRANCH   3  31
TORSDOF 25
ENDMDL
