MODEL 1
REMARK VINA RESULT:     -11.6      0.000      0.000
REMARK SMILES C[C@@H](C(=O)NCCCCCCNC(=O)c1ccc(-c2c3nc(c(-c4cccc(S(=O)(=O)[O-])c4F)c4ccc([nH]4)c(-c4cccc(S(=O)(=O)[O-])c4F)c4nc(c(-c5cccc(S(=O)(=O)[O-])c5F)c5ccc2[nH]5)C=C4)C=C3)cc1)c1cc(C(=O)c2ccccc2)ccc1O
REMARK SMILES IDX 8 1 7 2 6 3 5 4 3 5 4 6 2 8 1 9 78 10 79 11 91 12 80 13
REMARK SMILES IDX 90 14 89 15 92 16 81 18 82 19 83 20 84 21 88 22 85 23 87 24
REMARK SMILES IDX 86 25 9 26 10 27 11 28 12 29 13 30 14 32 15 33 16 34 77 35
REMARK SMILES IDX 17 36 76 37 18 38 19 39 20 40 70 41 21 42 75 43 69 44 71 45
REMARK SMILES IDX 22 46 74 47 68 48 67 49 23 51 55 52 35 53 54 54 36 55 39 56
REMARK SMILES IDX 53 57 72 58 37 59 38 60 52 62 73 63 40 64 24 65 25 66 33 67
REMARK SMILES IDX 26 68 28 69 34 70 27 71 29 72 30 73 31 74 32 75 56 76 57 77
REMARK SMILES IDX 65 78 58 79 60 80 66 81 59 82 61 83 62 84 63 85 64 86 41 87
REMARK SMILES IDX 42 88 50 89 43 90 45 91 51 92 44 93 46 94 47 95 48 96 49 97
REMARK H PARENT 5 7 92 17 12 31 71 50 39 61
REMARK Flexibility Score: inf
ROOT
ATOM      1  C   UNL A   1      31.404  28.367  24.256  1.00  0.00     0.002 C 
ENDROOT
BRANCH   1   2
ATOM      2  C   UNL A   1      30.249  27.544  23.671  1.00  0.00     0.021 C 
BRANCH   2   3
ATOM      3  C   UNL A   1      29.754  26.417  24.587  1.00  0.00     0.116 C 
BRANCH   3   4
ATOM      4  N   UNL A   1      29.894  25.134  23.922  1.00  0.00    -0.356 N 
ATOM      5  C   UNL A   1      31.018  24.416  23.627  1.00  0.00     0.227 C 
ATOM      6  O   UNL A   1      30.898  23.505  22.803  1.00  0.00    -0.274 OA
ATOM      7  H   UNL A   1      29.048  24.717  23.638  1.00  0.00     0.163 HD
BRANCH   5   8
ATOM      8  C   UNL A   1      32.357  24.732  24.329  1.00  0.00     0.109 C 
ATOM      9  C   UNL A   1      33.411  25.087  23.275  1.00  0.00     0.023 C 
BRANCH   8  10
ATOM     10  C   UNL A   1      32.752  23.622  25.324  1.00  0.00     0.007 A 
ATOM     11  C   UNL A   1      33.570  22.565  24.847  1.00  0.00     0.020 A 
ATOM     12  C   UNL A   1      32.357  23.547  26.668  1.00  0.00     0.119 A 
ATOM     13  C   UNL A   1      33.991  21.515  25.682  1.00  0.00     0.023 A 
ATOM     14  C   UNL A   1      32.756  22.502  27.501  1.00  0.00     0.047 A 
ATOM     15  C   UNL A   1      33.592  21.504  27.021  1.00  0.00     0.016 A 
BRANCH  12  16
ATOM     16  O   UNL A   1      31.580  24.481  27.283  1.00  0.00    -0.508 OA
ATOM     17  H   UNL A   1      31.651  25.384  27.041  1.00  0.00     0.293 HD
ENDBRANCH  12  16
BRANCH  13  18
ATOM     18  C   UNL A   1      34.892  20.455  25.138  1.00  0.00     0.193 C 
ATOM     19  O   UNL A   1      36.111  20.591  25.164  1.00  0.00    -0.289 OA
BRANCH  18  20
ATOM     20  C   UNL A   1      34.328  19.196  24.592  1.00  0.00     0.022 A 
ATOM     21  C   UNL A   1      33.036  19.212  24.056  1.00  0.00     0.012 A 
ATOM     22  C   UNL A   1      35.078  18.014  24.586  1.00  0.00     0.012 A 
ATOM     23  C   UNL A   1      32.518  18.059  23.465  1.00  0.00     0.001 A 
ATOM     24  C   UNL A   1      34.558  16.866  23.990  1.00  0.00     0.001 A 
ATOM     25  C   UNL A   1      33.283  16.891  23.422  1.00  0.00     0.000 A 
ENDBRANCH  18  20
ENDBRANCH  13  18
ENDBRANCH   8  10
ENDBRANCH   5   8
ENDBRANCH   3   4
ENDBRANCH   2   3
ENDBRANCH   1   2
BRANCH   1  26
ATOM     26  C   UNL A   1      31.511  28.337  25.783  1.00  0.00     0.002 C 
BRANCH  26  27
ATOM     27  C   UNL A   1      32.828  27.778  26.333  1.00  0.00     0.021 C 
BRANCH  27  28
ATOM     28  C   UNL A   1      34.065  28.624  26.032  1.00  0.00     0.116 C 
BRANCH  28  29
ATOM     29  N   UNL A   1      33.879  30.016  26.410  1.00  0.00    -0.352 N 
ATOM     30  C   UNL A   1      34.580  30.785  27.304  1.00  0.00     0.251 C 
ATOM     31  H   UNL A   1      33.137  30.477  25.954  1.00  0.00     0.163 HD
ATOM     32  O   UNL A   1      34.136  31.885  27.630  1.00  0.00    -0.269 OA
BRANCH  30  33
ATOM     33  C   UNL A   1      35.852  30.300  27.885  1.00  0.00     0.039 A 
ATOM     34  C   UNL A   1      35.816  29.641  29.118  1.00  0.00     0.014 A 
ATOM     35  C   UNL A   1      37.078  30.527  27.251  1.00  0.00     0.014 A 
ATOM     36  C   UNL A   1      36.999  29.172  29.690  1.00  0.00     0.010 A 
ATOM     37  C   UNL A   1      38.252  30.001  27.794  1.00  0.00     0.010 A 
ATOM     38  C   UNL A   1      38.227  29.325  29.022  1.00  0.00    -0.014 A 
BRANCH  38  39
ATOM     39  C   UNL A   1      39.476  28.761  29.597  1.00  0.00     0.031 A 
ATOM     40  C   UNL A   1      40.110  29.370  30.819  1.00  0.00     0.074 A 
ATOM     41  C   UNL A   1      40.070  27.718  28.982  1.00  0.00     0.049 A 
ATOM     42  N   UNL A   1      41.187  28.994  31.461  1.00  0.00    -0.248 NA
ATOM     43  C   UNL A   1      39.467  30.568  31.382  1.00  0.00     0.031 C 
ATOM     44  C   UNL A   1      39.611  27.099  27.738  1.00  0.00     0.029 A 
ATOM     45  N   UNL A   1      41.200  27.008  29.308  1.00  0.00    -0.354 N 
ATOM     46  C   UNL A   1      41.359  29.913  32.490  1.00  0.00     0.074 A 
ATOM     47  C   UNL A   1      40.301  30.890  32.361  1.00  0.00     0.031 C 
ATOM     48  C   UNL A   1      40.446  26.101  27.407  1.00  0.00     0.029 A 
ATOM     49  C   UNL A   1      41.509  26.019  28.404  1.00  0.00     0.049 A 
ATOM     50  H   UNL A   1      41.737  27.191  30.112  1.00  0.00     0.167 HD
ATOM     51  C   UNL A   1      42.289  29.921  33.476  1.00  0.00     0.034 A 
ATOM     52  C   UNL A   1      42.530  25.141  28.381  1.00  0.00     0.034 A 
ATOM     53  C   UNL A   1      43.322  28.929  33.622  1.00  0.00     0.049 A 
ATOM     54  C   UNL A   1      43.513  25.135  29.521  1.00  0.00     0.074 A 
ATOM     55  C   UNL A   1      44.271  28.816  34.623  1.00  0.00     0.029 A 
ATOM     56  N   UNL A   1      43.542  27.879  32.745  1.00  0.00    -0.354 N 
ATOM     57  N   UNL A   1      43.560  25.913  30.575  1.00  0.00    -0.248 NA
ATOM     58  C   UNL A   1      44.557  24.100  29.492  1.00  0.00     0.031 C 
ATOM     59  C   UNL A   1      45.072  27.702  34.345  1.00  0.00     0.029 A 
ATOM     60  C   UNL A   1      44.609  27.112  33.181  1.00  0.00     0.049 A 
ATOM     61  H   UNL A   1      43.017  27.705  31.930  1.00  0.00     0.167 HD
ATOM     62  C   UNL A   1      44.618  25.447  31.347  1.00  0.00     0.074 A 
ATOM     63  C   UNL A   1      45.162  24.296  30.656  1.00  0.00     0.031 C 
ATOM     64  C   UNL A   1      45.110  25.940  32.510  1.00  0.00     0.034 A 
BRANCH  51  65
ATOM     65  C   UNL A   1      42.186  30.998  34.526  1.00  0.00     0.023 A 
ATOM     66  C   UNL A   1      41.460  30.736  35.706  1.00  0.00     0.012 A 
ATOM     67  C   UNL A   1      42.857  32.229  34.386  1.00  0.00     0.148 A 
ATOM     68  C   UNL A   1      41.378  31.691  36.719  1.00  0.00     0.002 A 
ATOM     69  C   UNL A   1      42.805  33.160  35.419  1.00  0.00     0.091 A 
ATOM     70  F   UNL A   1      43.528  32.467  33.251  1.00  0.00    -0.205 F 
ATOM     71  C   UNL A   1      42.059  32.897  36.580  1.00  0.00     0.022 A 
BRANCH  69  72
ATOM     72  S   UNL A   1      43.706  34.714  35.372  1.00  0.00     0.127 S 
ATOM     73  O   UNL A   1      43.221  35.298  34.121  1.00  0.00    -0.237 OA
ATOM     74  O   UNL A   1      43.224  35.384  36.583  1.00  0.00    -0.237 OA
ATOM     75  O   UNL A   1      45.116  34.364  35.391  1.00  0.00    -0.744 OA
ENDBRANCH  69  72
ENDBRANCH  51  65
BRANCH  52  76
ATOM     76  C   UNL A   1      42.634  24.149  27.274  1.00  0.00     0.023 A 
ATOM     77  C   UNL A   1      43.419  24.448  26.143  1.00  0.00     0.012 A 
ATOM     78  C   UNL A   1      41.982  22.904  27.347  1.00  0.00     0.148 A 
ATOM     79  C   UNL A   1      43.521  23.539  25.089  1.00  0.00     0.002 A 
ATOM     80  C   UNL A   1      42.136  21.979  26.321  1.00  0.00     0.091 A 
ATOM     81  F   UNL A   1      41.227  22.642  28.425  1.00  0.00    -0.205 F 
ATOM     82  C   UNL A   1      42.890  22.301  25.182  1.00  0.00     0.022 A 
BRANCH  80  83
ATOM     83  S   UNL A   1      41.474  20.313  26.435  1.00  0.00     0.127 S 
ATOM     84  O   UNL A   1      40.052  20.538  26.184  1.00  0.00    -0.237 OA
ATOM     85  O   UNL A   1      42.188  19.624  25.360  1.00  0.00    -0.237 OA
ATOM     86  O   UNL A   1      41.823  19.850  27.771  1.00  0.00    -0.744 OA
ENDBRANCH  80  83
ENDBRANCH  52  76
BRANCH  64  87
ATOM     87  C   UNL A   1      46.289  25.227  33.120  1.00  0.00     0.023 A 
ATOM     88  C   UNL A   1      47.592  25.706  32.880  1.00  0.00     0.012 A 
ATOM     89  C   UNL A   1      46.104  24.117  33.967  1.00  0.00     0.148 A 
ATOM     90  C   UNL A   1      48.697  25.067  33.441  1.00  0.00     0.002 A 
ATOM     91  C   UNL A   1      47.208  23.514  34.561  1.00  0.00     0.091 A 
ATOM     92  F   UNL A   1      44.859  23.663  34.168  1.00  0.00    -0.205 F 
ATOM     93  C   UNL A   1      48.505  23.978  34.288  1.00  0.00     0.022 A 
BRANCH  91  94
ATOM     94  S   UNL A   1      47.045  22.164  35.735  1.00  0.00     0.127 S 
ATOM     95  O   UNL A   1      46.540  21.088  34.885  1.00  0.00    -0.237 OA
ATOM     96  O   UNL A   1      48.422  21.982  36.196  1.00  0.00    -0.237 OA
ATOM     97  O   UNL A   1      46.126  22.640  36.761  1.00  0.00    -0.744 OA
ENDBRANCH  91  94
ENDBRANCH  64  87
ENDBRANCH  38  39
ENDBRANCH  30  33
ENDBRANCH  28  29
ENDBRANCH  27  28
ENDBRANCH  26  27
ENDBRANCH   1  26
TORSDOF 20
ENDMDL
MODEL 2
REMARK VINA RESULT:     -11.2      5.122      8.631
REMARK SMILES C[C@@H](C(=O)NCCCCCCNC(=O)c1ccc(-c2c3nc(c(-c4cccc(S(=O)(=O)[O-])c4F)c4ccc([nH]4)c(-c4cccc(S(=O)(=O)[O-])c4F)c4nc(c(-c5cccc(S(=O)(=O)[O-])c5F)c5ccc2[nH]5)C=C4)C=C3)cc1)c1cc(C(=O)c2ccccc2)ccc1O
REMARK SMILES IDX 8 1 7 2 6 3 5 4 3 5 4 6 2 8 1 9 78 10 79 11 91 12 80 13
REMARK SMILES IDX 90 14 89 15 92 16 81 18 82 19 83 20 84 21 88 22 85 23 87 24
REMARK SMILES IDX 86 25 9 26 10 27 11 28 12 29 13 30 14 32 15 33 16 34 77 35
REMARK SMILES IDX 17 36 76 37 18 38 19 39 20 40 70 41 21 42 75 43 69 44 71 45
REMARK SMILES IDX 22 46 74 47 68 48 67 49 23 51 55 52 35 53 54 54 36 55 39 56
REMARK SMILES IDX 53 57 72 58 37 59 38 60 52 62 73 63 40 64 24 65 25 66 33 67
REMARK SMILES IDX 26 68 28 69 34 70 27 71 29 72 30 73 31 74 32 75 56 76 57 77
REMARK SMILES IDX 65 78 58 79 60 80 66 81 59 82 61 83 62 84 63 85 64 86 41 87
REMARK SMILES IDX 42 88 50 89 43 90 45 91 51 92 44 93 46 94 47 95 48 96 49 97
REMARK H PARENT 5 7 92 17 12 31 71 50 39 61
REMARK Flexibility Score: inf
ROOT
ATOM      1  C   UNL A   1      37.054  21.507  24.441  1.00  0.00     0.002 C 
ENDROOT
BRANCH   1   2
ATOM      2  C   UNL A   1      37.355  22.549  25.527  1.00  0.00     0.021 C 
BRANCH   2   3
ATOM      3  C   UNL A   1      36.975  23.985  25.142  1.00  0.00     0.116 C 
BRANCH   3   4
ATOM      4  N   UNL A   1      35.744  24.371  25.808  1.00  0.00    -0.356 N 
ATOM      5  C   UNL A   1      34.565  24.820  25.283  1.00  0.00     0.227 C 
ATOM      6  O   UNL A   1      33.776  25.359  26.064  1.00  0.00    -0.274 OA
ATOM      7  H   UNL A   1      35.761  24.300  26.790  1.00  0.00     0.163 HD
BRANCH   5   8
ATOM      8  C   UNL A   1      34.249  24.623  23.784  1.00  0.00     0.109 C 
ATOM      9  C   UNL A   1      33.519  25.861  23.253  1.00  0.00     0.023 C 
BRANCH   8  10
ATOM     10  C   UNL A   1      33.553  23.272  23.523  1.00  0.00     0.007 A 
ATOM     11  C   UNL A   1      33.708  22.249  24.495  1.00  0.00     0.020 A 
ATOM     12  C   UNL A   1      32.790  22.947  22.392  1.00  0.00     0.119 A 
ATOM     13  C   UNL A   1      33.103  20.988  24.350  1.00  0.00     0.023 A 
ATOM     14  C   UNL A   1      32.198  21.695  22.231  1.00  0.00     0.047 A 
ATOM     15  C   UNL A   1      32.329  20.726  23.217  1.00  0.00     0.016 A 
BRANCH  12  16
ATOM     16  O   UNL A   1      32.539  23.814  21.373  1.00  0.00    -0.508 OA
ATOM     17  H   UNL A   1      32.002  24.568  21.519  1.00  0.00     0.293 HD
ENDBRANCH  12  16
BRANCH  13  18
ATOM     18  C   UNL A   1      33.259  19.966  25.429  1.00  0.00     0.193 C 
ATOM     19  O   UNL A   1      33.296  20.297  26.610  1.00  0.00    -0.289 OA
BRANCH  18  20
ATOM     20  C   UNL A   1      33.331  18.523  25.092  1.00  0.00     0.022 A 
ATOM     21  C   UNL A   1      32.576  17.616  25.843  1.00  0.00     0.012 A 
ATOM     22  C   UNL A   1      34.117  18.071  24.025  1.00  0.00     0.012 A 
ATOM     23  C   UNL A   1      32.568  16.265  25.491  1.00  0.00     0.001 A 
ATOM     24  C   UNL A   1      34.101  16.722  23.674  1.00  0.00     0.001 A 
ATOM     25  C   UNL A   1      33.320  15.822  24.402  1.00  0.00     0.000 A 
ENDBRANCH  18  20
ENDBRANCH  13  18
ENDBRANCH   8  10
ENDBRANCH   5   8
ENDBRANCH   3   4
ENDBRANCH   2   3
ENDBRANCH   1   2
BRANCH   1  26
ATOM     26  C   UNL A   1      36.896  20.071  24.948  1.00  0.00     0.002 C 
BRANCH  26  27
ATOM     27  C   UNL A   1      38.190  19.251  24.998  1.00  0.00     0.021 C 
BRANCH  27  28
ATOM     28  C   UNL A   1      39.237  19.756  25.990  1.00  0.00     0.116 C 
BRANCH  28  29
ATOM     29  N   UNL A   1      40.398  18.882  26.050  1.00  0.00    -0.352 N 
ATOM     30  C   UNL A   1      41.730  19.196  26.134  1.00  0.00     0.251 C 
ATOM     31  H   UNL A   1      40.196  17.918  26.027  1.00  0.00     0.163 HD
ATOM     32  O   UNL A   1      42.569  18.312  25.969  1.00  0.00    -0.269 OA
BRANCH  30  33
ATOM     33  C   UNL A   1      42.165  20.584  26.410  1.00  0.00     0.039 A 
ATOM     34  C   UNL A   1      42.484  21.411  25.328  1.00  0.00     0.014 A 
ATOM     35  C   UNL A   1      42.304  21.061  27.717  1.00  0.00     0.014 A 
ATOM     36  C   UNL A   1      42.896  22.725  25.556  1.00  0.00     0.010 A 
ATOM     37  C   UNL A   1      42.654  22.394  27.940  1.00  0.00     0.010 A 
ATOM     38  C   UNL A   1      42.962  23.238  26.864  1.00  0.00    -0.014 A 
BRANCH  38  39
ATOM     39  C   UNL A   1      43.329  24.659  27.102  1.00  0.00     0.031 A 
ATOM     40  C   UNL A   1      42.345  25.620  27.712  1.00  0.00     0.074 A 
ATOM     41  C   UNL A   1      44.545  25.096  26.719  1.00  0.00     0.049 A 
ATOM     42  N   UNL A   1      42.506  26.886  28.004  1.00  0.00    -0.248 NA
ATOM     43  C   UNL A   1      41.000  25.104  28.013  1.00  0.00     0.031 C 
ATOM     44  C   UNL A   1      45.554  24.289  26.030  1.00  0.00     0.029 A 
ATOM     45  N   UNL A   1      45.134  26.331  26.836  1.00  0.00    -0.354 N 
ATOM     46  C   UNL A   1      41.285  27.321  28.508  1.00  0.00     0.074 A 
ATOM     47  C   UNL A   1      40.379  26.195  28.441  1.00  0.00     0.031 C 
ATOM     48  C   UNL A   1      46.636  25.047  25.788  1.00  0.00     0.029 A 
ATOM     49  C   UNL A   1      46.394  26.396  26.290  1.00  0.00     0.049 A 
ATOM     50  H   UNL A   1      44.694  27.098  27.270  1.00  0.00     0.167 HD
ATOM     51  C   UNL A   1      40.958  28.533  29.017  1.00  0.00     0.034 A 
ATOM     52  C   UNL A   1      47.260  27.424  26.205  1.00  0.00     0.034 A 
ATOM     53  C   UNL A   1      41.870  29.643  29.113  1.00  0.00     0.049 A 
ATOM     54  C   UNL A   1      46.893  28.742  26.832  1.00  0.00     0.074 A 
ATOM     55  C   UNL A   1      41.651  30.891  29.670  1.00  0.00     0.029 A 
ATOM     56  N   UNL A   1      43.173  29.640  28.643  1.00  0.00    -0.354 N 
ATOM     57  N   UNL A   1      45.789  29.082  27.452  1.00  0.00    -0.248 NA
ATOM     58  C   UNL A   1      47.909  29.804  26.788  1.00  0.00     0.031 C 
ATOM     59  C   UNL A   1      42.821  31.646  29.528  1.00  0.00     0.029 A 
ATOM     60  C   UNL A   1      43.773  30.862  28.899  1.00  0.00     0.049 A 
ATOM     61  H   UNL A   1      43.609  28.880  28.193  1.00  0.00     0.167 HD
ATOM     62  C   UNL A   1      45.987  30.385  27.895  1.00  0.00     0.074 A 
ATOM     63  C   UNL A   1      47.330  30.759  27.503  1.00  0.00     0.031 C 
ATOM     64  C   UNL A   1      45.126  31.205  28.546  1.00  0.00     0.034 A 
BRANCH  51  65
ATOM     65  C   UNL A   1      39.571  28.703  29.584  1.00  0.00     0.023 A 
ATOM     66  C   UNL A   1      39.317  28.288  30.907  1.00  0.00     0.012 A 
ATOM     67  C   UNL A   1      38.547  29.331  28.848  1.00  0.00     0.148 A 
ATOM     68  C   UNL A   1      38.060  28.469  31.481  1.00  0.00     0.002 A 
ATOM     69  C   UNL A   1      37.307  29.544  29.442  1.00  0.00     0.091 A 
ATOM     70  F   UNL A   1      38.801  29.703  27.586  1.00  0.00    -0.205 F 
ATOM     71  C   UNL A   1      37.059  29.106  30.753  1.00  0.00     0.022 A 
BRANCH  69  72
ATOM     72  S   UNL A   1      35.973  30.421  28.618  1.00  0.00     0.127 S 
ATOM     73  O   UNL A   1      35.236  29.320  27.996  1.00  0.00    -0.237 OA
ATOM     74  O   UNL A   1      35.281  31.055  29.743  1.00  0.00    -0.237 OA
ATOM     75  O   UNL A   1      36.607  31.347  27.695  1.00  0.00    -0.744 OA
ENDBRANCH  69  72
ENDBRANCH  51  65
BRANCH  52  76
ATOM     76  C   UNL A   1      48.588  27.226  25.559  1.00  0.00     0.023 A 
ATOM     77  C   UNL A   1      49.679  26.779  26.331  1.00  0.00     0.012 A 
ATOM     78  C   UNL A   1      48.770  27.452  24.181  1.00  0.00     0.148 A 
ATOM     79  C   UNL A   1      50.935  26.598  25.750  1.00  0.00     0.002 A 
ATOM     80  C   UNL A   1      50.009  27.213  23.597  1.00  0.00     0.091 A 
ATOM     81  F   UNL A   1      47.725  27.892  23.464  1.00  0.00    -0.205 F 
ATOM     82  C   UNL A   1      51.097  26.804  24.382  1.00  0.00     0.022 A 
BRANCH  80  83
ATOM     83  S   UNL A   1      50.258  27.316  21.821  1.00  0.00     0.127 S 
ATOM     84  O   UNL A   1      49.982  28.727  21.561  1.00  0.00    -0.237 OA
ATOM     85  O   UNL A   1      51.662  26.927  21.684  1.00  0.00    -0.237 OA
ATOM     86  O   UNL A   1      49.319  26.363  21.244  1.00  0.00    -0.744 OA
ENDBRANCH  80  83
ENDBRANCH  52  76
BRANCH  64  87
ATOM     87  C   UNL A   1      45.616  32.587  28.893  1.00  0.00     0.023 A 
ATOM     88  C   UNL A   1      46.330  32.793  30.091  1.00  0.00     0.012 A 
ATOM     89  C   UNL A   1      45.414  33.669  28.015  1.00  0.00     0.148 A 
ATOM     90  C   UNL A   1      46.800  34.061  30.429  1.00  0.00     0.002 A 
ATOM     91  C   UNL A   1      45.926  34.922  28.336  1.00  0.00     0.091 A 
ATOM     92  F   UNL A   1      44.715  33.460  26.890  1.00  0.00    -0.205 F 
ATOM     93  C   UNL A   1      46.607  35.122  29.548  1.00  0.00     0.022 A 
BRANCH  91  94
ATOM     94  S   UNL A   1      45.802  36.323  27.218  1.00  0.00     0.127 S 
ATOM     95  O   UNL A   1      44.354  36.471  27.085  1.00  0.00    -0.237 OA
ATOM     96  O   UNL A   1      46.457  37.388  27.978  1.00  0.00    -0.237 OA
ATOM     97  O   UNL A   1      46.509  35.927  26.007  1.00  0.00    -0.744 OA
ENDBRANCH  91  94
ENDBRANCH  64  87
ENDBRANCH  38  39
ENDBRANCH  30  33
ENDBRANCH  28  29
ENDBRANCH  27  28
ENDBRANCH  26  27
ENDBRANCH   1  26
TORSDOF 20
ENDMDL
MODEL 3
REMARK VINA RESULT:     -11.0      1.952      2.223
REMARK SMILES C[C@@H](C(=O)NCCCCCCNC(=O)c1ccc(-c2c3nc(c(-c4cccc(S(=O)(=O)[O-])c4F)c4ccc([nH]4)c(-c4cccc(S(=O)(=O)[O-])c4F)c4nc(c(-c5cccc(S(=O)(=O)[O-])c5F)c5ccc2[nH]5)C=C4)C=C3)cc1)c1cc(C(=O)c2ccccc2)ccc1O
REMARK SMILES IDX 8 1 7 2 6 3 5 4 3 5 4 6 2 8 1 9 78 10 79 11 91 12 80 13
REMARK SMILES IDX 90 14 89 15 92 16 81 18 82 19 83 20 84 21 88 22 85 23 87 24
REMARK SMILES IDX 86 25 9 26 10 27 11 28 12 29 13 30 14 32 15 33 16 34 77 35
REMARK SMILES IDX 17 36 76 37 18 38 19 39 20 40 70 41 21 42 75 43 69 44 71 45
REMARK SMILES IDX 22 46 74 47 68 48 67 49 23 51 55 52 35 53 54 54 36 55 39 56
REMARK SMILES IDX 53 57 72 58 37 59 38 60 52 62 73 63 40 64 24 65 25 66 33 67
REMARK SMILES IDX 26 68 28 69 34 70 27 71 29 72 30 73 31 74 32 75 56 76 57 77
REMARK SMILES IDX 65 78 58 79 60 80 66 81 59 82 61 83 62 84 63 85 64 86 41 87
REMARK SMILES IDX 42 88 50 89 43 90 45 91 51 92 44 93 46 94 47 95 48 96 49 97
REMARK H PARENT 5 7 92 17 12 31 71 50 39 61
REMARK Flexibility Score: inf
ROOT
ATOM      1  C   UNL A   1      31.737  28.148  24.785  1.00  0.00     0.002 C 
ENDROOT
BRANCH   1   2
ATOM      2  C   UNL A   1      30.496  27.491  24.165  1.00  0.00     0.021 C 
BRANCH   2   3
ATOM      3  C   UNL A   1      29.865  26.397  25.036  1.00  0.00     0.116 C 
BRANCH   3   4
ATOM      4  N   UNL A   1      29.884  25.126  24.334  1.00  0.00    -0.356 N 
ATOM      5  C   UNL A   1      30.942  24.376  23.904  1.00  0.00     0.227 C 
ATOM      6  O   UNL A   1      30.700  23.490  23.080  1.00  0.00    -0.274 OA
ATOM      7  H   UNL A   1      28.998  24.746  24.136  1.00  0.00     0.163 HD
BRANCH   5   8
ATOM      8  C   UNL A   1      32.360  24.629  24.462  1.00  0.00     0.109 C 
ATOM      9  C   UNL A   1      33.311  24.950  23.304  1.00  0.00     0.023 C 
BRANCH   8  10
ATOM     10  C   UNL A   1      32.810  23.494  25.404  1.00  0.00     0.007 A 
ATOM     11  C   UNL A   1      33.617  22.462  24.858  1.00  0.00     0.020 A 
ATOM     12  C   UNL A   1      32.476  23.372  26.760  1.00  0.00     0.119 A 
ATOM     13  C   UNL A   1      34.086  21.391  25.641  1.00  0.00     0.023 A 
ATOM     14  C   UNL A   1      32.921  22.307  27.542  1.00  0.00     0.047 A 
ATOM     15  C   UNL A   1      33.746  21.334  26.994  1.00  0.00     0.016 A 
BRANCH  12  16
ATOM     16  O   UNL A   1      31.716  24.278  27.438  1.00  0.00    -0.508 OA
ATOM     17  H   UNL A   1      30.857  24.493  27.131  1.00  0.00     0.293 HD
ENDBRANCH  12  16
BRANCH  13  18
ATOM     18  C   UNL A   1      34.974  20.360  25.025  1.00  0.00     0.193 C 
ATOM     19  O   UNL A   1      36.181  20.552  24.916  1.00  0.00    -0.289 OA
BRANCH  18  20
ATOM     20  C   UNL A   1      34.416  19.062  24.571  1.00  0.00     0.022 A 
ATOM     21  C   UNL A   1      33.128  19.035  24.026  1.00  0.00     0.012 A 
ATOM     22  C   UNL A   1      35.168  17.884  24.659  1.00  0.00     0.012 A 
ATOM     23  C   UNL A   1      32.616  17.839  23.520  1.00  0.00     0.001 A 
ATOM     24  C   UNL A   1      34.654  16.694  24.146  1.00  0.00     0.001 A 
ATOM     25  C   UNL A   1      33.383  16.674  23.569  1.00  0.00     0.000 A 
ENDBRANCH  18  20
ENDBRANCH  13  18
ENDBRANCH   8  10
ENDBRANCH   5   8
ENDBRANCH   3   4
ENDBRANCH   2   3
ENDBRANCH   1   2
BRANCH   1  26
ATOM     26  C   UNL A   1      31.570  28.602  26.237  1.00  0.00     0.002 C 
BRANCH  26  27
ATOM     27  C   UNL A   1      32.728  28.235  27.171  1.00  0.00     0.021 C 
BRANCH  27  28
ATOM     28  C   UNL A   1      34.007  29.046  26.966  1.00  0.00     0.116 C 
BRANCH  28  29
ATOM     29  N   UNL A   1      33.835  30.441  27.340  1.00  0.00    -0.352 N 
ATOM     30  C   UNL A   1      34.605  31.233  28.153  1.00  0.00     0.251 C 
ATOM     31  H   UNL A   1      33.046  30.883  26.950  1.00  0.00     0.163 HD
ATOM     32  O   UNL A   1      34.176  32.331  28.505  1.00  0.00    -0.269 OA
BRANCH  30  33
ATOM     33  C   UNL A   1      35.935  30.777  28.617  1.00  0.00     0.039 A 
ATOM     34  C   UNL A   1      35.996  29.721  29.532  1.00  0.00     0.014 A 
ATOM     35  C   UNL A   1      37.111  31.404  28.196  1.00  0.00     0.014 A 
ATOM     36  C   UNL A   1      37.236  29.268  29.987  1.00  0.00     0.010 A 
ATOM     37  C   UNL A   1      38.351  30.908  28.602  1.00  0.00     0.010 A 
ATOM     38  C   UNL A   1      38.427  29.841  29.508  1.00  0.00    -0.014 A 
BRANCH  38  39
ATOM     39  C   UNL A   1      39.748  29.309  29.936  1.00  0.00     0.031 A 
ATOM     40  C   UNL A   1      40.520  29.963  31.050  1.00  0.00     0.074 A 
ATOM     41  C   UNL A   1      40.276  28.256  29.282  1.00  0.00     0.049 A 
ATOM     42  N   UNL A   1      41.675  29.620  31.562  1.00  0.00    -0.248 NA
ATOM     43  C   UNL A   1      39.934  31.170  31.655  1.00  0.00     0.031 C 
ATOM     44  C   UNL A   1      39.674  27.593  28.123  1.00  0.00     0.029 A 
ATOM     45  N   UNL A   1      41.449  27.570  29.482  1.00  0.00    -0.354 N 
ATOM     46  C   UNL A   1      41.961  30.571  32.534  1.00  0.00     0.074 A 
ATOM     47  C   UNL A   1      40.879  31.532  32.512  1.00  0.00     0.031 C 
ATOM     48  C   UNL A   1      40.477  26.596  27.719  1.00  0.00     0.029 A 
ATOM     49  C   UNL A   1      41.657  26.558  28.575  1.00  0.00     0.049 A 
ATOM     50  H   UNL A   1      42.080  27.784  30.206  1.00  0.00     0.167 HD
ATOM     51  C   UNL A   1      43.008  30.621  33.394  1.00  0.00     0.034 A 
ATOM     52  C   UNL A   1      42.682  25.692  28.449  1.00  0.00     0.034 A 
ATOM     53  C   UNL A   1      44.066  29.647  33.437  1.00  0.00     0.049 A 
ATOM     54  C   UNL A   1      43.800  25.732  29.455  1.00  0.00     0.074 A 
ATOM     55  C   UNL A   1      45.135  29.576  34.313  1.00  0.00     0.029 A 
ATOM     56  N   UNL A   1      44.191  28.574  32.570  1.00  0.00    -0.354 N 
ATOM     57  N   UNL A   1      43.966  26.543  30.472  1.00  0.00    -0.248 NA
ATOM     58  C   UNL A   1      44.849  24.710  29.325  1.00  0.00     0.031 C 
ATOM     59  C   UNL A   1      45.912  28.463  33.968  1.00  0.00     0.029 A 
ATOM     60  C   UNL A   1      45.316  27.833  32.889  1.00  0.00     0.049 A 
ATOM     61  H   UNL A   1      43.570  28.368  31.833  1.00  0.00     0.167 HD
ATOM     62  C   UNL A   1      45.121  26.113  31.117  1.00  0.00     0.074 A 
ATOM     63  C   UNL A   1      45.592  24.948  30.396  1.00  0.00     0.031 C 
ATOM     64  C   UNL A   1      45.747  26.648  32.194  1.00  0.00     0.034 A 
BRANCH  51  65
ATOM     65  C   UNL A   1      43.020  31.728  34.418  1.00  0.00     0.023 A 
ATOM     66  C   UNL A   1      43.613  32.963  34.083  1.00  0.00     0.012 A 
ATOM     67  C   UNL A   1      42.392  31.580  35.669  1.00  0.00     0.148 A 
ATOM     68  C   UNL A   1      43.605  34.025  34.986  1.00  0.00     0.002 A 
ATOM     69  C   UNL A   1      42.352  32.658  36.549  1.00  0.00     0.091 A 
ATOM     70  F   UNL A   1      41.848  30.395  35.977  1.00  0.00    -0.205 F 
ATOM     71  C   UNL A   1      42.967  33.876  36.214  1.00  0.00     0.022 A 
BRANCH  69  72
ATOM     72  S   UNL A   1      41.491  32.594  38.125  1.00  0.00     0.127 S 
ATOM     73  O   UNL A   1      41.627  33.975  38.591  1.00  0.00    -0.237 OA
ATOM     74  O   UNL A   1      40.134  32.222  37.718  1.00  0.00    -0.237 OA
ATOM     75  O   UNL A   1      42.182  31.597  38.923  1.00  0.00    -0.744 OA
ENDBRANCH  69  72
ENDBRANCH  51  65
BRANCH  52  76
ATOM     76  C   UNL A   1      42.661  24.668  27.367  1.00  0.00     0.023 A 
ATOM     77  C   UNL A   1      43.285  24.945  26.134  1.00  0.00     0.012 A 
ATOM     78  C   UNL A   1      42.051  23.414  27.560  1.00  0.00     0.148 A 
ATOM     79  C   UNL A   1      43.268  24.006  25.102  1.00  0.00     0.002 A 
ATOM     80  C   UNL A   1      42.090  22.461  26.549  1.00  0.00     0.091 A 
ATOM     81  F   UNL A   1      41.449  23.173  28.734  1.00  0.00    -0.205 F 
ATOM     82  C   UNL A   1      42.681  22.761  25.312  1.00  0.00     0.022 A 
BRANCH  80  83
ATOM     83  S   UNL A   1      41.483  20.788  26.796  1.00  0.00     0.127 S 
ATOM     84  O   UNL A   1      40.056  21.015  27.011  1.00  0.00    -0.237 OA
ATOM     85  O   UNL A   1      41.820  20.148  25.524  1.00  0.00    -0.237 OA
ATOM     86  O   UNL A   1      42.228  20.272  27.936  1.00  0.00    -0.744 OA
ENDBRANCH  80  83
ENDBRANCH  52  76
BRANCH  64  87
ATOM     87  C   UNL A   1      47.005  25.968  32.671  1.00  0.00     0.023 A 
ATOM     88  C   UNL A   1      46.927  24.995  33.688  1.00  0.00     0.012 A 
ATOM     89  C   UNL A   1      48.251  26.256  32.084  1.00  0.00     0.148 A 
ATOM     90  C   UNL A   1      48.075  24.347  34.140  1.00  0.00     0.002 A 
ATOM     91  C   UNL A   1      49.386  25.572  32.507  1.00  0.00     0.091 A 
ATOM     92  F   UNL A   1      48.310  27.199  31.133  1.00  0.00    -0.205 F 
ATOM     93  C   UNL A   1      49.302  24.628  33.544  1.00  0.00     0.022 A 
BRANCH  91  94
ATOM     94  S   UNL A   1      50.990  25.806  31.733  1.00  0.00     0.127 S 
ATOM     95  O   UNL A   1      51.128  27.261  31.765  1.00  0.00    -0.237 OA
ATOM     96  O   UNL A   1      51.885  25.089  32.643  1.00  0.00    -0.237 OA
ATOM     97  O   UNL A   1      50.881  25.213  30.407  1.00  0.00    -0.744 OA
ENDBRANCH  91  94
ENDBRANCH  64  87
ENDBRANCH  38  39
ENDBRANCH  30  33
ENDBRANCH  28  29
ENDBRANCH  27  28
ENDBRANCH  26  27
ENDBRANCH   1  26
TORSDOF 20
ENDMDL
