MODEL 1
REMARK VINA RESULT:     -10.7      0.000      0.000
REMARK SMILES O=C(Cc1ccc(NC(=O)Nc2ccc(Br)cc2)cc1)NCCCCCCNC(=O)c1ccc(-c2c3nc(c(-c4cccc(S(=O)(=O)[O-])c4F)c4ccc([nH]4)c(-c4cccc(S(=O)(=O)[O-])c4F)c4nc(c(-c5cccc(S(=O)(=O)[O-])c5F)c5ccc2[nH]5)C=C4)C=C3)cc1
REMARK SMILES IDX 24 1 23 2 22 3 21 4 1 5 2 6 3 8 4 9 5 10 20 11 6 12 19 13
REMARK SMILES IDX 7 14 8 15 9 16 10 18 11 19 12 21 13 22 18 23 14 24 17 25
REMARK SMILES IDX 15 26 16 27 25 28 26 29 27 30 28 31 29 32 30 34 31 35 32 36
REMARK SMILES IDX 93 37 33 38 92 39 34 40 35 41 36 42 86 43 37 44 91 45 85 46
REMARK SMILES IDX 87 47 38 48 90 49 84 50 83 51 39 53 71 54 51 55 70 56 52 57
REMARK SMILES IDX 55 58 69 59 88 60 53 61 54 62 68 64 89 65 56 66 40 67 41 68
REMARK SMILES IDX 49 69 42 70 44 71 50 72 43 73 45 74 46 75 47 76 48 77 72 78
REMARK SMILES IDX 73 79 81 80 74 81 76 82 82 83 75 84 77 85 78 86 79 87 80 88
REMARK SMILES IDX 57 89 58 90 66 91 59 92 61 93 67 94 60 95 62 96 63 97 64 98
REMARK SMILES IDX 65 99
REMARK H PARENT 21 7 8 17 11 20 28 33 87 52 55 63
REMARK Flexibility Score: inf
ROOT
ATOM      1  C   UNL A   1      40.261  22.506  27.201  1.00  0.00     0.002 C 
ENDROOT
BRANCH   1   2
ATOM      2  C   UNL A   1      39.083  23.438  26.878  1.00  0.00     0.021 C 
BRANCH   2   3
ATOM      3  C   UNL A   1      38.110  22.891  25.837  1.00  0.00     0.116 C 
BRANCH   3   4
ATOM      4  N   UNL A   1      36.757  22.957  26.336  1.00  0.00    -0.356 N 
ATOM      5  O   UNL A   1      35.666  22.674  24.334  1.00  0.00    -0.275 OA
ATOM      6  C   UNL A   1      35.640  22.835  25.548  1.00  0.00     0.224 C 
ATOM      7  H   UNL A   1      36.627  23.099  27.302  1.00  0.00     0.163 HD
BRANCH   6   8
ATOM      8  C   UNL A   1      34.350  22.993  26.324  1.00  0.00     0.135 C 
BRANCH   8   9
ATOM      9  C   UNL A   1      33.677  24.349  26.250  1.00  0.00    -0.039 A 
ATOM     10  C   UNL A   1      34.364  25.397  25.624  1.00  0.00     0.006 A 
ATOM     11  C   UNL A   1      32.348  24.564  26.644  1.00  0.00     0.006 A 
ATOM     12  C   UNL A   1      33.689  26.561  25.252  1.00  0.00     0.026 A 
ATOM     13  C   UNL A   1      31.679  25.735  26.284  1.00  0.00     0.026 A 
ATOM     14  C   UNL A   1      32.314  26.662  25.461  1.00  0.00     0.042 A 
BRANCH  14  15
ATOM     15  N   UNL A   1      31.494  27.585  24.788  1.00  0.00    -0.308 N 
ATOM     16  C   UNL A   1      31.217  27.756  23.470  1.00  0.00     0.323 C 
ATOM     17  H   UNL A   1      31.037  28.222  25.382  1.00  0.00     0.171 HD
ATOM     18  O   UNL A   1      30.744  28.836  23.104  1.00  0.00    -0.248 OA
ATOM     19  N   UNL A   1      31.454  26.806  22.529  1.00  0.00    -0.308 N 
ATOM     20  H   UNL A   1      31.584  27.167  21.622  1.00  0.00     0.171 HD
BRANCH  19  21
ATOM     21  C   UNL A   1      31.548  25.406  22.605  1.00  0.00     0.042 A 
ATOM     22  C   UNL A   1      32.741  24.823  22.161  1.00  0.00     0.027 A 
ATOM     23  C   UNL A   1      30.550  24.593  23.155  1.00  0.00     0.027 A 
ATOM     24  C   UNL A   1      32.997  23.472  22.408  1.00  0.00     0.018 A 
ATOM     25  C   UNL A   1      30.795  23.234  23.380  1.00  0.00     0.018 A 
ATOM     26  C   UNL A   1      32.031  22.689  23.038  1.00  0.00     0.018 A 
ATOM     27  Br  UNL A   1      32.426  20.893  23.477  1.00  0.00    -0.051 Br
ENDBRANCH  19  21
ENDBRANCH  14  15
ENDBRANCH   8   9
ENDBRANCH   6   8
ENDBRANCH   3   4
ENDBRANCH   2   3
ENDBRANCH   1   2
BRANCH   1  28
ATOM     28  C   UNL A   1      40.666  21.553  26.072  1.00  0.00     0.002 C 
BRANCH  28  29
ATOM     29  C   UNL A   1      40.867  20.100  26.503  1.00  0.00     0.021 C 
BRANCH  29  30
ATOM     30  C   UNL A   1      42.303  19.740  26.864  1.00  0.00     0.116 C 
BRANCH  30  31
ATOM     31  N   UNL A   1      43.065  19.276  25.714  1.00  0.00    -0.352 N 
ATOM     32  C   UNL A   1      43.895  19.997  24.892  1.00  0.00     0.251 C 
ATOM     33  H   UNL A   1      42.974  18.320  25.498  1.00  0.00     0.163 HD
ATOM     34  O   UNL A   1      44.342  19.492  23.865  1.00  0.00    -0.269 OA
BRANCH  32  35
ATOM     35  C   UNL A   1      44.221  21.397  25.239  1.00  0.00     0.039 A 
ATOM     36  C   UNL A   1      43.794  22.422  24.394  1.00  0.00     0.014 A 
ATOM     37  C   UNL A   1      44.920  21.694  26.413  1.00  0.00     0.014 A 
ATOM     38  C   UNL A   1      44.017  23.752  24.758  1.00  0.00     0.010 A 
ATOM     39  C   UNL A   1      45.070  23.018  26.811  1.00  0.00     0.010 A 
ATOM     40  C   UNL A   1      44.627  24.061  25.985  1.00  0.00    -0.014 A 
BRANCH  40  41
ATOM     41  C   UNL A   1      44.799  25.470  26.426  1.00  0.00     0.031 A 
ATOM     42  C   UNL A   1      46.157  26.115  26.391  1.00  0.00     0.074 A 
ATOM     43  C   UNL A   1      43.747  26.140  26.938  1.00  0.00     0.049 A 
ATOM     44  N   UNL A   1      46.510  27.314  26.780  1.00  0.00    -0.248 NA
ATOM     45  C   UNL A   1      47.271  25.300  25.880  1.00  0.00     0.031 C 
ATOM     46  C   UNL A   1      42.397  25.598  27.101  1.00  0.00     0.029 A 
ATOM     47  N   UNL A   1      43.655  27.414  27.442  1.00  0.00    -0.354 N 
ATOM     48  C   UNL A   1      47.886  27.384  26.594  1.00  0.00     0.074 A 
ATOM     49  C   UNL A   1      48.310  26.095  26.094  1.00  0.00     0.031 C 
ATOM     50  C   UNL A   1      41.611  26.532  27.659  1.00  0.00     0.029 A 
ATOM     51  C   UNL A   1      42.406  27.727  27.924  1.00  0.00     0.049 A 
ATOM     52  H   UNL A   1      44.412  28.043  27.455  1.00  0.00     0.167 HD
ATOM     53  C   UNL A   1      48.717  28.434  26.795  1.00  0.00     0.034 A 
ATOM     54  C   UNL A   1      41.953  28.846  28.522  1.00  0.00     0.034 A 
ATOM     55  C   UNL A   1      48.287  29.725  27.260  1.00  0.00     0.049 A 
ATOM     56  C   UNL A   1      42.890  30.010  28.705  1.00  0.00     0.074 A 
ATOM     57  C   UNL A   1      49.035  30.878  27.409  1.00  0.00     0.029 A 
ATOM     58  N   UNL A   1      46.997  30.029  27.665  1.00  0.00    -0.354 N 
ATOM     59  N   UNL A   1      44.154  30.110  28.372  1.00  0.00    -0.248 NA
ATOM     60  C   UNL A   1      42.329  31.226  29.310  1.00  0.00     0.031 C 
ATOM     61  C   UNL A   1      48.205  31.872  27.938  1.00  0.00     0.029 A 
ATOM     62  C   UNL A   1      46.930  31.349  28.079  1.00  0.00     0.049 A 
ATOM     63  H   UNL A   1      46.239  29.401  27.659  1.00  0.00     0.167 HD
ATOM     64  C   UNL A   1      44.530  31.410  28.693  1.00  0.00     0.074 A 
ATOM     65  C   UNL A   1      43.353  32.064  29.228  1.00  0.00     0.031 C 
ATOM     66  C   UNL A   1      45.742  32.004  28.565  1.00  0.00     0.034 A 
BRANCH  53  67
ATOM     67  C   UNL A   1      50.178  28.240  26.471  1.00  0.00     0.023 A 
ATOM     68  C   UNL A   1      50.625  28.397  25.142  1.00  0.00     0.012 A 
ATOM     69  C   UNL A   1      51.113  27.956  27.484  1.00  0.00     0.148 A 
ATOM     70  C   UNL A   1      51.971  28.230  24.820  1.00  0.00     0.002 A 
ATOM     71  C   UNL A   1      52.461  27.839  27.164  1.00  0.00     0.091 A 
ATOM     72  F   UNL A   1      50.668  27.791  28.738  1.00  0.00    -0.205 F 
ATOM     73  C   UNL A   1      52.889  27.962  25.832  1.00  0.00     0.022 A 
BRANCH  71  74
ATOM     74  S   UNL A   1      53.733  27.577  28.404  1.00  0.00     0.127 S 
ATOM     75  O   UNL A   1      53.464  26.201  28.816  1.00  0.00    -0.237 OA
ATOM     76  O   UNL A   1      54.961  27.752  27.628  1.00  0.00    -0.237 OA
ATOM     77  O   UNL A   1      53.512  28.591  29.427  1.00  0.00    -0.744 OA
ENDBRANCH  71  74
ENDBRANCH  53  67
BRANCH  54  78
ATOM     78  C   UNL A   1      40.524  28.939  28.939  1.00  0.00     0.023 A 
ATOM     79  C   UNL A   1      39.521  29.053  27.956  1.00  0.00     0.012 A 
ATOM     80  C   UNL A   1      40.154  28.884  30.296  1.00  0.00     0.148 A 
ATOM     81  C   UNL A   1      38.177  29.143  28.319  1.00  0.00     0.002 A 
ATOM     82  C   UNL A   1      38.810  28.915  30.648  1.00  0.00     0.091 A 
ATOM     83  F   UNL A   1      41.124  28.783  31.215  1.00  0.00    -0.205 F 
ATOM     84  C   UNL A   1      37.821  29.063  29.663  1.00  0.00     0.022 A 
BRANCH  82  85
ATOM     85  S   UNL A   1      38.248  28.687  32.338  1.00  0.00     0.127 S 
ATOM     86  O   UNL A   1      36.822  28.979  32.223  1.00  0.00    -0.237 OA
ATOM     87  O   UNL A   1      38.574  27.280  32.575  1.00  0.00    -0.237 OA
ATOM     88  O   UNL A   1      39.022  29.625  33.141  1.00  0.00    -0.744 OA
ENDBRANCH  82  85
ENDBRANCH  54  78
BRANCH  66  89
ATOM     89  C   UNL A   1      45.860  33.451  28.970  1.00  0.00     0.023 A 
ATOM     90  C   UNL A   1      46.336  33.790  30.252  1.00  0.00     0.012 A 
ATOM     91  C   UNL A   1      45.566  34.476  28.048  1.00  0.00     0.148 A 
ATOM     92  C   UNL A   1      46.487  35.126  30.621  1.00  0.00     0.002 A 
ATOM     93  C   UNL A   1      45.769  35.803  28.405  1.00  0.00     0.091 A 
ATOM     94  F   UNL A   1      45.097  34.134  26.839  1.00  0.00    -0.205 F 
ATOM     95  C   UNL A   1      46.216  36.131  29.695  1.00  0.00     0.022 A 
BRANCH  93  96
ATOM     96  S   UNL A   1      45.543  37.158  27.247  1.00  0.00     0.127 S 
ATOM     97  O   UNL A   1      44.118  37.051  26.938  1.00  0.00    -0.237 OA
ATOM     98  O   UNL A   1      45.905  38.321  28.058  1.00  0.00    -0.237 OA
ATOM     99  O   UNL A   1      46.445  36.893  26.134  1.00  0.00    -0.744 OA
ENDBRANCH  93  96
ENDBRANCH  66  89
ENDBRANCH  40  41
ENDBRANCH  32  35
ENDBRANCH  30  31
ENDBRANCH  29  30
ENDBRANCH  28  29
ENDBRANCH   1  28
TORSDOF 19
ENDMDL
MODEL 2
REMARK VINA RESULT:     -10.6      1.553      2.254
REMARK SMILES O=C(Cc1ccc(NC(=O)Nc2ccc(Br)cc2)cc1)NCCCCCCNC(=O)c1ccc(-c2c3nc(c(-c4cccc(S(=O)(=O)[O-])c4F)c4ccc([nH]4)c(-c4cccc(S(=O)(=O)[O-])c4F)c4nc(c(-c5cccc(S(=O)(=O)[O-])c5F)c5ccc2[nH]5)C=C4)C=C3)cc1
REMARK SMILES IDX 24 1 23 2 22 3 21 4 1 5 2 6 3 8 4 9 5 10 20 11 6 12 19 13
REMARK SMILES IDX 7 14 8 15 9 16 10 18 11 19 12 21 13 22 18 23 14 24 17 25
REMARK SMILES IDX 15 26 16 27 25 28 26 29 27 30 28 31 29 32 30 34 31 35 32 36
REMARK SMILES IDX 93 37 33 38 92 39 34 40 35 41 36 42 86 43 37 44 91 45 85 46
REMARK SMILES IDX 87 47 38 48 90 49 84 50 83 51 39 53 71 54 51 55 70 56 52 57
REMARK SMILES IDX 55 58 69 59 88 60 53 61 54 62 68 64 89 65 56 66 40 67 41 68
REMARK SMILES IDX 49 69 42 70 44 71 50 72 43 73 45 74 46 75 47 76 48 77 72 78
REMARK SMILES IDX 73 79 81 80 74 81 76 82 82 83 75 84 77 85 78 86 79 87 80 88
REMARK SMILES IDX 57 89 58 90 66 91 59 92 61 93 67 94 60 95 62 96 63 97 64 98
REMARK SMILES IDX 65 99
REMARK H PARENT 21 7 8 17 11 20 28 33 87 52 55 63
REMARK Flexibility Score: inf
ROOT
ATOM      1  C   UNL A   1      41.193  22.077  26.782  1.00  0.00     0.002 C 
ENDROOT
BRANCH   1   2
ATOM      2  C   UNL A   1      39.793  22.690  26.620  1.00  0.00     0.021 C 
BRANCH   2   3
ATOM      3  C   UNL A   1      38.824  21.843  25.799  1.00  0.00     0.116 C 
BRANCH   3   4
ATOM      4  N   UNL A   1      37.896  22.693  25.092  1.00  0.00    -0.356 N 
ATOM      5  O   UNL A   1      36.502  21.048  24.296  1.00  0.00    -0.275 OA
ATOM      6  C   UNL A   1      36.803  22.232  24.403  1.00  0.00     0.224 C 
ATOM      7  H   UNL A   1      38.057  23.664  25.105  1.00  0.00     0.163 HD
BRANCH   6   8
ATOM      8  C   UNL A   1      36.029  23.336  23.714  1.00  0.00     0.135 C 
BRANCH   8   9
ATOM      9  C   UNL A   1      34.646  23.635  24.258  1.00  0.00    -0.039 A 
ATOM     10  C   UNL A   1      33.539  23.343  23.450  1.00  0.00     0.006 A 
ATOM     11  C   UNL A   1      34.418  24.050  25.578  1.00  0.00     0.006 A 
ATOM     12  C   UNL A   1      32.257  23.302  24.000  1.00  0.00     0.026 A 
ATOM     13  C   UNL A   1      33.133  24.023  26.121  1.00  0.00     0.026 A 
ATOM     14  C   UNL A   1      32.081  23.506  25.368  1.00  0.00     0.042 A 
BRANCH  14  15
ATOM     15  N   UNL A   1      30.930  23.106  26.070  1.00  0.00    -0.308 N 
ATOM     16  C   UNL A   1      30.010  23.812  26.775  1.00  0.00     0.323 C 
ATOM     17  H   UNL A   1      30.761  22.137  26.045  1.00  0.00     0.171 HD
ATOM     18  O   UNL A   1      29.291  23.208  27.576  1.00  0.00    -0.248 OA
ATOM     19  N   UNL A   1      29.854  25.156  26.660  1.00  0.00    -0.308 N 
ATOM     20  H   UNL A   1      29.466  25.583  27.458  1.00  0.00     0.171 HD
BRANCH  19  21
ATOM     21  C   UNL A   1      30.140  26.053  25.616  1.00  0.00     0.042 A 
ATOM     22  C   UNL A   1      29.315  25.999  24.486  1.00  0.00     0.027 A 
ATOM     23  C   UNL A   1      31.150  27.019  25.683  1.00  0.00     0.027 A 
ATOM     24  C   UNL A   1      29.395  26.997  23.511  1.00  0.00     0.018 A 
ATOM     25  C   UNL A   1      31.247  28.005  24.694  1.00  0.00     0.018 A 
ATOM     26  C   UNL A   1      30.345  28.008  23.632  1.00  0.00     0.018 A 
ATOM     27  Br  UNL A   1      30.372  29.420  22.375  1.00  0.00    -0.051 Br
ENDBRANCH  19  21
ENDBRANCH  14  15
ENDBRANCH   8   9
ENDBRANCH   6   8
ENDBRANCH   3   4
ENDBRANCH   2   3
ENDBRANCH   1   2
BRANCH   1  28
ATOM     28  C   UNL A   1      41.217  20.638  27.305  1.00  0.00     0.002 C 
BRANCH  28  29
ATOM     29  C   UNL A   1      41.635  19.591  26.272  1.00  0.00     0.021 C 
BRANCH  29  30
ATOM     30  C   UNL A   1      43.045  19.045  26.459  1.00  0.00     0.116 C 
BRANCH  30  31
ATOM     31  N   UNL A   1      43.770  18.934  25.202  1.00  0.00    -0.352 N 
ATOM     32  C   UNL A   1      44.318  19.937  24.441  1.00  0.00     0.251 C 
ATOM     33  H   UNL A   1      43.883  18.021  24.852  1.00  0.00     0.163 HD
ATOM     34  O   UNL A   1      44.761  19.693  23.321  1.00  0.00    -0.269 OA
BRANCH  32  35
ATOM     35  C   UNL A   1      44.344  21.317  24.971  1.00  0.00     0.039 A 
ATOM     36  C   UNL A   1      44.910  21.550  26.225  1.00  0.00     0.014 A 
ATOM     37  C   UNL A   1      43.838  22.379  24.215  1.00  0.00     0.014 A 
ATOM     38  C   UNL A   1      45.022  22.860  26.696  1.00  0.00     0.010 A 
ATOM     39  C   UNL A   1      44.024  23.686  24.651  1.00  0.00     0.010 A 
ATOM     40  C   UNL A   1      44.611  23.941  25.899  1.00  0.00    -0.014 A 
BRANCH  40  41
ATOM     41  C   UNL A   1      44.798  25.345  26.349  1.00  0.00     0.031 A 
ATOM     42  C   UNL A   1      46.161  25.980  26.304  1.00  0.00     0.074 A 
ATOM     43  C   UNL A   1      43.757  26.019  26.878  1.00  0.00     0.049 A 
ATOM     44  N   UNL A   1      46.527  27.173  26.697  1.00  0.00    -0.248 NA
ATOM     45  C   UNL A   1      47.262  25.160  25.774  1.00  0.00     0.031 C 
ATOM     46  C   UNL A   1      42.405  25.486  27.052  1.00  0.00     0.029 A 
ATOM     47  N   UNL A   1      43.681  27.290  27.392  1.00  0.00    -0.354 N 
ATOM     48  C   UNL A   1      47.901  27.234  26.496  1.00  0.00     0.074 A 
ATOM     49  C   UNL A   1      48.309  25.946  25.982  1.00  0.00     0.031 C 
ATOM     50  C   UNL A   1      41.633  26.422  27.626  1.00  0.00     0.029 A 
ATOM     51  C   UNL A   1      42.439  27.609  27.890  1.00  0.00     0.049 A 
ATOM     52  H   UNL A   1      44.443  27.913  27.401  1.00  0.00     0.167 HD
ATOM     53  C   UNL A   1      48.743  28.276  26.695  1.00  0.00     0.034 A 
ATOM     54  C   UNL A   1      42.002  28.727  28.502  1.00  0.00     0.034 A 
ATOM     55  C   UNL A   1      48.327  29.567  27.175  1.00  0.00     0.049 A 
ATOM     56  C   UNL A   1      42.949  29.882  28.683  1.00  0.00     0.074 A 
ATOM     57  C   UNL A   1      49.086  30.713  27.325  1.00  0.00     0.029 A 
ATOM     58  N   UNL A   1      47.045  29.878  27.597  1.00  0.00    -0.354 N 
ATOM     59  N   UNL A   1      44.210  29.975  28.337  1.00  0.00    -0.248 NA
ATOM     60  C   UNL A   1      42.405  31.098  29.304  1.00  0.00     0.031 C 
ATOM     61  C   UNL A   1      48.270  31.709  27.870  1.00  0.00     0.029 A 
ATOM     62  C   UNL A   1      46.992  31.195  28.022  1.00  0.00     0.049 A 
ATOM     63  H   UNL A   1      46.282  29.256  27.595  1.00  0.00     0.167 HD
ATOM     64  C   UNL A   1      44.600  31.269  28.663  1.00  0.00     0.074 A 
ATOM     65  C   UNL A   1      43.435  31.929  29.216  1.00  0.00     0.031 C 
ATOM     66  C   UNL A   1      45.815  31.855  28.526  1.00  0.00     0.034 A 
BRANCH  53  67
ATOM     67  C   UNL A   1      50.198  28.074  26.354  1.00  0.00     0.023 A 
ATOM     68  C   UNL A   1      50.623  28.192  25.014  1.00  0.00     0.012 A 
ATOM     69  C   UNL A   1      51.150  27.819  27.359  1.00  0.00     0.148 A 
ATOM     70  C   UNL A   1      51.965  28.017  24.675  1.00  0.00     0.002 A 
ATOM     71  C   UNL A   1      52.492  27.694  27.021  1.00  0.00     0.091 A 
ATOM     72  F   UNL A   1      50.725  27.690  28.624  1.00  0.00    -0.205 F 
ATOM     73  C   UNL A   1      52.899  27.778  25.679  1.00  0.00     0.022 A 
BRANCH  71  74
ATOM     74  S   UNL A   1      53.784  27.469  28.248  1.00  0.00     0.127 S 
ATOM     75  O   UNL A   1      53.643  28.682  29.050  1.00  0.00    -0.237 OA
ATOM     76  O   UNL A   1      53.359  26.240  28.920  1.00  0.00    -0.237 OA
ATOM     77  O   UNL A   1      55.030  27.353  27.503  1.00  0.00    -0.744 OA
ENDBRANCH  71  74
ENDBRANCH  53  67
BRANCH  54  78
ATOM     78  C   UNL A   1      40.579  28.828  28.936  1.00  0.00     0.023 A 
ATOM     79  C   UNL A   1      39.565  28.947  27.965  1.00  0.00     0.012 A 
ATOM     80  C   UNL A   1      40.224  28.774  30.297  1.00  0.00     0.148 A 
ATOM     81  C   UNL A   1      38.226  29.045  28.343  1.00  0.00     0.002 A 
ATOM     82  C   UNL A   1      38.884  28.813  30.665  1.00  0.00     0.091 A 
ATOM     83  F   UNL A   1      41.204  28.667  31.204  1.00  0.00    -0.205 F 
ATOM     84  C   UNL A   1      37.885  28.967  29.691  1.00  0.00     0.022 A 
BRANCH  82  85
ATOM     85  S   UNL A   1      38.341  28.587  32.362  1.00  0.00     0.127 S 
ATOM     86  O   UNL A   1      36.945  29.006  32.288  1.00  0.00    -0.237 OA
ATOM     87  O   UNL A   1      38.547  27.151  32.554  1.00  0.00    -0.237 OA
ATOM     88  O   UNL A   1      39.212  29.431  33.170  1.00  0.00    -0.744 OA
ENDBRANCH  82  85
ENDBRANCH  54  78
BRANCH  66  89
ATOM     89  C   UNL A   1      45.949  33.299  28.940  1.00  0.00     0.023 A 
ATOM     90  C   UNL A   1      46.420  33.624  30.227  1.00  0.00     0.012 A 
ATOM     91  C   UNL A   1      45.674  34.333  28.022  1.00  0.00     0.148 A 
ATOM     92  C   UNL A   1      46.586  34.956  30.606  1.00  0.00     0.002 A 
ATOM     93  C   UNL A   1      45.892  35.655  28.388  1.00  0.00     0.091 A 
ATOM     94  F   UNL A   1      45.210  34.004  26.808  1.00  0.00    -0.205 F 
ATOM     95  C   UNL A   1      46.334  35.969  29.683  1.00  0.00     0.022 A 
BRANCH  93  96
ATOM     96  S   UNL A   1      45.691  37.019  27.237  1.00  0.00     0.127 S 
ATOM     97  O   UNL A   1      46.568  36.615  26.139  1.00  0.00    -0.237 OA
ATOM     98  O   UNL A   1      44.262  36.957  26.931  1.00  0.00    -0.237 OA
ATOM     99  O   UNL A   1      46.104  38.218  27.956  1.00  0.00    -0.744 OA
ENDBRANCH  93  96
ENDBRANCH  66  89
ENDBRANCH  40  41
ENDBRANCH  32  35
ENDBRANCH  30  31
ENDBRANCH  29  30
ENDBRANCH  28  29
ENDBRANCH   1  28
TORSDOF 19
ENDMDL
MODEL 3
REMARK VINA RESULT:     -10.6      1.910      2.527
REMARK SMILES O=C(Cc1ccc(NC(=O)Nc2ccc(Br)cc2)cc1)NCCCCCCNC(=O)c1ccc(-c2c3nc(c(-c4cccc(S(=O)(=O)[O-])c4F)c4ccc([nH]4)c(-c4cccc(S(=O)(=O)[O-])c4F)c4nc(c(-c5cccc(S(=O)(=O)[O-])c5F)c5ccc2[nH]5)C=C4)C=C3)cc1
REMARK SMILES IDX 24 1 23 2 22 3 21 4 1 5 2 6 3 8 4 9 5 10 20 11 6 12 19 13
REMARK SMILES IDX 7 14 8 15 9 16 10 18 11 19 12 21 13 22 18 23 14 24 17 25
REMARK SMILES IDX 15 26 16 27 25 28 26 29 27 30 28 31 29 32 30 34 31 35 32 36
REMARK SMILES IDX 93 37 33 38 92 39 34 40 35 41 36 42 86 43 37 44 91 45 85 46
REMARK SMILES IDX 87 47 38 48 90 49 84 50 83 51 39 53 71 54 51 55 70 56 52 57
REMARK SMILES IDX 55 58 69 59 88 60 53 61 54 62 68 64 89 65 56 66 40 67 41 68
REMARK SMILES IDX 49 69 42 70 44 71 50 72 43 73 45 74 46 75 47 76 48 77 72 78
REMARK SMILES IDX 73 79 81 80 74 81 76 82 82 83 75 84 77 85 78 86 79 87 80 88
REMARK SMILES IDX 57 89 58 90 66 91 59 92 61 93 67 94 60 95 62 96 63 97 64 98
REMARK SMILES IDX 65 99
REMARK H PARENT 21 7 8 17 11 20 28 33 87 52 55 63
REMARK Flexibility Score: inf
ROOT
ATOM      1  C   UNL A   1      38.159  21.858  24.961  1.00  0.00     0.002 C 
ENDROOT
BRANCH   1   2
ATOM      2  C   UNL A   1      38.481  22.724  26.190  1.00  0.00     0.021 C 
BRANCH   2   3
ATOM      3  C   UNL A   1      37.737  24.057  26.236  1.00  0.00     0.116 C 
BRANCH   3   4
ATOM      4  N   UNL A   1      36.681  24.073  25.252  1.00  0.00    -0.356 N 
ATOM      5  O   UNL A   1      34.961  23.401  26.620  1.00  0.00    -0.275 OA
ATOM      6  C   UNL A   1      35.375  23.753  25.521  1.00  0.00     0.224 C 
ATOM      7  H   UNL A   1      36.913  24.330  24.330  1.00  0.00     0.163 HD
BRANCH   6   8
ATOM      8  C   UNL A   1      34.489  23.805  24.294  1.00  0.00     0.135 C 
BRANCH   8   9
ATOM      9  C   UNL A   1      34.151  25.184  23.762  1.00  0.00    -0.039 A 
ATOM     10  C   UNL A   1      33.811  25.307  22.408  1.00  0.00     0.006 A 
ATOM     11  C   UNL A   1      34.019  26.310  24.588  1.00  0.00     0.006 A 
ATOM     12  C   UNL A   1      33.198  26.469  21.938  1.00  0.00     0.026 A 
ATOM     13  C   UNL A   1      33.420  27.476  24.111  1.00  0.00     0.026 A 
ATOM     14  C   UNL A   1      32.879  27.495  22.827  1.00  0.00     0.042 A 
BRANCH  14  15
ATOM     15  N   UNL A   1      31.937  28.499  22.546  1.00  0.00    -0.308 N 
ATOM     16  C   UNL A   1      30.590  28.455  22.377  1.00  0.00     0.323 C 
ATOM     17  H   UNL A   1      32.324  29.399  22.456  1.00  0.00     0.171 HD
ATOM     18  O   UNL A   1      30.037  29.400  21.807  1.00  0.00    -0.248 OA
ATOM     19  N   UNL A   1      29.822  27.412  22.785  1.00  0.00    -0.308 N 
ATOM     20  H   UNL A   1      28.981  27.315  22.281  1.00  0.00     0.171 HD
BRANCH  19  21
ATOM     21  C   UNL A   1      30.000  26.446  23.790  1.00  0.00     0.042 A 
ATOM     22  C   UNL A   1      30.233  25.130  23.374  1.00  0.00     0.027 A 
ATOM     23  C   UNL A   1      30.018  26.747  25.156  1.00  0.00     0.027 A 
ATOM     24  C   UNL A   1      30.637  24.163  24.299  1.00  0.00     0.018 A 
ATOM     25  C   UNL A   1      30.398  25.773  26.087  1.00  0.00     0.018 A 
ATOM     26  C   UNL A   1      30.740  24.496  25.647  1.00  0.00     0.018 A 
ATOM     27  Br  UNL A   1      31.399  23.220  26.877  1.00  0.00    -0.051 Br
ENDBRANCH  19  21
ENDBRANCH  14  15
ENDBRANCH   8   9
ENDBRANCH   6   8
ENDBRANCH   3   4
ENDBRANCH   2   3
ENDBRANCH   1   2
BRANCH   1  28
ATOM     28  C   UNL A   1      37.715  20.426  25.273  1.00  0.00     0.002 C 
BRANCH  28  29
ATOM     29  C   UNL A   1      38.850  19.404  25.331  1.00  0.00     0.021 C 
BRANCH  29  30
ATOM     30  C   UNL A   1      39.867  19.650  26.438  1.00  0.00     0.116 C 
BRANCH  30  31
ATOM     31  N   UNL A   1      41.175  19.094  26.124  1.00  0.00    -0.352 N 
ATOM     32  C   UNL A   1      42.375  19.750  26.003  1.00  0.00     0.251 C 
ATOM     33  H   UNL A   1      41.204  18.121  25.981  1.00  0.00     0.163 HD
ATOM     34  O   UNL A   1      43.364  19.159  25.575  1.00  0.00    -0.269 OA
BRANCH  32  35
ATOM     35  C   UNL A   1      42.458  21.182  26.364  1.00  0.00     0.039 A 
ATOM     36  C   UNL A   1      42.655  21.532  27.701  1.00  0.00     0.014 A 
ATOM     37  C   UNL A   1      42.373  22.170  25.379  1.00  0.00     0.014 A 
ATOM     38  C   UNL A   1      42.826  22.875  28.041  1.00  0.00     0.010 A 
ATOM     39  C   UNL A   1      42.622  23.497  25.710  1.00  0.00     0.010 A 
ATOM     40  C   UNL A   1      42.844  23.866  27.045  1.00  0.00    -0.014 A 
BRANCH  40  41
ATOM     41  C   UNL A   1      43.107  25.290  27.379  1.00  0.00     0.031 A 
ATOM     42  C   UNL A   1      44.498  25.851  27.268  1.00  0.00     0.074 A 
ATOM     43  C   UNL A   1      42.108  26.055  27.865  1.00  0.00     0.049 A 
ATOM     44  N   UNL A   1      44.928  27.051  27.561  1.00  0.00    -0.248 NA
ATOM     45  C   UNL A   1      45.550  24.937  26.793  1.00  0.00     0.031 C 
ATOM     46  C   UNL A   1      40.734  25.606  28.096  1.00  0.00     0.029 A 
ATOM     47  N   UNL A   1      42.102  27.365  28.276  1.00  0.00    -0.354 N 
ATOM     48  C   UNL A   1      46.301  27.028  27.340  1.00  0.00     0.074 A 
ATOM     49  C   UNL A   1      46.638  25.684  26.925  1.00  0.00     0.031 C 
ATOM     50  C   UNL A   1      40.018  26.621  28.601  1.00  0.00     0.029 A 
ATOM     51  C   UNL A   1      40.886  27.784  28.761  1.00  0.00     0.049 A 
ATOM     52  H   UNL A   1      42.894  27.948  28.227  1.00  0.00     0.167 HD
ATOM     53  C   UNL A   1      47.195  28.038  27.446  1.00  0.00     0.034 A 
ATOM     54  C   UNL A   1      40.513  28.968  29.287  1.00  0.00     0.034 A 
ATOM     55  C   UNL A   1      46.851  29.382  27.826  1.00  0.00     0.049 A 
ATOM     56  C   UNL A   1      41.518  30.084  29.364  1.00  0.00     0.074 A 
ATOM     57  C   UNL A   1      47.667  30.497  27.875  1.00  0.00     0.029 A 
ATOM     58  N   UNL A   1      45.591  29.790  28.236  1.00  0.00    -0.354 N 
ATOM     59  N   UNL A   1      42.777  30.087  28.998  1.00  0.00    -0.248 NA
ATOM     60  C   UNL A   1      41.043  31.372  29.892  1.00  0.00     0.031 C 
ATOM     61  C   UNL A   1      46.909  31.573  28.348  1.00  0.00     0.029 A 
ATOM     62  C   UNL A   1      45.610  31.137  28.555  1.00  0.00     0.049 A 
ATOM     63  H   UNL A   1      44.799  29.208  28.292  1.00  0.00     0.167 HD
ATOM     64  C   UNL A   1      43.234  31.381  29.215  1.00  0.00     0.074 A 
ATOM     65  C   UNL A   1      42.111  32.140  29.727  1.00  0.00     0.031 C 
ATOM     66  C   UNL A   1      44.474  31.893  29.018  1.00  0.00     0.034 A 
BRANCH  53  67
ATOM     67  C   UNL A   1      48.633  27.738  27.105  1.00  0.00     0.023 A 
ATOM     68  C   UNL A   1      49.045  27.737  25.756  1.00  0.00     0.012 A 
ATOM     69  C   UNL A   1      49.585  27.507  28.117  1.00  0.00     0.148 A 
ATOM     70  C   UNL A   1      50.371  27.469  25.417  1.00  0.00     0.002 A 
ATOM     71  C   UNL A   1      50.914  27.289  27.774  1.00  0.00     0.091 A 
ATOM     72  F   UNL A   1      49.172  27.492  29.392  1.00  0.00    -0.205 F 
ATOM     73  C   UNL A   1      51.306  27.255  26.426  1.00  0.00     0.022 A 
BRANCH  71  74
ATOM     74  S   UNL A   1      52.210  27.086  29.001  1.00  0.00     0.127 S 
ATOM     75  O   UNL A   1      52.161  28.371  29.696  1.00  0.00    -0.237 OA
ATOM     76  O   UNL A   1      51.718  25.951  29.783  1.00  0.00    -0.237 OA
ATOM     77  O   UNL A   1      53.433  26.824  28.255  1.00  0.00    -0.744 OA
ENDBRANCH  71  74
ENDBRANCH  53  67
BRANCH  54  78
ATOM     78  C   UNL A   1      39.103  29.173  29.728  1.00  0.00     0.023 A 
ATOM     79  C   UNL A   1      38.726  28.813  31.037  1.00  0.00     0.012 A 
ATOM     80  C   UNL A   1      38.147  29.751  28.872  1.00  0.00     0.148 A 
ATOM     81  C   UNL A   1      37.414  28.993  31.474  1.00  0.00     0.002 A 
ATOM     82  C   UNL A   1      36.856  29.982  29.332  1.00  0.00     0.091 A 
ATOM     83  F   UNL A   1      38.525  30.080  27.628  1.00  0.00    -0.205 F 
ATOM     84  C   UNL A   1      36.482  29.587  30.626  1.00  0.00     0.022 A 
BRANCH  82  85
ATOM     85  S   UNL A   1      35.626  30.859  28.360  1.00  0.00     0.127 S 
ATOM     86  O   UNL A   1      34.778  31.435  29.399  1.00  0.00    -0.237 OA
ATOM     87  O   UNL A   1      36.452  31.823  27.631  1.00  0.00    -0.237 OA
ATOM     88  O   UNL A   1      34.996  29.850  27.518  1.00  0.00    -0.744 OA
ENDBRANCH  82  85
ENDBRANCH  54  78
BRANCH  66  89
ATOM     89  C   UNL A   1      44.684  33.356  29.314  1.00  0.00     0.023 A 
ATOM     90  C   UNL A   1      44.989  33.776  30.624  1.00  0.00     0.012 A 
ATOM     91  C   UNL A   1      44.652  34.307  28.273  1.00  0.00     0.148 A 
ATOM     92  C   UNL A   1      45.225  35.122  30.900  1.00  0.00     0.002 A 
ATOM     93  C   UNL A   1      44.940  35.638  28.547  1.00  0.00     0.091 A 
ATOM     94  F   UNL A   1      44.343  33.891  27.036  1.00  0.00    -0.205 F 
ATOM     95  C   UNL A   1      45.213  36.050  29.861  1.00  0.00     0.022 A 
BRANCH  93  96
ATOM     96  S   UNL A   1      45.047  36.885  27.259  1.00  0.00     0.127 S 
ATOM     97  O   UNL A   1      43.646  37.029  26.867  1.00  0.00    -0.237 OA
ATOM     98  O   UNL A   1      45.598  38.031  27.982  1.00  0.00    -0.237 OA
ATOM     99  O   UNL A   1      45.927  36.335  26.236  1.00  0.00    -0.744 OA
ENDBRANCH  93  96
ENDBRANCH  66  89
ENDBRANCH  40  41
ENDBRANCH  32  35
ENDBRANCH  30  31
ENDBRANCH  29  30
ENDBRANCH  28  29
ENDBRANCH   1  28
TORSDOF 19
ENDMDL
