MODEL 1
REMARK VINA RESULT:     -10.6      0.000      0.000
REMARK SMILES CC(C)[C@@H](C[NH3+])C(=O)N1[C@@H](C(=O)NCCCCCCNC(=O)c2ccc(-c3c4nc(c(-c5cccc(S(=O)(=O)[O-])c5F)c5ccc([nH]5)c(-c5cccc(S(=O)(=O)[O-])c5F)c5nc(c(-c6cccc(S(=O)(=O)[O-])c6F)c6ccc3[nH]6)C=C5)C=C4)cc2)CC[C@H]2CCCC[C@H]21
REMARK SMILES IDX 16 1 15 2 14 3 13 4 11 5 12 6 10 8 9 9 93 10 86 11 88 12
REMARK SMILES IDX 92 13 87 14 89 15 91 16 90 17 7 18 8 19 4 20 2 21 1 22 3 23
REMARK SMILES IDX 5 24 6 25 17 29 18 30 19 31 20 32 21 33 22 35 23 36 24 37
REMARK SMILES IDX 85 38 25 39 84 40 26 41 27 42 28 43 78 44 29 45 83 46 77 47
REMARK SMILES IDX 79 48 30 49 82 50 76 51 75 52 31 54 63 55 43 56 62 57 44 58
REMARK SMILES IDX 47 59 61 60 80 61 45 62 46 63 60 65 81 66 48 67 32 68 33 69
REMARK SMILES IDX 41 70 34 71 36 72 42 73 35 74 37 75 38 76 39 77 40 78 64 79
REMARK SMILES IDX 65 80 73 81 66 82 68 83 74 84 67 85 69 86 70 87 71 88 72 89
REMARK SMILES IDX 49 90 50 91 58 92 51 93 53 94 59 95 52 96 54 97 55 98 56 99
REMARK SMILES IDX 57 100
REMARK H PARENT 13 7 6 26 6 27 6 28 20 34 79 53 47 64
REMARK Flexibility Score: inf
ROOT
ATOM      1  C   UNL A   1      32.513  29.764  26.866  1.00  0.00     0.002 C 
ENDROOT
BRANCH   1   2
ATOM      2  C   UNL A   1      32.118  28.437  27.525  1.00  0.00     0.021 C 
BRANCH   2   3
ATOM      3  C   UNL A   1      32.162  27.246  26.575  1.00  0.00     0.116 C 
BRANCH   3   4
ATOM      4  N   UNL A   1      31.102  26.305  26.889  1.00  0.00    -0.354 N 
ATOM      5  C   UNL A   1      30.109  25.818  26.098  1.00  0.00     0.242 C 
ATOM      6  O   UNL A   1      29.215  25.164  26.650  1.00  0.00    -0.273 OA
ATOM      7  H   UNL A   1      31.102  25.968  27.814  1.00  0.00     0.163 HD
BRANCH   5   8
ATOM      8  C   UNL A   1      29.989  26.203  24.615  1.00  0.00     0.174 C 
ATOM      9  N   UNL A   1      31.041  25.722  23.681  1.00  0.00    -0.327 N 
ATOM     10  C   UNL A   1      30.981  26.373  22.348  1.00  0.00     0.089 C 
ATOM     11  C   UNL A   1      29.893  27.755  24.667  1.00  0.00     0.036 C 
ATOM     12  C   UNL A   1      31.075  27.905  22.430  1.00  0.00     0.012 C 
ATOM     13  C   UNL A   1      31.931  25.906  21.234  1.00  0.00     0.025 C 
ATOM     14  C   UNL A   1      29.972  28.461  23.325  1.00  0.00     0.008 C 
ATOM     15  C   UNL A   1      32.482  28.397  22.804  1.00  0.00     0.006 C 
ATOM     16  C   UNL A   1      33.344  26.486  21.300  1.00  0.00     0.002 C 
ATOM     17  C   UNL A   1      33.611  27.418  22.478  1.00  0.00     0.000 C 
BRANCH   9  18
ATOM     18  C   UNL A   1      31.656  24.474  23.739  1.00  0.00     0.232 C 
ATOM     19  O   UNL A   1      30.938  23.462  23.692  1.00  0.00    -0.274 OA
BRANCH  18  20
ATOM     20  C   UNL A   1      33.176  24.221  23.929  1.00  0.00     0.136 C 
BRANCH  20  21
ATOM     21  C   UNL A   1      33.759  24.353  25.359  1.00  0.00     0.001 C 
ATOM     22  C   UNL A   1      33.261  23.295  26.352  1.00  0.00     0.008 C 
ATOM     23  C   UNL A   1      35.291  24.272  25.347  1.00  0.00     0.008 C 
ENDBRANCH  20  21
BRANCH  20  24
ATOM     24  C   UNL A   1      33.687  23.057  23.067  1.00  0.00     0.272 C 
BRANCH  24  25
ATOM     25  N   UNL A   1      32.909  22.756  21.873  1.00  0.00    -0.357 N 
ATOM     26  H   UNL A   1      33.521  22.766  21.057  1.00  0.00     0.344 HD
ATOM     27  H   UNL A   1      32.177  23.456  21.758  1.00  0.00     0.344 HD
ATOM     28  H   UNL A   1      32.485  21.832  21.968  1.00  0.00     0.344 HD
ENDBRANCH  24  25
ENDBRANCH  20  24
ENDBRANCH  18  20
ENDBRANCH   9  18
ENDBRANCH   5   8
ENDBRANCH   3   4
ENDBRANCH   2   3
ENDBRANCH   1   2
BRANCH   1  29
ATOM     29  C   UNL A   1      31.367  30.522  26.190  1.00  0.00     0.002 C 
BRANCH  29  30
ATOM     30  C   UNL A   1      31.269  32.005  26.540  1.00  0.00     0.021 C 
BRANCH  30  31
ATOM     31  C   UNL A   1      32.604  32.663  26.857  1.00  0.00     0.116 C 
BRANCH  31  32
ATOM     32  N   UNL A   1      32.440  33.973  27.470  1.00  0.00    -0.352 N 
ATOM     33  C   UNL A   1      33.119  34.523  28.523  1.00  0.00     0.251 C 
ATOM     34  H   UNL A   1      31.742  34.543  27.071  1.00  0.00     0.163 HD
ATOM     35  O   UNL A   1      32.737  35.584  29.015  1.00  0.00    -0.269 OA
BRANCH  33  36
ATOM     36  C   UNL A   1      34.295  33.824  29.078  1.00  0.00     0.039 A 
ATOM     37  C   UNL A   1      35.549  34.425  28.959  1.00  0.00     0.014 A 
ATOM     38  C   UNL A   1      34.160  32.591  29.726  1.00  0.00     0.014 A 
ATOM     39  C   UNL A   1      36.662  33.808  29.528  1.00  0.00     0.010 A 
ATOM     40  C   UNL A   1      35.256  32.023  30.368  1.00  0.00     0.010 A 
ATOM     41  C   UNL A   1      36.520  32.617  30.263  1.00  0.00    -0.014 A 
BRANCH  41  42
ATOM     42  C   UNL A   1      37.694  32.007  30.936  1.00  0.00     0.031 A 
ATOM     43  C   UNL A   1      38.599  31.061  30.196  1.00  0.00     0.074 A 
ATOM     44  C   UNL A   1      37.918  32.277  32.238  1.00  0.00     0.049 A 
ATOM     45  N   UNL A   1      39.697  30.482  30.611  1.00  0.00    -0.248 NA
ATOM     46  C   UNL A   1      38.213  30.695  28.823  1.00  0.00     0.031 C 
ATOM     47  C   UNL A   1      37.054  33.097  33.091  1.00  0.00     0.029 A 
ATOM     48  N   UNL A   1      38.931  31.885  33.073  1.00  0.00    -0.354 N 
ATOM     49  C   UNL A   1      40.117  29.669  29.564  1.00  0.00     0.074 A 
ATOM     50  C   UNL A   1      39.133  29.794  28.512  1.00  0.00     0.031 C 
ATOM     51  C   UNL A   1      37.589  33.168  34.320  1.00  0.00     0.029 A 
ATOM     52  C   UNL A   1      38.816  32.381  34.350  1.00  0.00     0.049 A 
ATOM     53  H   UNL A   1      39.672  31.302  32.785  1.00  0.00     0.167 HD
ATOM     54  C   UNL A   1      41.237  28.913  29.474  1.00  0.00     0.034 A 
ATOM     55  C   UNL A   1      39.615  32.225  35.423  1.00  0.00     0.034 A 
ATOM     56  C   UNL A   1      42.228  28.816  30.512  1.00  0.00     0.049 A 
ATOM     57  C   UNL A   1      40.880  31.426  35.278  1.00  0.00     0.074 A 
ATOM     58  C   UNL A   1      43.440  28.149  30.487  1.00  0.00     0.029 A 
ATOM     59  N   UNL A   1      42.116  29.391  31.769  1.00  0.00    -0.354 N 
ATOM     60  N   UNL A   1      41.352  30.809  34.222  1.00  0.00    -0.248 NA
ATOM     61  C   UNL A   1      41.746  31.339  36.461  1.00  0.00     0.031 C 
ATOM     62  C   UNL A   1      44.046  28.297  31.739  1.00  0.00     0.029 A 
ATOM     63  C   UNL A   1      43.230  29.085  32.533  1.00  0.00     0.049 A 
ATOM     64  H   UNL A   1      41.356  29.938  32.074  1.00  0.00     0.167 HD
ATOM     65  C   UNL A   1      42.581  30.284  34.604  1.00  0.00     0.074 A 
ATOM     66  C   UNL A   1      42.795  30.689  35.979  1.00  0.00     0.031 C 
ATOM     67  C   UNL A   1      43.446  29.522  33.889  1.00  0.00     0.034 A 
BRANCH  54  68
ATOM     68  C   UNL A   1      41.475  28.167  28.185  1.00  0.00     0.023 A 
ATOM     69  C   UNL A   1      42.006  28.851  27.072  1.00  0.00     0.012 A 
ATOM     70  C   UNL A   1      41.228  26.784  28.090  1.00  0.00     0.148 A 
ATOM     71  C   UNL A   1      42.253  28.180  25.875  1.00  0.00     0.002 A 
ATOM     72  C   UNL A   1      41.521  26.111  26.908  1.00  0.00     0.091 A 
ATOM     73  F   UNL A   1      40.702  26.153  29.149  1.00  0.00    -0.205 F 
ATOM     74  C   UNL A   1      42.021  26.809  25.797  1.00  0.00     0.022 A 
BRANCH  72  75
ATOM     75  S   UNL A   1      41.336  24.333  26.731  1.00  0.00     0.127 S 
ATOM     76  O   UNL A   1      42.193  24.062  25.576  1.00  0.00    -0.237 OA
ATOM     77  O   UNL A   1      41.858  23.842  28.005  1.00  0.00    -0.237 OA
ATOM     78  O   UNL A   1      39.915  24.095  26.521  1.00  0.00    -0.744 OA
ENDBRANCH  72  75
ENDBRANCH  54  68
BRANCH  55  79
ATOM     79  C   UNL A   1      39.276  32.901  36.708  1.00  0.00     0.023 A 
ATOM     80  C   UNL A   1      39.820  34.169  36.991  1.00  0.00     0.012 A 
ATOM     81  C   UNL A   1      38.402  32.304  37.637  1.00  0.00     0.148 A 
ATOM     82  C   UNL A   1      39.528  34.814  38.194  1.00  0.00     0.002 A 
ATOM     83  C   UNL A   1      38.070  32.978  38.805  1.00  0.00     0.091 A 
ATOM     84  F   UNL A   1      37.904  31.093  37.352  1.00  0.00    -0.205 F 
ATOM     85  C   UNL A   1      38.647  34.225  39.095  1.00  0.00     0.022 A 
BRANCH  83  86
ATOM     86  S   UNL A   1      36.844  32.356  39.960  1.00  0.00     0.127 S 
ATOM     87  O   UNL A   1      37.456  31.107  40.403  1.00  0.00    -0.237 OA
ATOM     88  O   UNL A   1      36.812  33.419  40.967  1.00  0.00    -0.237 OA
ATOM     89  O   UNL A   1      35.613  32.220  39.192  1.00  0.00    -0.744 OA
ENDBRANCH  83  86
ENDBRANCH  55  79
BRANCH  67  90
ATOM     90  C   UNL A   1      44.717  29.093  34.577  1.00  0.00     0.023 A 
ATOM     91  C   UNL A   1      45.869  29.901  34.492  1.00  0.00     0.012 A 
ATOM     92  C   UNL A   1      44.762  27.907  35.335  1.00  0.00     0.148 A 
ATOM     93  C   UNL A   1      47.059  29.509  35.104  1.00  0.00     0.002 A 
ATOM     94  C   UNL A   1      45.936  27.550  35.989  1.00  0.00     0.091 A 
ATOM     95  F   UNL A   1      43.664  27.140  35.392  1.00  0.00    -0.205 F 
ATOM     96  C   UNL A   1      47.090  28.340  35.859  1.00  0.00     0.022 A 
BRANCH  94  97
ATOM     97  S   UNL A   1      46.037  26.114  37.062  1.00  0.00     0.127 S 
ATOM     98  O   UNL A   1      47.375  26.261  37.632  1.00  0.00    -0.237 OA
ATOM     99  O   UNL A   1      44.943  26.352  38.005  1.00  0.00    -0.237 OA
ATOM    100  O   UNL A   1      45.845  24.956  36.199  1.00  0.00    -0.744 OA
ENDBRANCH  94  97
ENDBRANCH  67  90
ENDBRANCH  41  42
ENDBRANCH  33  36
ENDBRANCH  31  32
ENDBRANCH  30  31
ENDBRANCH  29  30
ENDBRANCH   1  29
TORSDOF 21
ENDMDL
MODEL 2
REMARK VINA RESULT:     -10.6      5.757     11.032
REMARK SMILES CC(C)[C@@H](C[NH3+])C(=O)N1[C@@H](C(=O)NCCCCCCNC(=O)c2ccc(-c3c4nc(c(-c5cccc(S(=O)(=O)[O-])c5F)c5ccc([nH]5)c(-c5cccc(S(=O)(=O)[O-])c5F)c5nc(c(-c6cccc(S(=O)(=O)[O-])c6F)c6ccc3[nH]6)C=C5)C=C4)cc2)CC[C@H]2CCCC[C@H]21
REMARK SMILES IDX 16 1 15 2 14 3 13 4 11 5 12 6 10 8 9 9 93 10 86 11 88 12
REMARK SMILES IDX 92 13 87 14 89 15 91 16 90 17 7 18 8 19 4 20 2 21 1 22 3 23
REMARK SMILES IDX 5 24 6 25 17 29 18 30 19 31 20 32 21 33 22 35 23 36 24 37
REMARK SMILES IDX 85 38 25 39 84 40 26 41 27 42 28 43 78 44 29 45 83 46 77 47
REMARK SMILES IDX 79 48 30 49 82 50 76 51 75 52 31 54 63 55 43 56 62 57 44 58
REMARK SMILES IDX 47 59 61 60 80 61 45 62 46 63 60 65 81 66 48 67 32 68 33 69
REMARK SMILES IDX 41 70 34 71 36 72 42 73 35 74 37 75 38 76 39 77 40 78 64 79
REMARK SMILES IDX 65 80 73 81 66 82 68 83 74 84 67 85 69 86 70 87 71 88 72 89
REMARK SMILES IDX 49 90 50 91 58 92 51 93 53 94 59 95 52 96 54 97 55 98 56 99
REMARK SMILES IDX 57 100
REMARK H PARENT 13 7 6 26 6 27 6 28 20 34 79 53 47 64
REMARK Flexibility Score: inf
ROOT
ATOM      1  C   UNL A   1      36.007  21.098  25.158  1.00  0.00     0.002 C 
ENDROOT
BRANCH   1   2
ATOM      2  C   UNL A   1      35.547  22.498  25.583  1.00  0.00     0.021 C 
BRANCH   2   3
ATOM      3  C   UNL A   1      36.217  23.625  24.806  1.00  0.00     0.116 C 
BRANCH   3   4
ATOM      4  N   UNL A   1      35.573  23.807  23.518  1.00  0.00    -0.354 N 
ATOM      5  C   UNL A   1      34.450  24.505  23.198  1.00  0.00     0.242 C 
ATOM      6  O   UNL A   1      33.999  24.358  22.055  1.00  0.00    -0.273 OA
ATOM      7  H   UNL A   1      36.015  23.359  22.762  1.00  0.00     0.163 HD
BRANCH   5   8
ATOM      8  C   UNL A   1      33.662  25.302  24.249  1.00  0.00     0.174 C 
ATOM      9  N   UNL A   1      32.197  25.072  24.348  1.00  0.00    -0.327 N 
ATOM     10  C   UNL A   1      31.501  26.079  25.188  1.00  0.00     0.089 C 
ATOM     11  C   UNL A   1      34.017  26.777  23.903  1.00  0.00     0.036 C 
ATOM     12  C   UNL A   1      31.730  27.518  24.702  1.00  0.00     0.012 C 
ATOM     13  C   UNL A   1      30.001  25.917  25.479  1.00  0.00     0.025 C 
ATOM     14  C   UNL A   1      33.221  27.834  24.647  1.00  0.00     0.008 C 
ATOM     15  C   UNL A   1      30.982  27.832  23.396  1.00  0.00     0.006 C 
ATOM     16  C   UNL A   1      29.068  26.402  24.370  1.00  0.00     0.002 C 
ATOM     17  C   UNL A   1      29.763  26.948  23.127  1.00  0.00     0.000 C 
BRANCH   9  18
ATOM     18  C   UNL A   1      31.567  23.838  24.203  1.00  0.00     0.232 C 
ATOM     19  O   UNL A   1      30.508  23.791  23.557  1.00  0.00    -0.274 OA
BRANCH  18  20
ATOM     20  C   UNL A   1      32.034  22.501  24.841  1.00  0.00     0.136 C 
BRANCH  20  21
ATOM     21  C   UNL A   1      31.562  22.184  26.283  1.00  0.00     0.001 C 
ATOM     22  C   UNL A   1      32.385  22.860  27.388  1.00  0.00     0.008 C 
ATOM     23  C   UNL A   1      30.100  22.596  26.497  1.00  0.00     0.008 C 
ENDBRANCH  20  21
BRANCH  20  24
ATOM     24  C   UNL A   1      32.039  21.343  23.833  1.00  0.00     0.272 C 
BRANCH  24  25
ATOM     25  N   UNL A   1      32.162  21.716  22.431  1.00  0.00    -0.357 N 
ATOM     26  H   UNL A   1      33.009  22.269  22.299  1.00  0.00     0.344 HD
ATOM     27  H   UNL A   1      31.349  22.265  22.153  1.00  0.00     0.344 HD
ATOM     28  H   UNL A   1      32.215  20.873  21.859  1.00  0.00     0.344 HD
ENDBRANCH  24  25
ENDBRANCH  20  24
ENDBRANCH  18  20
ENDBRANCH   9  18
ENDBRANCH   5   8
ENDBRANCH   3   4
ENDBRANCH   2   3
ENDBRANCH   1   2
BRANCH   1  29
ATOM     29  C   UNL A   1      37.406  21.034  24.538  1.00  0.00     0.002 C 
BRANCH  29  30
ATOM     30  C   UNL A   1      38.186  19.752  24.819  1.00  0.00     0.021 C 
BRANCH  30  31
ATOM     31  C   UNL A   1      38.900  19.735  26.163  1.00  0.00     0.116 C 
BRANCH  31  32
ATOM     32  N   UNL A   1      40.127  18.954  26.125  1.00  0.00    -0.352 N 
ATOM     33  C   UNL A   1      41.425  19.388  26.141  1.00  0.00     0.251 C 
ATOM     34  H   UNL A   1      40.007  17.977  26.081  1.00  0.00     0.163 HD
ATOM     35  O   UNL A   1      42.342  18.592  25.938  1.00  0.00    -0.269 OA
BRANCH  33  36
ATOM     36  C   UNL A   1      41.715  20.815  26.379  1.00  0.00     0.039 A 
ATOM     37  C   UNL A   1      42.252  21.193  27.610  1.00  0.00     0.014 A 
ATOM     38  C   UNL A   1      41.474  21.774  25.389  1.00  0.00     0.014 A 
ATOM     39  C   UNL A   1      42.587  22.527  27.832  1.00  0.00     0.010 A 
ATOM     40  C   UNL A   1      41.890  23.087  25.581  1.00  0.00     0.010 A 
ATOM     41  C   UNL A   1      42.437  23.480  26.809  1.00  0.00    -0.014 A 
BRANCH  41  42
ATOM     42  C   UNL A   1      42.870  24.884  27.022  1.00  0.00     0.031 A 
ATOM     43  C   UNL A   1      41.968  25.872  27.708  1.00  0.00     0.074 A 
ATOM     44  C   UNL A   1      44.071  25.279  26.553  1.00  0.00     0.049 A 
ATOM     45  N   UNL A   1      42.205  27.119  28.025  1.00  0.00    -0.248 NA
ATOM     46  C   UNL A   1      40.613  25.414  28.063  1.00  0.00     0.031 C 
ATOM     47  C   UNL A   1      44.993  24.441  25.781  1.00  0.00     0.029 A 
ATOM     48  N   UNL A   1      44.718  26.483  26.647  1.00  0.00    -0.354 N 
ATOM     49  C   UNL A   1      41.030  27.599  28.592  1.00  0.00     0.074 A 
ATOM     50  C   UNL A   1      40.065  26.524  28.534  1.00  0.00     0.031 C 
ATOM     51  C   UNL A   1      46.097  25.149  25.496  1.00  0.00     0.029 A 
ATOM     52  C   UNL A   1      45.952  26.495  26.040  1.00  0.00     0.049 A 
ATOM     53  H   UNL A   1      44.335  27.266  27.106  1.00  0.00     0.167 HD
ATOM     54  C   UNL A   1      40.787  28.814  29.140  1.00  0.00     0.034 A 
ATOM     55  C   UNL A   1      46.868  27.477  25.941  1.00  0.00     0.034 A 
ATOM     56  C   UNL A   1      41.761  29.869  29.222  1.00  0.00     0.049 A 
ATOM     57  C   UNL A   1      46.593  28.797  26.608  1.00  0.00     0.074 A 
ATOM     58  C   UNL A   1      41.644  31.104  29.835  1.00  0.00     0.029 A 
ATOM     59  N   UNL A   1      43.028  29.821  28.662  1.00  0.00    -0.354 N 
ATOM     60  N   UNL A   1      45.542  29.173  27.295  1.00  0.00    -0.248 NA
ATOM     61  C   UNL A   1      47.651  29.812  26.521  1.00  0.00     0.031 C 
ATOM     62  C   UNL A   1      42.830  31.813  29.620  1.00  0.00     0.029 A 
ATOM     63  C   UNL A   1      43.700  31.008  28.902  1.00  0.00     0.049 A 
ATOM     64  H   UNL A   1      43.397  29.055  28.165  1.00  0.00     0.167 HD
ATOM     65  C   UNL A   1      45.822  30.457  27.747  1.00  0.00     0.074 A 
ATOM     66  C   UNL A   1      47.158  30.777  27.285  1.00  0.00     0.031 C 
ATOM     67  C   UNL A   1      45.040  31.302  28.465  1.00  0.00     0.034 A 
BRANCH  54  68
ATOM     68  C   UNL A   1      39.424  29.049  29.740  1.00  0.00     0.023 A 
ATOM     69  C   UNL A   1      39.167  28.647  31.068  1.00  0.00     0.012 A 
ATOM     70  C   UNL A   1      38.415  29.714  29.016  1.00  0.00     0.148 A 
ATOM     71  C   UNL A   1      37.922  28.870  31.653  1.00  0.00     0.002 A 
ATOM     72  C   UNL A   1      37.191  29.976  29.621  1.00  0.00     0.091 A 
ATOM     73  F   UNL A   1      38.667  30.069  27.748  1.00  0.00    -0.205 F 
ATOM     74  C   UNL A   1      36.938  29.544  30.933  1.00  0.00     0.022 A 
BRANCH  72  75
ATOM     75  S   UNL A   1      35.887  30.908  28.811  1.00  0.00     0.127 S 
ATOM     76  O   UNL A   1      35.198  29.859  28.059  1.00  0.00    -0.237 OA
ATOM     77  O   UNL A   1      35.135  31.436  29.948  1.00  0.00    -0.237 OA
ATOM     78  O   UNL A   1      36.556  31.917  28.002  1.00  0.00    -0.744 OA
ENDBRANCH  72  75
ENDBRANCH  54  68
BRANCH  55  79
ATOM     79  C   UNL A   1      48.159  27.223  25.243  1.00  0.00     0.023 A 
ATOM     80  C   UNL A   1      49.249  26.696  25.964  1.00  0.00     0.012 A 
ATOM     81  C   UNL A   1      48.307  27.479  23.865  1.00  0.00     0.148 A 
ATOM     82  C   UNL A   1      50.472  26.464  25.335  1.00  0.00     0.002 A 
ATOM     83  C   UNL A   1      49.509  27.190  23.233  1.00  0.00     0.091 A 
ATOM     84  F   UNL A   1      47.261  27.989  23.200  1.00  0.00    -0.205 F 
ATOM     85  C   UNL A   1      50.599  26.700  23.970  1.00  0.00     0.022 A 
BRANCH  83  86
ATOM     86  S   UNL A   1      49.722  27.338  21.457  1.00  0.00     0.127 S 
ATOM     87  O   UNL A   1      48.587  26.571  20.953  1.00  0.00    -0.237 OA
ATOM     88  O   UNL A   1      49.624  28.786  21.261  1.00  0.00    -0.237 OA
ATOM     89  O   UNL A   1      51.038  26.781  21.170  1.00  0.00    -0.744 OA
ENDBRANCH  83  86
ENDBRANCH  55  79
BRANCH  67  90
ATOM     90  C   UNL A   1      45.620  32.650  28.812  1.00  0.00     0.023 A 
ATOM     91  C   UNL A   1      46.334  32.819  30.017  1.00  0.00     0.012 A 
ATOM     92  C   UNL A   1      45.486  33.741  27.932  1.00  0.00     0.148 A 
ATOM     93  C   UNL A   1      46.858  34.063  30.363  1.00  0.00     0.002 A 
ATOM     94  C   UNL A   1      46.059  34.965  28.259  1.00  0.00     0.091 A 
ATOM     95  F   UNL A   1      44.791  33.570  26.799  1.00  0.00    -0.205 F 
ATOM     96  C   UNL A   1      46.728  35.132  29.482  1.00  0.00     0.022 A 
BRANCH  94  97
ATOM     97  S   UNL A   1      46.028  36.368  27.138  1.00  0.00     0.127 S 
ATOM     98  O   UNL A   1      44.601  36.682  27.093  1.00  0.00    -0.237 OA
ATOM     99  O   UNL A   1      46.846  37.352  27.848  1.00  0.00    -0.237 OA
ATOM    100  O   UNL A   1      46.607  35.893  25.889  1.00  0.00    -0.744 OA
ENDBRANCH  94  97
ENDBRANCH  67  90
ENDBRANCH  41  42
ENDBRANCH  33  36
ENDBRANCH  31  32
ENDBRANCH  30  31
ENDBRANCH  29  30
ENDBRANCH   1  29
TORSDOF 21
ENDMDL
MODEL 3
REMARK VINA RESULT:     -10.6      2.247      3.054
REMARK SMILES CC(C)[C@@H](C[NH3+])C(=O)N1[C@@H](C(=O)NCCCCCCNC(=O)c2ccc(-c3c4nc(c(-c5cccc(S(=O)(=O)[O-])c5F)c5ccc([nH]5)c(-c5cccc(S(=O)(=O)[O-])c5F)c5nc(c(-c6cccc(S(=O)(=O)[O-])c6F)c6ccc3[nH]6)C=C5)C=C4)cc2)CC[C@H]2CCCC[C@H]21
REMARK SMILES IDX 16 1 15 2 14 3 13 4 11 5 12 6 10 8 9 9 93 10 86 11 88 12
REMARK SMILES IDX 92 13 87 14 89 15 91 16 90 17 7 18 8 19 4 20 2 21 1 22 3 23
REMARK SMILES IDX 5 24 6 25 17 29 18 30 19 31 20 32 21 33 22 35 23 36 24 37
REMARK SMILES IDX 85 38 25 39 84 40 26 41 27 42 28 43 78 44 29 45 83 46 77 47
REMARK SMILES IDX 79 48 30 49 82 50 76 51 75 52 31 54 63 55 43 56 62 57 44 58
REMARK SMILES IDX 47 59 61 60 80 61 45 62 46 63 60 65 81 66 48 67 32 68 33 69
REMARK SMILES IDX 41 70 34 71 36 72 42 73 35 74 37 75 38 76 39 77 40 78 64 79
REMARK SMILES IDX 65 80 73 81 66 82 68 83 74 84 67 85 69 86 70 87 71 88 72 89
REMARK SMILES IDX 49 90 50 91 58 92 51 93 53 94 59 95 52 96 54 97 55 98 56 99
REMARK SMILES IDX 57 100
REMARK H PARENT 13 7 6 26 6 27 6 28 20 34 79 53 47 64
REMARK Flexibility Score: inf
ROOT
ATOM      1  C   UNL A   1      32.616  30.061  26.797  1.00  0.00     0.002 C 
ENDROOT
BRANCH   1   2
ATOM      2  C   UNL A   1      32.330  28.559  26.903  1.00  0.00     0.021 C 
BRANCH   2   3
ATOM      3  C   UNL A   1      33.585  27.693  26.870  1.00  0.00     0.116 C 
BRANCH   3   4
ATOM      4  N   UNL A   1      34.019  27.477  25.502  1.00  0.00    -0.354 N 
ATOM      5  C   UNL A   1      33.576  26.580  24.580  1.00  0.00     0.242 C 
ATOM      6  O   UNL A   1      34.233  26.469  23.537  1.00  0.00    -0.273 OA
ATOM      7  H   UNL A   1      34.741  28.070  25.194  1.00  0.00     0.163 HD
BRANCH   5   8
ATOM      8  C   UNL A   1      32.422  25.611  24.879  1.00  0.00     0.174 C 
ATOM      9  N   UNL A   1      32.755  24.188  25.150  1.00  0.00    -0.327 N 
ATOM     10  C   UNL A   1      31.567  23.298  25.149  1.00  0.00     0.089 C 
ATOM     11  C   UNL A   1      31.493  25.787  23.644  1.00  0.00     0.036 C 
ATOM     12  C   UNL A   1      30.775  23.365  23.834  1.00  0.00     0.012 C 
ATOM     13  C   UNL A   1      31.730  21.816  25.522  1.00  0.00     0.025 C 
ATOM     14  C   UNL A   1      30.346  24.798  23.541  1.00  0.00     0.008 C 
ATOM     15  C   UNL A   1      31.505  22.685  22.664  1.00  0.00     0.006 C 
ATOM     16  C   UNL A   1      32.233  20.915  24.395  1.00  0.00     0.002 C 
ATOM     17  C   UNL A   1      32.526  21.623  23.076  1.00  0.00     0.000 C 
BRANCH   9  18
ATOM     18  C   UNL A   1      33.866  23.746  25.866  1.00  0.00     0.232 C 
ATOM     19  O   UNL A   1      33.964  24.074  27.059  1.00  0.00    -0.274 OA
BRANCH  18  20
ATOM     20  C   UNL A   1      35.049  22.923  25.286  1.00  0.00     0.136 C 
BRANCH  20  21
ATOM     21  C   UNL A   1      36.259  23.702  24.710  1.00  0.00     0.001 C 
ATOM     22  C   UNL A   1      37.501  23.711  25.611  1.00  0.00     0.008 C 
ATOM     23  C   UNL A   1      36.692  23.136  23.352  1.00  0.00     0.008 C 
ENDBRANCH  20  21
BRANCH  20  24
ATOM     24  C   UNL A   1      35.353  21.670  26.120  1.00  0.00     0.272 C 
BRANCH  24  25
ATOM     25  N   UNL A   1      34.674  21.577  27.405  1.00  0.00    -0.357 N 
ATOM     26  H   UNL A   1      35.353  21.356  28.133  1.00  0.00     0.344 HD
ATOM     27  H   UNL A   1      33.967  20.843  27.364  1.00  0.00     0.344 HD
ATOM     28  H   UNL A   1      34.226  22.469  27.618  1.00  0.00     0.344 HD
ENDBRANCH  24  25
ENDBRANCH  20  24
ENDBRANCH  18  20
ENDBRANCH   9  18
ENDBRANCH   5   8
ENDBRANCH   3   4
ENDBRANCH   2   3
ENDBRANCH   1   2
BRANCH   1  29
ATOM     29  C   UNL A   1      31.405  30.930  26.444  1.00  0.00     0.002 C 
BRANCH  29  30
ATOM     30  C   UNL A   1      31.660  32.436  26.445  1.00  0.00     0.021 C 
BRANCH  30  31
ATOM     31  C   UNL A   1      32.682  32.898  27.474  1.00  0.00     0.116 C 
BRANCH  31  32
ATOM     32  N   UNL A   1      32.588  34.326  27.738  1.00  0.00    -0.352 N 
ATOM     33  C   UNL A   1      33.275  35.080  28.652  1.00  0.00     0.251 C 
ATOM     34  H   UNL A   1      31.941  34.819  27.183  1.00  0.00     0.163 HD
ATOM     35  O   UNL A   1      32.951  36.250  28.851  1.00  0.00    -0.269 OA
BRANCH  33  36
ATOM     36  C   UNL A   1      34.386  34.474  29.411  1.00  0.00     0.039 A 
ATOM     37  C   UNL A   1      34.103  33.844  30.624  1.00  0.00     0.014 A 
ATOM     38  C   UNL A   1      35.697  34.512  28.923  1.00  0.00     0.014 A 
ATOM     39  C   UNL A   1      35.130  33.215  31.326  1.00  0.00     0.010 A 
ATOM     40  C   UNL A   1      36.701  33.809  29.581  1.00  0.00     0.010 A 
ATOM     41  C   UNL A   1      36.432  33.166  30.796  1.00  0.00    -0.014 A 
BRANCH  41  42
ATOM     42  C   UNL A   1      37.504  32.427  31.507  1.00  0.00     0.031 A 
ATOM     43  C   UNL A   1      38.228  31.290  30.840  1.00  0.00     0.074 A 
ATOM     44  C   UNL A   1      37.795  32.757  32.781  1.00  0.00     0.049 A 
ATOM     45  N   UNL A   1      39.225  30.573  31.292  1.00  0.00    -0.248 NA
ATOM     46  C   UNL A   1      37.760  30.886  29.503  1.00  0.00     0.031 C 
ATOM     47  C   UNL A   1      37.093  33.772  33.572  1.00  0.00     0.029 A 
ATOM     48  N   UNL A   1      38.748  32.271  33.638  1.00  0.00    -0.354 N 
ATOM     49  C   UNL A   1      39.486  29.623  30.311  1.00  0.00     0.074 A 
ATOM     50  C   UNL A   1      38.514  29.825  29.259  1.00  0.00     0.031 C 
ATOM     51  C   UNL A   1      37.658  33.851  34.787  1.00  0.00     0.029 A 
ATOM     52  C   UNL A   1      38.741  32.878  34.872  1.00  0.00     0.049 A 
ATOM     53  H   UNL A   1      39.378  31.554  33.393  1.00  0.00     0.167 HD
ATOM     54  C   UNL A   1      40.466  28.689  30.275  1.00  0.00     0.034 A 
ATOM     55  C   UNL A   1      39.525  32.678  35.948  1.00  0.00     0.034 A 
ATOM     56  C   UNL A   1      41.448  28.512  31.310  1.00  0.00     0.049 A 
ATOM     57  C   UNL A   1      40.640  31.673  35.859  1.00  0.00     0.074 A 
ATOM     58  C   UNL A   1      42.535  27.656  31.331  1.00  0.00     0.029 A 
ATOM     59  N   UNL A   1      41.457  29.195  32.517  1.00  0.00    -0.354 N 
ATOM     60  N   UNL A   1      40.983  30.906  34.853  1.00  0.00    -0.248 NA
ATOM     61  C   UNL A   1      41.503  31.539  37.040  1.00  0.00     0.031 C 
ATOM     62  C   UNL A   1      43.183  27.800  32.562  1.00  0.00     0.029 A 
ATOM     63  C   UNL A   1      42.521  28.772  33.296  1.00  0.00     0.049 A 
ATOM     64  H   UNL A   1      40.803  29.881  32.782  1.00  0.00     0.167 HD
ATOM     65  C   UNL A   1      42.118  30.219  35.267  1.00  0.00     0.074 A 
ATOM     66  C   UNL A   1      42.423  30.690  36.604  1.00  0.00     0.031 C 
ATOM     67  C   UNL A   1      42.833  29.271  34.610  1.00  0.00     0.034 A 
BRANCH  54  68
ATOM     68  C   UNL A   1      40.553  27.815  29.048  1.00  0.00     0.023 A 
ATOM     69  C   UNL A   1      39.650  26.743  28.890  1.00  0.00     0.012 A 
ATOM     70  C   UNL A   1      41.487  28.085  28.029  1.00  0.00     0.148 A 
ATOM     71  C   UNL A   1      39.697  25.933  27.757  1.00  0.00     0.002 A 
ATOM     72  C   UNL A   1      41.497  27.302  26.880  1.00  0.00     0.091 A 
ATOM     73  F   UNL A   1      42.353  29.093  28.205  1.00  0.00    -0.205 F 
ATOM     74  C   UNL A   1      40.613  26.219  26.747  1.00  0.00     0.022 A 
BRANCH  72  75
ATOM     75  S   UNL A   1      42.581  27.637  25.487  1.00  0.00     0.127 S 
ATOM     76  O   UNL A   1      42.324  26.479  24.629  1.00  0.00    -0.237 OA
ATOM     77  O   UNL A   1      42.047  28.900  24.980  1.00  0.00    -0.237 OA
ATOM     78  O   UNL A   1      43.927  27.720  26.034  1.00  0.00    -0.744 OA
ENDBRANCH  72  75
ENDBRANCH  54  68
BRANCH  55  79
ATOM     79  C   UNL A   1      39.327  33.498  37.177  1.00  0.00     0.023 A 
ATOM     80  C   UNL A   1      38.409  33.073  38.157  1.00  0.00     0.012 A 
ATOM     81  C   UNL A   1      40.058  34.683  37.389  1.00  0.00     0.148 A 
ATOM     82  C   UNL A   1      38.196  33.831  39.309  1.00  0.00     0.002 A 
ATOM     83  C   UNL A   1      39.883  35.402  38.564  1.00  0.00     0.091 A 
ATOM     84  F   UNL A   1      40.919  35.076  36.439  1.00  0.00    -0.205 F 
ATOM     85  C   UNL A   1      38.939  34.989  39.517  1.00  0.00     0.022 A 
BRANCH  83  86
ATOM     86  S   UNL A   1      40.890  36.831  38.977  1.00  0.00     0.127 S 
ATOM     87  O   UNL A   1      41.722  36.966  37.784  1.00  0.00    -0.237 OA
ATOM     88  O   UNL A   1      39.877  37.875  39.144  1.00  0.00    -0.237 OA
ATOM     89  O   UNL A   1      41.594  36.475  40.202  1.00  0.00    -0.744 OA
ENDBRANCH  83  86
ENDBRANCH  55  79
BRANCH  67  90
ATOM     90  C   UNL A   1      44.031  28.696  35.322  1.00  0.00     0.023 A 
ATOM     91  C   UNL A   1      45.304  29.272  35.134  1.00  0.00     0.012 A 
ATOM     92  C   UNL A   1      43.892  27.604  36.201  1.00  0.00     0.148 A 
ATOM     93  C   UNL A   1      46.425  28.739  35.768  1.00  0.00     0.002 A 
ATOM     94  C   UNL A   1      45.006  27.112  36.872  1.00  0.00     0.091 A 
ATOM     95  F   UNL A   1      42.678  27.056  36.356  1.00  0.00    -0.205 F 
ATOM     96  C   UNL A   1      46.275  27.666  36.642  1.00  0.00     0.022 A 
BRANCH  94  97
ATOM     97  S   UNL A   1      44.888  25.799  38.091  1.00  0.00     0.127 S 
ATOM     98  O   UNL A   1      44.194  24.755  37.340  1.00  0.00    -0.237 OA
ATOM     99  O   UNL A   1      46.295  25.512  38.376  1.00  0.00    -0.237 OA
ATOM    100  O   UNL A   1      44.150  26.362  39.214  1.00  0.00    -0.744 OA
ENDBRANCH  94  97
ENDBRANCH  67  90
ENDBRANCH  41  42
ENDBRANCH  33  36
ENDBRANCH  31  32
ENDBRANCH  30  31
ENDBRANCH  29  30
ENDBRANCH   1  29
TORSDOF 21
ENDMDL
