MODEL 1
REMARK VINA RESULT:     -11.2      0.000      0.000
REMARK SMILES [NH3+][C@H](Cc1cc(F)c(F)c(F)c1)C(=O)NCCCCCCNC(=O)c1ccc(-c2c3nc(c(-c4cccc(S(=O)(=O)[O-])c4F)c4ccc([nH]4)c(-c4cccc(S(=O)(=O)[O-])c4F)c4nc(c(-c5cccc(S(=O)(=O)[O-])c5F)c5ccc2[nH]5)C=C4)C=C3)cc1
REMARK SMILES IDX 19 1 18 2 17 3 16 4 15 5 13 6 14 7 2 9 1 10 3 14 4 15 5 16
REMARK SMILES IDX 12 17 6 18 10 19 7 20 8 21 11 22 9 23 20 24 21 25 22 26
REMARK SMILES IDX 23 27 24 29 25 30 26 31 87 32 27 33 86 34 28 35 29 36 30 37
REMARK SMILES IDX 80 38 31 39 85 40 79 41 81 42 32 43 84 44 78 45 77 46 33 48
REMARK SMILES IDX 65 49 45 50 64 51 46 52 49 53 63 54 82 55 47 56 48 57 62 59
REMARK SMILES IDX 83 60 50 61 34 62 35 63 43 64 36 65 38 66 44 67 37 68 39 69
REMARK SMILES IDX 40 70 41 71 42 72 66 73 67 74 75 75 68 76 70 77 76 78 69 79
REMARK SMILES IDX 71 80 72 81 73 82 74 83 51 84 52 85 60 86 53 87 55 88 61 89
REMARK SMILES IDX 54 90 56 91 57 92 58 93 59 94
REMARK H PARENT 15 8 1 11 1 12 1 13 22 28 81 47 49 58
REMARK Flexibility Score: inf
ROOT
ATOM      1  C   UNL A   1      36.661  21.245  24.643  1.00  0.00     0.002 C 
ENDROOT
BRANCH   1   2
ATOM      2  C   UNL A   1      37.217  22.661  24.798  1.00  0.00     0.002 C 
BRANCH   2   3
ATOM      3  C   UNL A   1      36.240  23.667  25.412  1.00  0.00     0.021 C 
BRANCH   3   4
ATOM      4  C   UNL A   1      35.319  23.130  26.503  1.00  0.00     0.116 C 
BRANCH   4   5
ATOM      5  N   UNL A   1      34.009  23.754  26.479  1.00  0.00    -0.351 N 
ATOM      6  C   UNL A   1      32.906  23.574  25.706  1.00  0.00     0.278 C 
ATOM      7  O   UNL A   1      31.966  24.358  25.895  1.00  0.00    -0.268 OA
ATOM      8  H   UNL A   1      33.895  24.452  27.165  1.00  0.00     0.163 HD
BRANCH   6   9
ATOM      9  C   UNL A   1      32.786  22.482  24.623  1.00  0.00     0.275 C 
BRANCH   9  10
ATOM     10  N   UNL A   1      32.162  23.026  23.393  1.00  0.00    -0.347 N 
ATOM     11  H   UNL A   1      32.707  22.740  22.580  1.00  0.00     0.345 HD
ATOM     12  H   UNL A   1      32.140  24.045  23.445  1.00  0.00     0.345 HD
ATOM     13  H   UNL A   1      31.210  22.669  23.308  1.00  0.00     0.345 HD
ENDBRANCH   9  10
BRANCH   9  14
ATOM     14  C   UNL A   1      32.280  21.070  25.015  1.00  0.00     0.111 C 
BRANCH  14  15
ATOM     15  C   UNL A   1      32.827  19.812  24.380  1.00  0.00    -0.036 A 
ATOM     16  C   UNL A   1      33.985  19.162  24.832  1.00  0.00     0.046 A 
ATOM     17  C   UNL A   1      32.166  19.279  23.255  1.00  0.00     0.046 A 
ATOM     18  C   UNL A   1      34.385  17.952  24.255  1.00  0.00     0.162 A 
ATOM     19  C   UNL A   1      32.592  18.082  22.677  1.00  0.00     0.162 A 
ATOM     20  F   UNL A   1      35.443  17.305  24.766  1.00  0.00    -0.204 F 
ATOM     21  C   UNL A   1      33.685  17.404  23.190  1.00  0.00     0.194 A 
ATOM     22  F   UNL A   1      31.905  17.575  21.645  1.00  0.00    -0.204 F 
ATOM     23  F   UNL A   1      34.053  16.223  22.675  1.00  0.00    -0.200 F 
ENDBRANCH  14  15
ENDBRANCH   9  14
ENDBRANCH   6   9
ENDBRANCH   4   5
ENDBRANCH   3   4
ENDBRANCH   2   3
ENDBRANCH   1   2
BRANCH   1  24
ATOM     24  C   UNL A   1      37.664  20.122  24.917  1.00  0.00     0.021 C 
BRANCH  24  25
ATOM     25  C   UNL A   1      38.867  20.525  25.769  1.00  0.00     0.116 C 
BRANCH  25  26
ATOM     26  N   UNL A   1      39.801  19.424  25.945  1.00  0.00    -0.352 N 
ATOM     27  C   UNL A   1      41.160  19.492  26.140  1.00  0.00     0.251 C 
ATOM     28  H   UNL A   1      39.413  18.519  25.923  1.00  0.00     0.163 HD
ATOM     29  O   UNL A   1      41.862  18.487  26.065  1.00  0.00    -0.269 OA
BRANCH  27  30
ATOM     30  C   UNL A   1      41.766  20.808  26.426  1.00  0.00     0.039 A 
ATOM     31  C   UNL A   1      42.127  21.645  25.368  1.00  0.00     0.014 A 
ATOM     32  C   UNL A   1      41.915  21.229  27.751  1.00  0.00     0.014 A 
ATOM     33  C   UNL A   1      42.587  22.936  25.640  1.00  0.00     0.010 A 
ATOM     34  C   UNL A   1      42.311  22.536  28.015  1.00  0.00     0.010 A 
ATOM     35  C   UNL A   1      42.655  23.402  26.964  1.00  0.00    -0.014 A 
BRANCH  35  36
ATOM     36  C   UNL A   1      43.085  24.788  27.282  1.00  0.00     0.031 A 
ATOM     37  C   UNL A   1      42.118  25.736  27.940  1.00  0.00     0.074 A 
ATOM     38  C   UNL A   1      44.298  25.226  26.886  1.00  0.00     0.049 A 
ATOM     39  N   UNL A   1      42.261  27.008  28.205  1.00  0.00    -0.248 NA
ATOM     40  C   UNL A   1      40.803  25.192  28.321  1.00  0.00     0.031 C 
ATOM     41  C   UNL A   1      45.298  24.427  26.174  1.00  0.00     0.029 A 
ATOM     42  N   UNL A   1      44.882  26.465  26.992  1.00  0.00    -0.354 N 
ATOM     43  C   UNL A   1      41.045  27.427  28.730  1.00  0.00     0.074 A 
ATOM     44  C   UNL A   1      40.166  26.278  28.733  1.00  0.00     0.031 C 
ATOM     45  C   UNL A   1      46.366  25.196  25.902  1.00  0.00     0.029 A 
ATOM     46  C   UNL A   1      46.118  26.548  26.391  1.00  0.00     0.049 A 
ATOM     47  H   UNL A   1      44.456  27.223  27.454  1.00  0.00     0.167 HD
ATOM     48  C   UNL A   1      40.697  28.651  29.191  1.00  0.00     0.034 A 
ATOM     49  C   UNL A   1      46.951  27.599  26.242  1.00  0.00     0.034 A 
ATOM     50  C   UNL A   1      41.595  29.770  29.253  1.00  0.00     0.049 A 
ATOM     51  C   UNL A   1      46.555  28.933  26.820  1.00  0.00     0.074 A 
ATOM     52  C   UNL A   1      41.374  31.016  29.814  1.00  0.00     0.029 A 
ATOM     53  N   UNL A   1      42.880  29.784  28.736  1.00  0.00    -0.354 N 
ATOM     54  N   UNL A   1      45.469  29.260  27.477  1.00  0.00    -0.248 NA
ATOM     55  C   UNL A   1      47.517  30.037  26.670  1.00  0.00     0.031 C 
ATOM     56  C   UNL A   1      42.519  31.793  29.615  1.00  0.00     0.029 A 
ATOM     57  C   UNL A   1      43.461  31.020  28.954  1.00  0.00     0.049 A 
ATOM     58  H   UNL A   1      43.315  29.027  28.283  1.00  0.00     0.167 HD
ATOM     59  C   UNL A   1      45.637  30.586  27.857  1.00  0.00     0.074 A 
ATOM     60  C   UNL A   1      46.936  31.001  27.372  1.00  0.00     0.031 C 
ATOM     61  C   UNL A   1      44.786  31.394  28.535  1.00  0.00     0.034 A 
BRANCH  48  62
ATOM     62  C   UNL A   1      39.302  28.844  29.719  1.00  0.00     0.023 A 
ATOM     63  C   UNL A   1      39.010  28.511  31.056  1.00  0.00     0.012 A 
ATOM     64  C   UNL A   1      38.310  29.448  28.922  1.00  0.00     0.148 A 
ATOM     65  C   UNL A   1      37.745  28.756  31.588  1.00  0.00     0.002 A 
ATOM     66  C   UNL A   1      37.065  29.731  29.472  1.00  0.00     0.091 A 
ATOM     67  F   UNL A   1      38.604  29.741  27.647  1.00  0.00    -0.205 F 
ATOM     68  C   UNL A   1      36.778  29.377  30.801  1.00  0.00     0.022 A 
BRANCH  66  69
ATOM     69  S   UNL A   1      35.780  30.604  28.571  1.00  0.00     0.127 S 
ATOM     70  O   UNL A   1      36.567  31.528  27.755  1.00  0.00    -0.237 OA
ATOM     71  O   UNL A   1      35.140  29.522  27.823  1.00  0.00    -0.237 OA
ATOM     72  O   UNL A   1      34.936  31.232  29.579  1.00  0.00    -0.744 OA
ENDBRANCH  66  69
ENDBRANCH  48  62
BRANCH  49  73
ATOM     73  C   UNL A   1      48.270  27.430  25.567  1.00  0.00     0.023 A 
ATOM     74  C   UNL A   1      49.414  27.163  26.343  1.00  0.00     0.012 A 
ATOM     75  C   UNL A   1      48.404  27.545  24.169  1.00  0.00     0.148 A 
ATOM     76  C   UNL A   1      50.673  27.060  25.750  1.00  0.00     0.002 A 
ATOM     77  C   UNL A   1      49.653  27.386  23.578  1.00  0.00     0.091 A 
ATOM     78  F   UNL A   1      47.310  27.816  23.443  1.00  0.00    -0.205 F 
ATOM     79  C   UNL A   1      50.791  27.163  24.368  1.00  0.00     0.022 A 
BRANCH  77  80
ATOM     80  S   UNL A   1      49.867  27.373  21.794  1.00  0.00     0.127 S 
ATOM     81  O   UNL A   1      51.285  27.045  21.664  1.00  0.00    -0.237 OA
ATOM     82  O   UNL A   1      48.948  26.313  21.380  1.00  0.00    -0.237 OA
ATOM     83  O   UNL A   1      49.477  28.704  21.349  1.00  0.00    -0.744 OA
ENDBRANCH  77  80
ENDBRANCH  49  73
BRANCH  61  84
ATOM     84  C   UNL A   1      45.242  32.793  28.854  1.00  0.00     0.023 A 
ATOM     85  C   UNL A   1      45.917  33.054  30.061  1.00  0.00     0.012 A 
ATOM     86  C   UNL A   1      45.089  33.825  27.907  1.00  0.00     0.148 A 
ATOM     87  C   UNL A   1      46.412  34.330  30.333  1.00  0.00     0.002 A 
ATOM     88  C   UNL A   1      45.629  35.079  28.161  1.00  0.00     0.091 A 
ATOM     89  F   UNL A   1      44.428  33.558  26.770  1.00  0.00    -0.205 F 
ATOM     90  C   UNL A   1      46.280  35.336  29.379  1.00  0.00     0.022 A 
BRANCH  88  91
ATOM     91  S   UNL A   1      45.598  36.405  26.950  1.00  0.00     0.127 S 
ATOM     92  O   UNL A   1      46.566  37.346  27.513  1.00  0.00    -0.237 OA
ATOM     93  O   UNL A   1      46.045  35.724  25.733  1.00  0.00    -0.237 OA
ATOM     94  O   UNL A   1      44.221  36.877  26.906  1.00  0.00    -0.744 OA
ENDBRANCH  88  91
ENDBRANCH  61  84
ENDBRANCH  35  36
ENDBRANCH  27  30
ENDBRANCH  25  26
ENDBRANCH  24  25
ENDBRANCH   1  24
TORSDOF 19
ENDMDL
MODEL 2
REMARK VINA RESULT:     -11.1      6.539     11.445
REMARK SMILES [NH3+][C@H](Cc1cc(F)c(F)c(F)c1)C(=O)NCCCCCCNC(=O)c1ccc(-c2c3nc(c(-c4cccc(S(=O)(=O)[O-])c4F)c4ccc([nH]4)c(-c4cccc(S(=O)(=O)[O-])c4F)c4nc(c(-c5cccc(S(=O)(=O)[O-])c5F)c5ccc2[nH]5)C=C4)C=C3)cc1
REMARK SMILES IDX 19 1 18 2 17 3 16 4 15 5 13 6 14 7 2 9 1 10 3 14 4 15 5 16
REMARK SMILES IDX 12 17 6 18 10 19 7 20 8 21 11 22 9 23 20 24 21 25 22 26
REMARK SMILES IDX 23 27 24 29 25 30 26 31 87 32 27 33 86 34 28 35 29 36 30 37
REMARK SMILES IDX 80 38 31 39 85 40 79 41 81 42 32 43 84 44 78 45 77 46 33 48
REMARK SMILES IDX 65 49 45 50 64 51 46 52 49 53 63 54 82 55 47 56 48 57 62 59
REMARK SMILES IDX 83 60 50 61 34 62 35 63 43 64 36 65 38 66 44 67 37 68 39 69
REMARK SMILES IDX 40 70 41 71 42 72 66 73 67 74 75 75 68 76 70 77 76 78 69 79
REMARK SMILES IDX 71 80 72 81 73 82 74 83 51 84 52 85 60 86 53 87 55 88 61 89
REMARK SMILES IDX 54 90 56 91 57 92 58 93 59 94
REMARK H PARENT 15 8 1 11 1 12 1 13 22 28 81 47 49 58
REMARK Flexibility Score: inf
ROOT
ATOM      1  C   UNL A   1      32.276  30.065  26.049  1.00  0.00     0.002 C 
ENDROOT
BRANCH   1   2
ATOM      2  C   UNL A   1      31.966  28.842  26.912  1.00  0.00     0.002 C 
BRANCH   2   3
ATOM      3  C   UNL A   1      31.314  27.678  26.161  1.00  0.00     0.021 C 
BRANCH   3   4
ATOM      4  C   UNL A   1      32.029  26.334  26.252  1.00  0.00     0.116 C 
BRANCH   4   5
ATOM      5  N   UNL A   1      31.215  25.316  26.891  1.00  0.00    -0.351 N 
ATOM      6  C   UNL A   1      30.838  24.061  26.528  1.00  0.00     0.278 C 
ATOM      7  O   UNL A   1      30.043  23.485  27.282  1.00  0.00    -0.268 OA
ATOM      8  H   UNL A   1      30.862  25.591  27.769  1.00  0.00     0.163 HD
BRANCH   6   9
ATOM      9  C   UNL A   1      31.329  23.356  25.248  1.00  0.00     0.275 C 
BRANCH   9  10
ATOM     10  N   UNL A   1      30.569  23.823  24.064  1.00  0.00    -0.347 N 
ATOM     11  H   UNL A   1      29.986  23.064  23.712  1.00  0.00     0.345 HD
ATOM     12  H   UNL A   1      31.220  24.118  23.336  1.00  0.00     0.345 HD
ATOM     13  H   UNL A   1      29.977  24.611  24.330  1.00  0.00     0.345 HD
ENDBRANCH   9  10
BRANCH   9  14
ATOM     14  C   UNL A   1      31.586  21.826  25.269  1.00  0.00     0.111 C 
BRANCH  14  15
ATOM     15  C   UNL A   1      32.978  21.241  25.215  1.00  0.00    -0.036 A 
ATOM     16  C   UNL A   1      33.244  19.920  24.824  1.00  0.00     0.046 A 
ATOM     17  C   UNL A   1      34.067  22.047  25.608  1.00  0.00     0.046 A 
ATOM     18  C   UNL A   1      34.564  19.471  24.711  1.00  0.00     0.162 A 
ATOM     19  C   UNL A   1      35.376  21.575  25.509  1.00  0.00     0.162 A 
ATOM     20  F   UNL A   1      34.794  18.234  24.248  1.00  0.00    -0.204 F 
ATOM     21  C   UNL A   1      35.630  20.298  25.038  1.00  0.00     0.194 A 
ATOM     22  F   UNL A   1      36.390  22.387  25.837  1.00  0.00    -0.204 F 
ATOM     23  F   UNL A   1      36.890  19.870  24.882  1.00  0.00    -0.200 F 
ENDBRANCH  14  15
ENDBRANCH   9  14
ENDBRANCH   6   9
ENDBRANCH   4   5
ENDBRANCH   3   4
ENDBRANCH   2   3
ENDBRANCH   1   2
BRANCH   1  24
ATOM     24  C   UNL A   1      31.866  31.408  26.659  1.00  0.00     0.021 C 
BRANCH  24  25
ATOM     25  C   UNL A   1      32.998  32.184  27.328  1.00  0.00     0.116 C 
BRANCH  25  26
ATOM     26  N   UNL A   1      32.653  33.583  27.530  1.00  0.00    -0.352 N 
ATOM     27  C   UNL A   1      33.131  34.442  28.491  1.00  0.00     0.251 C 
ATOM     28  H   UNL A   1      31.997  33.963  26.900  1.00  0.00     0.163 HD
ATOM     29  O   UNL A   1      32.605  35.534  28.683  1.00  0.00    -0.269 OA
BRANCH  27  30
ATOM     30  C   UNL A   1      34.286  34.014  29.306  1.00  0.00     0.039 A 
ATOM     31  C   UNL A   1      34.077  33.208  30.427  1.00  0.00     0.014 A 
ATOM     32  C   UNL A   1      35.580  34.369  28.913  1.00  0.00     0.014 A 
ATOM     33  C   UNL A   1      35.178  32.706  31.126  1.00  0.00     0.010 A 
ATOM     34  C   UNL A   1      36.673  33.815  29.572  1.00  0.00     0.010 A 
ATOM     35  C   UNL A   1      36.485  32.981  30.687  1.00  0.00    -0.014 A 
BRANCH  35  36
ATOM     36  C   UNL A   1      37.675  32.416  31.373  1.00  0.00     0.031 A 
ATOM     37  C   UNL A   1      38.426  31.273  30.743  1.00  0.00     0.074 A 
ATOM     38  C   UNL A   1      38.013  32.850  32.605  1.00  0.00     0.049 A 
ATOM     39  N   UNL A   1      39.420  30.574  31.225  1.00  0.00    -0.248 NA
ATOM     40  C   UNL A   1      37.982  30.837  29.407  1.00  0.00     0.031 C 
ATOM     41  C   UNL A   1      37.318  33.899  33.355  1.00  0.00     0.029 A 
ATOM     42  N   UNL A   1      39.005  32.436  33.460  1.00  0.00    -0.354 N 
ATOM     43  C   UNL A   1      39.683  29.587  30.282  1.00  0.00     0.074 A 
ATOM     44  C   UNL A   1      38.735  29.765  29.205  1.00  0.00     0.031 C 
ATOM     45  C   UNL A   1      37.901  34.041  34.558  1.00  0.00     0.029 A 
ATOM     46  C   UNL A   1      38.989  33.076  34.679  1.00  0.00     0.049 A 
ATOM     47  H   UNL A   1      39.666  31.745  33.223  1.00  0.00     0.167 HD
ATOM     48  C   UNL A   1      40.643  28.633  30.300  1.00  0.00     0.034 A 
ATOM     49  C   UNL A   1      39.756  32.895  35.773  1.00  0.00     0.034 A 
ATOM     50  C   UNL A   1      41.629  28.506  31.337  1.00  0.00     0.049 A 
ATOM     51  C   UNL A   1      40.854  31.864  35.735  1.00  0.00     0.074 A 
ATOM     52  C   UNL A   1      42.715  27.649  31.385  1.00  0.00     0.029 A 
ATOM     53  N   UNL A   1      41.649  29.247  32.506  1.00  0.00    -0.354 N 
ATOM     54  N   UNL A   1      41.200  31.062  34.758  1.00  0.00    -0.248 NA
ATOM     55  C   UNL A   1      41.692  31.736  36.938  1.00  0.00     0.031 C 
ATOM     56  C   UNL A   1      43.380  27.857  32.597  1.00  0.00     0.029 A 
ATOM     57  C   UNL A   1      42.722  28.861  33.289  1.00  0.00     0.049 A 
ATOM     58  H   UNL A   1      40.998  29.945  32.744  1.00  0.00     0.167 HD
ATOM     59  C   UNL A   1      42.320  30.373  35.208  1.00  0.00     0.074 A 
ATOM     60  C   UNL A   1      42.605  30.860  36.541  1.00  0.00     0.031 C 
ATOM     61  C   UNL A   1      43.040  29.411  34.581  1.00  0.00     0.034 A 
BRANCH  48  62
ATOM     62  C   UNL A   1      40.720  27.678  29.141  1.00  0.00     0.023 A 
ATOM     63  C   UNL A   1      39.821  26.595  29.068  1.00  0.00     0.012 A 
ATOM     64  C   UNL A   1      41.612  27.911  28.076  1.00  0.00     0.148 A 
ATOM     65  C   UNL A   1      39.823  25.745  27.964  1.00  0.00     0.002 A 
ATOM     66  C   UNL A   1      41.577  27.087  26.958  1.00  0.00     0.091 A 
ATOM     67  F   UNL A   1      42.470  28.936  28.174  1.00  0.00    -0.205 F 
ATOM     68  C   UNL A   1      40.690  25.998  26.904  1.00  0.00     0.022 A 
BRANCH  66  69
ATOM     69  S   UNL A   1      42.593  27.377  25.504  1.00  0.00     0.127 S 
ATOM     70  O   UNL A   1      43.925  27.495  26.094  1.00  0.00    -0.237 OA
ATOM     71  O   UNL A   1      42.374  26.155  24.730  1.00  0.00    -0.237 OA
ATOM     72  O   UNL A   1      42.077  28.591  24.887  1.00  0.00    -0.744 OA
ENDBRANCH  66  69
ENDBRANCH  48  62
BRANCH  49  73
ATOM     73  C   UNL A   1      39.561  33.744  36.984  1.00  0.00     0.023 A 
ATOM     74  C   UNL A   1      40.068  35.058  36.995  1.00  0.00     0.012 A 
ATOM     75  C   UNL A   1      38.892  33.261  38.125  1.00  0.00     0.148 A 
ATOM     76  C   UNL A   1      39.957  35.858  38.133  1.00  0.00     0.002 A 
ATOM     77  C   UNL A   1      38.733  34.082  39.236  1.00  0.00     0.091 A 
ATOM     78  F   UNL A   1      38.427  32.003  38.108  1.00  0.00    -0.205 F 
ATOM     79  C   UNL A   1      39.283  35.374  39.250  1.00  0.00     0.022 A 
BRANCH  77  80
ATOM     80  S   UNL A   1      37.765  33.579  40.663  1.00  0.00     0.127 S 
ATOM     81  O   UNL A   1      36.533  33.106  40.038  1.00  0.00    -0.237 OA
ATOM     82  O   UNL A   1      38.601  32.531  41.249  1.00  0.00    -0.237 OA
ATOM     83  O   UNL A   1      37.645  34.773  41.489  1.00  0.00    -0.744 OA
ENDBRANCH  77  80
ENDBRANCH  49  73
BRANCH  61  84
ATOM     84  C   UNL A   1      44.246  28.854  35.290  1.00  0.00     0.023 A 
ATOM     85  C   UNL A   1      45.517  29.413  35.059  1.00  0.00     0.012 A 
ATOM     86  C   UNL A   1      44.097  27.845  36.262  1.00  0.00     0.148 A 
ATOM     87  C   UNL A   1      46.629  28.957  35.767  1.00  0.00     0.002 A 
ATOM     88  C   UNL A   1      45.199  27.432  37.000  1.00  0.00     0.091 A 
ATOM     89  F   UNL A   1      42.879  27.316  36.454  1.00  0.00    -0.205 F 
ATOM     90  C   UNL A   1      46.468  27.978  36.745  1.00  0.00     0.022 A 
BRANCH  88  91
ATOM     91  S   UNL A   1      45.067  26.252  38.348  1.00  0.00     0.127 S 
ATOM     92  O   UNL A   1      45.074  24.978  37.631  1.00  0.00    -0.237 OA
ATOM     93  O   UNL A   1      46.281  26.525  39.119  1.00  0.00    -0.237 OA
ATOM     94  O   UNL A   1      43.827  26.572  39.042  1.00  0.00    -0.744 OA
ENDBRANCH  88  91
ENDBRANCH  61  84
ENDBRANCH  35  36
ENDBRANCH  27  30
ENDBRANCH  25  26
ENDBRANCH  24  25
ENDBRANCH   1  24
TORSDOF 19
ENDMDL
MODEL 3
REMARK VINA RESULT:     -11.1      5.448      8.639
REMARK SMILES [NH3+][C@H](Cc1cc(F)c(F)c(F)c1)C(=O)NCCCCCCNC(=O)c1ccc(-c2c3nc(c(-c4cccc(S(=O)(=O)[O-])c4F)c4ccc([nH]4)c(-c4cccc(S(=O)(=O)[O-])c4F)c4nc(c(-c5cccc(S(=O)(=O)[O-])c5F)c5ccc2[nH]5)C=C4)C=C3)cc1
REMARK SMILES IDX 19 1 18 2 17 3 16 4 15 5 13 6 14 7 2 9 1 10 3 14 4 15 5 16
REMARK SMILES IDX 12 17 6 18 10 19 7 20 8 21 11 22 9 23 20 24 21 25 22 26
REMARK SMILES IDX 23 27 24 29 25 30 26 31 87 32 27 33 86 34 28 35 29 36 30 37
REMARK SMILES IDX 80 38 31 39 85 40 79 41 81 42 32 43 84 44 78 45 77 46 33 48
REMARK SMILES IDX 65 49 45 50 64 51 46 52 49 53 63 54 82 55 47 56 48 57 62 59
REMARK SMILES IDX 83 60 50 61 34 62 35 63 43 64 36 65 38 66 44 67 37 68 39 69
REMARK SMILES IDX 40 70 41 71 42 72 66 73 67 74 75 75 68 76 70 77 76 78 69 79
REMARK SMILES IDX 71 80 72 81 73 82 74 83 51 84 52 85 60 86 53 87 55 88 61 89
REMARK SMILES IDX 54 90 56 91 57 92 58 93 59 94
REMARK H PARENT 15 8 1 11 1 12 1 13 22 28 81 47 49 58
REMARK Flexibility Score: inf
ROOT
ATOM      1  C   UNL A   1      33.448  27.251  24.937  1.00  0.00     0.002 C 
ENDROOT
BRANCH   1   2
ATOM      2  C   UNL A   1      32.046  26.921  25.448  1.00  0.00     0.002 C 
BRANCH   2   3
ATOM      3  C   UNL A   1      30.945  26.995  24.387  1.00  0.00     0.021 C 
BRANCH   3   4
ATOM      4  C   UNL A   1      30.823  25.790  23.459  1.00  0.00     0.116 C 
BRANCH   4   5
ATOM      5  N   UNL A   1      31.549  25.973  22.215  1.00  0.00    -0.351 N 
ATOM      6  C   UNL A   1      32.588  25.314  21.637  1.00  0.00     0.278 C 
ATOM      7  O   UNL A   1      33.036  25.802  20.591  1.00  0.00    -0.268 OA
ATOM      8  H   UNL A   1      31.222  26.732  21.680  1.00  0.00     0.163 HD
BRANCH   6   9
ATOM      9  C   UNL A   1      33.223  24.035  22.220  1.00  0.00     0.275 C 
BRANCH   9  10
ATOM     10  N   UNL A   1      32.715  22.830  21.522  1.00  0.00    -0.347 N 
ATOM     11  H   UNL A   1      31.792  23.024  21.135  1.00  0.00     0.345 HD
ATOM     12  H   UNL A   1      32.651  22.055  22.183  1.00  0.00     0.345 HD
ATOM     13  H   UNL A   1      33.355  22.579  20.767  1.00  0.00     0.345 HD
ENDBRANCH   9  10
BRANCH   9  14
ATOM     14  C   UNL A   1      33.337  23.871  23.758  1.00  0.00     0.111 C 
BRANCH  14  15
ATOM     15  C   UNL A   1      34.546  23.246  24.414  1.00  0.00    -0.036 A 
ATOM     16  C   UNL A   1      34.732  21.860  24.524  1.00  0.00     0.046 A 
ATOM     17  C   UNL A   1      35.524  24.091  24.978  1.00  0.00     0.046 A 
ATOM     18  C   UNL A   1      35.917  21.347  25.063  1.00  0.00     0.162 A 
ATOM     19  C   UNL A   1      36.691  23.562  25.532  1.00  0.00     0.162 A 
ATOM     20  F   UNL A   1      36.109  20.021  25.072  1.00  0.00    -0.204 F 
ATOM     21  C   UNL A   1      36.901  22.194  25.554  1.00  0.00     0.194 A 
ATOM     22  F   UNL A   1      37.625  24.397  26.007  1.00  0.00    -0.204 F 
ATOM     23  F   UNL A   1      38.051  21.692  26.026  1.00  0.00    -0.200 F 
ENDBRANCH  14  15
ENDBRANCH   9  14
ENDBRANCH   6   9
ENDBRANCH   4   5
ENDBRANCH   3   4
ENDBRANCH   2   3
ENDBRANCH   1   2
BRANCH   1  24
ATOM     24  C   UNL A   1      34.096  28.483  25.574  1.00  0.00     0.021 C 
BRANCH  24  25
ATOM     25  C   UNL A   1      33.575  28.839  26.965  1.00  0.00     0.116 C 
BRANCH  25  26
ATOM     26  N   UNL A   1      33.631  30.271  27.215  1.00  0.00    -0.352 N 
ATOM     27  C   UNL A   1      34.581  30.968  27.923  1.00  0.00     0.251 C 
ATOM     28  H   UNL A   1      32.900  30.807  26.830  1.00  0.00     0.163 HD
ATOM     29  O   UNL A   1      34.402  32.141  28.237  1.00  0.00    -0.269 OA
BRANCH  27  30
ATOM     30  C   UNL A   1      35.822  30.269  28.315  1.00  0.00     0.039 A 
ATOM     31  C   UNL A   1      36.920  30.279  27.452  1.00  0.00     0.014 A 
ATOM     32  C   UNL A   1      35.905  29.659  29.570  1.00  0.00     0.014 A 
ATOM     33  C   UNL A   1      38.130  29.722  27.875  1.00  0.00     0.010 A 
ATOM     34  C   UNL A   1      37.128  29.165  30.012  1.00  0.00     0.010 A 
ATOM     35  C   UNL A   1      38.252  29.187  29.169  1.00  0.00    -0.014 A 
BRANCH  35  36
ATOM     36  C   UNL A   1      39.540  28.640  29.669  1.00  0.00     0.031 A 
ATOM     37  C   UNL A   1      40.274  29.354  30.774  1.00  0.00     0.074 A 
ATOM     38  C   UNL A   1      40.101  27.574  29.063  1.00  0.00     0.049 A 
ATOM     39  N   UNL A   1      41.453  29.101  31.278  1.00  0.00    -0.248 NA
ATOM     40  C   UNL A   1      39.609  30.526  31.370  1.00  0.00     0.031 C 
ATOM     41  C   UNL A   1      39.525  26.840  27.933  1.00  0.00     0.029 A 
ATOM     42  N   UNL A   1      41.301  26.944  29.288  1.00  0.00    -0.354 N 
ATOM     43  C   UNL A   1      41.694  30.107  32.206  1.00  0.00     0.074 A 
ATOM     44  C   UNL A   1      40.546  30.986  32.186  1.00  0.00     0.031 C 
ATOM     45  C   UNL A   1      40.374  25.867  27.561  1.00  0.00     0.029 A 
ATOM     46  C   UNL A   1      41.566  25.923  28.402  1.00  0.00     0.049 A 
ATOM     47  H   UNL A   1      41.914  27.199  30.015  1.00  0.00     0.167 HD
ATOM     48  C   UNL A   1      42.764  30.272  33.018  1.00  0.00     0.034 A 
ATOM     49  C   UNL A   1      42.650  25.133  28.275  1.00  0.00     0.034 A 
ATOM     50  C   UNL A   1      43.869  29.356  33.086  1.00  0.00     0.049 A 
ATOM     51  C   UNL A   1      43.798  25.307  29.237  1.00  0.00     0.074 A 
ATOM     52  C   UNL A   1      44.941  29.371  33.961  1.00  0.00     0.029 A 
ATOM     53  N   UNL A   1      44.048  28.268  32.248  1.00  0.00    -0.354 N 
ATOM     54  N   UNL A   1      43.924  26.154  30.228  1.00  0.00    -0.248 NA
ATOM     55  C   UNL A   1      44.940  24.390  29.086  1.00  0.00     0.031 C 
ATOM     56  C   UNL A   1      45.782  28.303  33.637  1.00  0.00     0.029 A 
ATOM     57  C   UNL A   1      45.219  27.609  32.578  1.00  0.00     0.049 A 
ATOM     58  H   UNL A   1      43.434  28.002  31.527  1.00  0.00     0.167 HD
ATOM     59  C   UNL A   1      45.130  25.844  30.846  1.00  0.00     0.074 A 
ATOM     60  C   UNL A   1      45.692  24.720  30.127  1.00  0.00     0.031 C 
ATOM     61  C   UNL A   1      45.727  26.444  31.904  1.00  0.00     0.034 A 
BRANCH  48  62
ATOM     62  C   UNL A   1      42.779  31.456  33.946  1.00  0.00     0.023 A 
ATOM     63  C   UNL A   1      43.261  32.697  33.485  1.00  0.00     0.012 A 
ATOM     64  C   UNL A   1      42.222  31.364  35.236  1.00  0.00     0.148 A 
ATOM     65  C   UNL A   1      43.210  33.825  34.302  1.00  0.00     0.002 A 
ATOM     66  C   UNL A   1      42.132  32.502  36.028  1.00  0.00     0.091 A 
ATOM     67  F   UNL A   1      41.785  30.170  35.660  1.00  0.00    -0.205 F 
ATOM     68  C   UNL A   1      42.634  33.731  35.567  1.00  0.00     0.022 A 
BRANCH  66  69
ATOM     69  S   UNL A   1      41.333  32.507  37.637  1.00  0.00     0.127 S 
ATOM     70  O   UNL A   1      41.399  33.923  37.995  1.00  0.00    -0.237 OA
ATOM     71  O   UNL A   1      39.992  32.021  37.315  1.00  0.00    -0.237 OA
ATOM     72  O   UNL A   1      42.119  31.616  38.481  1.00  0.00    -0.744 OA
ENDBRANCH  66  69
ENDBRANCH  48  62
BRANCH  49  73
ATOM     73  C   UNL A   1      42.691  24.062  27.238  1.00  0.00     0.023 A 
ATOM     74  C   UNL A   1      43.250  24.344  25.977  1.00  0.00     0.012 A 
ATOM     75  C   UNL A   1      42.172  22.776  27.483  1.00  0.00     0.148 A 
ATOM     76  C   UNL A   1      43.249  23.384  24.964  1.00  0.00     0.002 A 
ATOM     77  C   UNL A   1      42.225  21.805  26.489  1.00  0.00     0.091 A 
ATOM     78  F   UNL A   1      41.629  22.525  28.683  1.00  0.00    -0.205 F 
ATOM     79  C   UNL A   1      42.745  22.113  25.221  1.00  0.00     0.022 A 
BRANCH  77  80
ATOM     80  S   UNL A   1      41.717  20.108  26.785  1.00  0.00     0.127 S 
ATOM     81  O   UNL A   1      40.314  20.275  27.157  1.00  0.00    -0.237 OA
ATOM     82  O   UNL A   1      41.938  19.487  25.478  1.00  0.00    -0.237 OA
ATOM     83  O   UNL A   1      42.602  19.617  27.832  1.00  0.00    -0.744 OA
ENDBRANCH  77  80
ENDBRANCH  49  73
BRANCH  61  84
ATOM     84  C   UNL A   1      47.028  25.872  32.400  1.00  0.00     0.023 A 
ATOM     85  C   UNL A   1      48.249  26.381  31.919  1.00  0.00     0.012 A 
ATOM     86  C   UNL A   1      47.036  24.901  33.422  1.00  0.00     0.148 A 
ATOM     87  C   UNL A   1      49.460  25.912  32.428  1.00  0.00     0.002 A 
ATOM     88  C   UNL A   1      48.244  24.477  33.960  1.00  0.00     0.091 A 
ATOM     89  F   UNL A   1      45.861  24.419  33.854  1.00  0.00    -0.205 F 
ATOM     90  C   UNL A   1      49.457  24.973  33.455  1.00  0.00     0.022 A 
BRANCH  88  91
ATOM     91  S   UNL A   1      48.333  23.348  35.354  1.00  0.00     0.127 S 
ATOM     92  O   UNL A   1      49.765  23.353  35.650  1.00  0.00    -0.237 OA
ATOM     93  O   UNL A   1      47.501  24.022  36.353  1.00  0.00    -0.237 OA
ATOM     94  O   UNL A   1      47.797  22.080  34.880  1.00  0.00    -0.744 OA
ENDBRANCH  88  91
ENDBRANCH  61  84
ENDBRANCH  35  36
ENDBRANCH  27  30
ENDBRANCH  25  26
ENDBRANCH  24  25
ENDBRANCH   1  24
TORSDOF 19
ENDMDL
