MODEL 1
REMARK VINA RESULT:     -10.4      0.000      0.000
REMARK SMILES C[C@H](O)C[C@@H](Cc1cccc(Br)c1)C(=O)NCCCCCCNC(=O)c1ccc(-c2c3nc(c(-c4cccc(S(=O)(=O)[O-])c4F)c4ccc([nH]4)c(-c4cccc(S(=O)(=O)[O-])c4F)c4nc(c(-c5cccc(S(=O)(=O)[O-])c5F)c5ccc2[nH]5)C=C4)C=C3)cc1
REMARK SMILES IDX 19 1 18 2 17 3 16 4 14 5 15 6 5 8 4 9 2 10 1 11 3 12 6 14
REMARK SMILES IDX 7 15 8 16 13 17 9 18 11 19 10 20 12 21 20 22 21 23 22 24
REMARK SMILES IDX 23 25 24 26 25 28 26 29 27 30 88 31 28 32 87 33 29 34 30 35
REMARK SMILES IDX 31 36 81 37 32 38 86 39 80 40 82 41 33 42 85 43 79 44 78 45
REMARK SMILES IDX 34 47 66 48 46 49 65 50 47 51 50 52 64 53 83 54 48 55 49 56
REMARK SMILES IDX 63 58 84 59 51 60 35 61 36 62 44 63 37 64 39 65 45 66 38 67
REMARK SMILES IDX 40 68 41 69 42 70 43 71 67 72 68 73 76 74 69 75 71 76 77 77
REMARK SMILES IDX 70 78 72 79 73 80 74 81 75 82 52 83 53 84 61 85 54 86 56 87
REMARK SMILES IDX 62 88 55 89 57 90 58 91 59 92 60 93
REMARK H PARENT 16 7 3 13 23 27 82 46 50 57
REMARK Flexibility Score: inf
ROOT
ATOM      1  C   UNL A   1      30.716  26.379  25.998  1.00  0.00     0.002 C 
ENDROOT
BRANCH   1   2
ATOM      2  C   UNL A   1      31.206  24.936  25.918  1.00  0.00     0.021 C 
BRANCH   2   3
ATOM      3  C   UNL A   1      32.713  24.755  26.028  1.00  0.00     0.116 C 
BRANCH   3   4
ATOM      4  N   UNL A   1      33.138  23.697  26.907  1.00  0.00    -0.356 N 
ATOM      5  C   UNL A   1      33.820  22.560  26.592  1.00  0.00     0.223 C 
ATOM      6  O   UNL A   1      34.210  21.861  27.535  1.00  0.00    -0.275 OA
ATOM      7  H   UNL A   1      32.906  23.809  27.857  1.00  0.00     0.163 HD
BRANCH   5   8
ATOM      8  C   UNL A   1      34.066  22.103  25.142  1.00  0.00     0.085 C 
BRANCH   8   9
ATOM      9  C   UNL A   1      35.462  21.475  24.965  1.00  0.00     0.045 C 
BRANCH   9  10
ATOM     10  C   UNL A   1      36.543  22.483  24.555  1.00  0.00     0.112 C 
ATOM     11  C   UNL A   1      36.345  22.961  23.122  1.00  0.00     0.038 C 
BRANCH  10  12
ATOM     12  O   UNL A   1      37.829  21.889  24.688  1.00  0.00    -0.393 OA
ATOM     13  H   UNL A   1      38.436  22.521  25.103  1.00  0.00     0.210 HD
ENDBRANCH  10  12
ENDBRANCH   9  10
ENDBRANCH   8   9
BRANCH   8  14
ATOM     14  C   UNL A   1      32.845  21.449  24.438  1.00  0.00     0.049 C 
BRANCH  14  15
ATOM     15  C   UNL A   1      32.827  20.025  23.906  1.00  0.00    -0.046 A 
ATOM     16  C   UNL A   1      32.228  19.641  22.697  1.00  0.00     0.004 A 
ATOM     17  C   UNL A   1      33.383  19.006  24.700  1.00  0.00     0.019 A 
ATOM     18  C   UNL A   1      32.305  18.324  22.229  1.00  0.00     0.001 A 
ATOM     19  C   UNL A   1      33.421  17.682  24.253  1.00  0.00     0.018 A 
ATOM     20  C   UNL A   1      32.909  17.341  23.006  1.00  0.00     0.016 A 
ATOM     21  Br  UNL A   1      34.180  16.345  25.352  1.00  0.00    -0.051 Br
ENDBRANCH  14  15
ENDBRANCH   8  14
ENDBRANCH   5   8
ENDBRANCH   3   4
ENDBRANCH   2   3
ENDBRANCH   1   2
BRANCH   1  22
ATOM     22  C   UNL A   1      31.809  27.451  26.102  1.00  0.00     0.002 C 
BRANCH  22  23
ATOM     23  C   UNL A   1      32.116  28.233  24.820  1.00  0.00     0.021 C 
BRANCH  23  24
ATOM     24  C   UNL A   1      33.187  29.311  24.950  1.00  0.00     0.116 C 
BRANCH  24  25
ATOM     25  N   UNL A   1      32.686  30.513  25.599  1.00  0.00    -0.352 N 
ATOM     26  C   UNL A   1      33.082  31.113  26.768  1.00  0.00     0.251 C 
ATOM     27  H   UNL A   1      31.951  30.966  25.126  1.00  0.00     0.163 HD
ATOM     28  O   UNL A   1      32.407  32.018  27.247  1.00  0.00    -0.269 OA
BRANCH  26  29
ATOM     29  C   UNL A   1      34.312  30.663  27.457  1.00  0.00     0.039 A 
ATOM     30  C   UNL A   1      35.332  31.589  27.695  1.00  0.00     0.014 A 
ATOM     31  C   UNL A   1      34.473  29.331  27.845  1.00  0.00     0.014 A 
ATOM     32  C   UNL A   1      36.489  31.192  28.372  1.00  0.00     0.010 A 
ATOM     33  C   UNL A   1      35.595  28.953  28.580  1.00  0.00     0.010 A 
ATOM     34  C   UNL A   1      36.618  29.876  28.846  1.00  0.00    -0.014 A 
BRANCH  34  35
ATOM     35  C   UNL A   1      37.809  29.440  29.622  1.00  0.00     0.031 A 
ATOM     36  C   UNL A   1      38.027  29.954  31.021  1.00  0.00     0.074 A 
ATOM     37  C   UNL A   1      38.744  28.665  29.035  1.00  0.00     0.049 A 
ATOM     38  N   UNL A   1      39.049  29.772  31.816  1.00  0.00    -0.248 NA
ATOM     39  C   UNL A   1      36.970  30.807  31.594  1.00  0.00     0.031 C 
ATOM     40  C   UNL A   1      38.681  28.152  27.664  1.00  0.00     0.029 A 
ATOM     41  N   UNL A   1      39.948  28.200  29.506  1.00  0.00    -0.354 N 
ATOM     42  C   UNL A   1      38.787  30.525  32.954  1.00  0.00     0.074 A 
ATOM     43  C   UNL A   1      37.513  31.179  32.746  1.00  0.00     0.031 C 
ATOM     44  C   UNL A   1      39.797  27.451  27.404  1.00  0.00     0.029 A 
ATOM     45  C   UNL A   1      40.672  27.495  28.571  1.00  0.00     0.049 A 
ATOM     46  H   UNL A   1      40.264  28.358  30.425  1.00  0.00     0.167 HD
ATOM     47  C   UNL A   1      39.530  30.646  34.079  1.00  0.00     0.034 A 
ATOM     48  C   UNL A   1      41.908  26.962  28.640  1.00  0.00     0.034 A 
ATOM     49  C   UNL A   1      40.765  29.949  34.309  1.00  0.00     0.049 A 
ATOM     50  C   UNL A   1      42.692  27.088  29.920  1.00  0.00     0.074 A 
ATOM     51  C   UNL A   1      41.531  29.921  35.462  1.00  0.00     0.029 A 
ATOM     52  N   UNL A   1      41.422  29.170  33.372  1.00  0.00    -0.354 N 
ATOM     53  N   UNL A   1      42.347  27.664  31.045  1.00  0.00    -0.248 NA
ATOM     54  C   UNL A   1      44.023  26.463  29.950  1.00  0.00     0.031 C 
ATOM     55  C   UNL A   1      42.672  29.156  35.208  1.00  0.00     0.029 A 
ATOM     56  C   UNL A   1      42.594  28.672  33.912  1.00  0.00     0.049 A 
ATOM     57  H   UNL A   1      41.102  28.996  32.457  1.00  0.00     0.167 HD
ATOM     58  C   UNL A   1      43.394  27.428  31.930  1.00  0.00     0.074 A 
ATOM     59  C   UNL A   1      44.378  26.644  31.215  1.00  0.00     0.031 C 
ATOM     60  C   UNL A   1      43.532  27.833  33.215  1.00  0.00     0.034 A 
BRANCH  47  61
ATOM     61  C   UNL A   1      39.022  31.541  35.179  1.00  0.00     0.023 A 
ATOM     62  C   UNL A   1      38.161  31.020  36.166  1.00  0.00     0.012 A 
ATOM     63  C   UNL A   1      39.489  32.865  35.296  1.00  0.00     0.148 A 
ATOM     64  C   UNL A   1      37.757  31.810  37.241  1.00  0.00     0.002 A 
ATOM     65  C   UNL A   1      39.120  33.630  36.395  1.00  0.00     0.091 A 
ATOM     66  F   UNL A   1      40.292  33.345  34.337  1.00  0.00    -0.205 F 
ATOM     67  C   UNL A   1      38.246  33.107  37.364  1.00  0.00     0.022 A 
BRANCH  65  68
ATOM     68  S   UNL A   1      39.762  35.282  36.689  1.00  0.00     0.127 S 
ATOM     69  O   UNL A   1      39.291  35.996  35.503  1.00  0.00    -0.237 OA
ATOM     70  O   UNL A   1      39.090  35.653  37.933  1.00  0.00    -0.237 OA
ATOM     71  O   UNL A   1      41.208  35.141  36.793  1.00  0.00    -0.744 OA
ENDBRANCH  65  68
ENDBRANCH  47  61
BRANCH  48  72
ATOM     72  C   UNL A   1      42.481  26.222  27.477  1.00  0.00     0.023 A 
ATOM     73  C   UNL A   1      43.256  26.918  26.527  1.00  0.00     0.012 A 
ATOM     74  C   UNL A   1      42.244  24.847  27.292  1.00  0.00     0.148 A 
ATOM     75  C   UNL A   1      43.740  26.270  25.391  1.00  0.00     0.002 A 
ATOM     76  C   UNL A   1      42.779  24.195  26.187  1.00  0.00     0.091 A 
ATOM     77  F   UNL A   1      41.493  24.204  28.197  1.00  0.00    -0.205 F 
ATOM     78  C   UNL A   1      43.508  24.907  25.224  1.00  0.00     0.022 A 
BRANCH  76  79
ATOM     79  S   UNL A   1      42.635  22.418  25.964  1.00  0.00     0.127 S 
ATOM     80  O   UNL A   1      43.387  22.210  24.730  1.00  0.00    -0.237 OA
ATOM     81  O   UNL A   1      43.279  21.908  27.173  1.00  0.00    -0.237 OA
ATOM     82  O   UNL A   1      41.205  22.153  25.891  1.00  0.00    -0.744 OA
ENDBRANCH  76  79
ENDBRANCH  48  72
BRANCH  60  83
ATOM     83  C   UNL A   1      44.756  27.387  33.969  1.00  0.00     0.023 A 
ATOM     84  C   UNL A   1      45.907  28.198  33.993  1.00  0.00     0.012 A 
ATOM     85  C   UNL A   1      44.727  26.202  34.733  1.00  0.00     0.148 A 
ATOM     86  C   UNL A   1      47.023  27.821  34.742  1.00  0.00     0.002 A 
ATOM     87  C   UNL A   1      45.820  25.862  35.518  1.00  0.00     0.091 A 
ATOM     88  F   UNL A   1      43.626  25.437  34.682  1.00  0.00    -0.205 F 
ATOM     89  C   UNL A   1      46.973  26.662  35.514  1.00  0.00     0.022 A 
BRANCH  87  90
ATOM     90  S   UNL A   1      45.807  24.447  36.624  1.00  0.00     0.127 S 
ATOM     91  O   UNL A   1      45.694  23.334  35.683  1.00  0.00    -0.237 OA
ATOM     92  O   UNL A   1      47.108  24.558  37.284  1.00  0.00    -0.237 OA
ATOM     93  O   UNL A   1      44.663  24.633  37.507  1.00  0.00    -0.744 OA
ENDBRANCH  87  90
ENDBRANCH  60  83
ENDBRANCH  34  35
ENDBRANCH  26  29
ENDBRANCH  24  25
ENDBRANCH  23  24
ENDBRANCH  22  23
ENDBRANCH   1  22
TORSDOF 21
ENDMDL
MODEL 2
REMARK VINA RESULT:     -10.4      2.533      8.084
REMARK SMILES C[C@H](O)C[C@@H](Cc1cccc(Br)c1)C(=O)NCCCCCCNC(=O)c1ccc(-c2c3nc(c(-c4cccc(S(=O)(=O)[O-])c4F)c4ccc([nH]4)c(-c4cccc(S(=O)(=O)[O-])c4F)c4nc(c(-c5cccc(S(=O)(=O)[O-])c5F)c5ccc2[nH]5)C=C4)C=C3)cc1
REMARK SMILES IDX 19 1 18 2 17 3 16 4 14 5 15 6 5 8 4 9 2 10 1 11 3 12 6 14
REMARK SMILES IDX 7 15 8 16 13 17 9 18 11 19 10 20 12 21 20 22 21 23 22 24
REMARK SMILES IDX 23 25 24 26 25 28 26 29 27 30 88 31 28 32 87 33 29 34 30 35
REMARK SMILES IDX 31 36 81 37 32 38 86 39 80 40 82 41 33 42 85 43 79 44 78 45
REMARK SMILES IDX 34 47 66 48 46 49 65 50 47 51 50 52 64 53 83 54 48 55 49 56
REMARK SMILES IDX 63 58 84 59 51 60 35 61 36 62 44 63 37 64 39 65 45 66 38 67
REMARK SMILES IDX 40 68 41 69 42 70 43 71 67 72 68 73 76 74 69 75 71 76 77 77
REMARK SMILES IDX 70 78 72 79 73 80 74 81 75 82 52 83 53 84 61 85 54 86 56 87
REMARK SMILES IDX 62 88 55 89 57 90 58 91 59 92 60 93
REMARK H PARENT 16 7 3 13 23 27 82 46 50 57
REMARK Flexibility Score: inf
ROOT
ATOM      1  C   UNL A   1      30.300  26.783  24.854  1.00  0.00     0.002 C 
ENDROOT
BRANCH   1   2
ATOM      2  C   UNL A   1      30.824  26.301  23.504  1.00  0.00     0.021 C 
BRANCH   2   3
ATOM      3  C   UNL A   1      30.775  24.796  23.289  1.00  0.00     0.116 C 
BRANCH   3   4
ATOM      4  N   UNL A   1      31.852  24.256  22.501  1.00  0.00    -0.356 N 
ATOM      5  C   UNL A   1      33.054  23.777  22.928  1.00  0.00     0.223 C 
ATOM      6  O   UNL A   1      33.769  23.224  22.084  1.00  0.00    -0.275 OA
ATOM      7  H   UNL A   1      31.700  24.230  21.528  1.00  0.00     0.163 HD
BRANCH   5   8
ATOM      8  C   UNL A   1      33.558  23.945  24.374  1.00  0.00     0.085 C 
BRANCH   8   9
ATOM      9  C   UNL A   1      33.017  22.844  25.304  1.00  0.00     0.045 C 
BRANCH   9  10
ATOM     10  C   UNL A   1      33.069  23.213  26.792  1.00  0.00     0.112 C 
ATOM     11  C   UNL A   1      33.891  22.206  27.588  1.00  0.00     0.038 C 
BRANCH  10  12
ATOM     12  O   UNL A   1      31.748  23.275  27.318  1.00  0.00    -0.393 OA
ATOM     13  H   UNL A   1      31.111  23.062  26.619  1.00  0.00     0.210 HD
ENDBRANCH  10  12
ENDBRANCH   9  10
ENDBRANCH   8   9
BRANCH   8  14
ATOM     14  C   UNL A   1      35.040  24.393  24.510  1.00  0.00     0.049 C 
BRANCH  14  15
ATOM     15  C   UNL A   1      36.186  23.458  24.860  1.00  0.00    -0.046 A 
ATOM     16  C   UNL A   1      36.289  22.132  24.414  1.00  0.00     0.004 A 
ATOM     17  C   UNL A   1      37.178  23.917  25.745  1.00  0.00     0.019 A 
ATOM     18  C   UNL A   1      37.405  21.343  24.717  1.00  0.00     0.001 A 
ATOM     19  C   UNL A   1      38.271  23.113  26.083  1.00  0.00     0.018 A 
ATOM     20  C   UNL A   1      38.403  21.836  25.549  1.00  0.00     0.016 A 
ATOM     21  Br  UNL A   1      39.583  23.772  27.273  1.00  0.00    -0.051 Br
ENDBRANCH  14  15
ENDBRANCH   8  14
ENDBRANCH   5   8
ENDBRANCH   3   4
ENDBRANCH   2   3
ENDBRANCH   1   2
BRANCH   1  22
ATOM     22  C   UNL A   1      31.324  27.482  25.757  1.00  0.00     0.002 C 
BRANCH  22  23
ATOM     23  C   UNL A   1      32.789  27.397  25.314  1.00  0.00     0.021 C 
BRANCH  23  24
ATOM     24  C   UNL A   1      33.501  28.734  25.138  1.00  0.00     0.116 C 
BRANCH  24  25
ATOM     25  N   UNL A   1      32.746  29.841  25.705  1.00  0.00    -0.352 N 
ATOM     26  C   UNL A   1      33.027  30.636  26.788  1.00  0.00     0.251 C 
ATOM     27  H   UNL A   1      31.905  30.054  25.239  1.00  0.00     0.163 HD
ATOM     28  O   UNL A   1      32.170  31.397  27.224  1.00  0.00    -0.269 OA
BRANCH  26  29
ATOM     29  C   UNL A   1      34.355  30.568  27.438  1.00  0.00     0.039 A 
ATOM     30  C   UNL A   1      35.103  31.740  27.576  1.00  0.00     0.014 A 
ATOM     31  C   UNL A   1      34.874  29.351  27.887  1.00  0.00     0.014 A 
ATOM     32  C   UNL A   1      36.346  31.703  28.214  1.00  0.00     0.010 A 
ATOM     33  C   UNL A   1      36.080  29.327  28.584  1.00  0.00     0.010 A 
ATOM     34  C   UNL A   1      36.832  30.499  28.750  1.00  0.00    -0.014 A 
BRANCH  34  35
ATOM     35  C   UNL A   1      38.122  30.440  29.488  1.00  0.00     0.031 A 
ATOM     36  C   UNL A   1      39.285  29.675  28.914  1.00  0.00     0.074 A 
ATOM     37  C   UNL A   1      38.215  30.987  30.718  1.00  0.00     0.049 A 
ATOM     38  N   UNL A   1      40.452  29.424  29.450  1.00  0.00    -0.248 NA
ATOM     39  C   UNL A   1      39.108  29.093  27.572  1.00  0.00     0.031 C 
ATOM     40  C   UNL A   1      37.141  31.700  31.413  1.00  0.00     0.029 A 
ATOM     41  N   UNL A   1      39.253  30.998  31.618  1.00  0.00    -0.354 N 
ATOM     42  C   UNL A   1      41.123  28.614  28.541  1.00  0.00     0.074 A 
ATOM     43  C   UNL A   1      40.231  28.405  27.421  1.00  0.00     0.031 C 
ATOM     44  C   UNL A   1      37.573  32.073  32.628  1.00  0.00     0.029 A 
ATOM     45  C   UNL A   1      38.938  31.595  32.818  1.00  0.00     0.049 A 
ATOM     46  H   UNL A   1      40.139  30.615  31.424  1.00  0.00     0.167 HD
ATOM     47  C   UNL A   1      42.375  28.108  28.623  1.00  0.00     0.034 A 
ATOM     48  C   UNL A   1      39.660  31.723  33.949  1.00  0.00     0.034 A 
ATOM     49  C   UNL A   1      43.281  28.367  29.708  1.00  0.00     0.049 A 
ATOM     50  C   UNL A   1      41.062  31.176  33.991  1.00  0.00     0.074 A 
ATOM     51  C   UNL A   1      44.608  27.991  29.824  1.00  0.00     0.029 A 
ATOM     52  N   UNL A   1      42.956  29.053  30.865  1.00  0.00    -0.354 N 
ATOM     53  N   UNL A   1      41.736  30.560  33.051  1.00  0.00    -0.248 NA
ATOM     54  C   UNL A   1      41.816  31.370  35.240  1.00  0.00     0.031 C 
ATOM     55  C   UNL A   1      45.074  28.416  31.071  1.00  0.00     0.029 A 
ATOM     56  C   UNL A   1      44.050  29.094  31.711  1.00  0.00     0.049 A 
ATOM     57  H   UNL A   1      42.076  29.452  31.058  1.00  0.00     0.167 HD
ATOM     58  C   UNL A   1      43.006  30.339  33.576  1.00  0.00     0.074 A 
ATOM     59  C   UNL A   1      43.011  30.899  34.910  1.00  0.00     0.031 C 
ATOM     60  C   UNL A   1      44.066  29.718  33.008  1.00  0.00     0.034 A 
BRANCH  47  61
ATOM     61  C   UNL A   1      42.873  27.244  27.494  1.00  0.00     0.023 A 
ATOM     62  C   UNL A   1      43.342  27.842  26.306  1.00  0.00     0.012 A 
ATOM     63  C   UNL A   1      42.979  25.849  27.656  1.00  0.00     0.148 A 
ATOM     64  C   UNL A   1      43.891  27.061  25.290  1.00  0.00     0.002 A 
ATOM     65  C   UNL A   1      43.570  25.083  26.658  1.00  0.00     0.091 A 
ATOM     66  F   UNL A   1      42.510  25.300  28.785  1.00  0.00    -0.205 F 
ATOM     67  C   UNL A   1      44.019  25.687  25.471  1.00  0.00     0.022 A 
BRANCH  65  68
ATOM     68  S   UNL A   1      43.857  23.319  26.830  1.00  0.00     0.127 S 
ATOM     69  O   UNL A   1      42.885  22.961  27.861  1.00  0.00    -0.237 OA
ATOM     70  O   UNL A   1      43.537  22.826  25.490  1.00  0.00    -0.237 OA
ATOM     71  O   UNL A   1      45.253  23.171  27.218  1.00  0.00    -0.744 OA
ENDBRANCH  65  68
ENDBRANCH  47  61
BRANCH  48  72
ATOM     72  C   UNL A   1      39.093  32.432  35.134  1.00  0.00     0.023 A 
ATOM     73  C   UNL A   1      39.133  33.839  35.184  1.00  0.00     0.012 A 
ATOM     74  C   UNL A   1      38.541  31.724  36.218  1.00  0.00     0.148 A 
ATOM     75  C   UNL A   1      38.681  34.526  36.311  1.00  0.00     0.002 A 
ATOM     76  C   UNL A   1      38.039  32.417  37.314  1.00  0.00     0.091 A 
ATOM     77  F   UNL A   1      38.524  30.385  36.161  1.00  0.00    -0.205 F 
ATOM     78  C   UNL A   1      38.128  33.816  37.373  1.00  0.00     0.022 A 
BRANCH  76  79
ATOM     79  S   UNL A   1      37.195  31.587  38.665  1.00  0.00     0.127 S 
ATOM     80  O   UNL A   1      38.202  31.637  39.722  1.00  0.00    -0.237 OA
ATOM     81  O   UNL A   1      36.036  32.453  38.876  1.00  0.00    -0.237 OA
ATOM     82  O   UNL A   1      36.867  30.261  38.159  1.00  0.00    -0.744 OA
ENDBRANCH  76  79
ENDBRANCH  48  72
BRANCH  60  83
ATOM     83  C   UNL A   1      45.354  29.662  33.786  1.00  0.00     0.023 A 
ATOM     84  C   UNL A   1      46.348  30.639  33.581  1.00  0.00     0.012 A 
ATOM     85  C   UNL A   1      45.535  28.690  34.790  1.00  0.00     0.148 A 
ATOM     86  C   UNL A   1      47.516  30.630  34.342  1.00  0.00     0.002 A 
ATOM     87  C   UNL A   1      46.676  28.720  35.581  1.00  0.00     0.091 A 
ATOM     88  F   UNL A   1      44.583  27.760  34.958  1.00  0.00    -0.205 F 
ATOM     89  C   UNL A   1      47.673  29.680  35.351  1.00  0.00     0.022 A 
BRANCH  87  90
ATOM     90  S   UNL A   1      46.915  27.606  36.969  1.00  0.00     0.127 S 
ATOM     91  O   UNL A   1      46.849  26.299  36.317  1.00  0.00    -0.237 OA
ATOM     92  O   UNL A   1      48.246  27.984  37.443  1.00  0.00    -0.237 OA
ATOM     93  O   UNL A   1      45.836  27.889  37.907  1.00  0.00    -0.744 OA
ENDBRANCH  87  90
ENDBRANCH  60  83
ENDBRANCH  34  35
ENDBRANCH  26  29
ENDBRANCH  24  25
ENDBRANCH  23  24
ENDBRANCH  22  23
ENDBRANCH   1  22
TORSDOF 21
ENDMDL
MODEL 3
REMARK VINA RESULT:     -10.3      1.668      7.985
REMARK SMILES C[C@H](O)C[C@@H](Cc1cccc(Br)c1)C(=O)NCCCCCCNC(=O)c1ccc(-c2c3nc(c(-c4cccc(S(=O)(=O)[O-])c4F)c4ccc([nH]4)c(-c4cccc(S(=O)(=O)[O-])c4F)c4nc(c(-c5cccc(S(=O)(=O)[O-])c5F)c5ccc2[nH]5)C=C4)C=C3)cc1
REMARK SMILES IDX 19 1 18 2 17 3 16 4 14 5 15 6 5 8 4 9 2 10 1 11 3 12 6 14
REMARK SMILES IDX 7 15 8 16 13 17 9 18 11 19 10 20 12 21 20 22 21 23 22 24
REMARK SMILES IDX 23 25 24 26 25 28 26 29 27 30 88 31 28 32 87 33 29 34 30 35
REMARK SMILES IDX 31 36 81 37 32 38 86 39 80 40 82 41 33 42 85 43 79 44 78 45
REMARK SMILES IDX 34 47 66 48 46 49 65 50 47 51 50 52 64 53 83 54 48 55 49 56
REMARK SMILES IDX 63 58 84 59 51 60 35 61 36 62 44 63 37 64 39 65 45 66 38 67
REMARK SMILES IDX 40 68 41 69 42 70 43 71 67 72 68 73 76 74 69 75 71 76 77 77
REMARK SMILES IDX 70 78 72 79 73 80 74 81 75 82 52 83 53 84 61 85 54 86 56 87
REMARK SMILES IDX 62 88 55 89 57 90 58 91 59 92 60 93
REMARK H PARENT 16 7 3 13 23 27 82 46 50 57
REMARK Flexibility Score: inf
ROOT
ATOM      1  C   UNL A   1      30.747  26.345  26.006  1.00  0.00     0.002 C 
ENDROOT
BRANCH   1   2
ATOM      2  C   UNL A   1      31.230  24.900  25.918  1.00  0.00     0.021 C 
BRANCH   2   3
ATOM      3  C   UNL A   1      32.733  24.709  26.055  1.00  0.00     0.116 C 
BRANCH   3   4
ATOM      4  N   UNL A   1      33.135  23.632  26.922  1.00  0.00    -0.356 N 
ATOM      5  C   UNL A   1      33.823  22.500  26.601  1.00  0.00     0.223 C 
ATOM      6  O   UNL A   1      34.188  21.781  27.538  1.00  0.00    -0.275 OA
ATOM      7  H   UNL A   1      32.879  23.725  27.868  1.00  0.00     0.163 HD
BRANCH   5   8
ATOM      8  C   UNL A   1      34.104  22.074  25.148  1.00  0.00     0.085 C 
BRANCH   8   9
ATOM      9  C   UNL A   1      35.503  21.447  24.993  1.00  0.00     0.045 C 
BRANCH   9  10
ATOM     10  C   UNL A   1      36.595  22.460  24.627  1.00  0.00     0.112 C 
ATOM     11  C   UNL A   1      36.424  22.974  23.203  1.00  0.00     0.038 C 
BRANCH  10  12
ATOM     12  O   UNL A   1      37.876  21.856  24.767  1.00  0.00    -0.393 OA
ATOM     13  H   UNL A   1      38.479  22.475  25.209  1.00  0.00     0.210 HD
ENDBRANCH  10  12
ENDBRANCH   9  10
ENDBRANCH   8   9
BRANCH   8  14
ATOM     14  C   UNL A   1      32.900  21.437  24.400  1.00  0.00     0.049 C 
BRANCH  14  15
ATOM     15  C   UNL A   1      32.882  20.015  23.864  1.00  0.00    -0.046 A 
ATOM     16  C   UNL A   1      32.328  19.642  22.630  1.00  0.00     0.004 A 
ATOM     17  C   UNL A   1      33.388  18.986  24.678  1.00  0.00     0.019 A 
ATOM     18  C   UNL A   1      32.404  18.325  22.163  1.00  0.00     0.001 A 
ATOM     19  C   UNL A   1      33.424  17.662  24.229  1.00  0.00     0.018 A 
ATOM     20  C   UNL A   1      32.959  17.331  22.961  1.00  0.00     0.016 A 
ATOM     21  Br  UNL A   1      34.116  16.312  25.356  1.00  0.00    -0.051 Br
ENDBRANCH  14  15
ENDBRANCH   8  14
ENDBRANCH   5   8
ENDBRANCH   3   4
ENDBRANCH   2   3
ENDBRANCH   1   2
BRANCH   1  22
ATOM     22  C   UNL A   1      31.841  27.408  26.160  1.00  0.00     0.002 C 
BRANCH  22  23
ATOM     23  C   UNL A   1      32.227  28.173  24.889  1.00  0.00     0.021 C 
BRANCH  23  24
ATOM     24  C   UNL A   1      33.220  29.314  25.086  1.00  0.00     0.116 C 
BRANCH  24  25
ATOM     25  N   UNL A   1      32.612  30.474  25.718  1.00  0.00    -0.352 N 
ATOM     26  C   UNL A   1      32.991  31.164  26.843  1.00  0.00     0.251 C 
ATOM     27  H   UNL A   1      31.805  30.817  25.271  1.00  0.00     0.163 HD
ATOM     28  O   UNL A   1      32.237  32.003  27.325  1.00  0.00    -0.269 OA
BRANCH  26  29
ATOM     29  C   UNL A   1      34.299  30.892  27.479  1.00  0.00     0.039 A 
ATOM     30  C   UNL A   1      35.212  31.941  27.626  1.00  0.00     0.014 A 
ATOM     31  C   UNL A   1      34.637  29.606  27.906  1.00  0.00     0.014 A 
ATOM     32  C   UNL A   1      36.440  31.711  28.252  1.00  0.00     0.010 A 
ATOM     33  C   UNL A   1      35.832  29.394  28.591  1.00  0.00     0.010 A 
ATOM     34  C   UNL A   1      36.749  30.441  28.767  1.00  0.00    -0.014 A 
BRANCH  34  35
ATOM     35  C   UNL A   1      38.021  30.182  29.492  1.00  0.00     0.031 A 
ATOM     36  C   UNL A   1      39.050  29.253  28.902  1.00  0.00     0.074 A 
ATOM     37  C   UNL A   1      38.208  30.701  30.723  1.00  0.00     0.049 A 
ATOM     38  N   UNL A   1      40.169  28.824  29.426  1.00  0.00    -0.248 NA
ATOM     39  C   UNL A   1      38.773  28.713  27.559  1.00  0.00     0.031 C 
ATOM     40  C   UNL A   1      37.260  31.565  31.431  1.00  0.00     0.029 A 
ATOM     41  N   UNL A   1      39.243  30.549  31.613  1.00  0.00    -0.354 N 
ATOM     42  C   UNL A   1      40.701  27.928  28.506  1.00  0.00     0.074 A 
ATOM     43  C   UNL A   1      39.778  27.863  27.394  1.00  0.00     0.031 C 
ATOM     44  C   UNL A   1      37.755  31.861  32.645  1.00  0.00     0.029 A 
ATOM     45  C   UNL A   1      39.033  31.180  32.818  1.00  0.00     0.049 A 
ATOM     46  H   UNL A   1      40.059  30.037  31.408  1.00  0.00     0.167 HD
ATOM     47  C   UNL A   1      41.863  27.237  28.573  1.00  0.00     0.034 A 
ATOM     48  C   UNL A   1      39.776  31.190  33.943  1.00  0.00     0.034 A 
ATOM     49  C   UNL A   1      42.807  27.349  29.651  1.00  0.00     0.049 A 
ATOM     50  C   UNL A   1      41.080  30.436  33.969  1.00  0.00     0.074 A 
ATOM     51  C   UNL A   1      44.062  26.774  29.752  1.00  0.00     0.029 A 
ATOM     52  N   UNL A   1      42.600  28.069  30.815  1.00  0.00    -0.354 N 
ATOM     53  N   UNL A   1      41.644  29.731  33.019  1.00  0.00    -0.248 NA
ATOM     54  C   UNL A   1      41.865  30.505  35.211  1.00  0.00     0.031 C 
ATOM     55  C   UNL A   1      44.599  27.116  30.996  1.00  0.00     0.029 A 
ATOM     56  C   UNL A   1      43.695  27.939  31.649  1.00  0.00     0.049 A 
ATOM     57  H   UNL A   1      41.793  28.596  31.018  1.00  0.00     0.167 HD
ATOM     58  C   UNL A   1      42.869  29.316  33.530  1.00  0.00     0.074 A 
ATOM     59  C   UNL A   1      42.972  29.861  34.867  1.00  0.00     0.031 C 
ATOM     60  C   UNL A   1      43.818  28.544  32.949  1.00  0.00     0.034 A 
BRANCH  47  61
ATOM     61  C   UNL A   1      42.213  26.314  27.436  1.00  0.00     0.023 A 
ATOM     62  C   UNL A   1      43.064  26.762  26.405  1.00  0.00     0.012 A 
ATOM     63  C   UNL A   1      41.789  24.971  27.449  1.00  0.00     0.148 A 
ATOM     64  C   UNL A   1      43.472  25.892  25.395  1.00  0.00     0.002 A 
ATOM     65  C   UNL A   1      42.237  24.098  26.466  1.00  0.00     0.091 A 
ATOM     66  F   UNL A   1      40.966  24.571  28.428  1.00  0.00    -0.205 F 
ATOM     67  C   UNL A   1      43.071  24.559  25.433  1.00  0.00     0.022 A 
BRANCH  65  68
ATOM     68  S   UNL A   1      41.847  22.345  26.472  1.00  0.00     0.127 S 
ATOM     69  O   UNL A   1      40.388  22.367  26.385  1.00  0.00    -0.237 OA
ATOM     70  O   UNL A   1      42.525  21.877  25.263  1.00  0.00    -0.237 OA
ATOM     71  O   UNL A   1      42.385  21.815  27.718  1.00  0.00    -0.744 OA
ENDBRANCH  65  68
ENDBRANCH  47  61
BRANCH  48  72
ATOM     72  C   UNL A   1      39.335  31.969  35.137  1.00  0.00     0.023 A 
ATOM     73  C   UNL A   1      38.434  31.386  36.050  1.00  0.00     0.012 A 
ATOM     74  C   UNL A   1      39.778  33.286  35.359  1.00  0.00     0.148 A 
ATOM     75  C   UNL A   1      37.944  32.116  37.133  1.00  0.00     0.002 A 
ATOM     76  C   UNL A   1      39.331  33.988  36.473  1.00  0.00     0.091 A 
ATOM     77  F   UNL A   1      40.624  33.831  34.474  1.00  0.00    -0.205 F 
ATOM     78  C   UNL A   1      38.398  33.415  37.349  1.00  0.00     0.022 A 
BRANCH  76  79
ATOM     79  S   UNL A   1      39.963  35.616  36.894  1.00  0.00     0.127 S 
ATOM     80  O   UNL A   1      39.268  35.893  38.147  1.00  0.00    -0.237 OA
ATOM     81  O   UNL A   1      41.397  35.360  37.027  1.00  0.00    -0.237 OA
ATOM     82  O   UNL A   1      39.611  36.471  35.767  1.00  0.00    -0.744 OA
ENDBRANCH  76  79
ENDBRANCH  48  72
BRANCH  60  83
ATOM     83  C   UNL A   1      45.090  28.289  33.715  1.00  0.00     0.023 A 
ATOM     84  C   UNL A   1      45.205  27.150  34.535  1.00  0.00     0.012 A 
ATOM     85  C   UNL A   1      46.204  29.135  33.543  1.00  0.00     0.148 A 
ATOM     86  C   UNL A   1      46.401  26.874  35.198  1.00  0.00     0.002 A 
ATOM     87  C   UNL A   1      47.407  28.824  34.162  1.00  0.00     0.091 A 
ATOM     88  F   UNL A   1      46.066  30.223  32.770  1.00  0.00    -0.205 F 
ATOM     89  C   UNL A   1      47.504  27.702  34.999  1.00  0.00     0.022 A 
BRANCH  87  90
ATOM     90  S   UNL A   1      48.907  29.772  33.882  1.00  0.00     0.127 S 
ATOM     91  O   UNL A   1      48.550  31.070  34.451  1.00  0.00    -0.237 OA
ATOM     92  O   UNL A   1      49.896  29.019  34.653  1.00  0.00    -0.237 OA
ATOM     93  O   UNL A   1      49.128  29.763  32.442  1.00  0.00    -0.744 OA
ENDBRANCH  87  90
ENDBRANCH  60  83
ENDBRANCH  34  35
ENDBRANCH  26  29
ENDBRANCH  24  25
ENDBRANCH  23  24
ENDBRANCH  22  23
ENDBRANCH   1  22
TORSDOF 21
ENDMDL
