MODEL 1
REMARK VINA RESULT:     -10.6      0.000      0.000
REMARK SMILES COc1cc([C@@H]2[NH2+][C@@H](C(=O)NCCCCCCNC(=O)c3ccc(-c4c5nc(c(-c6cccc(S(=O)(=O)[O-])c6F)c6ccc([nH]6)c(-c6cccc(S(=O)(=O)[O-])c6F)c6nc(c(-c7cccc(S(=O)(=O)[O-])c7F)c7ccc4[nH]7)C=C6)C=C5)cc3)CS2)cc(Cl)c1O
REMARK SMILES IDX 15 1 14 2 13 3 12 4 11 5 9 6 10 7 8 9 6 10 7 11 85 12 84 15
REMARK SMILES IDX 5 16 3 17 4 18 89 19 87 20 86 21 88 22 2 23 1 24 90 25 16 27
REMARK SMILES IDX 17 28 18 29 19 30 20 32 21 33 22 34 83 35 23 36 82 37 24 38
REMARK SMILES IDX 25 39 26 40 76 41 27 42 81 43 75 44 77 45 28 46 80 47 74 48
REMARK SMILES IDX 73 49 29 51 61 52 41 53 60 54 42 55 45 56 59 57 78 58 43 59
REMARK SMILES IDX 44 60 58 62 79 63 46 64 30 65 31 66 39 67 32 68 34 69 40 70
REMARK SMILES IDX 33 71 35 72 36 73 37 74 38 75 62 76 63 77 71 78 64 79 66 80
REMARK SMILES IDX 72 81 65 82 67 83 68 84 69 85 70 86 47 87 48 88 56 89 49 90
REMARK SMILES IDX 51 91 57 92 50 93 52 94 53 95 54 96 55 97
REMARK H PARENT 11 8 7 13 7 14 90 26 18 31 77 50 45 61
REMARK Flexibility Score: inf
ROOT
ATOM      1  C   UNL A   1      35.153  32.017  27.817  1.00  0.00     0.002 C 
ENDROOT
BRANCH   1   2
ATOM      2  C   UNL A   1      35.074  30.586  28.361  1.00  0.00     0.002 C 
BRANCH   2   3
ATOM      3  C   UNL A   1      35.054  29.492  27.287  1.00  0.00     0.021 C 
BRANCH   3   4
ATOM      4  C   UNL A   1      33.676  29.275  26.664  1.00  0.00     0.116 C 
BRANCH   4   5
ATOM      5  N   UNL A   1      33.690  29.618  25.250  1.00  0.00    -0.351 N 
ATOM      6  C   UNL A   1      33.335  28.855  24.173  1.00  0.00     0.279 C 
ATOM      7  O   UNL A   1      33.529  29.292  23.037  1.00  0.00    -0.268 OA
ATOM      8  H   UNL A   1      33.997  30.529  25.039  1.00  0.00     0.163 HD
BRANCH   6   9
ATOM      9  C   UNL A   1      32.618  27.532  24.426  1.00  0.00     0.283 C 
ATOM     10  C   UNL A   1      32.206  25.353  23.618  1.00  0.00     0.274 C 
ATOM     11  N   UNL A   1      33.203  26.429  23.624  1.00  0.00    -0.321 N 
ATOM     12  S   UNL A   1      30.596  26.143  23.373  1.00  0.00    -0.088 SA
ATOM     13  H   UNL A   1      33.389  26.744  22.672  1.00  0.00     0.348 HD
ATOM     14  H   UNL A   1      34.088  26.112  24.019  1.00  0.00     0.348 HD
ATOM     15  C   UNL A   1      31.145  27.725  24.057  1.00  0.00     0.151 C 
BRANCH  10  16
ATOM     16  C   UNL A   1      32.271  24.474  24.864  1.00  0.00     0.025 A 
ATOM     17  C   UNL A   1      33.490  23.225  26.576  1.00  0.00     0.162 A 
ATOM     18  C   UNL A   1      33.481  24.069  25.467  1.00  0.00     0.061 A 
ATOM     19  C   UNL A   1      32.294  22.828  27.167  1.00  0.00     0.176 A 
ATOM     20  C   UNL A   1      31.083  23.213  26.589  1.00  0.00     0.087 A 
ATOM     21  C   UNL A   1      31.073  24.014  25.440  1.00  0.00     0.035 A 
ATOM     22  Cl  UNL A   1      29.572  22.748  27.281  1.00  0.00    -0.080 Cl
BRANCH  17  23
ATOM     23  O   UNL A   1      34.705  22.875  27.106  1.00  0.00    -0.493 OA
ATOM     24  C   UNL A   1      35.731  22.859  26.107  1.00  0.00     0.278 C 
ENDBRANCH  17  23
BRANCH  19  25
ATOM     25  O   UNL A   1      32.315  22.103  28.327  1.00  0.00    -0.503 OA
ATOM     26  H   UNL A   1      31.990  22.479  29.121  1.00  0.00     0.293 HD
ENDBRANCH  19  25
ENDBRANCH  10  16
ENDBRANCH   6   9
ENDBRANCH   4   5
ENDBRANCH   3   4
ENDBRANCH   2   3
ENDBRANCH   1   2
BRANCH   1  27
ATOM     27  C   UNL A   1      33.859  32.822  27.939  1.00  0.00     0.021 C 
BRANCH  27  28
ATOM     28  C   UNL A   1      34.057  34.334  27.940  1.00  0.00     0.116 C 
BRANCH  28  29
ATOM     29  N   UNL A   1      33.277  34.984  28.984  1.00  0.00    -0.352 N 
ATOM     30  C   UNL A   1      33.395  34.877  30.346  1.00  0.00     0.251 C 
ATOM     31  H   UNL A   1      32.564  35.585  28.666  1.00  0.00     0.163 HD
ATOM     32  O   UNL A   1      32.519  35.338  31.076  1.00  0.00    -0.269 OA
BRANCH  30  33
ATOM     33  C   UNL A   1      34.567  34.193  30.930  1.00  0.00     0.039 A 
ATOM     34  C   UNL A   1      34.367  33.045  31.700  1.00  0.00     0.014 A 
ATOM     35  C   UNL A   1      35.859  34.679  30.713  1.00  0.00     0.014 A 
ATOM     36  C   UNL A   1      35.469  32.353  32.206  1.00  0.00     0.010 A 
ATOM     37  C   UNL A   1      36.957  33.945  31.151  1.00  0.00     0.010 A 
ATOM     38  C   UNL A   1      36.775  32.778  31.907  1.00  0.00    -0.014 A 
BRANCH  38  39
ATOM     39  C   UNL A   1      37.959  32.007  32.366  1.00  0.00     0.031 A 
ATOM     40  C   UNL A   1      38.637  32.355  33.665  1.00  0.00     0.074 A 
ATOM     41  C   UNL A   1      38.475  31.047  31.573  1.00  0.00     0.049 A 
ATOM     42  N   UNL A   1      39.710  31.833  34.199  1.00  0.00    -0.248 NA
ATOM     43  C   UNL A   1      38.049  33.450  34.455  1.00  0.00     0.031 C 
ATOM     44  C   UNL A   1      37.956  30.668  30.257  1.00  0.00     0.029 A 
ATOM     45  N   UNL A   1      39.567  30.232  31.745  1.00  0.00    -0.354 N 
ATOM     46  C   UNL A   1      39.946  32.553  35.363  1.00  0.00     0.074 A 
ATOM     47  C   UNL A   1      38.925  33.573  35.442  1.00  0.00     0.031 C 
ATOM     48  C   UNL A   1      38.726  29.694  29.744  1.00  0.00     0.029 A 
ATOM     49  C   UNL A   1      39.811  29.404  30.674  1.00  0.00     0.049 A 
ATOM     50  H   UNL A   1      40.122  30.239  32.558  1.00  0.00     0.167 HD
ATOM     51  C   UNL A   1      40.911  32.367  36.296  1.00  0.00     0.034 A 
ATOM     52  C   UNL A   1      40.806  28.520  30.458  1.00  0.00     0.034 A 
ATOM     53  C   UNL A   1      41.903  31.329  36.233  1.00  0.00     0.049 A 
ATOM     54  C   UNL A   1      41.847  28.314  31.525  1.00  0.00     0.074 A 
ATOM     55  C   UNL A   1      42.866  31.003  37.172  1.00  0.00     0.029 A 
ATOM     56  N   UNL A   1      42.071  30.456  35.169  1.00  0.00    -0.354 N 
ATOM     57  N   UNL A   1      41.960  28.901  32.691  1.00  0.00    -0.248 NA
ATOM     58  C   UNL A   1      42.876  27.299  31.262  1.00  0.00     0.031 C 
ATOM     59  C   UNL A   1      43.640  29.958  36.660  1.00  0.00     0.029 A 
ATOM     60  C   UNL A   1      43.130  29.603  35.421  1.00  0.00     0.049 A 
ATOM     61  H   UNL A   1      41.517  30.445  34.356  1.00  0.00     0.167 HD
ATOM     62  C   UNL A   1      43.045  28.298  33.318  1.00  0.00     0.074 A 
ATOM     63  C   UNL A   1      43.544  27.288  32.408  1.00  0.00     0.031 C 
ATOM     64  C   UNL A   1      43.586  28.566  34.531  1.00  0.00     0.034 A 
BRANCH  51  65
ATOM     65  C   UNL A   1      40.918  33.283  37.493  1.00  0.00     0.023 A 
ATOM     66  C   UNL A   1      41.854  34.334  37.565  1.00  0.00     0.012 A 
ATOM     67  C   UNL A   1      39.953  33.147  38.510  1.00  0.00     0.148 A 
ATOM     68  C   UNL A   1      41.851  35.215  38.646  1.00  0.00     0.002 A 
ATOM     69  C   UNL A   1      39.925  34.058  39.559  1.00  0.00     0.091 A 
ATOM     70  F   UNL A   1      39.083  32.128  38.434  1.00  0.00    -0.205 F 
ATOM     71  C   UNL A   1      40.881  35.085  39.635  1.00  0.00     0.022 A 
BRANCH  69  72
ATOM     72  S   UNL A   1      38.665  34.027  40.839  1.00  0.00     0.127 S 
ATOM     73  O   UNL A   1      37.519  33.486  40.111  1.00  0.00    -0.237 OA
ATOM     74  O   UNL A   1      39.249  33.114  41.822  1.00  0.00    -0.237 OA
ATOM     75  O   UNL A   1      38.520  35.403  41.295  1.00  0.00    -0.744 OA
ENDBRANCH  69  72
ENDBRANCH  51  65
BRANCH  52  76
ATOM     76  C   UNL A   1      40.841  27.728  29.195  1.00  0.00     0.023 A 
ATOM     77  C   UNL A   1      40.011  26.598  29.058  1.00  0.00     0.012 A 
ATOM     78  C   UNL A   1      41.682  28.096  28.127  1.00  0.00     0.148 A 
ATOM     79  C   UNL A   1      40.049  25.826  27.897  1.00  0.00     0.002 A 
ATOM     80  C   UNL A   1      41.671  27.356  26.951  1.00  0.00     0.091 A 
ATOM     81  F   UNL A   1      42.472  29.168  28.281  1.00  0.00    -0.205 F 
ATOM     82  C   UNL A   1      40.870  26.209  26.841  1.00  0.00     0.022 A 
BRANCH  80  83
ATOM     83  S   UNL A   1      42.596  27.854  25.493  1.00  0.00     0.127 S 
ATOM     84  O   UNL A   1      42.483  26.669  24.648  1.00  0.00    -0.237 OA
ATOM     85  O   UNL A   1      41.832  29.015  25.035  1.00  0.00    -0.237 OA
ATOM     86  O   UNL A   1      43.937  28.169  25.967  1.00  0.00    -0.744 OA
ENDBRANCH  80  83
ENDBRANCH  52  76
BRANCH  64  87
ATOM     87  C   UNL A   1      44.752  27.723  34.980  1.00  0.00     0.023 A 
ATOM     88  C   UNL A   1      46.070  28.180  34.789  1.00  0.00     0.012 A 
ATOM     89  C   UNL A   1      44.532  26.509  35.661  1.00  0.00     0.148 A 
ATOM     90  C   UNL A   1      47.154  27.424  35.238  1.00  0.00     0.002 A 
ATOM     91  C   UNL A   1      45.613  25.789  36.152  1.00  0.00     0.091 A 
ATOM     92  F   UNL A   1      43.269  26.083  35.817  1.00  0.00    -0.205 F 
ATOM     93  C   UNL A   1      46.925  26.237  35.929  1.00  0.00     0.022 A 
BRANCH  91  94
ATOM     94  S   UNL A   1      45.412  24.302  37.140  1.00  0.00     0.127 S 
ATOM     95  O   UNL A   1      46.799  23.960  37.449  1.00  0.00    -0.237 OA
ATOM     96  O   UNL A   1      44.635  24.792  38.281  1.00  0.00    -0.237 OA
ATOM     97  O   UNL A   1      44.707  23.348  36.294  1.00  0.00    -0.744 OA
ENDBRANCH  91  94
ENDBRANCH  64  87
ENDBRANCH  38  39
ENDBRANCH  30  33
ENDBRANCH  28  29
ENDBRANCH  27  28
ENDBRANCH   1  27
TORSDOF 19
ENDMDL
MODEL 2
REMARK VINA RESULT:     -10.3      4.959      9.862
REMARK SMILES COc1cc([C@@H]2[NH2+][C@@H](C(=O)NCCCCCCNC(=O)c3ccc(-c4c5nc(c(-c6cccc(S(=O)(=O)[O-])c6F)c6ccc([nH]6)c(-c6cccc(S(=O)(=O)[O-])c6F)c6nc(c(-c7cccc(S(=O)(=O)[O-])c7F)c7ccc4[nH]7)C=C6)C=C5)cc3)CS2)cc(Cl)c1O
REMARK SMILES IDX 15 1 14 2 13 3 12 4 11 5 9 6 10 7 8 9 6 10 7 11 85 12 84 15
REMARK SMILES IDX 5 16 3 17 4 18 89 19 87 20 86 21 88 22 2 23 1 24 90 25 16 27
REMARK SMILES IDX 17 28 18 29 19 30 20 32 21 33 22 34 83 35 23 36 82 37 24 38
REMARK SMILES IDX 25 39 26 40 76 41 27 42 81 43 75 44 77 45 28 46 80 47 74 48
REMARK SMILES IDX 73 49 29 51 61 52 41 53 60 54 42 55 45 56 59 57 78 58 43 59
REMARK SMILES IDX 44 60 58 62 79 63 46 64 30 65 31 66 39 67 32 68 34 69 40 70
REMARK SMILES IDX 33 71 35 72 36 73 37 74 38 75 62 76 63 77 71 78 64 79 66 80
REMARK SMILES IDX 72 81 65 82 67 83 68 84 69 85 70 86 47 87 48 88 56 89 49 90
REMARK SMILES IDX 51 91 57 92 50 93 52 94 53 95 54 96 55 97
REMARK H PARENT 11 8 7 13 7 14 90 26 18 31 77 50 45 61
REMARK Flexibility Score: inf
ROOT
ATOM      1  C   UNL A   1      34.570  23.712  24.854  1.00  0.00     0.002 C 
ENDROOT
BRANCH   1   2
ATOM      2  C   UNL A   1      34.581  22.820  23.607  1.00  0.00     0.002 C 
BRANCH   2   3
ATOM      3  C   UNL A   1      33.198  22.343  23.147  1.00  0.00     0.021 C 
BRANCH   3   4
ATOM      4  C   UNL A   1      32.262  23.484  22.752  1.00  0.00     0.116 C 
BRANCH   4   5
ATOM      5  N   UNL A   1      32.605  24.000  21.436  1.00  0.00    -0.351 N 
ATOM      6  C   UNL A   1      32.756  25.296  21.030  1.00  0.00     0.279 C 
ATOM      7  O   UNL A   1      32.938  25.535  19.834  1.00  0.00    -0.268 OA
ATOM      8  H   UNL A   1      32.750  23.320  20.739  1.00  0.00     0.163 HD
BRANCH   6   9
ATOM      9  C   UNL A   1      32.795  26.390  22.093  1.00  0.00     0.283 C 
ATOM     10  C   UNL A   1      31.907  28.463  22.790  1.00  0.00     0.274 C 
ATOM     11  N   UNL A   1      31.579  27.239  22.053  1.00  0.00    -0.321 N 
ATOM     12  S   UNL A   1      33.581  28.934  22.289  1.00  0.00    -0.088 SA
ATOM     13  H   UNL A   1      31.336  27.462  21.088  1.00  0.00     0.348 HD
ATOM     14  H   UNL A   1      30.778  26.760  22.466  1.00  0.00     0.348 HD
ATOM     15  C   UNL A   1      34.039  27.244  21.834  1.00  0.00     0.151 C 
BRANCH  10  16
ATOM     16  C   UNL A   1      31.743  28.310  24.300  1.00  0.00     0.025 A 
ATOM     17  C   UNL A   1      30.962  27.118  26.288  1.00  0.00     0.162 A 
ATOM     18  C   UNL A   1      31.133  27.190  24.906  1.00  0.00     0.061 A 
ATOM     19  C   UNL A   1      31.468  28.119  27.111  1.00  0.00     0.176 A 
ATOM     20  C   UNL A   1      32.074  29.238  26.538  1.00  0.00     0.087 A 
ATOM     21  C   UNL A   1      32.196  29.339  25.146  1.00  0.00     0.035 A 
ATOM     22  Cl  UNL A   1      32.719  30.508  27.513  1.00  0.00    -0.080 Cl
BRANCH  17  23
ATOM     23  O   UNL A   1      30.360  26.000  26.801  1.00  0.00    -0.493 OA
ATOM     24  C   UNL A   1      30.821  24.807  26.155  1.00  0.00     0.278 C 
ENDBRANCH  17  23
BRANCH  19  25
ATOM     25  O   UNL A   1      31.406  27.978  28.470  1.00  0.00    -0.503 OA
ATOM     26  H   UNL A   1      30.937  28.605  28.985  1.00  0.00     0.293 HD
ENDBRANCH  19  25
ENDBRANCH  10  16
ENDBRANCH   6   9
ENDBRANCH   4   5
ENDBRANCH   3   4
ENDBRANCH   2   3
ENDBRANCH   1   2
BRANCH   1  27
ATOM     27  C   UNL A   1      35.683  23.420  25.861  1.00  0.00     0.021 C 
BRANCH  27  28
ATOM     28  C   UNL A   1      37.093  23.534  25.289  1.00  0.00     0.116 C 
BRANCH  28  29
ATOM     29  N   UNL A   1      38.006  22.579  25.900  1.00  0.00    -0.352 N 
ATOM     30  C   UNL A   1      39.145  22.813  26.627  1.00  0.00     0.251 C 
ATOM     31  H   UNL A   1      37.772  21.630  25.774  1.00  0.00     0.163 HD
ATOM     32  O   UNL A   1      39.906  21.885  26.893  1.00  0.00    -0.269 OA
BRANCH  30  33
ATOM     33  C   UNL A   1      39.461  24.186  27.073  1.00  0.00     0.039 A 
ATOM     34  C   UNL A   1      39.123  24.572  28.371  1.00  0.00     0.014 A 
ATOM     35  C   UNL A   1      40.095  25.087  26.213  1.00  0.00     0.014 A 
ATOM     36  C   UNL A   1      39.472  25.845  28.826  1.00  0.00     0.010 A 
ATOM     37  C   UNL A   1      40.511  26.325  26.693  1.00  0.00     0.010 A 
ATOM     38  C   UNL A   1      40.199  26.721  28.002  1.00  0.00    -0.014 A 
BRANCH  38  39
ATOM     39  C   UNL A   1      40.652  28.046  28.497  1.00  0.00     0.031 A 
ATOM     40  C   UNL A   1      42.079  28.249  28.932  1.00  0.00     0.074 A 
ATOM     41  C   UNL A   1      39.758  29.046  28.632  1.00  0.00     0.049 A 
ATOM     42  N   UNL A   1      42.642  29.314  29.440  1.00  0.00    -0.248 NA
ATOM     43  C   UNL A   1      42.989  27.098  28.804  1.00  0.00     0.031 C 
ATOM     44  C   UNL A   1      38.331  28.952  28.319  1.00  0.00     0.029 A 
ATOM     45  N   UNL A   1      39.911  30.330  29.095  1.00  0.00    -0.354 N 
ATOM     46  C   UNL A   1      43.953  28.955  29.725  1.00  0.00     0.074 A 
ATOM     47  C   UNL A   1      44.096  27.562  29.364  1.00  0.00     0.031 C 
ATOM     48  C   UNL A   1      37.741  30.127  28.594  1.00  0.00     0.029 A 
ATOM     49  C   UNL A   1      38.736  31.045  29.136  1.00  0.00     0.049 A 
ATOM     50  H   UNL A   1      40.779  30.703  29.372  1.00  0.00     0.167 HD
ATOM     51  C   UNL A   1      44.955  29.721  30.217  1.00  0.00     0.034 A 
ATOM     52  C   UNL A   1      38.486  32.295  29.575  1.00  0.00     0.034 A 
ATOM     53  C   UNL A   1      44.820  31.115  30.541  1.00  0.00     0.049 A 
ATOM     54  C   UNL A   1      39.625  33.132  30.090  1.00  0.00     0.074 A 
ATOM     55  C   UNL A   1      45.799  31.999  30.961  1.00  0.00     0.029 A 
ATOM     56  N   UNL A   1      43.632  31.828  30.494  1.00  0.00    -0.354 N 
ATOM     57  N   UNL A   1      40.893  32.820  30.204  1.00  0.00    -0.248 NA
ATOM     58  C   UNL A   1      39.306  34.506  30.502  1.00  0.00     0.031 C 
ATOM     59  C   UNL A   1      45.196  33.236  31.204  1.00  0.00     0.029 A 
ATOM     60  C   UNL A   1      43.849  33.135  30.892  1.00  0.00     0.049 A 
ATOM     61  H   UNL A   1      42.763  31.459  30.217  1.00  0.00     0.167 HD
ATOM     62  C   UNL A   1      41.529  33.968  30.661  1.00  0.00     0.074 A 
ATOM     63  C   UNL A   1      40.509  34.989  30.785  1.00  0.00     0.031 C 
ATOM     64  C   UNL A   1      42.837  34.157  30.962  1.00  0.00     0.034 A 
BRANCH  51  65
ATOM     65  C   UNL A   1      46.307  29.079  30.401  1.00  0.00     0.023 A 
ATOM     66  C   UNL A   1      46.652  28.516  31.645  1.00  0.00     0.012 A 
ATOM     67  C   UNL A   1      47.206  28.971  29.321  1.00  0.00     0.148 A 
ATOM     68  C   UNL A   1      47.882  27.883  31.823  1.00  0.00     0.002 A 
ATOM     69  C   UNL A   1      48.408  28.296  29.492  1.00  0.00     0.091 A 
ATOM     70  F   UNL A   1      46.868  29.531  28.150  1.00  0.00    -0.205 F 
ATOM     71  C   UNL A   1      48.753  27.763  30.745  1.00  0.00     0.022 A 
BRANCH  69  72
ATOM     72  S   UNL A   1      49.564  28.015  28.146  1.00  0.00     0.127 S 
ATOM     73  O   UNL A   1      50.527  27.109  28.769  1.00  0.00    -0.237 OA
ATOM     74  O   UNL A   1      48.709  27.393  27.134  1.00  0.00    -0.237 OA
ATOM     75  O   UNL A   1      50.087  29.325  27.782  1.00  0.00    -0.744 OA
ENDBRANCH  69  72
ENDBRANCH  51  65
BRANCH  52  76
ATOM     76  C   UNL A   1      37.103  32.848  29.504  1.00  0.00     0.023 A 
ATOM     77  C   UNL A   1      36.479  33.004  28.251  1.00  0.00     0.012 A 
ATOM     78  C   UNL A   1      36.401  33.209  30.670  1.00  0.00     0.148 A 
ATOM     79  C   UNL A   1      35.197  33.547  28.158  1.00  0.00     0.002 A 
ATOM     80  C   UNL A   1      35.103  33.694  30.575  1.00  0.00     0.091 A 
ATOM     81  F   UNL A   1      37.017  33.063  31.852  1.00  0.00    -0.205 F 
ATOM     82  C   UNL A   1      34.506  33.882  29.319  1.00  0.00     0.022 A 
BRANCH  80  83
ATOM     83  S   UNL A   1      34.092  34.024  32.022  1.00  0.00     0.127 S 
ATOM     84  O   UNL A   1      35.012  34.785  32.862  1.00  0.00    -0.237 OA
ATOM     85  O   UNL A   1      32.992  34.801  31.450  1.00  0.00    -0.237 OA
ATOM     86  O   UNL A   1      33.699  32.718  32.534  1.00  0.00    -0.744 OA
ENDBRANCH  80  83
ENDBRANCH  52  76
BRANCH  64  87
ATOM     87  C   UNL A   1      43.262  35.532  31.408  1.00  0.00     0.023 A 
ATOM     88  C   UNL A   1      43.356  35.834  32.780  1.00  0.00     0.012 A 
ATOM     89  C   UNL A   1      43.642  36.502  30.458  1.00  0.00     0.148 A 
ATOM     90  C   UNL A   1      43.788  37.092  33.201  1.00  0.00     0.002 A 
ATOM     91  C   UNL A   1      44.122  37.734  30.885  1.00  0.00     0.091 A 
ATOM     92  F   UNL A   1      43.530  36.201  29.156  1.00  0.00    -0.205 F 
ATOM     93  C   UNL A   1      44.181  38.036  32.256  1.00  0.00     0.022 A 
BRANCH  91  94
ATOM     94  S   UNL A   1      44.746  38.973  29.745  1.00  0.00     0.127 S 
ATOM     95  O   UNL A   1      43.523  39.396  29.066  1.00  0.00    -0.237 OA
ATOM     96  O   UNL A   1      45.315  39.970  30.654  1.00  0.00    -0.237 OA
ATOM     97  O   UNL A   1      45.723  38.293  28.905  1.00  0.00    -0.744 OA
ENDBRANCH  91  94
ENDBRANCH  64  87
ENDBRANCH  38  39
ENDBRANCH  30  33
ENDBRANCH  28  29
ENDBRANCH  27  28
ENDBRANCH   1  27
TORSDOF 19
ENDMDL
MODEL 3
REMARK VINA RESULT:     -10.3      1.705      7.958
REMARK SMILES COc1cc([C@@H]2[NH2+][C@@H](C(=O)NCCCCCCNC(=O)c3ccc(-c4c5nc(c(-c6cccc(S(=O)(=O)[O-])c6F)c6ccc([nH]6)c(-c6cccc(S(=O)(=O)[O-])c6F)c6nc(c(-c7cccc(S(=O)(=O)[O-])c7F)c7ccc4[nH]7)C=C6)C=C5)cc3)CS2)cc(Cl)c1O
REMARK SMILES IDX 15 1 14 2 13 3 12 4 11 5 9 6 10 7 8 9 6 10 7 11 85 12 84 15
REMARK SMILES IDX 5 16 3 17 4 18 89 19 87 20 86 21 88 22 2 23 1 24 90 25 16 27
REMARK SMILES IDX 17 28 18 29 19 30 20 32 21 33 22 34 83 35 23 36 82 37 24 38
REMARK SMILES IDX 25 39 26 40 76 41 27 42 81 43 75 44 77 45 28 46 80 47 74 48
REMARK SMILES IDX 73 49 29 51 61 52 41 53 60 54 42 55 45 56 59 57 78 58 43 59
REMARK SMILES IDX 44 60 58 62 79 63 46 64 30 65 31 66 39 67 32 68 34 69 40 70
REMARK SMILES IDX 33 71 35 72 36 73 37 74 38 75 62 76 63 77 71 78 64 79 66 80
REMARK SMILES IDX 72 81 65 82 67 83 68 84 69 85 70 86 47 87 48 88 56 89 49 90
REMARK SMILES IDX 51 91 57 92 50 93 52 94 53 95 54 96 55 97
REMARK H PARENT 11 8 7 13 7 14 90 26 18 31 77 50 45 61
REMARK Flexibility Score: inf
ROOT
ATOM      1  C   UNL A   1      31.841  30.121  27.303  1.00  0.00     0.002 C 
ENDROOT
BRANCH   1   2
ATOM      2  C   UNL A   1      31.798  28.951  26.314  1.00  0.00     0.002 C 
BRANCH   2   3
ATOM      3  C   UNL A   1      31.783  27.562  26.964  1.00  0.00     0.021 C 
BRANCH   3   4
ATOM      4  C   UNL A   1      31.366  26.447  26.007  1.00  0.00     0.116 C 
BRANCH   4   5
ATOM      5  N   UNL A   1      31.035  26.988  24.698  1.00  0.00    -0.351 N 
ATOM      6  C   UNL A   1      31.380  26.525  23.459  1.00  0.00     0.279 C 
ATOM      7  O   UNL A   1      31.095  27.196  22.465  1.00  0.00    -0.268 OA
ATOM      8  H   UNL A   1      30.483  27.804  24.705  1.00  0.00     0.163 HD
BRANCH   6   9
ATOM      9  C   UNL A   1      32.016  25.142  23.353  1.00  0.00     0.283 C 
ATOM     10  C   UNL A   1      34.038  23.926  23.294  1.00  0.00     0.274 C 
ATOM     11  N   UNL A   1      33.422  25.147  23.825  1.00  0.00    -0.321 N 
ATOM     12  S   UNL A   1      33.463  23.759  21.587  1.00  0.00    -0.088 SA
ATOM     13  H   UNL A   1      33.910  25.970  23.473  1.00  0.00     0.348 HD
ATOM     14  H   UNL A   1      33.472  25.175  24.843  1.00  0.00     0.348 HD
ATOM     15  C   UNL A   1      31.957  24.717  21.883  1.00  0.00     0.151 C 
BRANCH  10  16
ATOM     16  C   UNL A   1      33.759  22.697  24.155  1.00  0.00     0.025 A 
ATOM     17  C   UNL A   1      33.742  21.501  26.288  1.00  0.00     0.162 A 
ATOM     18  C   UNL A   1      33.964  22.663  25.551  1.00  0.00     0.061 A 
ATOM     19  C   UNL A   1      33.229  20.364  25.669  1.00  0.00     0.176 A 
ATOM     20  C   UNL A   1      33.020  20.370  24.289  1.00  0.00     0.087 A 
ATOM     21  C   UNL A   1      33.298  21.520  23.538  1.00  0.00     0.035 A 
ATOM     22  Cl  UNL A   1      32.387  18.988  23.472  1.00  0.00    -0.080 Cl
BRANCH  17  23
ATOM     23  O   UNL A   1      33.963  21.546  27.639  1.00  0.00    -0.493 OA
ATOM     24  C   UNL A   1      33.139  22.529  28.277  1.00  0.00     0.278 C 
ENDBRANCH  17  23
BRANCH  19  25
ATOM     25  O   UNL A   1      32.898  19.271  26.421  1.00  0.00    -0.503 OA
ATOM     26  H   UNL A   1      33.569  18.766  26.835  1.00  0.00     0.293 HD
ENDBRANCH  19  25
ENDBRANCH  10  16
ENDBRANCH   6   9
ENDBRANCH   4   5
ENDBRANCH   3   4
ENDBRANCH   2   3
ENDBRANCH   1   2
BRANCH   1  27
ATOM     27  C   UNL A   1      31.834  31.507  26.657  1.00  0.00     0.021 C 
BRANCH  27  28
ATOM     28  C   UNL A   1      33.055  32.359  26.986  1.00  0.00     0.116 C 
BRANCH  28  29
ATOM     29  N   UNL A   1      32.683  33.702  27.409  1.00  0.00    -0.352 N 
ATOM     30  C   UNL A   1      33.121  34.422  28.491  1.00  0.00     0.251 C 
ATOM     31  H   UNL A   1      32.023  34.158  26.836  1.00  0.00     0.163 HD
ATOM     32  O   UNL A   1      32.547  35.461  28.810  1.00  0.00    -0.269 OA
BRANCH  30  33
ATOM     33  C   UNL A   1      34.271  33.935  29.279  1.00  0.00     0.039 A 
ATOM     34  C   UNL A   1      34.053  32.990  30.284  1.00  0.00     0.014 A 
ATOM     35  C   UNL A   1      35.563  34.405  29.023  1.00  0.00     0.014 A 
ATOM     36  C   UNL A   1      35.138  32.475  30.995  1.00  0.00     0.010 A 
ATOM     37  C   UNL A   1      36.649  33.833  29.678  1.00  0.00     0.010 A 
ATOM     38  C   UNL A   1      36.449  32.867  30.675  1.00  0.00    -0.014 A 
BRANCH  38  39
ATOM     39  C   UNL A   1      37.622  32.267  31.363  1.00  0.00     0.031 A 
ATOM     40  C   UNL A   1      38.373  31.125  30.731  1.00  0.00     0.074 A 
ATOM     41  C   UNL A   1      37.961  32.697  32.595  1.00  0.00     0.049 A 
ATOM     42  N   UNL A   1      39.382  30.442  31.204  1.00  0.00    -0.248 NA
ATOM     43  C   UNL A   1      37.915  30.674  29.406  1.00  0.00     0.031 C 
ATOM     44  C   UNL A   1      37.265  33.743  33.347  1.00  0.00     0.029 A 
ATOM     45  N   UNL A   1      38.959  32.288  33.444  1.00  0.00    -0.354 N 
ATOM     46  C   UNL A   1      39.656  29.462  30.259  1.00  0.00     0.074 A 
ATOM     47  C   UNL A   1      38.687  29.617  29.197  1.00  0.00     0.031 C 
ATOM     48  C   UNL A   1      37.859  33.896  34.541  1.00  0.00     0.029 A 
ATOM     49  C   UNL A   1      38.952  32.938  34.657  1.00  0.00     0.049 A 
ATOM     50  H   UNL A   1      39.618  31.595  33.208  1.00  0.00     0.167 HD
ATOM     51  C   UNL A   1      40.643  28.534  30.259  1.00  0.00     0.034 A 
ATOM     52  C   UNL A   1      39.729  32.771  35.746  1.00  0.00     0.034 A 
ATOM     53  C   UNL A   1      41.628  28.406  31.298  1.00  0.00     0.049 A 
ATOM     54  C   UNL A   1      40.836  31.752  35.706  1.00  0.00     0.074 A 
ATOM     55  C   UNL A   1      42.719  27.556  31.347  1.00  0.00     0.029 A 
ATOM     56  N   UNL A   1      41.637  29.137  32.476  1.00  0.00    -0.354 N 
ATOM     57  N   UNL A   1      41.175  30.940  34.734  1.00  0.00    -0.248 NA
ATOM     58  C   UNL A   1      41.689  31.651  36.899  1.00  0.00     0.031 C 
ATOM     59  C   UNL A   1      43.368  27.747  32.571  1.00  0.00     0.029 A 
ATOM     60  C   UNL A   1      42.706  28.747  33.265  1.00  0.00     0.049 A 
ATOM     61  H   UNL A   1      40.982  29.830  32.715  1.00  0.00     0.167 HD
ATOM     62  C   UNL A   1      42.304  30.263  35.181  1.00  0.00     0.074 A 
ATOM     63  C   UNL A   1      42.601  30.773  36.504  1.00  0.00     0.031 C 
ATOM     64  C   UNL A   1      43.023  29.298  34.557  1.00  0.00     0.034 A 
BRANCH  51  65
ATOM     65  C   UNL A   1      40.734  27.603  29.077  1.00  0.00     0.023 A 
ATOM     66  C   UNL A   1      39.861  26.501  28.984  1.00  0.00     0.012 A 
ATOM     67  C   UNL A   1      41.634  27.861  28.024  1.00  0.00     0.148 A 
ATOM     68  C   UNL A   1      39.904  25.651  27.880  1.00  0.00     0.002 A 
ATOM     69  C   UNL A   1      41.638  27.038  26.905  1.00  0.00     0.091 A 
ATOM     70  F   UNL A   1      42.471  28.903  28.140  1.00  0.00    -0.205 F 
ATOM     71  C   UNL A   1      40.782  25.926  26.836  1.00  0.00     0.022 A 
BRANCH  69  72
ATOM     72  S   UNL A   1      42.672  27.355  25.470  1.00  0.00     0.127 S 
ATOM     73  O   UNL A   1      42.429  26.160  24.663  1.00  0.00    -0.237 OA
ATOM     74  O   UNL A   1      42.085  28.583  24.934  1.00  0.00    -0.237 OA
ATOM     75  O   UNL A   1      44.031  27.498  25.976  1.00  0.00    -0.744 OA
ENDBRANCH  69  72
ENDBRANCH  51  65
BRANCH  52  76
ATOM     76  C   UNL A   1      39.518  33.622  36.952  1.00  0.00     0.023 A 
ATOM     77  C   UNL A   1      39.992  34.948  36.961  1.00  0.00     0.012 A 
ATOM     78  C   UNL A   1      38.841  33.127  38.084  1.00  0.00     0.148 A 
ATOM     79  C   UNL A   1      39.832  35.753  38.089  1.00  0.00     0.002 A 
ATOM     80  C   UNL A   1      38.633  33.953  39.181  1.00  0.00     0.091 A 
ATOM     81  F   UNL A   1      38.407  31.859  38.059  1.00  0.00    -0.205 F 
ATOM     82  C   UNL A   1      39.144  35.260  39.194  1.00  0.00     0.022 A 
BRANCH  80  83
ATOM     83  S   UNL A   1      37.643  33.445  40.592  1.00  0.00     0.127 S 
ATOM     84  O   UNL A   1      36.407  33.011  39.949  1.00  0.00    -0.237 OA
ATOM     85  O   UNL A   1      38.457  32.368  41.158  1.00  0.00    -0.237 OA
ATOM     86  O   UNL A   1      37.536  34.623  41.442  1.00  0.00    -0.744 OA
ENDBRANCH  80  83
ENDBRANCH  52  76
BRANCH  64  87
ATOM     87  C   UNL A   1      44.236  28.756  35.268  1.00  0.00     0.023 A 
ATOM     88  C   UNL A   1      45.508  29.304  35.015  1.00  0.00     0.012 A 
ATOM     89  C   UNL A   1      44.097  27.752  36.248  1.00  0.00     0.148 A 
ATOM     90  C   UNL A   1      46.630  28.836  35.699  1.00  0.00     0.002 A 
ATOM     91  C   UNL A   1      45.210  27.329  36.963  1.00  0.00     0.091 A 
ATOM     92  F   UNL A   1      42.880  27.232  36.462  1.00  0.00    -0.205 F 
ATOM     93  C   UNL A   1      46.480  27.859  36.680  1.00  0.00     0.022 A 
BRANCH  91  94
ATOM     94  S   UNL A   1      45.097  26.149  38.312  1.00  0.00     0.127 S 
ATOM     95  O   UNL A   1      44.602  24.957  37.626  1.00  0.00    -0.237 OA
ATOM     96  O   UNL A   1      46.487  26.061  38.763  1.00  0.00    -0.237 OA
ATOM     97  O   UNL A   1      44.183  26.734  39.284  1.00  0.00    -0.744 OA
ENDBRANCH  91  94
ENDBRANCH  64  87
ENDBRANCH  38  39
ENDBRANCH  30  33
ENDBRANCH  28  29
ENDBRANCH  27  28
ENDBRANCH   1  27
TORSDOF 19
ENDMDL
