MODEL 1
REMARK VINA RESULT:     -11.8      0.000      0.000
REMARK SMILES O=C(NCCCCCCNC(=O)c1cc(O)ccc1NC(=O)c1ccc(Br)nc1)c1ccc(-c2c3nc(c(-c4cccc(S(=O)(=O)[O-])c4F)c4ccc([nH]4)c(-c4cccc(S(=O)(=O)[O-])c4F)c4nc(c(-c5cccc(S(=O)(=O)[O-])c5F)c5ccc2[nH]5)C=C4)C=C3)cc1
REMARK SMILES IDX 6 1 5 2 4 3 3 4 1 5 2 6 30 8 31 9 92 10 32 11 91 12 33 13
REMARK SMILES IDX 34 14 35 15 85 16 36 17 90 18 84 19 86 20 37 21 89 22 83 23
REMARK SMILES IDX 82 24 38 26 70 27 50 28 69 29 51 30 54 31 68 32 87 33 52 34
REMARK SMILES IDX 53 35 67 37 88 38 55 39 39 40 40 41 48 42 41 43 43 44 49 45
REMARK SMILES IDX 42 46 44 47 45 48 46 49 47 50 71 51 72 52 80 53 73 54 75 55
REMARK SMILES IDX 81 56 74 57 76 58 77 59 78 60 79 61 56 62 57 63 65 64 58 65
REMARK SMILES IDX 60 66 66 67 59 68 61 69 62 70 63 71 64 72 7 73 8 74 9 75
REMARK SMILES IDX 10 76 11 77 12 79 13 80 14 81 19 82 15 83 18 84 17 85 20 86
REMARK SMILES IDX 21 87 22 89 23 90 24 91 29 92 25 93 28 94 26 95 27 96 16 97
REMARK H PARENT 3 7 86 25 54 36 10 78 20 88 16 98
REMARK Flexibility Score: inf
ROOT
ATOM      1  C   UNL A   1      32.093  28.914  25.470  1.00  0.00     0.002 C 
ENDROOT
BRANCH   1   2
ATOM      2  C   UNL A   1      31.791  30.280  26.086  1.00  0.00     0.021 C 
BRANCH   2   3
ATOM      3  C   UNL A   1      32.892  30.863  26.961  1.00  0.00     0.116 C 
BRANCH   3   4
ATOM      4  N   UNL A   1      32.833  32.310  27.060  1.00  0.00    -0.352 N 
ATOM      5  O   UNL A   1      33.371  34.353  27.846  1.00  0.00    -0.269 OA
ATOM      6  C   UNL A   1      33.655  33.161  27.766  1.00  0.00     0.251 C 
ATOM      7  H   UNL A   1      32.108  32.742  26.554  1.00  0.00     0.163 HD
BRANCH   6   8
ATOM      8  C   UNL A   1      34.855  32.627  28.452  1.00  0.00     0.039 A 
ATOM      9  C   UNL A   1      36.121  33.150  28.182  1.00  0.00     0.014 A 
ATOM     10  C   UNL A   1      34.713  31.587  29.375  1.00  0.00     0.014 A 
ATOM     11  C   UNL A   1      37.251  32.535  28.713  1.00  0.00     0.010 A 
ATOM     12  C   UNL A   1      35.846  31.030  29.981  1.00  0.00     0.010 A 
ATOM     13  C   UNL A   1      37.128  31.476  29.630  1.00  0.00    -0.014 A 
BRANCH  13  14
ATOM     14  C   UNL A   1      38.360  30.931  30.259  1.00  0.00     0.031 A 
ATOM     15  C   UNL A   1      38.769  31.299  31.659  1.00  0.00     0.074 A 
ATOM     16  C   UNL A   1      39.097  30.050  29.552  1.00  0.00     0.049 A 
ATOM     17  N   UNL A   1      39.759  30.826  32.373  1.00  0.00    -0.248 NA
ATOM     18  C   UNL A   1      37.978  32.332  32.348  1.00  0.00     0.031 C 
ATOM     19  C   UNL A   1      38.838  29.668  28.161  1.00  0.00     0.029 A 
ATOM     20  N   UNL A   1      40.196  29.309  29.900  1.00  0.00    -0.354 N 
ATOM     21  C   UNL A   1      39.730  31.516  33.579  1.00  0.00     0.074 A 
ATOM     22  C   UNL A   1      38.631  32.454  33.497  1.00  0.00     0.031 C 
ATOM     23  C   UNL A   1      39.722  28.733  27.789  1.00  0.00     0.029 A 
ATOM     24  C   UNL A   1      40.637  28.479  28.896  1.00  0.00     0.049 A 
ATOM     25  H   UNL A   1      40.628  29.364  30.783  1.00  0.00     0.167 HD
ATOM     26  C   UNL A   1      40.533  31.366  34.662  1.00  0.00     0.034 A 
ATOM     27  C   UNL A   1      41.664  27.609  28.863  1.00  0.00     0.034 A 
ATOM     28  C   UNL A   1      41.606  30.410  34.750  1.00  0.00     0.049 A 
ATOM     29  C   UNL A   1      42.494  27.420  30.099  1.00  0.00     0.074 A 
ATOM     30  C   UNL A   1      42.449  30.158  35.819  1.00  0.00     0.029 A 
ATOM     31  N   UNL A   1      41.986  29.545  33.734  1.00  0.00    -0.354 N 
ATOM     32  N   UNL A   1      42.366  27.993  31.271  1.00  0.00    -0.248 NA
ATOM     33  C   UNL A   1      43.591  26.447  30.020  1.00  0.00     0.031 C 
ATOM     34  C   UNL A   1      43.340  29.144  35.448  1.00  0.00     0.029 A 
ATOM     35  C   UNL A   1      43.047  28.759  34.150  1.00  0.00     0.049 A 
ATOM     36  H   UNL A   1      41.563  29.499  32.845  1.00  0.00     0.167 HD
ATOM     37  C   UNL A   1      43.362  27.448  32.071  1.00  0.00     0.074 A 
ATOM     38  C   UNL A   1      44.053  26.462  31.263  1.00  0.00     0.031 C 
ATOM     39  C   UNL A   1      43.697  27.756  33.348  1.00  0.00     0.034 A 
BRANCH  26  40
ATOM     40  C   UNL A   1      40.246  32.213  35.875  1.00  0.00     0.023 A 
ATOM     41  C   UNL A   1      41.013  33.374  36.097  1.00  0.00     0.012 A 
ATOM     42  C   UNL A   1      39.170  31.920  36.738  1.00  0.00     0.148 A 
ATOM     43  C   UNL A   1      40.727  34.222  37.167  1.00  0.00     0.002 A 
ATOM     44  C   UNL A   1      38.870  32.788  37.783  1.00  0.00     0.091 A 
ATOM     45  F   UNL A   1      38.464  30.801  36.520  1.00  0.00    -0.205 F 
ATOM     46  C   UNL A   1      39.651  33.935  38.002  1.00  0.00     0.022 A 
BRANCH  44  47
ATOM     47  S   UNL A   1      37.463  32.545  38.875  1.00  0.00     0.127 S 
ATOM     48  O   UNL A   1      37.737  33.520  39.929  1.00  0.00    -0.237 OA
ATOM     49  O   UNL A   1      36.336  32.889  38.006  1.00  0.00    -0.237 OA
ATOM     50  O   UNL A   1      37.510  31.149  39.285  1.00  0.00    -0.744 OA
ENDBRANCH  44  47
ENDBRANCH  26  40
BRANCH  27  51
ATOM     51  C   UNL A   1      41.916  26.814  27.629  1.00  0.00     0.023 A 
ATOM     52  C   UNL A   1      42.531  27.423  26.520  1.00  0.00     0.012 A 
ATOM     53  C   UNL A   1      41.604  25.442  27.572  1.00  0.00     0.148 A 
ATOM     54  C   UNL A   1      42.812  26.685  25.369  1.00  0.00     0.002 A 
ATOM     55  C   UNL A   1      41.945  24.699  26.449  1.00  0.00     0.091 A 
ATOM     56  F   UNL A   1      40.995  24.880  28.628  1.00  0.00    -0.205 F 
ATOM     57  C   UNL A   1      42.534  25.320  25.339  1.00  0.00     0.022 A 
BRANCH  55  58
ATOM     58  S   UNL A   1      41.764  22.912  26.424  1.00  0.00     0.127 S 
ATOM     59  O   UNL A   1      42.508  22.515  27.615  1.00  0.00    -0.237 OA
ATOM     60  O   UNL A   1      40.313  22.741  26.518  1.00  0.00    -0.237 OA
ATOM     61  O   UNL A   1      42.325  22.499  25.144  1.00  0.00    -0.744 OA
ENDBRANCH  55  58
ENDBRANCH  27  51
BRANCH  39  62
ATOM     62  C   UNL A   1      44.869  27.024  33.942  1.00  0.00     0.023 A 
ATOM     63  C   UNL A   1      46.159  27.580  33.826  1.00  0.00     0.012 A 
ATOM     64  C   UNL A   1      44.697  25.815  34.640  1.00  0.00     0.148 A 
ATOM     65  C   UNL A   1      47.265  26.925  34.365  1.00  0.00     0.002 A 
ATOM     66  C   UNL A   1      45.799  25.187  35.212  1.00  0.00     0.091 A 
ATOM     67  F   UNL A   1      43.466  25.287  34.719  1.00  0.00    -0.205 F 
ATOM     68  C   UNL A   1      47.084  25.735  35.065  1.00  0.00     0.022 A 
BRANCH  66  69
ATOM     69  S   UNL A   1      45.637  23.694  36.196  1.00  0.00     0.127 S 
ATOM     70  O   UNL A   1      47.033  23.340  36.438  1.00  0.00    -0.237 OA
ATOM     71  O   UNL A   1      44.915  24.169  37.377  1.00  0.00    -0.237 OA
ATOM     72  O   UNL A   1      44.880  22.762  35.369  1.00  0.00    -0.744 OA
ENDBRANCH  66  69
ENDBRANCH  39  62
ENDBRANCH  13  14
ENDBRANCH   6   8
ENDBRANCH   3   4
ENDBRANCH   2   3
ENDBRANCH   1   2
BRANCH   1  73
ATOM     73  C   UNL A   1      33.537  28.689  25.013  1.00  0.00     0.002 C 
BRANCH  73  74
ATOM     74  C   UNL A   1      33.797  28.819  23.510  1.00  0.00     0.021 C 
BRANCH  74  75
ATOM     75  C   UNL A   1      32.688  28.294  22.602  1.00  0.00     0.116 C 
BRANCH  75  76
ATOM     76  N   UNL A   1      33.077  27.095  21.874  1.00  0.00    -0.352 N 
ATOM     77  C   UNL A   1      33.048  25.789  22.301  1.00  0.00     0.253 C 
ATOM     78  H   UNL A   1      33.404  27.238  20.956  1.00  0.00     0.163 HD
ATOM     79  O   UNL A   1      33.553  24.893  21.632  1.00  0.00    -0.269 OA
BRANCH  77  80
ATOM     80  C   UNL A   1      32.453  25.480  23.618  1.00  0.00     0.067 A 
ATOM     81  C   UNL A   1      31.060  25.595  23.752  1.00  0.00     0.062 A 
ATOM     82  C   UNL A   1      33.273  25.137  24.711  1.00  0.00     0.054 A 
ATOM     83  C   UNL A   1      30.494  25.494  25.012  1.00  0.00     0.116 A 
ATOM     84  C   UNL A   1      32.679  25.145  25.976  1.00  0.00     0.031 A 
ATOM     85  C   UNL A   1      31.297  25.308  26.127  1.00  0.00     0.048 A 
BRANCH  82  86
ATOM     86  N   UNL A   1      34.640  24.829  24.488  1.00  0.00    -0.321 N 
ATOM     87  C   UNL A   1      35.336  23.642  24.437  1.00  0.00     0.257 C 
ATOM     88  H   UNL A   1      35.202  25.623  24.341  1.00  0.00     0.170 HD
ATOM     89  O   UNL A   1      36.564  23.636  24.387  1.00  0.00    -0.269 OA
BRANCH  87  90
ATOM     90  C   UNL A   1      34.648  22.347  24.384  1.00  0.00     0.058 A 
ATOM     91  C   UNL A   1      33.318  22.223  23.976  1.00  0.00     0.018 A 
ATOM     92  C   UNL A   1      35.335  21.208  24.773  1.00  0.00     0.126 A 
ATOM     93  C   UNL A   1      32.701  20.977  24.071  1.00  0.00     0.037 A 
ATOM     94  N   UNL A   1      34.758  19.986  24.867  1.00  0.00    -0.249 NA
ATOM     95  C   UNL A   1      33.450  19.900  24.532  1.00  0.00     0.106 A 
ATOM     96  Br  UNL A   1      32.598  18.220  24.746  1.00  0.00    -0.029 Br
ENDBRANCH  87  90
ENDBRANCH  82  86
BRANCH  83  97
ATOM     97  O   UNL A   1      29.154  25.615  25.211  1.00  0.00    -0.508 OA
ATOM     98  H   UNL A   1      28.575  25.672  24.476  1.00  0.00     0.293 HD
ENDBRANCH  83  97
ENDBRANCH  77  80
ENDBRANCH  75  76
ENDBRANCH  74  75
ENDBRANCH  73  74
ENDBRANCH   1  73
TORSDOF 19
ENDMDL
MODEL 2
REMARK VINA RESULT:     -11.7      1.748      2.927
REMARK SMILES O=C(NCCCCCCNC(=O)c1cc(O)ccc1NC(=O)c1ccc(Br)nc1)c1ccc(-c2c3nc(c(-c4cccc(S(=O)(=O)[O-])c4F)c4ccc([nH]4)c(-c4cccc(S(=O)(=O)[O-])c4F)c4nc(c(-c5cccc(S(=O)(=O)[O-])c5F)c5ccc2[nH]5)C=C4)C=C3)cc1
REMARK SMILES IDX 6 1 5 2 4 3 3 4 1 5 2 6 30 8 31 9 92 10 32 11 91 12 33 13
REMARK SMILES IDX 34 14 35 15 85 16 36 17 90 18 84 19 86 20 37 21 89 22 83 23
REMARK SMILES IDX 82 24 38 26 70 27 50 28 69 29 51 30 54 31 68 32 87 33 52 34
REMARK SMILES IDX 53 35 67 37 88 38 55 39 39 40 40 41 48 42 41 43 43 44 49 45
REMARK SMILES IDX 42 46 44 47 45 48 46 49 47 50 71 51 72 52 80 53 73 54 75 55
REMARK SMILES IDX 81 56 74 57 76 58 77 59 78 60 79 61 56 62 57 63 65 64 58 65
REMARK SMILES IDX 60 66 66 67 59 68 61 69 62 70 63 71 64 72 7 73 8 74 9 75
REMARK SMILES IDX 10 76 11 77 12 79 13 80 14 81 19 82 15 83 18 84 17 85 20 86
REMARK SMILES IDX 21 87 22 89 23 90 24 91 29 92 25 93 28 94 26 95 27 96 16 97
REMARK H PARENT 3 7 86 25 54 36 10 78 20 88 16 98
REMARK Flexibility Score: inf
ROOT
ATOM      1  C   UNL A   1      31.170  27.291  26.224  1.00  0.00     0.002 C 
ENDROOT
BRANCH   1   2
ATOM      2  C   UNL A   1      32.527  27.840  26.666  1.00  0.00     0.021 C 
BRANCH   2   3
ATOM      3  C   UNL A   1      33.109  28.936  25.784  1.00  0.00     0.116 C 
BRANCH   3   4
ATOM      4  N   UNL A   1      32.644  30.263  26.145  1.00  0.00    -0.352 N 
ATOM      5  O   UNL A   1      32.590  32.188  27.317  1.00  0.00    -0.269 OA
ATOM      6  C   UNL A   1      33.199  31.161  27.031  1.00  0.00     0.251 C 
ATOM      7  H   UNL A   1      31.822  30.563  25.696  1.00  0.00     0.163 HD
BRANCH   6   8
ATOM      8  C   UNL A   1      34.508  30.864  27.658  1.00  0.00     0.039 A 
ATOM      9  C   UNL A   1      34.775  29.598  28.184  1.00  0.00     0.014 A 
ATOM     10  C   UNL A   1      35.481  31.865  27.725  1.00  0.00     0.014 A 
ATOM     11  C   UNL A   1      35.943  29.381  28.907  1.00  0.00     0.010 A 
ATOM     12  C   UNL A   1      36.697  31.616  28.374  1.00  0.00     0.010 A 
ATOM     13  C   UNL A   1      36.926  30.383  29.001  1.00  0.00    -0.014 A 
BRANCH  13  14
ATOM     14  C   UNL A   1      38.207  30.064  29.685  1.00  0.00     0.031 A 
ATOM     15  C   UNL A   1      38.531  30.593  31.054  1.00  0.00     0.074 A 
ATOM     16  C   UNL A   1      39.073  29.241  29.059  1.00  0.00     0.049 A 
ATOM     17  N   UNL A   1      39.561  30.319  31.815  1.00  0.00    -0.248 NA
ATOM     18  C   UNL A   1      37.592  31.558  31.649  1.00  0.00     0.031 C 
ATOM     19  C   UNL A   1      38.899  28.719  27.700  1.00  0.00     0.029 A 
ATOM     20  N   UNL A   1      40.256  28.688  29.477  1.00  0.00    -0.354 N 
ATOM     21  C   UNL A   1      39.412  31.091  32.961  1.00  0.00     0.074 A 
ATOM     22  C   UNL A   1      38.196  31.859  32.792  1.00  0.00     0.031 C 
ATOM     23  C   UNL A   1      39.911  27.889  27.414  1.00  0.00     0.029 A 
ATOM     24  C   UNL A   1      40.828  27.852  28.547  1.00  0.00     0.049 A 
ATOM     25  H   UNL A   1      40.657  28.872  30.357  1.00  0.00     0.167 HD
ATOM     26  C   UNL A   1      40.204  31.139  34.061  1.00  0.00     0.034 A 
ATOM     27  C   UNL A   1      41.965  27.132  28.596  1.00  0.00     0.034 A 
ATOM     28  C   UNL A   1      41.395  30.350  34.237  1.00  0.00     0.049 A 
ATOM     29  C   UNL A   1      42.786  27.158  29.851  1.00  0.00     0.074 A 
ATOM     30  C   UNL A   1      42.242  30.301  35.332  1.00  0.00     0.029 A 
ATOM     31  N   UNL A   1      41.912  29.469  33.298  1.00  0.00    -0.354 N 
ATOM     32  N   UNL A   1      42.555  27.797  30.973  1.00  0.00    -0.248 NA
ATOM     33  C   UNL A   1      44.007  26.342  29.863  1.00  0.00     0.031 C 
ATOM     34  C   UNL A   1      43.271  29.395  35.053  1.00  0.00     0.029 A 
ATOM     35  C   UNL A   1      43.062  28.872  33.787  1.00  0.00     0.049 A 
ATOM     36  H   UNL A   1      41.519  29.296  32.412  1.00  0.00     0.167 HD
ATOM     37  C   UNL A   1      43.599  27.459  31.824  1.00  0.00     0.074 A 
ATOM     38  C   UNL A   1      44.436  26.518  31.105  1.00  0.00     0.031 C 
ATOM     39  C   UNL A   1      43.861  27.909  33.075  1.00  0.00     0.034 A 
BRANCH  26  40
ATOM     40  C   UNL A   1      39.777  32.030  35.199  1.00  0.00     0.023 A 
ATOM     41  C   UNL A   1      40.122  33.396  35.165  1.00  0.00     0.012 A 
ATOM     42  C   UNL A   1      38.965  31.547  36.245  1.00  0.00     0.148 A 
ATOM     43  C   UNL A   1      39.681  34.265  36.163  1.00  0.00     0.002 A 
ATOM     44  C   UNL A   1      38.501  32.428  37.218  1.00  0.00     0.091 A 
ATOM     45  F   UNL A   1      38.663  30.241  36.269  1.00  0.00    -0.205 F 
ATOM     46  C   UNL A   1      38.863  33.784  37.181  1.00  0.00     0.022 A 
BRANCH  44  47
ATOM     47  S   UNL A   1      37.386  31.922  38.534  1.00  0.00     0.127 S 
ATOM     48  O   UNL A   1      36.269  32.846  38.344  1.00  0.00    -0.237 OA
ATOM     49  O   UNL A   1      37.095  30.533  38.175  1.00  0.00    -0.237 OA
ATOM     50  O   UNL A   1      38.131  32.085  39.775  1.00  0.00    -0.744 OA
ENDBRANCH  44  47
ENDBRANCH  26  40
BRANCH  27  51
ATOM     51  C   UNL A   1      42.350  26.285  27.432  1.00  0.00     0.023 A 
ATOM     52  C   UNL A   1      43.200  26.808  26.440  1.00  0.00     0.012 A 
ATOM     53  C   UNL A   1      41.927  24.946  27.337  1.00  0.00     0.148 A 
ATOM     54  C   UNL A   1      43.605  26.017  25.364  1.00  0.00     0.002 A 
ATOM     55  C   UNL A   1      42.385  24.146  26.298  1.00  0.00     0.091 A 
ATOM     56  F   UNL A   1      41.096  24.469  28.277  1.00  0.00    -0.205 F 
ATOM     57  C   UNL A   1      43.210  24.683  25.300  1.00  0.00     0.022 A 
BRANCH  55  58
ATOM     58  S   UNL A   1      42.045  22.382  26.260  1.00  0.00     0.127 S 
ATOM     59  O   UNL A   1      40.599  22.356  26.068  1.00  0.00    -0.237 OA
ATOM     60  O   UNL A   1      42.829  21.935  25.108  1.00  0.00    -0.237 OA
ATOM     61  O   UNL A   1      42.537  21.882  27.538  1.00  0.00    -0.744 OA
ENDBRANCH  55  58
ENDBRANCH  27  51
BRANCH  39  62
ATOM     62  C   UNL A   1      45.109  27.395  33.739  1.00  0.00     0.023 A 
ATOM     63  C   UNL A   1      46.312  28.114  33.594  1.00  0.00     0.012 A 
ATOM     64  C   UNL A   1      45.089  26.231  34.529  1.00  0.00     0.148 A 
ATOM     65  C   UNL A   1      47.485  27.663  34.196  1.00  0.00     0.002 A 
ATOM     66  C   UNL A   1      46.254  25.809  35.161  1.00  0.00     0.091 A 
ATOM     67  F   UNL A   1      43.941  25.545  34.636  1.00  0.00    -0.205 F 
ATOM     68  C   UNL A   1      47.455  26.517  34.986  1.00  0.00     0.022 A 
BRANCH  66  69
ATOM     69  S   UNL A   1      46.277  24.388  36.259  1.00  0.00     0.127 S 
ATOM     70  O   UNL A   1      45.956  23.296  35.343  1.00  0.00    -0.237 OA
ATOM     71  O   UNL A   1      47.657  24.387  36.748  1.00  0.00    -0.237 OA
ATOM     72  O   UNL A   1      45.280  24.670  37.284  1.00  0.00    -0.744 OA
ENDBRANCH  66  69
ENDBRANCH  39  62
ENDBRANCH  13  14
ENDBRANCH   6   8
ENDBRANCH   3   4
ENDBRANCH   2   3
ENDBRANCH   1   2
BRANCH   1  73
ATOM     73  C   UNL A   1      31.207  26.176  25.175  1.00  0.00     0.002 C 
BRANCH  73  74
ATOM     74  C   UNL A   1      30.592  24.838  25.591  1.00  0.00     0.021 C 
BRANCH  74  75
ATOM     75  C   UNL A   1      31.540  23.642  25.572  1.00  0.00     0.116 C 
BRANCH  75  76
ATOM     76  N   UNL A   1      32.206  23.431  26.849  1.00  0.00    -0.352 N 
ATOM     77  C   UNL A   1      33.046  22.408  27.216  1.00  0.00     0.253 C 
ATOM     78  H   UNL A   1      32.030  24.110  27.540  1.00  0.00     0.163 HD
ATOM     79  O   UNL A   1      33.412  22.276  28.380  1.00  0.00    -0.269 OA
BRANCH  77  80
ATOM     80  C   UNL A   1      33.458  21.420  26.197  1.00  0.00     0.067 A 
ATOM     81  C   UNL A   1      32.465  20.594  25.645  1.00  0.00     0.062 A 
ATOM     82  C   UNL A   1      34.814  21.281  25.841  1.00  0.00     0.054 A 
ATOM     83  C   UNL A   1      32.842  19.539  24.830  1.00  0.00     0.116 A 
ATOM     84  C   UNL A   1      35.162  20.147  25.101  1.00  0.00     0.031 A 
ATOM     85  C   UNL A   1      34.183  19.289  24.587  1.00  0.00     0.048 A 
BRANCH  82  86
ATOM     86  N   UNL A   1      35.749  22.262  26.259  1.00  0.00    -0.321 N 
ATOM     87  C   UNL A   1      36.115  23.486  25.745  1.00  0.00     0.257 C 
ATOM     88  H   UNL A   1      36.233  22.019  27.081  1.00  0.00     0.170 HD
ATOM     89  O   UNL A   1      37.080  24.096  26.201  1.00  0.00    -0.269 OA
BRANCH  87  90
ATOM     90  C   UNL A   1      35.344  24.135  24.678  1.00  0.00     0.058 A 
ATOM     91  C   UNL A   1      34.718  25.371  24.853  1.00  0.00     0.018 A 
ATOM     92  C   UNL A   1      35.215  23.488  23.460  1.00  0.00     0.126 A 
ATOM     93  C   UNL A   1      33.904  25.861  23.832  1.00  0.00     0.037 A 
ATOM     94  N   UNL A   1      34.435  23.948  22.452  1.00  0.00    -0.249 NA
ATOM     95  C   UNL A   1      33.782  25.113  22.666  1.00  0.00     0.106 A 
ATOM     96  Br  UNL A   1      32.612  25.728  21.307  1.00  0.00    -0.029 Br
ENDBRANCH  87  90
ENDBRANCH  82  86
BRANCH  83  97
ATOM     97  O   UNL A   1      31.930  18.694  24.280  1.00  0.00    -0.508 OA
ATOM     98  H   UNL A   1      32.012  17.768  24.407  1.00  0.00     0.293 HD
ENDBRANCH  83  97
ENDBRANCH  77  80
ENDBRANCH  75  76
ENDBRANCH  74  75
ENDBRANCH  73  74
ENDBRANCH   1  73
TORSDOF 19
ENDMDL
MODEL 3
REMARK VINA RESULT:     -11.6      2.051      7.957
REMARK SMILES O=C(NCCCCCCNC(=O)c1cc(O)ccc1NC(=O)c1ccc(Br)nc1)c1ccc(-c2c3nc(c(-c4cccc(S(=O)(=O)[O-])c4F)c4ccc([nH]4)c(-c4cccc(S(=O)(=O)[O-])c4F)c4nc(c(-c5cccc(S(=O)(=O)[O-])c5F)c5ccc2[nH]5)C=C4)C=C3)cc1
REMARK SMILES IDX 6 1 5 2 4 3 3 4 1 5 2 6 30 8 31 9 92 10 32 11 91 12 33 13
REMARK SMILES IDX 34 14 35 15 85 16 36 17 90 18 84 19 86 20 37 21 89 22 83 23
REMARK SMILES IDX 82 24 38 26 70 27 50 28 69 29 51 30 54 31 68 32 87 33 52 34
REMARK SMILES IDX 53 35 67 37 88 38 55 39 39 40 40 41 48 42 41 43 43 44 49 45
REMARK SMILES IDX 42 46 44 47 45 48 46 49 47 50 71 51 72 52 80 53 73 54 75 55
REMARK SMILES IDX 81 56 74 57 76 58 77 59 78 60 79 61 56 62 57 63 65 64 58 65
REMARK SMILES IDX 60 66 66 67 59 68 61 69 62 70 63 71 64 72 7 73 8 74 9 75
REMARK SMILES IDX 10 76 11 77 12 79 13 80 14 81 19 82 15 83 18 84 17 85 20 86
REMARK SMILES IDX 21 87 22 89 23 90 24 91 29 92 25 93 28 94 26 95 27 96 16 97
REMARK H PARENT 3 7 86 25 54 36 10 78 20 88 16 98
REMARK Flexibility Score: inf
ROOT
ATOM      1  C   UNL A   1      31.353  30.897  25.829  1.00  0.00     0.002 C 
ENDROOT
BRANCH   1   2
ATOM      2  C   UNL A   1      31.309  32.272  26.495  1.00  0.00     0.021 C 
BRANCH   2   3
ATOM      3  C   UNL A   1      32.574  32.683  27.235  1.00  0.00     0.116 C 
BRANCH   3   4
ATOM      4  N   UNL A   1      32.602  34.094  27.576  1.00  0.00    -0.352 N 
ATOM      5  O   UNL A   1      33.187  35.929  28.747  1.00  0.00    -0.269 OA
ATOM      6  C   UNL A   1      33.398  34.747  28.490  1.00  0.00     0.251 C 
ATOM      7  H   UNL A   1      31.965  34.662  27.085  1.00  0.00     0.163 HD
BRANCH   6   8
ATOM      8  C   UNL A   1      34.480  34.009  29.184  1.00  0.00     0.039 A 
ATOM      9  C   UNL A   1      35.821  34.276  28.897  1.00  0.00     0.014 A 
ATOM     10  C   UNL A   1      34.151  33.036  30.132  1.00  0.00     0.014 A 
ATOM     11  C   UNL A   1      36.817  33.470  29.437  1.00  0.00     0.010 A 
ATOM     12  C   UNL A   1      35.163  32.287  30.745  1.00  0.00     0.010 A 
ATOM     13  C   UNL A   1      36.503  32.474  30.379  1.00  0.00    -0.014 A 
BRANCH  13  14
ATOM     14  C   UNL A   1      37.615  31.718  31.016  1.00  0.00     0.031 A 
ATOM     15  C   UNL A   1      38.420  30.698  30.258  1.00  0.00     0.074 A 
ATOM     16  C   UNL A   1      37.920  31.998  32.299  1.00  0.00     0.049 A 
ATOM     17  N   UNL A   1      39.479  30.036  30.650  1.00  0.00    -0.248 NA
ATOM     18  C   UNL A   1      37.984  30.368  28.891  1.00  0.00     0.031 C 
ATOM     19  C   UNL A   1      37.168  32.919  33.156  1.00  0.00     0.029 A 
ATOM     20  N   UNL A   1      38.940  31.558  33.101  1.00  0.00    -0.354 N 
ATOM     21  C   UNL A   1      39.822  29.196  29.598  1.00  0.00     0.074 A 
ATOM     22  C   UNL A   1      38.847  29.419  28.551  1.00  0.00     0.031 C 
ATOM     23  C   UNL A   1      37.776  33.008  34.347  1.00  0.00     0.029 A 
ATOM     24  C   UNL A   1      38.934  32.122  34.355  1.00  0.00     0.049 A 
ATOM     25  H   UNL A   1      39.613  30.901  32.808  1.00  0.00     0.167 HD
ATOM     26  C   UNL A   1      40.864  28.333  29.506  1.00  0.00     0.034 A 
ATOM     27  C   UNL A   1      39.765  31.949  35.400  1.00  0.00     0.034 A 
ATOM     28  C   UNL A   1      41.848  28.137  30.539  1.00  0.00     0.049 A 
ATOM     29  C   UNL A   1      40.945  31.035  35.244  1.00  0.00     0.074 A 
ATOM     30  C   UNL A   1      42.962  27.314  30.521  1.00  0.00     0.029 A 
ATOM     31  N   UNL A   1      41.842  28.770  31.773  1.00  0.00    -0.354 N 
ATOM     32  N   UNL A   1      41.321  30.349  34.192  1.00  0.00    -0.248 NA
ATOM     33  C   UNL A   1      41.833  30.893  36.405  1.00  0.00     0.031 C 
ATOM     34  C   UNL A   1      43.626  27.447  31.747  1.00  0.00     0.029 A 
ATOM     35  C   UNL A   1      42.931  28.359  32.523  1.00  0.00     0.049 A 
ATOM     36  H   UNL A   1      41.162  29.416  32.071  1.00  0.00     0.167 HD
ATOM     37  C   UNL A   1      42.489  29.697  34.562  1.00  0.00     0.074 A 
ATOM     38  C   UNL A   1      42.787  30.111  35.920  1.00  0.00     0.031 C 
ATOM     39  C   UNL A   1      43.234  28.810  33.857  1.00  0.00     0.034 A 
BRANCH  26  40
ATOM     40  C   UNL A   1      41.040  27.575  28.215  1.00  0.00     0.023 A 
ATOM     41  C   UNL A   1      41.611  28.231  27.107  1.00  0.00     0.012 A 
ATOM     42  C   UNL A   1      40.732  26.202  28.123  1.00  0.00     0.148 A 
ATOM     43  C   UNL A   1      41.857  27.541  25.920  1.00  0.00     0.002 A 
ATOM     44  C   UNL A   1      41.012  25.512  26.947  1.00  0.00     0.091 A 
ATOM     45  F   UNL A   1      40.173  25.600  29.182  1.00  0.00    -0.205 F 
ATOM     46  C   UNL A   1      41.568  26.181  25.844  1.00  0.00     0.022 A 
BRANCH  44  47
ATOM     47  S   UNL A   1      40.741  23.744  26.769  1.00  0.00     0.127 S 
ATOM     48  O   UNL A   1      41.147  23.251  28.085  1.00  0.00    -0.237 OA
ATOM     49  O   UNL A   1      39.302  23.677  26.512  1.00  0.00    -0.237 OA
ATOM     50  O   UNL A   1      41.579  23.320  25.656  1.00  0.00    -0.744 OA
ENDBRANCH  44  47
ENDBRANCH  26  40
BRANCH  27  51
ATOM     51  C   UNL A   1      39.531  32.708  36.660  1.00  0.00     0.023 A 
ATOM     52  C   UNL A   1      40.164  33.949  36.855  1.00  0.00     0.012 A 
ATOM     53  C   UNL A   1      38.635  32.234  37.637  1.00  0.00     0.148 A 
ATOM     54  C   UNL A   1      39.925  34.694  38.011  1.00  0.00     0.002 A 
ATOM     55  C   UNL A   1      38.352  33.010  38.754  1.00  0.00     0.091 A 
ATOM     56  F   UNL A   1      38.057  31.037  37.449  1.00  0.00    -0.205 F 
ATOM     57  C   UNL A   1      39.008  34.233  38.953  1.00  0.00     0.022 A 
BRANCH  55  58
ATOM     58  S   UNL A   1      37.058  32.544  39.910  1.00  0.00     0.127 S 
ATOM     59  O   UNL A   1      37.106  33.637  40.875  1.00  0.00    -0.237 OA
ATOM     60  O   UNL A   1      35.867  32.525  39.059  1.00  0.00    -0.237 OA
ATOM     61  O   UNL A   1      37.453  31.229  40.400  1.00  0.00    -0.744 OA
ENDBRANCH  55  58
ENDBRANCH  27  51
BRANCH  39  62
ATOM     62  C   UNL A   1      44.434  28.223  34.548  1.00  0.00     0.023 A 
ATOM     63  C   UNL A   1      45.679  28.873  34.435  1.00  0.00     0.012 A 
ATOM     64  C   UNL A   1      44.330  27.060  35.331  1.00  0.00     0.148 A 
ATOM     65  C   UNL A   1      46.810  28.354  35.063  1.00  0.00     0.002 A 
ATOM     66  C   UNL A   1      45.453  26.569  35.989  1.00  0.00     0.091 A 
ATOM     67  F   UNL A   1      43.142  26.440  35.407  1.00  0.00    -0.205 F 
ATOM     68  C   UNL A   1      46.696  27.208  35.846  1.00  0.00     0.022 A 
BRANCH  66  69
ATOM     69  S   UNL A   1      45.369  25.145  37.079  1.00  0.00     0.127 S 
ATOM     70  O   UNL A   1      44.969  24.085  36.158  1.00  0.00    -0.237 OA
ATOM     71  O   UNL A   1      46.743  25.040  37.571  1.00  0.00    -0.237 OA
ATOM     72  O   UNL A   1      44.393  25.496  38.104  1.00  0.00    -0.744 OA
ENDBRANCH  66  69
ENDBRANCH  39  62
ENDBRANCH  13  14
ENDBRANCH   6   8
ENDBRANCH   3   4
ENDBRANCH   2   3
ENDBRANCH   1   2
BRANCH   1  73
ATOM     73  C   UNL A   1      31.823  29.738  26.714  1.00  0.00     0.002 C 
BRANCH  73  74
ATOM     74  C   UNL A   1      32.972  28.891  26.162  1.00  0.00     0.021 C 
BRANCH  74  75
ATOM     75  C   UNL A   1      32.755  27.381  26.198  1.00  0.00     0.116 C 
BRANCH  75  76
ATOM     76  N   UNL A   1      33.968  26.630  25.910  1.00  0.00    -0.352 N 
ATOM     77  C   UNL A   1      34.100  25.290  25.637  1.00  0.00     0.253 C 
ATOM     78  H   UNL A   1      34.804  27.151  25.910  1.00  0.00     0.163 HD
ATOM     79  O   UNL A   1      35.206  24.765  25.566  1.00  0.00    -0.269 OA
BRANCH  77  80
ATOM     80  C   UNL A   1      32.882  24.466  25.495  1.00  0.00     0.067 A 
ATOM     81  C   UNL A   1      32.149  24.170  26.656  1.00  0.00     0.062 A 
ATOM     82  C   UNL A   1      32.509  23.952  24.237  1.00  0.00     0.054 A 
ATOM     83  C   UNL A   1      31.114  23.253  26.584  1.00  0.00     0.116 A 
ATOM     84  C   UNL A   1      31.528  22.956  24.225  1.00  0.00     0.031 A 
ATOM     85  C   UNL A   1      30.825  22.618  25.387  1.00  0.00     0.048 A 
BRANCH  82  86
ATOM     86  N   UNL A   1      33.145  24.439  23.067  1.00  0.00    -0.321 N 
ATOM     87  C   UNL A   1      32.891  25.509  22.238  1.00  0.00     0.257 C 
ATOM     88  H   UNL A   1      33.926  23.905  22.794  1.00  0.00     0.170 HD
ATOM     89  O   UNL A   1      33.496  25.638  21.176  1.00  0.00    -0.269 OA
BRANCH  87  90
ATOM     90  C   UNL A   1      31.936  26.559  22.608  1.00  0.00     0.058 A 
ATOM     91  C   UNL A   1      30.629  26.274  23.009  1.00  0.00     0.018 A 
ATOM     92  C   UNL A   1      32.337  27.884  22.535  1.00  0.00     0.126 A 
ATOM     93  C   UNL A   1      29.748  27.332  23.225  1.00  0.00     0.037 A 
ATOM     94  N   UNL A   1      31.500  28.928  22.746  1.00  0.00    -0.249 NA
ATOM     95  C   UNL A   1      30.220  28.631  23.068  1.00  0.00     0.106 A 
ATOM     96  Br  UNL A   1      29.009  30.074  23.275  1.00  0.00    -0.029 Br
ENDBRANCH  87  90
ENDBRANCH  82  86
BRANCH  83  97
ATOM     97  O   UNL A   1      30.380  22.911  27.677  1.00  0.00    -0.508 OA
ATOM     98  H   UNL A   1      30.714  22.284  28.289  1.00  0.00     0.293 HD
ENDBRANCH  83  97
ENDBRANCH  77  80
ENDBRANCH  75  76
ENDBRANCH  74  75
ENDBRANCH  73  74
ENDBRANCH   1  73
TORSDOF 19
ENDMDL
