MODEL 1
REMARK VINA RESULT:     -11.4      0.000      0.000
REMARK SMILES O=C(NCCCCCCNC(=O)c1csc(-c2cnc3ccccc3c2)c1)c1ccc(-c2c3nc(c(-c4cccc(S(=O)(=O)[O-])c4F)c4ccc([nH]4)c(-c4cccc(S(=O)(=O)[O-])c4F)c4nc(c(-c5cccc(S(=O)(=O)[O-])c5F)c5ccc2[nH]5)C=C4)C=C3)cc1
REMARK SMILES IDX 5 1 4 2 3 3 1 4 2 5 28 7 29 8 90 9 30 10 89 11 31 12 32 13
REMARK SMILES IDX 33 14 83 15 34 16 88 17 82 18 84 19 35 20 87 21 81 22 80 23
REMARK SMILES IDX 36 25 68 26 48 27 67 28 49 29 52 30 66 31 85 32 50 33 51 34
REMARK SMILES IDX 65 36 86 37 53 38 37 39 38 40 46 41 39 42 41 43 47 44 40 45
REMARK SMILES IDX 42 46 43 47 44 48 45 49 69 50 70 51 78 52 71 53 73 54 79 55
REMARK SMILES IDX 72 56 74 57 75 58 76 59 77 60 54 61 55 62 63 63 56 64 58 65
REMARK SMILES IDX 64 66 57 67 59 68 60 69 61 70 62 71 6 72 7 73 8 74 9 75
REMARK SMILES IDX 10 76 11 77 12 79 13 80 14 81 27 82 15 83 16 84 17 85 18 86
REMARK SMILES IDX 26 87 19 88 25 89 20 90 24 91 21 92 23 93 22 94
REMARK H PARENT 3 6 84 24 52 35 10 78
REMARK Flexibility Score: inf
ROOT
ATOM      1  C   UNL A   1      33.582  27.614  26.265  1.00  0.00     0.021 C 
ENDROOT
BRANCH   1   2
ATOM      2  C   UNL A   1      34.382  28.826  25.800  1.00  0.00     0.116 C 
BRANCH   2   3
ATOM      3  N   UNL A   1      33.782  30.083  26.206  1.00  0.00    -0.352 N 
ATOM      4  O   UNL A   1      33.391  31.856  27.536  1.00  0.00    -0.269 OA
ATOM      5  C   UNL A   1      34.112  30.903  27.260  1.00  0.00     0.251 C 
ATOM      6  H   UNL A   1      33.031  30.393  25.650  1.00  0.00     0.163 HD
BRANCH   5   7
ATOM      7  C   UNL A   1      35.316  30.618  28.075  1.00  0.00     0.039 A 
ATOM      8  C   UNL A   1      35.363  29.517  28.936  1.00  0.00     0.014 A 
ATOM      9  C   UNL A   1      36.426  31.460  27.958  1.00  0.00     0.014 A 
ATOM     10  C   UNL A   1      36.465  29.333  29.768  1.00  0.00     0.010 A 
ATOM     11  C   UNL A   1      37.559  31.235  28.747  1.00  0.00     0.010 A 
ATOM     12  C   UNL A   1      37.576  30.188  29.680  1.00  0.00    -0.014 A 
BRANCH  12  13
ATOM     13  C   UNL A   1      38.768  29.932  30.529  1.00  0.00     0.031 A 
ATOM     14  C   UNL A   1      38.914  30.570  31.882  1.00  0.00     0.074 A 
ATOM     15  C   UNL A   1      39.730  29.112  30.064  1.00  0.00     0.049 A 
ATOM     16  N   UNL A   1      39.865  30.408  32.767  1.00  0.00    -0.248 NA
ATOM     17  C   UNL A   1      37.865  31.514  32.297  1.00  0.00     0.031 C 
ATOM     18  C   UNL A   1      39.725  28.477  28.745  1.00  0.00     0.029 A 
ATOM     19  N   UNL A   1      40.894  28.672  30.642  1.00  0.00    -0.354 N 
ATOM     20  C   UNL A   1      39.552  31.252  33.825  1.00  0.00     0.074 A 
ATOM     21  C   UNL A   1      38.324  31.932  33.470  1.00  0.00     0.031 C 
ATOM     22  C   UNL A   1      40.816  27.706  28.625  1.00  0.00     0.029 A 
ATOM     23  C   UNL A   1      41.615  27.819  29.842  1.00  0.00     0.049 A 
ATOM     24  H   UNL A   1      41.184  28.942  31.543  1.00  0.00     0.167 HD
ATOM     25  C   UNL A   1      40.213  31.426  34.995  1.00  0.00     0.034 A 
ATOM     26  C   UNL A   1      42.786  27.191  30.061  1.00  0.00     0.034 A 
ATOM     27  C   UNL A   1      41.407  30.714  35.366  1.00  0.00     0.049 A 
ATOM     28  C   UNL A   1      43.478  27.374  31.381  1.00  0.00     0.074 A 
ATOM     29  C   UNL A   1      42.106  30.768  36.560  1.00  0.00     0.029 A 
ATOM     30  N   UNL A   1      42.085  29.824  34.547  1.00  0.00    -0.354 N 
ATOM     31  N   UNL A   1      43.088  28.063  32.425  1.00  0.00    -0.248 NA
ATOM     32  C   UNL A   1      44.756  26.672  31.564  1.00  0.00     0.031 C 
ATOM     33  C   UNL A   1      43.209  29.911  36.460  1.00  0.00     0.029 A 
ATOM     34  C   UNL A   1      43.197  29.324  35.206  1.00  0.00     0.049 A 
ATOM     35  H   UNL A   1      41.815  29.581  33.633  1.00  0.00     0.167 HD
ATOM     36  C   UNL A   1      44.060  27.865  33.397  1.00  0.00     0.074 A 
ATOM     37  C   UNL A   1      45.046  26.969  32.824  1.00  0.00     0.031 C 
ATOM     38  C   UNL A   1      44.142  28.396  34.642  1.00  0.00     0.034 A 
BRANCH  25  39
ATOM     39  C   UNL A   1      39.623  32.387  35.993  1.00  0.00     0.023 A 
ATOM     40  C   UNL A   1      38.660  31.919  36.910  1.00  0.00     0.012 A 
ATOM     41  C   UNL A   1      40.055  33.725  36.066  1.00  0.00     0.148 A 
ATOM     42  C   UNL A   1      38.118  32.775  37.869  1.00  0.00     0.002 A 
ATOM     43  C   UNL A   1      39.532  34.564  37.046  1.00  0.00     0.091 A 
ATOM     44  F   UNL A   1      40.950  34.162  35.170  1.00  0.00    -0.205 F 
ATOM     45  C   UNL A   1      38.561  34.092  37.944  1.00  0.00     0.022 A 
BRANCH  43  46
ATOM     46  S   UNL A   1      40.102  36.257  37.244  1.00  0.00     0.127 S 
ATOM     47  O   UNL A   1      39.234  36.738  38.317  1.00  0.00    -0.237 OA
ATOM     48  O   UNL A   1      41.503  36.079  37.628  1.00  0.00    -0.237 OA
ATOM     49  O   UNL A   1      39.913  36.882  35.942  1.00  0.00    -0.744 OA
ENDBRANCH  43  46
ENDBRANCH  25  39
BRANCH  26  50
ATOM     50  C   UNL A   1      43.321  26.265  29.025  1.00  0.00     0.023 A 
ATOM     51  C   UNL A   1      42.965  24.904  29.072  1.00  0.00     0.012 A 
ATOM     52  C   UNL A   1      44.105  26.734  27.954  1.00  0.00     0.148 A 
ATOM     53  C   UNL A   1      43.387  24.025  28.075  1.00  0.00     0.002 A 
ATOM     54  C   UNL A   1      44.476  25.865  26.935  1.00  0.00     0.091 A 
ATOM     55  F   UNL A   1      44.451  28.030  27.939  1.00  0.00    -0.205 F 
ATOM     56  C   UNL A   1      44.129  24.506  27.000  1.00  0.00     0.022 A 
BRANCH  54  57
ATOM     57  S   UNL A   1      45.304  26.438  25.447  1.00  0.00     0.127 S 
ATOM     58  O   UNL A   1      45.286  25.239  24.614  1.00  0.00    -0.237 OA
ATOM     59  O   UNL A   1      44.418  27.514  24.998  1.00  0.00    -0.237 OA
ATOM     60  O   UNL A   1      46.615  26.894  25.885  1.00  0.00    -0.744 OA
ENDBRANCH  54  57
ENDBRANCH  26  50
BRANCH  38  61
ATOM     61  C   UNL A   1      45.337  28.022  35.475  1.00  0.00     0.023 A 
ATOM     62  C   UNL A   1      46.497  28.818  35.414  1.00  0.00     0.012 A 
ATOM     63  C   UNL A   1      45.292  26.932  36.365  1.00  0.00     0.148 A 
ATOM     64  C   UNL A   1      47.604  28.523  36.208  1.00  0.00     0.002 A 
ATOM     65  C   UNL A   1      46.386  26.664  37.181  1.00  0.00     0.091 A 
ATOM     66  F   UNL A   1      44.189  26.168  36.392  1.00  0.00    -0.205 F 
ATOM     67  C   UNL A   1      47.544  27.454  37.099  1.00  0.00     0.022 A 
BRANCH  65  68
ATOM     68  S   UNL A   1      46.352  25.354  38.411  1.00  0.00     0.127 S 
ATOM     69  O   UNL A   1      46.240  24.161  37.575  1.00  0.00    -0.237 OA
ATOM     70  O   UNL A   1      47.645  25.511  39.080  1.00  0.00    -0.237 OA
ATOM     71  O   UNL A   1      45.203  25.646  39.258  1.00  0.00    -0.744 OA
ENDBRANCH  65  68
ENDBRANCH  38  61
ENDBRANCH  12  13
ENDBRANCH   5   7
ENDBRANCH   2   3
ENDBRANCH   1   2
BRANCH   1  72
ATOM     72  C   UNL A   1      32.123  27.893  26.634  1.00  0.00     0.002 C 
BRANCH  72  73
ATOM     73  C   UNL A   1      31.071  27.181  25.779  1.00  0.00     0.002 C 
BRANCH  73  74
ATOM     74  C   UNL A   1      31.241  27.310  24.260  1.00  0.00     0.021 C 
BRANCH  74  75
ATOM     75  C   UNL A   1      30.825  26.084  23.447  1.00  0.00     0.116 C 
BRANCH  75  76
ATOM     76  N   UNL A   1      31.454  26.069  22.138  1.00  0.00    -0.352 N 
ATOM     77  C   UNL A   1      32.583  25.416  21.724  1.00  0.00     0.252 C 
ATOM     78  H   UNL A   1      31.001  26.604  21.448  1.00  0.00     0.163 HD
ATOM     79  O   UNL A   1      33.099  25.733  20.654  1.00  0.00    -0.269 OA
BRANCH  77  80
ATOM     80  C   UNL A   1      33.158  24.378  22.568  1.00  0.00     0.051 A 
ATOM     81  C   UNL A   1      32.525  23.196  22.903  1.00  0.00     0.079 A 
ATOM     82  C   UNL A   1      34.495  24.398  23.086  1.00  0.00     0.034 A 
ATOM     83  S   UNL A   1      33.494  22.178  23.875  1.00  0.00    -0.143 S 
ATOM     84  C   UNL A   1      34.812  23.272  23.821  1.00  0.00     0.037 A 
BRANCH  84  85
ATOM     85  C   UNL A   1      36.063  22.955  24.503  1.00  0.00     0.011 A 
ATOM     86  C   UNL A   1      36.647  21.699  24.389  1.00  0.00     0.121 A 
ATOM     87  C   UNL A   1      36.706  23.875  25.333  1.00  0.00     0.021 A 
ATOM     88  N   UNL A   1      37.783  21.317  25.023  1.00  0.00    -0.256 NA
ATOM     89  C   UNL A   1      37.881  23.518  26.008  1.00  0.00     0.001 A 
ATOM     90  C   UNL A   1      38.387  22.215  25.820  1.00  0.00     0.070 A 
ATOM     91  C   UNL A   1      38.543  24.420  26.859  1.00  0.00     0.010 A 
ATOM     92  C   UNL A   1      39.548  21.859  26.493  1.00  0.00     0.029 A 
ATOM     93  C   UNL A   1      39.704  24.035  27.526  1.00  0.00     0.001 A 
ATOM     94  C   UNL A   1      40.208  22.753  27.342  1.00  0.00     0.002 A 
ENDBRANCH  84  85
ENDBRANCH  77  80
ENDBRANCH  75  76
ENDBRANCH  74  75
ENDBRANCH  73  74
ENDBRANCH  72  73
ENDBRANCH   1  72
TORSDOF 17
ENDMDL
MODEL 2
REMARK VINA RESULT:     -11.3      4.502     10.749
REMARK SMILES O=C(NCCCCCCNC(=O)c1csc(-c2cnc3ccccc3c2)c1)c1ccc(-c2c3nc(c(-c4cccc(S(=O)(=O)[O-])c4F)c4ccc([nH]4)c(-c4cccc(S(=O)(=O)[O-])c4F)c4nc(c(-c5cccc(S(=O)(=O)[O-])c5F)c5ccc2[nH]5)C=C4)C=C3)cc1
REMARK SMILES IDX 5 1 4 2 3 3 1 4 2 5 28 7 29 8 90 9 30 10 89 11 31 12 32 13
REMARK SMILES IDX 33 14 83 15 34 16 88 17 82 18 84 19 35 20 87 21 81 22 80 23
REMARK SMILES IDX 36 25 68 26 48 27 67 28 49 29 52 30 66 31 85 32 50 33 51 34
REMARK SMILES IDX 65 36 86 37 53 38 37 39 38 40 46 41 39 42 41 43 47 44 40 45
REMARK SMILES IDX 42 46 43 47 44 48 45 49 69 50 70 51 78 52 71 53 73 54 79 55
REMARK SMILES IDX 72 56 74 57 75 58 76 59 77 60 54 61 55 62 63 63 56 64 58 65
REMARK SMILES IDX 64 66 57 67 59 68 60 69 61 70 62 71 6 72 7 73 8 74 9 75
REMARK SMILES IDX 10 76 11 77 12 79 13 80 14 81 27 82 15 83 16 84 17 85 18 86
REMARK SMILES IDX 26 87 19 88 25 89 20 90 24 91 21 92 23 93 22 94
REMARK H PARENT 3 6 84 24 52 35 10 78
REMARK Flexibility Score: inf
ROOT
ATOM      1  C   UNL A   1      35.497  33.755  28.888  1.00  0.00     0.021 C 
ENDROOT
BRANCH   1   2
ATOM      2  C   UNL A   1      34.967  32.528  29.622  1.00  0.00     0.116 C 
BRANCH   2   3
ATOM      3  N   UNL A   1      34.377  31.551  28.726  1.00  0.00    -0.352 N 
ATOM      4  O   UNL A   1      34.336  29.816  27.293  1.00  0.00    -0.269 OA
ATOM      5  C   UNL A   1      34.954  30.444  28.147  1.00  0.00     0.251 C 
ATOM      6  H   UNL A   1      33.432  31.702  28.498  1.00  0.00     0.163 HD
BRANCH   5   7
ATOM      7  C   UNL A   1      36.323  30.032  28.532  1.00  0.00     0.039 A 
ATOM      8  C   UNL A   1      37.425  30.340  27.727  1.00  0.00     0.014 A 
ATOM      9  C   UNL A   1      36.509  29.340  29.733  1.00  0.00     0.014 A 
ATOM     10  C   UNL A   1      38.686  29.849  28.058  1.00  0.00     0.010 A 
ATOM     11  C   UNL A   1      37.787  28.906  30.098  1.00  0.00     0.010 A 
ATOM     12  C   UNL A   1      38.881  29.130  29.248  1.00  0.00    -0.014 A 
BRANCH  12  13
ATOM     13  C   UNL A   1      40.246  28.675  29.616  1.00  0.00     0.031 A 
ATOM     14  C   UNL A   1      40.910  27.536  28.894  1.00  0.00     0.074 A 
ATOM     15  C   UNL A   1      40.891  29.303  30.618  1.00  0.00     0.049 A 
ATOM     16  N   UNL A   1      42.116  27.053  29.057  1.00  0.00    -0.248 NA
ATOM     17  C   UNL A   1      40.123  26.843  27.862  1.00  0.00     0.031 C 
ATOM     18  C   UNL A   1      40.329  30.387  31.426  1.00  0.00     0.029 A 
ATOM     19  N   UNL A   1      42.152  29.125  31.128  1.00  0.00    -0.354 N 
ATOM     20  C   UNL A   1      42.223  25.982  28.178  1.00  0.00     0.074 A 
ATOM     21  C   UNL A   1      40.954  25.879  27.487  1.00  0.00     0.031 C 
ATOM     22  C   UNL A   1      41.251  30.798  32.310  1.00  0.00     0.029 A 
ATOM     23  C   UNL A   1      42.453  29.986  32.156  1.00  0.00     0.049 A 
ATOM     24  H   UNL A   1      42.779  28.447  30.790  1.00  0.00     0.167 HD
ATOM     25  C   UNL A   1      43.286  25.174  27.950  1.00  0.00     0.034 A 
ATOM     26  C   UNL A   1      43.574  30.114  32.892  1.00  0.00     0.034 A 
ATOM     27  C   UNL A   1      44.561  25.308  28.604  1.00  0.00     0.049 A 
ATOM     28  C   UNL A   1      44.750  29.229  32.593  1.00  0.00     0.074 A 
ATOM     29  C   UNL A   1      45.721  24.585  28.385  1.00  0.00     0.029 A 
ATOM     30  N   UNL A   1      44.844  26.221  29.609  1.00  0.00    -0.354 N 
ATOM     31  N   UNL A   1      44.879  28.321  31.657  1.00  0.00    -0.248 NA
ATOM     32  C   UNL A   1      45.944  29.406  33.430  1.00  0.00     0.031 C 
ATOM     33  C   UNL A   1      46.705  25.059  29.261  1.00  0.00     0.029 A 
ATOM     34  C   UNL A   1      46.158  26.077  30.025  1.00  0.00     0.049 A 
ATOM     35  H   UNL A   1      44.205  26.875  29.973  1.00  0.00     0.167 HD
ATOM     36  C   UNL A   1      46.172  27.829  31.779  1.00  0.00     0.074 A 
ATOM     37  C   UNL A   1      46.795  28.561  32.865  1.00  0.00     0.031 C 
ATOM     38  C   UNL A   1      46.780  26.844  31.073  1.00  0.00     0.034 A 
BRANCH  25  39
ATOM     39  C   UNL A   1      43.137  24.104  26.902  1.00  0.00     0.023 A 
ATOM     40  C   UNL A   1      43.729  24.296  25.636  1.00  0.00     0.012 A 
ATOM     41  C   UNL A   1      42.471  22.895  27.177  1.00  0.00     0.148 A 
ATOM     42  C   UNL A   1      43.638  23.310  24.654  1.00  0.00     0.002 A 
ATOM     43  C   UNL A   1      42.411  21.904  26.202  1.00  0.00     0.091 A 
ATOM     44  F   UNL A   1      41.889  22.740  28.375  1.00  0.00    -0.205 F 
ATOM     45  C   UNL A   1      42.990  22.112  24.939  1.00  0.00     0.022 A 
BRANCH  43  46
ATOM     46  S   UNL A   1      41.647  20.309  26.519  1.00  0.00     0.127 S 
ATOM     47  O   UNL A   1      42.270  19.928  27.785  1.00  0.00    -0.237 OA
ATOM     48  O   UNL A   1      40.227  20.651  26.619  1.00  0.00    -0.237 OA
ATOM     49  O   UNL A   1      41.983  19.484  25.368  1.00  0.00    -0.744 OA
ENDBRANCH  43  46
ENDBRANCH  25  39
BRANCH  26  50
ATOM     50  C   UNL A   1      43.650  31.184  33.924  1.00  0.00     0.023 A 
ATOM     51  C   UNL A   1      44.352  32.369  33.633  1.00  0.00     0.012 A 
ATOM     52  C   UNL A   1      42.965  31.074  35.149  1.00  0.00     0.148 A 
ATOM     53  C   UNL A   1      44.379  33.421  34.547  1.00  0.00     0.002 A 
ATOM     54  C   UNL A   1      42.950  32.146  36.032  1.00  0.00     0.091 A 
ATOM     55  F   UNL A   1      42.319  29.929  35.416  1.00  0.00    -0.205 F 
ATOM     56  C   UNL A   1      43.667  33.318  35.739  1.00  0.00     0.022 A 
BRANCH  54  57
ATOM     57  S   UNL A   1      41.937  32.145  37.516  1.00  0.00     0.127 S 
ATOM     58  O   UNL A   1      42.638  31.179  38.356  1.00  0.00    -0.237 OA
ATOM     59  O   UNL A   1      42.039  33.537  37.960  1.00  0.00    -0.237 OA
ATOM     60  O   UNL A   1      40.604  31.760  37.074  1.00  0.00    -0.744 OA
ENDBRANCH  54  57
ENDBRANCH  26  50
BRANCH  38  61
ATOM     61  C   UNL A   1      48.195  26.498  31.446  1.00  0.00     0.023 A 
ATOM     62  C   UNL A   1      48.427  25.588  32.497  1.00  0.00     0.012 A 
ATOM     63  C   UNL A   1      49.287  27.014  30.722  1.00  0.00     0.148 A 
ATOM     64  C   UNL A   1      49.726  25.214  32.837  1.00  0.00     0.002 A 
ATOM     65  C   UNL A   1      50.578  26.608  31.043  1.00  0.00     0.091 A 
ATOM     66  F   UNL A   1      49.049  27.899  29.743  1.00  0.00    -0.205 F 
ATOM     67  C   UNL A   1      50.800  25.714  32.103  1.00  0.00     0.022 A 
BRANCH  65  68
ATOM     68  S   UNL A   1      52.003  27.146  30.091  1.00  0.00     0.127 S 
ATOM     69  O   UNL A   1      53.090  26.414  30.736  1.00  0.00    -0.237 OA
ATOM     70  O   UNL A   1      51.677  26.686  28.740  1.00  0.00    -0.237 OA
ATOM     71  O   UNL A   1      52.041  28.596  30.233  1.00  0.00    -0.744 OA
ENDBRANCH  65  68
ENDBRANCH  38  61
ENDBRANCH  12  13
ENDBRANCH   5   7
ENDBRANCH   2   3
ENDBRANCH   1   2
BRANCH   1  72
ATOM     72  C   UNL A   1      34.486  34.470  27.988  1.00  0.00     0.002 C 
BRANCH  72  73
ATOM     73  C   UNL A   1      34.495  35.999  28.058  1.00  0.00     0.002 C 
BRANCH  73  74
ATOM     74  C   UNL A   1      33.349  36.642  28.847  1.00  0.00     0.021 C 
BRANCH  74  75
ATOM     75  C   UNL A   1      32.701  35.750  29.907  1.00  0.00     0.116 C 
BRANCH  75  76
ATOM     76  N   UNL A   1      32.352  36.501  31.100  1.00  0.00    -0.352 N 
ATOM     77  C   UNL A   1      32.725  36.289  32.400  1.00  0.00     0.252 C 
ATOM     78  H   UNL A   1      31.762  37.275  30.953  1.00  0.00     0.163 HD
ATOM     79  O   UNL A   1      32.121  36.873  33.298  1.00  0.00    -0.269 OA
BRANCH  77  80
ATOM     80  C   UNL A   1      33.812  35.366  32.690  1.00  0.00     0.051 A 
ATOM     81  C   UNL A   1      33.647  34.084  33.179  1.00  0.00     0.079 A 
ATOM     82  C   UNL A   1      35.196  35.627  32.419  1.00  0.00     0.034 A 
ATOM     83  S   UNL A   1      35.127  33.252  33.370  1.00  0.00    -0.143 S 
ATOM     84  C   UNL A   1      36.024  34.570  32.745  1.00  0.00     0.037 A 
BRANCH  84  85
ATOM     85  C   UNL A   1      37.476  34.483  32.620  1.00  0.00     0.011 A 
ATOM     86  C   UNL A   1      38.305  34.647  33.723  1.00  0.00     0.121 A 
ATOM     87  C   UNL A   1      38.101  34.276  31.388  1.00  0.00     0.021 A 
ATOM     88  N   UNL A   1      39.660  34.621  33.680  1.00  0.00    -0.256 NA
ATOM     89  C   UNL A   1      39.499  34.245  31.302  1.00  0.00     0.001 A 
ATOM     90  C   UNL A   1      40.244  34.424  32.486  1.00  0.00     0.070 A 
ATOM     91  C   UNL A   1      40.155  34.052  30.074  1.00  0.00     0.010 A 
ATOM     92  C   UNL A   1      41.629  34.399  32.399  1.00  0.00     0.029 A 
ATOM     93  C   UNL A   1      41.547  34.035  30.014  1.00  0.00     0.001 A 
ATOM     94  C   UNL A   1      42.286  34.208  31.179  1.00  0.00     0.002 A 
ENDBRANCH  84  85
ENDBRANCH  77  80
ENDBRANCH  75  76
ENDBRANCH  74  75
ENDBRANCH  73  74
ENDBRANCH  72  73
ENDBRANCH   1  72
TORSDOF 17
ENDMDL
MODEL 3
REMARK VINA RESULT:     -11.1      5.481     10.518
REMARK SMILES O=C(NCCCCCCNC(=O)c1csc(-c2cnc3ccccc3c2)c1)c1ccc(-c2c3nc(c(-c4cccc(S(=O)(=O)[O-])c4F)c4ccc([nH]4)c(-c4cccc(S(=O)(=O)[O-])c4F)c4nc(c(-c5cccc(S(=O)(=O)[O-])c5F)c5ccc2[nH]5)C=C4)C=C3)cc1
REMARK SMILES IDX 5 1 4 2 3 3 1 4 2 5 28 7 29 8 90 9 30 10 89 11 31 12 32 13
REMARK SMILES IDX 33 14 83 15 34 16 88 17 82 18 84 19 35 20 87 21 81 22 80 23
REMARK SMILES IDX 36 25 68 26 48 27 67 28 49 29 52 30 66 31 85 32 50 33 51 34
REMARK SMILES IDX 65 36 86 37 53 38 37 39 38 40 46 41 39 42 41 43 47 44 40 45
REMARK SMILES IDX 42 46 43 47 44 48 45 49 69 50 70 51 78 52 71 53 73 54 79 55
REMARK SMILES IDX 72 56 74 57 75 58 76 59 77 60 54 61 55 62 63 63 56 64 58 65
REMARK SMILES IDX 64 66 57 67 59 68 60 69 61 70 62 71 6 72 7 73 8 74 9 75
REMARK SMILES IDX 10 76 11 77 12 79 13 80 14 81 27 82 15 83 16 84 17 85 18 86
REMARK SMILES IDX 26 87 19 88 25 89 20 90 24 91 21 92 23 93 22 94
REMARK H PARENT 3 6 84 24 52 35 10 78
REMARK Flexibility Score: inf
ROOT
ATOM      1  C   UNL A   1      36.600  22.532  24.185  1.00  0.00     0.021 C 
ENDROOT
BRANCH   1   2
ATOM      2  C   UNL A   1      36.961  22.348  25.655  1.00  0.00     0.116 C 
BRANCH   2   3
ATOM      3  N   UNL A   1      37.948  21.305  25.864  1.00  0.00    -0.352 N 
ATOM      4  O   UNL A   1      39.984  20.429  26.250  1.00  0.00    -0.269 OA
ATOM      5  C   UNL A   1      39.255  21.416  26.276  1.00  0.00     0.251 C 
ATOM      6  H   UNL A   1      37.639  20.388  25.683  1.00  0.00     0.163 HD
BRANCH   5   7
ATOM      7  C   UNL A   1      39.786  22.725  26.720  1.00  0.00     0.039 A 
ATOM      8  C   UNL A   1      39.352  23.919  26.134  1.00  0.00     0.014 A 
ATOM      9  C   UNL A   1      40.724  22.758  27.756  1.00  0.00     0.014 A 
ATOM     10  C   UNL A   1      39.945  25.126  26.496  1.00  0.00     0.010 A 
ATOM     11  C   UNL A   1      41.270  23.979  28.165  1.00  0.00     0.010 A 
ATOM     12  C   UNL A   1      40.907  25.170  27.517  1.00  0.00    -0.014 A 
BRANCH  12  13
ATOM     13  C   UNL A   1      41.477  26.477  27.934  1.00  0.00     0.031 A 
ATOM     14  C   UNL A   1      42.891  26.856  27.596  1.00  0.00     0.074 A 
ATOM     15  C   UNL A   1      40.700  27.330  28.630  1.00  0.00     0.049 A 
ATOM     16  N   UNL A   1      43.521  27.978  27.839  1.00  0.00    -0.248 NA
ATOM     17  C   UNL A   1      43.710  25.849  26.902  1.00  0.00     0.031 C 
ATOM     18  C   UNL A   1      39.329  27.052  29.062  1.00  0.00     0.029 A 
ATOM     19  N   UNL A   1      40.947  28.597  29.095  1.00  0.00    -0.354 N 
ATOM     20  C   UNL A   1      44.815  27.803  27.362  1.00  0.00     0.074 A 
ATOM     21  C   UNL A   1      44.884  26.462  26.821  1.00  0.00     0.031 C 
ATOM     22  C   UNL A   1      38.845  28.127  29.703  1.00  0.00     0.029 A 
ATOM     23  C   UNL A   1      39.880  29.154  29.757  1.00  0.00     0.049 A 
ATOM     24  H   UNL A   1      41.805  29.060  28.966  1.00  0.00     0.167 HD
ATOM     25  C   UNL A   1      45.842  28.686  27.355  1.00  0.00     0.034 A 
ATOM     26  C   UNL A   1      39.744  30.360  30.342  1.00  0.00     0.034 A 
ATOM     27  C   UNL A   1      45.756  30.034  27.850  1.00  0.00     0.049 A 
ATOM     28  C   UNL A   1      40.887  31.332  30.285  1.00  0.00     0.074 A 
ATOM     29  C   UNL A   1      46.721  31.027  27.816  1.00  0.00     0.029 A 
ATOM     30  N   UNL A   1      44.645  30.579  28.475  1.00  0.00    -0.354 N 
ATOM     31  N   UNL A   1      42.052  31.200  29.700  1.00  0.00    -0.248 NA
ATOM     32  C   UNL A   1      40.688  32.631  30.944  1.00  0.00     0.031 C 
ATOM     33  C   UNL A   1      46.192  32.172  28.426  1.00  0.00     0.029 A 
ATOM     34  C   UNL A   1      44.900  31.892  28.837  1.00  0.00     0.049 A 
ATOM     35  H   UNL A   1      43.799  30.104  28.637  1.00  0.00     0.167 HD
ATOM     36  C   UNL A   1      42.720  32.400  29.903  1.00  0.00     0.074 A 
ATOM     37  C   UNL A   1      41.817  33.259  30.644  1.00  0.00     0.031 C 
ATOM     38  C   UNL A   1      43.975  32.751  29.531  1.00  0.00     0.034 A 
BRANCH  25  39
ATOM     39  C   UNL A   1      47.139  28.241  26.733  1.00  0.00     0.023 A 
ATOM     40  C   UNL A   1      48.237  27.953  27.569  1.00  0.00     0.012 A 
ATOM     41  C   UNL A   1      47.259  28.052  25.344  1.00  0.00     0.148 A 
ATOM     42  C   UNL A   1      49.443  27.506  27.028  1.00  0.00     0.002 A 
ATOM     43  C   UNL A   1      48.456  27.577  24.814  1.00  0.00     0.091 A 
ATOM     44  F   UNL A   1      46.216  28.358  24.560  1.00  0.00    -0.205 F 
ATOM     45  C   UNL A   1      49.549  27.309  25.654  1.00  0.00     0.022 A 
BRANCH  43  46
ATOM     46  S   UNL A   1      48.646  27.239  23.060  1.00  0.00     0.127 S 
ATOM     47  O   UNL A   1      48.306  25.819  22.993  1.00  0.00    -0.237 OA
ATOM     48  O   UNL A   1      47.655  28.130  22.454  1.00  0.00    -0.237 OA
ATOM     49  O   UNL A   1      50.026  27.580  22.748  1.00  0.00    -0.744 OA
ENDBRANCH  43  46
ENDBRANCH  25  39
BRANCH  26  50
ATOM     50  C   UNL A   1      38.438  30.732  30.951  1.00  0.00     0.023 A 
ATOM     51  C   UNL A   1      38.230  30.500  32.324  1.00  0.00     0.012 A 
ATOM     52  C   UNL A   1      37.439  31.386  30.205  1.00  0.00     0.148 A 
ATOM     53  C   UNL A   1      37.048  30.905  32.941  1.00  0.00     0.002 A 
ATOM     54  C   UNL A   1      36.286  31.836  30.837  1.00  0.00     0.091 A 
ATOM     55  F   UNL A   1      37.647  31.578  28.894  1.00  0.00    -0.205 F 
ATOM     56  C   UNL A   1      36.082  31.586  32.204  1.00  0.00     0.022 A 
BRANCH  54  57
ATOM     57  S   UNL A   1      35.066  32.847  29.990  1.00  0.00     0.127 S 
ATOM     58  O   UNL A   1      34.168  33.210  31.082  1.00  0.00    -0.237 OA
ATOM     59  O   UNL A   1      35.885  33.946  29.473  1.00  0.00    -0.237 OA
ATOM     60  O   UNL A   1      34.504  31.989  28.957  1.00  0.00    -0.744 OA
ENDBRANCH  54  57
ENDBRANCH  26  50
BRANCH  38  61
ATOM     61  C   UNL A   1      44.451  34.126  29.914  1.00  0.00     0.023 A 
ATOM     62  C   UNL A   1      45.188  34.292  31.103  1.00  0.00     0.012 A 
ATOM     63  C   UNL A   1      44.233  35.234  29.074  1.00  0.00     0.148 A 
ATOM     64  C   UNL A   1      45.681  35.545  31.463  1.00  0.00     0.002 A 
ATOM     65  C   UNL A   1      44.758  36.474  29.420  1.00  0.00     0.091 A 
ATOM     66  F   UNL A   1      43.507  35.062  27.958  1.00  0.00    -0.205 F 
ATOM     67  C   UNL A   1      45.476  36.633  30.616  1.00  0.00     0.022 A 
BRANCH  65  68
ATOM     68  S   UNL A   1      44.605  37.902  28.340  1.00  0.00     0.127 S 
ATOM     69  O   UNL A   1      45.193  37.404  27.099  1.00  0.00    -0.237 OA
ATOM     70  O   UNL A   1      43.157  38.108  28.288  1.00  0.00    -0.237 OA
ATOM     71  O   UNL A   1      45.336  38.973  29.004  1.00  0.00    -0.744 OA
ENDBRANCH  65  68
ENDBRANCH  38  61
ENDBRANCH  12  13
ENDBRANCH   5   7
ENDBRANCH   2   3
ENDBRANCH   1   2
BRANCH   1  72
ATOM     72  C   UNL A   1      35.106  22.461  23.862  1.00  0.00     0.002 C 
BRANCH  72  73
ATOM     73  C   UNL A   1      34.308  21.400  24.624  1.00  0.00     0.002 C 
BRANCH  73  74
ATOM     74  C   UNL A   1      32.930  21.053  24.047  1.00  0.00     0.021 C 
BRANCH  74  75
ATOM     75  C   UNL A   1      31.775  21.927  24.536  1.00  0.00     0.116 C 
BRANCH  75  76
ATOM     76  N   UNL A   1      31.728  21.994  25.985  1.00  0.00    -0.352 N 
ATOM     77  C   UNL A   1      32.124  23.002  26.823  1.00  0.00     0.252 C 
ATOM     78  H   UNL A   1      31.355  21.199  26.431  1.00  0.00     0.163 HD
ATOM     79  O   UNL A   1      32.245  22.769  28.024  1.00  0.00    -0.269 OA
BRANCH  77  80
ATOM     80  C   UNL A   1      32.410  24.318  26.271  1.00  0.00     0.051 A 
ATOM     81  C   UNL A   1      33.676  24.790  25.978  1.00  0.00     0.079 A 
ATOM     82  C   UNL A   1      31.413  25.266  25.867  1.00  0.00     0.034 A 
ATOM     83  S   UNL A   1      33.658  26.360  25.304  1.00  0.00    -0.143 S 
ATOM     84  C   UNL A   1      31.946  26.422  25.331  1.00  0.00     0.037 A 
BRANCH  84  85
ATOM     85  C   UNL A   1      31.242  27.600  24.830  1.00  0.00     0.011 A 
ATOM     86  C   UNL A   1      31.648  28.883  25.177  1.00  0.00     0.121 A 
ATOM     87  C   UNL A   1      30.108  27.495  24.023  1.00  0.00     0.021 A 
ATOM     88  N   UNL A   1      31.023  30.021  24.787  1.00  0.00    -0.256 NA
ATOM     89  C   UNL A   1      29.432  28.647  23.601  1.00  0.00     0.001 A 
ATOM     90  C   UNL A   1      29.932  29.901  24.012  1.00  0.00     0.070 A 
ATOM     91  C   UNL A   1      28.281  28.571  22.798  1.00  0.00     0.010 A 
ATOM     92  C   UNL A   1      29.258  31.042  23.598  1.00  0.00     0.029 A 
ATOM     93  C   UNL A   1      27.622  29.733  22.401  1.00  0.00     0.001 A 
ATOM     94  C   UNL A   1      28.111  30.971  22.801  1.00  0.00     0.002 A 
ENDBRANCH  84  85
ENDBRANCH  77  80
ENDBRANCH  75  76
ENDBRANCH  74  75
ENDBRANCH  73  74
ENDBRANCH  72  73
ENDBRANCH   1  72
TORSDOF 17
ENDMDL
