MODEL 1
REMARK VINA RESULT:     -11.1      0.000      0.000
REMARK SMILES O=C(NCCCCCCNC(=O)[C@@H]1CSc2ccccc21)c1ccc(-c2c3nc(c(-c4cccc(S(=O)(=O)[O-])c4F)c4ccc([nH]4)c(-c4cccc(S(=O)(=O)[O-])c4F)c4nc(c(-c5cccc(S(=O)(=O)[O-])c5F)c5ccc2[nH]5)C=C4)C=C3)cc1
REMARK SMILES IDX 5 1 4 2 3 3 1 4 2 5 22 7 23 8 84 9 24 10 83 11 25 12 26 13
REMARK SMILES IDX 27 14 77 15 28 16 82 17 76 18 78 19 29 20 81 21 75 22 74 23
REMARK SMILES IDX 30 25 62 26 42 27 61 28 43 29 46 30 60 31 79 32 44 33 45 34
REMARK SMILES IDX 59 36 80 37 47 38 31 39 32 40 40 41 33 42 35 43 41 44 34 45
REMARK SMILES IDX 36 46 37 47 38 48 39 49 63 50 64 51 72 52 65 53 67 54 73 55
REMARK SMILES IDX 66 56 68 57 69 58 70 59 71 60 48 61 49 62 57 63 50 64 52 65
REMARK SMILES IDX 58 66 51 67 53 68 54 69 55 70 56 71 6 72 7 73 8 74 9 75
REMARK SMILES IDX 10 76 11 77 12 79 13 80 14 81 21 82 15 83 16 84 20 85 17 86
REMARK SMILES IDX 19 87 18 88
REMARK H PARENT 3 6 78 24 46 35 10 78
REMARK Flexibility Score: inf
ROOT
ATOM      1  C   UNL A   1      31.791  28.494  25.590  1.00  0.00     0.021 C 
ENDROOT
BRANCH   1   2
ATOM      2  C   UNL A   1      32.890  29.538  25.427  1.00  0.00     0.116 C 
BRANCH   2   3
ATOM      3  N   UNL A   1      32.465  30.844  25.897  1.00  0.00    -0.352 N 
ATOM      4  O   UNL A   1      32.323  32.568  27.337  1.00  0.00    -0.269 OA
ATOM      5  C   UNL A   1      32.953  31.586  26.940  1.00  0.00     0.251 C 
ATOM      6  H   UNL A   1      31.722  31.254  25.397  1.00  0.00     0.163 HD
BRANCH   5   7
ATOM      7  C   UNL A   1      34.229  31.215  27.591  1.00  0.00     0.039 A 
ATOM      8  C   UNL A   1      34.414  29.895  28.009  1.00  0.00     0.014 A 
ATOM      9  C   UNL A   1      35.214  32.175  27.845  1.00  0.00     0.014 A 
ATOM     10  C   UNL A   1      35.588  29.535  28.673  1.00  0.00     0.010 A 
ATOM     11  C   UNL A   1      36.412  31.801  28.447  1.00  0.00     0.010 A 
ATOM     12  C   UNL A   1      36.596  30.485  28.898  1.00  0.00    -0.014 A 
BRANCH  12  13
ATOM     13  C   UNL A   1      37.813  30.141  29.674  1.00  0.00     0.031 A 
ATOM     14  C   UNL A   1      38.842  29.220  29.074  1.00  0.00     0.074 A 
ATOM     15  C   UNL A   1      37.980  30.620  30.921  1.00  0.00     0.049 A 
ATOM     16  N   UNL A   1      39.945  28.763  29.606  1.00  0.00    -0.248 NA
ATOM     17  C   UNL A   1      38.592  28.734  27.706  1.00  0.00     0.031 C 
ATOM     18  C   UNL A   1      37.032  31.480  31.632  1.00  0.00     0.029 A 
ATOM     19  N   UNL A   1      39.004  30.441  31.817  1.00  0.00    -0.354 N 
ATOM     20  C   UNL A   1      40.495  27.907  28.660  1.00  0.00     0.074 A 
ATOM     21  C   UNL A   1      39.595  27.886  27.528  1.00  0.00     0.031 C 
ATOM     22  C   UNL A   1      37.527  31.768  32.847  1.00  0.00     0.029 A 
ATOM     23  C   UNL A   1      38.815  31.097  33.010  1.00  0.00     0.049 A 
ATOM     24  H   UNL A   1      39.799  29.895  31.623  1.00  0.00     0.167 HD
ATOM     25  C   UNL A   1      41.663  27.227  28.710  1.00  0.00     0.034 A 
ATOM     26  C   UNL A   1      39.592  31.156  34.109  1.00  0.00     0.034 A 
ATOM     27  C   UNL A   1      42.597  27.309  29.796  1.00  0.00     0.049 A 
ATOM     28  C   UNL A   1      40.909  30.432  34.121  1.00  0.00     0.074 A 
ATOM     29  C   UNL A   1      43.845  26.722  29.898  1.00  0.00     0.029 A 
ATOM     30  N   UNL A   1      42.394  28.033  30.959  1.00  0.00    -0.354 N 
ATOM     31  N   UNL A   1      41.460  29.713  33.173  1.00  0.00    -0.248 NA
ATOM     32  C   UNL A   1      41.725  30.545  35.340  1.00  0.00     0.031 C 
ATOM     33  C   UNL A   1      44.400  27.093  31.127  1.00  0.00     0.029 A 
ATOM     34  C   UNL A   1      43.496  27.910  31.785  1.00  0.00     0.049 A 
ATOM     35  H   UNL A   1      41.586  28.555  31.167  1.00  0.00     0.167 HD
ATOM     36  C   UNL A   1      42.691  29.305  33.670  1.00  0.00     0.074 A 
ATOM     37  C   UNL A   1      42.815  29.868  34.999  1.00  0.00     0.031 C 
ATOM     38  C   UNL A   1      43.625  28.519  33.083  1.00  0.00     0.034 A 
BRANCH  25  39
ATOM     39  C   UNL A   1      42.042  26.393  27.519  1.00  0.00     0.023 A 
ATOM     40  C   UNL A   1      42.784  26.984  26.478  1.00  0.00     0.012 A 
ATOM     41  C   UNL A   1      41.746  25.017  27.470  1.00  0.00     0.148 A 
ATOM     42  C   UNL A   1      43.214  26.220  25.394  1.00  0.00     0.002 A 
ATOM     43  C   UNL A   1      42.204  24.256  26.401  1.00  0.00     0.091 A 
ATOM     44  F   UNL A   1      41.025  24.484  28.467  1.00  0.00    -0.205 F 
ATOM     45  C   UNL A   1      42.934  24.857  25.362  1.00  0.00     0.022 A 
BRANCH  43  46
ATOM     46  S   UNL A   1      41.945  22.482  26.285  1.00  0.00     0.127 S 
ATOM     47  O   UNL A   1      42.659  22.161  25.049  1.00  0.00    -0.237 OA
ATOM     48  O   UNL A   1      42.589  21.999  27.506  1.00  0.00    -0.237 OA
ATOM     49  O   UNL A   1      40.503  22.287  26.233  1.00  0.00    -0.744 OA
ENDBRANCH  43  46
ENDBRANCH  25  39
BRANCH  26  50
ATOM     50  C   UNL A   1      39.170  32.006  35.255  1.00  0.00     0.023 A 
ATOM     51  C   UNL A   1      38.341  31.451  36.249  1.00  0.00     0.012 A 
ATOM     52  C   UNL A   1      39.640  33.325  35.403  1.00  0.00     0.148 A 
ATOM     53  C   UNL A   1      37.980  32.198  37.370  1.00  0.00     0.002 A 
ATOM     54  C   UNL A   1      39.307  34.051  36.541  1.00  0.00     0.091 A 
ATOM     55  F   UNL A   1      40.424  33.830  34.441  1.00  0.00    -0.205 F 
ATOM     56  C   UNL A   1      38.470  33.494  37.520  1.00  0.00     0.022 A 
BRANCH  54  57
ATOM     57  S   UNL A   1      39.973  35.685  36.879  1.00  0.00     0.127 S 
ATOM     58  O   UNL A   1      39.343  36.005  38.159  1.00  0.00    -0.237 OA
ATOM     59  O   UNL A   1      41.409  35.414  36.949  1.00  0.00    -0.237 OA
ATOM     60  O   UNL A   1      39.568  36.519  35.757  1.00  0.00    -0.744 OA
ENDBRANCH  54  57
ENDBRANCH  26  50
BRANCH  38  61
ATOM     61  C   UNL A   1      44.878  28.210  33.853  1.00  0.00     0.023 A 
ATOM     62  C   UNL A   1      45.960  29.110  33.791  1.00  0.00     0.012 A 
ATOM     63  C   UNL A   1      44.927  27.119  34.742  1.00  0.00     0.148 A 
ATOM     64  C   UNL A   1      47.078  28.926  34.602  1.00  0.00     0.002 A 
ATOM     65  C   UNL A   1      46.032  26.960  35.571  1.00  0.00     0.091 A 
ATOM     66  F   UNL A   1      43.886  26.276  34.776  1.00  0.00    -0.205 F 
ATOM     67  C   UNL A   1      47.109  27.860  35.499  1.00  0.00     0.022 A 
BRANCH  65  68
ATOM     68  S   UNL A   1      46.132  25.667  36.814  1.00  0.00     0.127 S 
ATOM     69  O   UNL A   1      46.188  24.463  35.986  1.00  0.00    -0.237 OA
ATOM     70  O   UNL A   1      47.382  25.995  37.500  1.00  0.00    -0.237 OA
ATOM     71  O   UNL A   1      44.936  25.800  37.634  1.00  0.00    -0.744 OA
ENDBRANCH  65  68
ENDBRANCH  38  61
ENDBRANCH  12  13
ENDBRANCH   5   7
ENDBRANCH   2   3
ENDBRANCH   1   2
BRANCH   1  72
ATOM     72  C   UNL A   1      32.144  27.336  26.526  1.00  0.00     0.002 C 
BRANCH  72  73
ATOM     73  C   UNL A   1      33.345  26.495  26.086  1.00  0.00     0.002 C 
BRANCH  73  74
ATOM     74  C   UNL A   1      33.096  24.981  26.036  1.00  0.00     0.021 C 
BRANCH  74  75
ATOM     75  C   UNL A   1      32.217  24.525  24.867  1.00  0.00     0.116 C 
BRANCH  75  76
ATOM     76  N   UNL A   1      32.662  25.143  23.634  1.00  0.00    -0.356 N 
ATOM     77  C   UNL A   1      33.453  24.677  22.628  1.00  0.00     0.228 C 
ATOM     78  H   UNL A   1      32.333  26.061  23.500  1.00  0.00     0.163 HD
ATOM     79  O   UNL A   1      33.809  25.517  21.797  1.00  0.00    -0.274 OA
BRANCH  77  80
ATOM     80  C   UNL A   1      33.760  23.178  22.491  1.00  0.00     0.120 C 
ATOM     81  C   UNL A   1      32.527  22.277  22.679  1.00  0.00     0.093 C 
ATOM     82  C   UNL A   1      34.814  22.707  23.476  1.00  0.00    -0.021 A 
ATOM     83  S   UNL A   1      32.770  21.138  24.069  1.00  0.00    -0.125 SA
ATOM     84  C   UNL A   1      34.412  21.700  24.351  1.00  0.00     0.011 A 
ATOM     85  C   UNL A   1      36.102  23.235  23.581  1.00  0.00     0.006 A 
ATOM     86  C   UNL A   1      35.256  21.225  25.345  1.00  0.00     0.015 A 
ATOM     87  C   UNL A   1      36.955  22.773  24.586  1.00  0.00     0.000 A 
ATOM     88  C   UNL A   1      36.532  21.773  25.467  1.00  0.00     0.001 A 
ENDBRANCH  77  80
ENDBRANCH  75  76
ENDBRANCH  74  75
ENDBRANCH  73  74
ENDBRANCH  72  73
ENDBRANCH   1  72
TORSDOF 16
ENDMDL
MODEL 2
REMARK VINA RESULT:     -11.1      2.937      4.192
REMARK SMILES O=C(NCCCCCCNC(=O)[C@@H]1CSc2ccccc21)c1ccc(-c2c3nc(c(-c4cccc(S(=O)(=O)[O-])c4F)c4ccc([nH]4)c(-c4cccc(S(=O)(=O)[O-])c4F)c4nc(c(-c5cccc(S(=O)(=O)[O-])c5F)c5ccc2[nH]5)C=C4)C=C3)cc1
REMARK SMILES IDX 5 1 4 2 3 3 1 4 2 5 22 7 23 8 84 9 24 10 83 11 25 12 26 13
REMARK SMILES IDX 27 14 77 15 28 16 82 17 76 18 78 19 29 20 81 21 75 22 74 23
REMARK SMILES IDX 30 25 62 26 42 27 61 28 43 29 46 30 60 31 79 32 44 33 45 34
REMARK SMILES IDX 59 36 80 37 47 38 31 39 32 40 40 41 33 42 35 43 41 44 34 45
REMARK SMILES IDX 36 46 37 47 38 48 39 49 63 50 64 51 72 52 65 53 67 54 73 55
REMARK SMILES IDX 66 56 68 57 69 58 70 59 71 60 48 61 49 62 57 63 50 64 52 65
REMARK SMILES IDX 58 66 51 67 53 68 54 69 55 70 56 71 6 72 7 73 8 74 9 75
REMARK SMILES IDX 10 76 11 77 12 79 13 80 14 81 21 82 15 83 16 84 20 85 17 86
REMARK SMILES IDX 19 87 18 88
REMARK H PARENT 3 6 78 24 46 35 10 78
REMARK Flexibility Score: inf
ROOT
ATOM      1  C   UNL A   1      31.572  31.999  26.762  1.00  0.00     0.021 C 
ENDROOT
BRANCH   1   2
ATOM      2  C   UNL A   1      32.844  32.683  27.250  1.00  0.00     0.116 C 
BRANCH   2   3
ATOM      3  N   UNL A   1      32.602  34.065  27.622  1.00  0.00    -0.352 N 
ATOM      4  O   UNL A   1      32.620  35.868  28.968  1.00  0.00    -0.269 OA
ATOM      5  C   UNL A   1      33.110  34.776  28.677  1.00  0.00     0.251 C 
ATOM      6  H   UNL A   1      31.987  34.561  27.034  1.00  0.00     0.163 HD
BRANCH   5   7
ATOM      7  C   UNL A   1      34.241  34.240  29.466  1.00  0.00     0.039 A 
ATOM      8  C   UNL A   1      35.544  34.474  29.021  1.00  0.00     0.014 A 
ATOM      9  C   UNL A   1      34.018  33.457  30.604  1.00  0.00     0.014 A 
ATOM     10  C   UNL A   1      36.624  33.932  29.720  1.00  0.00     0.010 A 
ATOM     11  C   UNL A   1      35.098  32.973  31.338  1.00  0.00     0.010 A 
ATOM     12  C   UNL A   1      36.410  33.176  30.884  1.00  0.00    -0.014 A 
BRANCH  12  13
ATOM     13  C   UNL A   1      37.538  32.524  31.592  1.00  0.00     0.031 A 
ATOM     14  C   UNL A   1      38.272  31.386  30.933  1.00  0.00     0.074 A 
ATOM     15  C   UNL A   1      37.883  32.922  32.830  1.00  0.00     0.049 A 
ATOM     16  N   UNL A   1      39.250  30.657  31.402  1.00  0.00    -0.248 NA
ATOM     17  C   UNL A   1      37.839  31.003  29.577  1.00  0.00     0.031 C 
ATOM     18  C   UNL A   1      37.219  33.980  33.595  1.00  0.00     0.029 A 
ATOM     19  N   UNL A   1      38.873  32.477  33.669  1.00  0.00    -0.354 N 
ATOM     20  C   UNL A   1      39.519  29.708  30.424  1.00  0.00     0.074 A 
ATOM     21  C   UNL A   1      38.587  29.934  29.341  1.00  0.00     0.031 C 
ATOM     22  C   UNL A   1      37.832  34.112  34.784  1.00  0.00     0.029 A 
ATOM     23  C   UNL A   1      38.916  33.137  34.874  1.00  0.00     0.049 A 
ATOM     24  H   UNL A   1      39.495  31.752  33.430  1.00  0.00     0.167 HD
ATOM     25  C   UNL A   1      40.479  28.756  30.408  1.00  0.00     0.034 A 
ATOM     26  C   UNL A   1      39.737  32.979  35.930  1.00  0.00     0.034 A 
ATOM     27  C   UNL A   1      41.458  28.582  31.442  1.00  0.00     0.049 A 
ATOM     28  C   UNL A   1      40.829  31.948  35.867  1.00  0.00     0.074 A 
ATOM     29  C   UNL A   1      42.522  27.699  31.474  1.00  0.00     0.029 A 
ATOM     30  N   UNL A   1      41.503  29.311  32.618  1.00  0.00    -0.354 N 
ATOM     31  N   UNL A   1      41.133  31.132  34.887  1.00  0.00    -0.248 NA
ATOM     32  C   UNL A   1      41.708  31.831  37.042  1.00  0.00     0.031 C 
ATOM     33  C   UNL A   1      43.214  27.896  32.673  1.00  0.00     0.029 A 
ATOM     34  C   UNL A   1      42.579  28.901  33.384  1.00  0.00     0.049 A 
ATOM     35  H   UNL A   1      40.863  30.016  32.872  1.00  0.00     0.167 HD
ATOM     36  C   UNL A   1      42.245  30.419  35.316  1.00  0.00     0.074 A 
ATOM     37  C   UNL A   1      42.575  30.908  36.639  1.00  0.00     0.031 C 
ATOM     38  C   UNL A   1      42.922  29.435  34.676  1.00  0.00     0.034 A 
BRANCH  25  39
ATOM     39  C   UNL A   1      40.576  27.876  29.194  1.00  0.00     0.023 A 
ATOM     40  C   UNL A   1      39.692  26.786  29.067  1.00  0.00     0.012 A 
ATOM     41  C   UNL A   1      41.471  28.172  28.148  1.00  0.00     0.148 A 
ATOM     42  C   UNL A   1      39.706  25.993  27.920  1.00  0.00     0.002 A 
ATOM     43  C   UNL A   1      41.458  27.397  26.996  1.00  0.00     0.091 A 
ATOM     44  F   UNL A   1      42.311  29.206  28.303  1.00  0.00    -0.205 F 
ATOM     45  C   UNL A   1      40.580  26.305  26.883  1.00  0.00     0.022 A 
BRANCH  43  46
ATOM     46  S   UNL A   1      42.505  27.741  25.577  1.00  0.00     0.127 S 
ATOM     47  O   UNL A   1      41.930  28.992  25.084  1.00  0.00    -0.237 OA
ATOM     48  O   UNL A   1      43.823  27.876  26.196  1.00  0.00    -0.237 OA
ATOM     49  O   UNL A   1      42.362  26.601  24.683  1.00  0.00    -0.744 OA
ENDBRANCH  43  46
ENDBRANCH  25  39
BRANCH  26  50
ATOM     50  C   UNL A   1      39.601  33.886  37.102  1.00  0.00     0.023 A 
ATOM     51  C   UNL A   1      40.023  35.224  36.982  1.00  0.00     0.012 A 
ATOM     52  C   UNL A   1      38.995  33.456  38.297  1.00  0.00     0.148 A 
ATOM     53  C   UNL A   1      39.849  36.119  38.037  1.00  0.00     0.002 A 
ATOM     54  C   UNL A   1      38.791  34.363  39.331  1.00  0.00     0.091 A 
ATOM     55  F   UNL A   1      38.606  32.176  38.385  1.00  0.00    -0.205 F 
ATOM     56  C   UNL A   1      39.226  35.691  39.207  1.00  0.00     0.022 A 
BRANCH  54  57
ATOM     57  S   UNL A   1      37.903  33.937  40.834  1.00  0.00     0.127 S 
ATOM     58  O   UNL A   1      38.871  33.083  41.520  1.00  0.00    -0.237 OA
ATOM     59  O   UNL A   1      37.701  35.251  41.443  1.00  0.00    -0.237 OA
ATOM     60  O   UNL A   1      36.682  33.276  40.401  1.00  0.00    -0.744 OA
ENDBRANCH  54  57
ENDBRANCH  26  50
BRANCH  38  61
ATOM     61  C   UNL A   1      44.094  28.808  35.376  1.00  0.00     0.023 A 
ATOM     62  C   UNL A   1      45.375  29.365  35.201  1.00  0.00     0.012 A 
ATOM     63  C   UNL A   1      43.906  27.771  36.310  1.00  0.00     0.148 A 
ATOM     64  C   UNL A   1      46.457  28.897  35.945  1.00  0.00     0.002 A 
ATOM     65  C   UNL A   1      44.982  27.331  37.072  1.00  0.00     0.091 A 
ATOM     66  F   UNL A   1      42.676  27.255  36.452  1.00  0.00    -0.205 F 
ATOM     67  C   UNL A   1      46.257  27.890  36.887  1.00  0.00     0.022 A 
BRANCH  65  68
ATOM     68  S   UNL A   1      44.813  26.095  38.365  1.00  0.00     0.127 S 
ATOM     69  O   UNL A   1      46.188  25.979  38.847  1.00  0.00    -0.237 OA
ATOM     70  O   UNL A   1      43.892  26.748  39.296  1.00  0.00    -0.237 OA
ATOM     71  O   UNL A   1      44.280  24.904  37.718  1.00  0.00    -0.744 OA
ENDBRANCH  65  68
ENDBRANCH  38  61
ENDBRANCH  12  13
ENDBRANCH   5   7
ENDBRANCH   2   3
ENDBRANCH   1   2
BRANCH   1  72
ATOM     72  C   UNL A   1      31.748  30.531  26.366  1.00  0.00     0.002 C 
BRANCH  72  73
ATOM     73  C   UNL A   1      32.705  29.734  27.256  1.00  0.00     0.002 C 
BRANCH  73  74
ATOM     74  C   UNL A   1      32.430  28.225  27.321  1.00  0.00     0.021 C 
BRANCH  74  75
ATOM     75  C   UNL A   1      31.401  27.728  26.300  1.00  0.00     0.116 C 
BRANCH  75  76
ATOM     76  N   UNL A   1      30.941  26.401  26.658  1.00  0.00    -0.356 N 
ATOM     77  C   UNL A   1      30.425  25.392  25.902  1.00  0.00     0.228 C 
ATOM     78  H   UNL A   1      31.016  26.191  27.617  1.00  0.00     0.163 HD
ATOM     79  O   UNL A   1      29.945  24.446  26.532  1.00  0.00    -0.274 OA
BRANCH  77  80
ATOM     80  C   UNL A   1      30.561  25.401  24.372  1.00  0.00     0.120 C 
ATOM     81  C   UNL A   1      32.020  25.398  23.882  1.00  0.00     0.093 C 
ATOM     82  C   UNL A   1      29.875  26.594  23.733  1.00  0.00    -0.021 A 
ATOM     83  S   UNL A   1      32.363  26.869  22.881  1.00  0.00    -0.125 SA
ATOM     84  C   UNL A   1      30.700  27.430  22.982  1.00  0.00     0.011 A 
ATOM     85  C   UNL A   1      28.525  26.915  23.883  1.00  0.00     0.006 A 
ATOM     86  C   UNL A   1      30.214  28.593  22.400  1.00  0.00     0.015 A 
ATOM     87  C   UNL A   1      28.029  28.089  23.311  1.00  0.00     0.000 A 
ATOM     88  C   UNL A   1      28.872  28.927  22.575  1.00  0.00     0.001 A 
ENDBRANCH  77  80
ENDBRANCH  75  76
ENDBRANCH  74  75
ENDBRANCH  73  74
ENDBRANCH  72  73
ENDBRANCH   1  72
TORSDOF 16
ENDMDL
MODEL 3
REMARK VINA RESULT:     -11.1      1.697      7.969
REMARK SMILES O=C(NCCCCCCNC(=O)[C@@H]1CSc2ccccc21)c1ccc(-c2c3nc(c(-c4cccc(S(=O)(=O)[O-])c4F)c4ccc([nH]4)c(-c4cccc(S(=O)(=O)[O-])c4F)c4nc(c(-c5cccc(S(=O)(=O)[O-])c5F)c5ccc2[nH]5)C=C4)C=C3)cc1
REMARK SMILES IDX 5 1 4 2 3 3 1 4 2 5 22 7 23 8 84 9 24 10 83 11 25 12 26 13
REMARK SMILES IDX 27 14 77 15 28 16 82 17 76 18 78 19 29 20 81 21 75 22 74 23
REMARK SMILES IDX 30 25 62 26 42 27 61 28 43 29 46 30 60 31 79 32 44 33 45 34
REMARK SMILES IDX 59 36 80 37 47 38 31 39 32 40 40 41 33 42 35 43 41 44 34 45
REMARK SMILES IDX 36 46 37 47 38 48 39 49 63 50 64 51 72 52 65 53 67 54 73 55
REMARK SMILES IDX 66 56 68 57 69 58 70 59 71 60 48 61 49 62 57 63 50 64 52 65
REMARK SMILES IDX 58 66 51 67 53 68 54 69 55 70 56 71 6 72 7 73 8 74 9 75
REMARK SMILES IDX 10 76 11 77 12 79 13 80 14 81 21 82 15 83 16 84 20 85 17 86
REMARK SMILES IDX 19 87 18 88
REMARK H PARENT 3 6 78 24 46 35 10 78
REMARK Flexibility Score: inf
ROOT
ATOM      1  C   UNL A   1      32.012  29.792  25.861  1.00  0.00     0.021 C 
ENDROOT
BRANCH   1   2
ATOM      2  C   UNL A   1      32.435  30.414  27.187  1.00  0.00     0.116 C 
BRANCH   2   3
ATOM      3  N   UNL A   1      32.593  31.853  27.080  1.00  0.00    -0.352 N 
ATOM      4  O   UNL A   1      33.441  33.874  27.587  1.00  0.00    -0.269 OA
ATOM      5  C   UNL A   1      33.587  32.651  27.579  1.00  0.00     0.251 C 
ATOM      6  H   UNL A   1      31.886  32.321  26.578  1.00  0.00     0.163 HD
BRANCH   5   7
ATOM      7  C   UNL A   1      34.833  32.053  28.108  1.00  0.00     0.039 A 
ATOM      8  C   UNL A   1      34.806  30.733  28.564  1.00  0.00     0.014 A 
ATOM      9  C   UNL A   1      36.007  32.807  28.212  1.00  0.00     0.014 A 
ATOM     10  C   UNL A   1      35.956  30.167  29.117  1.00  0.00     0.010 A 
ATOM     11  C   UNL A   1      37.171  32.221  28.700  1.00  0.00     0.010 A 
ATOM     12  C   UNL A   1      37.148  30.906  29.190  1.00  0.00    -0.014 A 
BRANCH  12  13
ATOM     13  C   UNL A   1      38.355  30.349  29.848  1.00  0.00     0.031 A 
ATOM     14  C   UNL A   1      38.698  30.771  31.253  1.00  0.00     0.074 A 
ATOM     15  C   UNL A   1      39.159  29.499  29.183  1.00  0.00     0.049 A 
ATOM     16  N   UNL A   1      39.730  30.437  31.982  1.00  0.00    -0.248 NA
ATOM     17  C   UNL A   1      37.773  31.705  31.918  1.00  0.00     0.031 C 
ATOM     18  C   UNL A   1      38.961  29.052  27.803  1.00  0.00     0.029 A 
ATOM     19  N   UNL A   1      40.311  28.866  29.577  1.00  0.00    -0.354 N 
ATOM     20  C   UNL A   1      39.601  31.148  33.169  1.00  0.00     0.074 A 
ATOM     21  C   UNL A   1      38.405  31.953  33.057  1.00  0.00     0.031 C 
ATOM     22  C   UNL A   1      39.950  28.204  27.471  1.00  0.00     0.029 A 
ATOM     23  C   UNL A   1      40.861  28.064  28.605  1.00  0.00     0.049 A 
ATOM     24  H   UNL A   1      40.707  28.976  30.471  1.00  0.00     0.167 HD
ATOM     25  C   UNL A   1      40.386  31.109  34.269  1.00  0.00     0.034 A 
ATOM     26  C   UNL A   1      41.969  27.299  28.625  1.00  0.00     0.034 A 
ATOM     27  C   UNL A   1      41.526  30.251  34.416  1.00  0.00     0.049 A 
ATOM     28  C   UNL A   1      42.797  27.233  29.878  1.00  0.00     0.074 A 
ATOM     29  C   UNL A   1      42.333  30.080  35.526  1.00  0.00     0.029 A 
ATOM     30  N   UNL A   1      42.013  29.409  33.429  1.00  0.00    -0.354 N 
ATOM     31  N   UNL A   1      42.598  27.833  31.027  1.00  0.00    -0.248 NA
ATOM     32  C   UNL A   1      43.986  26.368  29.850  1.00  0.00     0.031 C 
ATOM     33  C   UNL A   1      43.311  29.131  35.210  1.00  0.00     0.029 A 
ATOM     34  C   UNL A   1      43.109  28.713  33.905  1.00  0.00     0.049 A 
ATOM     35  H   UNL A   1      41.636  29.321  32.524  1.00  0.00     0.167 HD
ATOM     36  C   UNL A   1      43.622  27.406  31.862  1.00  0.00     0.074 A 
ATOM     37  C   UNL A   1      44.434  26.483  31.096  1.00  0.00     0.031 C 
ATOM     38  C   UNL A   1      43.874  27.761  33.145  1.00  0.00     0.034 A 
BRANCH  25  39
ATOM     39  C   UNL A   1      39.994  31.961  35.443  1.00  0.00     0.023 A 
ATOM     40  C   UNL A   1      40.526  33.261  35.553  1.00  0.00     0.012 A 
ATOM     41  C   UNL A   1      39.042  31.516  36.380  1.00  0.00     0.148 A 
ATOM     42  C   UNL A   1      40.127  34.104  36.589  1.00  0.00     0.002 A 
ATOM     43  C   UNL A   1      38.626  32.373  37.392  1.00  0.00     0.091 A 
ATOM     44  F   UNL A   1      38.563  30.270  36.260  1.00  0.00    -0.205 F 
ATOM     45  C   UNL A   1      39.171  33.664  37.500  1.00  0.00     0.022 A 
BRANCH  43  46
ATOM     46  S   UNL A   1      37.362  31.928  38.588  1.00  0.00     0.127 S 
ATOM     47  O   UNL A   1      37.076  30.543  38.213  1.00  0.00    -0.237 OA
ATOM     48  O   UNL A   1      38.074  32.083  39.857  1.00  0.00    -0.237 OA
ATOM     49  O   UNL A   1      36.264  32.862  38.384  1.00  0.00    -0.744 OA
ENDBRANCH  43  46
ENDBRANCH  25  39
BRANCH  26  50
ATOM     50  C   UNL A   1      42.304  26.468  27.437  1.00  0.00     0.023 A 
ATOM     51  C   UNL A   1      43.051  27.042  26.391  1.00  0.00     0.012 A 
ATOM     52  C   UNL A   1      41.952  25.106  27.370  1.00  0.00     0.148 A 
ATOM     53  C   UNL A   1      43.438  26.275  25.292  1.00  0.00     0.002 A 
ATOM     54  C   UNL A   1      42.374  24.339  26.291  1.00  0.00     0.091 A 
ATOM     55  F   UNL A   1      41.238  24.587  28.378  1.00  0.00    -0.205 F 
ATOM     56  C   UNL A   1      43.107  24.922  25.246  1.00  0.00     0.022 A 
BRANCH  54  57
ATOM     57  S   UNL A   1      42.091  22.567  26.191  1.00  0.00     0.127 S 
ATOM     58  O   UNL A   1      42.728  22.234  24.919  1.00  0.00    -0.237 OA
ATOM     59  O   UNL A   1      42.798  22.085  27.379  1.00  0.00    -0.237 OA
ATOM     60  O   UNL A   1      40.647  22.391  26.233  1.00  0.00    -0.744 OA
ENDBRANCH  54  57
ENDBRANCH  26  50
BRANCH  38  61
ATOM     61  C   UNL A   1      45.072  27.159  33.825  1.00  0.00     0.023 A 
ATOM     62  C   UNL A   1      46.298  27.849  33.792  1.00  0.00     0.012 A 
ATOM     63  C   UNL A   1      44.946  25.997  34.611  1.00  0.00     0.148 A 
ATOM     64  C   UNL A   1      47.387  27.390  34.530  1.00  0.00     0.002 A 
ATOM     65  C   UNL A   1      46.026  25.562  35.370  1.00  0.00     0.091 A 
ATOM     66  F   UNL A   1      43.768  25.356  34.619  1.00  0.00    -0.205 F 
ATOM     67  C   UNL A   1      47.248  26.255  35.327  1.00  0.00     0.022 A 
BRANCH  65  68
ATOM     68  S   UNL A   1      45.924  24.160  36.487  1.00  0.00     0.127 S 
ATOM     69  O   UNL A   1      47.243  24.185  37.117  1.00  0.00    -0.237 OA
ATOM     70  O   UNL A   1      44.820  24.546  37.366  1.00  0.00    -0.237 OA
ATOM     71  O   UNL A   1      45.658  22.996  35.652  1.00  0.00    -0.744 OA
ENDBRANCH  65  68
ENDBRANCH  38  61
ENDBRANCH  12  13
ENDBRANCH   5   7
ENDBRANCH   2   3
ENDBRANCH   1   2
BRANCH   1  72
ATOM     72  C   UNL A   1      32.363  28.310  25.710  1.00  0.00     0.002 C 
BRANCH  72  73
ATOM     73  C   UNL A   1      33.711  28.032  25.039  1.00  0.00     0.002 C 
BRANCH  73  74
ATOM     74  C   UNL A   1      33.683  28.017  23.504  1.00  0.00     0.021 C 
BRANCH  74  75
ATOM     75  C   UNL A   1      32.356  27.543  22.903  1.00  0.00     0.116 C 
BRANCH  75  76
ATOM     76  N   UNL A   1      32.592  26.845  21.655  1.00  0.00    -0.356 N 
ATOM     77  C   UNL A   1      32.737  25.520  21.378  1.00  0.00     0.228 C 
ATOM     78  H   UNL A   1      32.658  27.433  20.868  1.00  0.00     0.163 HD
ATOM     79  O   UNL A   1      33.123  25.252  20.237  1.00  0.00    -0.274 OA
BRANCH  77  80
ATOM     80  C   UNL A   1      32.321  24.448  22.396  1.00  0.00     0.120 C 
ATOM     81  C   UNL A   1      30.947  24.709  23.039  1.00  0.00     0.093 C 
ATOM     82  C   UNL A   1      33.323  24.296  23.526  1.00  0.00    -0.021 A 
ATOM     83  S   UNL A   1      31.101  24.874  24.838  1.00  0.00    -0.125 SA
ATOM     84  C   UNL A   1      32.824  24.525  24.807  1.00  0.00     0.011 A 
ATOM     85  C   UNL A   1      34.675  23.993  23.358  1.00  0.00     0.006 A 
ATOM     86  C   UNL A   1      33.649  24.485  25.922  1.00  0.00     0.015 A 
ATOM     87  C   UNL A   1      35.516  23.962  24.473  1.00  0.00     0.000 A 
ATOM     88  C   UNL A   1      35.005  24.211  25.751  1.00  0.00     0.001 A 
ENDBRANCH  77  80
ENDBRANCH  75  76
ENDBRANCH  74  75
ENDBRANCH  73  74
ENDBRANCH  72  73
ENDBRANCH   1  72
TORSDOF 16
ENDMDL
