MODEL 1
REMARK VINA RESULT:     -11.1      0.000      0.000
REMARK SMILES C[C@@H](C(=O)NCCCCCCNC(=O)c1ccc(-c2c3nc(c(-c4cccc(S(=O)(=O)[O-])c4F)c4ccc([nH]4)c(-c4cccc(S(=O)(=O)[O-])c4F)c4nc(c(-c5cccc(S(=O)(=O)[O-])c5F)c5ccc2[nH]5)C=C4)C=C3)cc1)c1ccc(Cc2ccco2)cc1F
REMARK SMILES IDX 8 1 7 2 6 3 5 4 3 5 4 6 2 8 1 9 78 10 79 11 89 12 80 13
REMARK SMILES IDX 88 14 90 15 81 16 82 17 83 18 84 19 87 20 85 21 86 22 9 23
REMARK SMILES IDX 10 24 11 25 12 26 13 27 14 29 15 30 16 31 77 32 17 33 76 34
REMARK SMILES IDX 18 35 19 36 20 37 70 38 21 39 75 40 69 41 71 42 22 43 74 44
REMARK SMILES IDX 68 45 67 46 23 48 55 49 35 50 54 51 36 52 39 53 53 54 72 55
REMARK SMILES IDX 37 56 38 57 52 59 73 60 40 61 24 62 25 63 33 64 26 65 28 66
REMARK SMILES IDX 34 67 27 68 29 69 30 70 31 71 32 72 56 73 57 74 65 75 58 76
REMARK SMILES IDX 60 77 66 78 59 79 61 80 62 81 63 82 64 83 41 84 42 85 50 86
REMARK SMILES IDX 43 87 45 88 51 89 44 90 46 91 47 92 48 93 49 94
REMARK H PARENT 5 7 12 28 71 47 39 58
REMARK Flexibility Score: inf
ROOT
ATOM      1  C   UNL A   1      31.836  29.068  26.117  1.00  0.00     0.002 C 
ENDROOT
BRANCH   1   2
ATOM      2  C   UNL A   1      32.691  29.416  24.891  1.00  0.00     0.021 C 
BRANCH   2   3
ATOM      3  C   UNL A   1      33.788  28.394  24.586  1.00  0.00     0.116 C 
BRANCH   3   4
ATOM      4  N   UNL A   1      33.649  27.225  25.430  1.00  0.00    -0.356 N 
ATOM      5  C   UNL A   1      33.052  26.024  25.189  1.00  0.00     0.227 C 
ATOM      6  O   UNL A   1      33.071  25.207  26.113  1.00  0.00    -0.274 OA
ATOM      7  H   UNL A   1      34.054  27.313  26.323  1.00  0.00     0.163 HD
BRANCH   5   8
ATOM      8  C   UNL A   1      32.483  25.713  23.795  1.00  0.00     0.108 C 
ATOM      9  C   UNL A   1      33.471  25.944  22.645  1.00  0.00     0.023 C 
BRANCH   8  10
ATOM     10  C   UNL A   1      31.202  26.486  23.511  1.00  0.00    -0.000 A 
ATOM     11  C   UNL A   1      31.176  27.471  22.515  1.00  0.00     0.008 A 
ATOM     12  C   UNL A   1      30.034  26.259  24.248  1.00  0.00     0.127 A 
ATOM     13  C   UNL A   1      30.018  28.219  22.290  1.00  0.00     0.005 A 
ATOM     14  C   UNL A   1      28.881  27.011  24.038  1.00  0.00     0.043 A 
ATOM     15  F   UNL A   1      30.010  25.318  25.203  1.00  0.00    -0.207 F 
ATOM     16  C   UNL A   1      28.864  28.013  23.062  1.00  0.00    -0.038 A 
BRANCH  16  17
ATOM     17  C   UNL A   1      27.630  28.863  22.858  1.00  0.00     0.111 C 
BRANCH  17  18
ATOM     18  C   UNL A   1      27.921  30.323  22.771  1.00  0.00     0.108 A 
ATOM     19  C   UNL A   1      28.285  31.282  23.695  1.00  0.00     0.046 A 
ATOM     20  O   UNL A   1      27.859  30.885  21.527  1.00  0.00    -0.469 OA
ATOM     21  C   UNL A   1      28.439  32.494  22.982  1.00  0.00     0.042 A 
ATOM     22  C   UNL A   1      28.170  32.199  21.668  1.00  0.00     0.195 A 
ENDBRANCH  17  18
ENDBRANCH  16  17
ENDBRANCH   8  10
ENDBRANCH   5   8
ENDBRANCH   3   4
ENDBRANCH   2   3
ENDBRANCH   1   2
BRANCH   1  23
ATOM     23  C   UNL A   1      31.878  30.098  27.250  1.00  0.00     0.002 C 
BRANCH  23  24
ATOM     24  C   UNL A   1      31.710  31.552  26.808  1.00  0.00     0.021 C 
BRANCH  24  25
ATOM     25  C   UNL A   1      32.967  32.404  26.944  1.00  0.00     0.116 C 
BRANCH  25  26
ATOM     26  N   UNL A   1      32.667  33.739  27.438  1.00  0.00    -0.352 N 
ATOM     27  C   UNL A   1      33.168  34.382  28.539  1.00  0.00     0.251 C 
ATOM     28  H   UNL A   1      32.013  34.250  26.908  1.00  0.00     0.163 HD
ATOM     29  O   UNL A   1      32.650  35.435  28.918  1.00  0.00    -0.269 OA
BRANCH  27  30
ATOM     30  C   UNL A   1      34.318  33.815  29.274  1.00  0.00     0.039 A 
ATOM     31  C   UNL A   1      35.602  34.290  28.992  1.00  0.00     0.014 A 
ATOM     32  C   UNL A   1      34.139  32.796  30.213  1.00  0.00     0.014 A 
ATOM     33  C   UNL A   1      36.701  33.758  29.669  1.00  0.00     0.010 A 
ATOM     34  C   UNL A   1      35.226  32.325  30.945  1.00  0.00     0.010 A 
ATOM     35  C   UNL A   1      36.522  32.778  30.659  1.00  0.00    -0.014 A 
BRANCH  35  36
ATOM     36  C   UNL A   1      37.684  32.187  31.371  1.00  0.00     0.031 A 
ATOM     37  C   UNL A   1      38.498  31.104  30.712  1.00  0.00     0.074 A 
ATOM     38  C   UNL A   1      37.969  32.576  32.628  1.00  0.00     0.049 A 
ATOM     39  N   UNL A   1      39.536  30.457  31.174  1.00  0.00    -0.248 NA
ATOM     40  C   UNL A   1      38.075  30.669  29.370  1.00  0.00     0.031 C 
ATOM     41  C   UNL A   1      37.208  33.557  33.404  1.00  0.00     0.029 A 
ATOM     42  N   UNL A   1      38.967  32.180  33.483  1.00  0.00    -0.354 N 
ATOM     43  C   UNL A   1      39.860  29.515  30.204  1.00  0.00     0.074 A 
ATOM     44  C   UNL A   1      38.888  29.648  29.144  1.00  0.00     0.031 C 
ATOM     45  C   UNL A   1      37.775  33.697  34.613  1.00  0.00     0.029 A 
ATOM     46  C   UNL A   1      38.925  32.801  34.708  1.00  0.00     0.049 A 
ATOM     47  H   UNL A   1      39.650  31.513  33.240  1.00  0.00     0.167 HD
ATOM     48  C   UNL A   1      40.893  28.638  30.181  1.00  0.00     0.034 A 
ATOM     49  C   UNL A   1      39.726  32.669  35.784  1.00  0.00     0.034 A 
ATOM     50  C   UNL A   1      41.893  28.549  31.211  1.00  0.00     0.049 A 
ATOM     51  C   UNL A   1      40.905  31.735  35.705  1.00  0.00     0.074 A 
ATOM     52  C   UNL A   1      43.034  27.768  31.237  1.00  0.00     0.029 A 
ATOM     53  N   UNL A   1      41.868  29.263  32.398  1.00  0.00    -0.354 N 
ATOM     54  N   UNL A   1      41.291  30.973  34.711  1.00  0.00    -0.248 NA
ATOM     55  C   UNL A   1      41.783  31.677  36.882  1.00  0.00     0.031 C 
ATOM     56  C   UNL A   1      43.688  27.992  32.453  1.00  0.00     0.029 A 
ATOM     57  C   UNL A   1      42.970  28.937  33.169  1.00  0.00     0.049 A 
ATOM     58  H   UNL A   1      41.170  29.908  32.655  1.00  0.00     0.167 HD
ATOM     59  C   UNL A   1      42.481  30.382  35.122  1.00  0.00     0.074 A 
ATOM     60  C   UNL A   1      42.759  30.887  36.451  1.00  0.00     0.031 C 
ATOM     61  C   UNL A   1      43.266  29.494  34.463  1.00  0.00     0.034 A 
BRANCH  48  62
ATOM     62  C   UNL A   1      41.023  27.738  28.979  1.00  0.00     0.023 A 
ATOM     63  C   UNL A   1      40.145  26.645  28.826  1.00  0.00     0.012 A 
ATOM     64  C   UNL A   1      41.978  28.001  27.978  1.00  0.00     0.148 A 
ATOM     65  C   UNL A   1      40.241  25.806  27.717  1.00  0.00     0.002 A 
ATOM     66  C   UNL A   1      42.035  27.188  26.851  1.00  0.00     0.091 A 
ATOM     67  F   UNL A   1      42.820  29.030  28.150  1.00  0.00    -0.205 F 
ATOM     68  C   UNL A   1      41.177  26.083  26.725  1.00  0.00     0.022 A 
BRANCH  66  69
ATOM     69  S   UNL A   1      43.150  27.512  25.480  1.00  0.00     0.127 S 
ATOM     70  O   UNL A   1      43.432  26.159  25.004  1.00  0.00    -0.237 OA
ATOM     71  O   UNL A   1      42.313  28.311  24.584  1.00  0.00    -0.237 OA
ATOM     72  O   UNL A   1      44.285  28.226  26.046  1.00  0.00    -0.744 OA
ENDBRANCH  66  69
ENDBRANCH  48  62
BRANCH  49  73
ATOM     73  C   UNL A   1      39.496  33.507  36.994  1.00  0.00     0.023 A 
ATOM     74  C   UNL A   1      39.985  34.829  37.021  1.00  0.00     0.012 A 
ATOM     75  C   UNL A   1      38.782  33.018  38.104  1.00  0.00     0.148 A 
ATOM     76  C   UNL A   1      39.802  35.634  38.145  1.00  0.00     0.002 A 
ATOM     77  C   UNL A   1      38.556  33.843  39.200  1.00  0.00     0.091 A 
ATOM     78  F   UNL A   1      38.331  31.756  38.064  1.00  0.00    -0.205 F 
ATOM     79  C   UNL A   1      39.080  35.145  39.230  1.00  0.00     0.022 A 
BRANCH  77  80
ATOM     80  S   UNL A   1      37.530  33.344  40.587  1.00  0.00     0.127 S 
ATOM     81  O   UNL A   1      38.305  32.243  41.152  1.00  0.00    -0.237 OA
ATOM     82  O   UNL A   1      37.506  34.562  41.399  1.00  0.00    -0.237 OA
ATOM     83  O   UNL A   1      36.241  32.983  40.013  1.00  0.00    -0.744 OA
ENDBRANCH  77  80
ENDBRANCH  49  73
BRANCH  61  84
ATOM     84  C   UNL A   1      44.535  29.048  35.141  1.00  0.00     0.023 A 
ATOM     85  C   UNL A   1      45.733  29.762  34.939  1.00  0.00     0.012 A 
ATOM     86  C   UNL A   1      44.523  27.959  36.034  1.00  0.00     0.148 A 
ATOM     87  C   UNL A   1      46.906  29.375  35.586  1.00  0.00     0.002 A 
ATOM     88  C   UNL A   1      45.683  27.612  36.716  1.00  0.00     0.091 A 
ATOM     89  F   UNL A   1      43.379  27.278  36.199  1.00  0.00    -0.205 F 
ATOM     90  C   UNL A   1      46.878  28.310  36.483  1.00  0.00     0.022 A 
BRANCH  88  91
ATOM     91  S   UNL A   1      45.710  26.319  37.963  1.00  0.00     0.127 S 
ATOM     92  O   UNL A   1      45.070  26.985  39.097  1.00  0.00    -0.237 OA
ATOM     93  O   UNL A   1      44.905  25.267  37.340  1.00  0.00    -0.237 OA
ATOM     94  O   UNL A   1      47.112  25.972  38.148  1.00  0.00    -0.744 OA
ENDBRANCH  88  91
ENDBRANCH  61  84
ENDBRANCH  35  36
ENDBRANCH  27  30
ENDBRANCH  25  26
ENDBRANCH  24  25
ENDBRANCH  23  24
ENDBRANCH   1  23
TORSDOF 19
ENDMDL
MODEL 2
REMARK VINA RESULT:     -11.1      6.202      9.365
REMARK SMILES C[C@@H](C(=O)NCCCCCCNC(=O)c1ccc(-c2c3nc(c(-c4cccc(S(=O)(=O)[O-])c4F)c4ccc([nH]4)c(-c4cccc(S(=O)(=O)[O-])c4F)c4nc(c(-c5cccc(S(=O)(=O)[O-])c5F)c5ccc2[nH]5)C=C4)C=C3)cc1)c1ccc(Cc2ccco2)cc1F
REMARK SMILES IDX 8 1 7 2 6 3 5 4 3 5 4 6 2 8 1 9 78 10 79 11 89 12 80 13
REMARK SMILES IDX 88 14 90 15 81 16 82 17 83 18 84 19 87 20 85 21 86 22 9 23
REMARK SMILES IDX 10 24 11 25 12 26 13 27 14 29 15 30 16 31 77 32 17 33 76 34
REMARK SMILES IDX 18 35 19 36 20 37 70 38 21 39 75 40 69 41 71 42 22 43 74 44
REMARK SMILES IDX 68 45 67 46 23 48 55 49 35 50 54 51 36 52 39 53 53 54 72 55
REMARK SMILES IDX 37 56 38 57 52 59 73 60 40 61 24 62 25 63 33 64 26 65 28 66
REMARK SMILES IDX 34 67 27 68 29 69 30 70 31 71 32 72 56 73 57 74 65 75 58 76
REMARK SMILES IDX 60 77 66 78 59 79 61 80 62 81 63 82 64 83 41 84 42 85 50 86
REMARK SMILES IDX 43 87 45 88 51 89 44 90 46 91 47 92 48 93 49 94
REMARK H PARENT 5 7 12 28 71 47 39 58
REMARK Flexibility Score: inf
ROOT
ATOM      1  C   UNL A   1      35.910  21.099  25.325  1.00  0.00     0.002 C 
ENDROOT
BRANCH   1   2
ATOM      2  C   UNL A   1      34.935  20.003  24.875  1.00  0.00     0.021 C 
BRANCH   2   3
ATOM      3  C   UNL A   1      33.562  20.075  25.547  1.00  0.00     0.116 C 
BRANCH   3   4
ATOM      4  N   UNL A   1      32.669  20.936  24.799  1.00  0.00    -0.356 N 
ATOM      5  C   UNL A   1      32.288  22.226  25.023  1.00  0.00     0.227 C 
ATOM      6  O   UNL A   1      31.489  22.708  24.217  1.00  0.00    -0.274 OA
ATOM      7  H   UNL A   1      32.273  20.522  23.999  1.00  0.00     0.163 HD
BRANCH   5   8
ATOM      8  C   UNL A   1      32.922  23.027  26.172  1.00  0.00     0.108 C 
ATOM      9  C   UNL A   1      32.316  22.738  27.551  1.00  0.00     0.023 C 
BRANCH   8  10
ATOM     10  C   UNL A   1      32.880  24.528  25.916  1.00  0.00    -0.000 A 
ATOM     11  C   UNL A   1      31.817  25.300  26.404  1.00  0.00     0.008 A 
ATOM     12  C   UNL A   1      33.877  25.169  25.171  1.00  0.00     0.127 A 
ATOM     13  C   UNL A   1      31.750  26.667  26.125  1.00  0.00     0.005 A 
ATOM     14  C   UNL A   1      33.808  26.529  24.878  1.00  0.00     0.043 A 
ATOM     15  F   UNL A   1      34.919  24.472  24.696  1.00  0.00    -0.207 F 
ATOM     16  C   UNL A   1      32.732  27.293  25.341  1.00  0.00    -0.038 A 
BRANCH  16  17
ATOM     17  C   UNL A   1      32.628  28.760  24.990  1.00  0.00     0.111 C 
BRANCH  17  18
ATOM     18  C   UNL A   1      31.533  29.064  24.025  1.00  0.00     0.108 A 
ATOM     19  C   UNL A   1      31.230  28.622  22.752  1.00  0.00     0.046 A 
ATOM     20  O   UNL A   1      30.573  29.941  24.446  1.00  0.00    -0.469 OA
ATOM     21  C   UNL A   1      30.034  29.273  22.371  1.00  0.00     0.042 A 
ATOM     22  C   UNL A   1      29.674  30.063  23.436  1.00  0.00     0.195 A 
ENDBRANCH  17  18
ENDBRANCH  16  17
ENDBRANCH   8  10
ENDBRANCH   5   8
ENDBRANCH   3   4
ENDBRANCH   2   3
ENDBRANCH   1   2
BRANCH   1  23
ATOM     23  C   UNL A   1      37.240  21.137  24.567  1.00  0.00     0.002 C 
BRANCH  23  24
ATOM     24  C   UNL A   1      38.225  20.027  24.936  1.00  0.00     0.021 C 
BRANCH  24  25
ATOM     25  C   UNL A   1      39.132  20.352  26.118  1.00  0.00     0.116 C 
BRANCH  25  26
ATOM     26  N   UNL A   1      40.360  19.574  26.091  1.00  0.00    -0.352 N 
ATOM     27  C   UNL A   1      41.655  20.004  26.208  1.00  0.00     0.251 C 
ATOM     28  H   UNL A   1      40.244  18.603  25.971  1.00  0.00     0.163 HD
ATOM     29  O   UNL A   1      42.581  19.227  25.961  1.00  0.00    -0.269 OA
BRANCH  27  30
ATOM     30  C   UNL A   1      41.945  21.393  26.621  1.00  0.00     0.039 A 
ATOM     31  C   UNL A   1      42.058  22.381  25.639  1.00  0.00     0.014 A 
ATOM     32  C   UNL A   1      42.138  21.718  27.967  1.00  0.00     0.014 A 
ATOM     33  C   UNL A   1      42.342  23.697  26.010  1.00  0.00     0.010 A 
ATOM     34  C   UNL A   1      42.340  23.044  28.341  1.00  0.00     0.010 A 
ATOM     35  C   UNL A   1      42.475  24.042  27.364  1.00  0.00    -0.014 A 
BRANCH  35  36
ATOM     36  C   UNL A   1      42.800  25.433  27.773  1.00  0.00     0.031 A 
ATOM     37  C   UNL A   1      44.223  25.923  27.709  1.00  0.00     0.074 A 
ATOM     38  C   UNL A   1      41.831  26.233  28.258  1.00  0.00     0.049 A 
ATOM     39  N   UNL A   1      44.707  27.094  28.033  1.00  0.00    -0.248 NA
ATOM     40  C   UNL A   1      45.243  24.964  27.249  1.00  0.00     0.031 C 
ATOM     41  C   UNL A   1      40.430  25.850  28.445  1.00  0.00     0.029 A 
ATOM     42  N   UNL A   1      41.881  27.531  28.700  1.00  0.00    -0.354 N 
ATOM     43  C   UNL A   1      46.083  26.998  27.859  1.00  0.00     0.074 A 
ATOM     44  C   UNL A   1      46.363  25.645  27.436  1.00  0.00     0.031 C 
ATOM     45  C   UNL A   1      39.752  26.894  28.948  1.00  0.00     0.029 A 
ATOM     46  C   UNL A   1      40.671  28.012  29.141  1.00  0.00     0.049 A 
ATOM     47  H   UNL A   1      42.707  28.069  28.700  1.00  0.00     0.167 HD
ATOM     48  C   UNL A   1      47.028  27.959  28.005  1.00  0.00     0.034 A 
ATOM     49  C   UNL A   1      40.339  29.219  29.639  1.00  0.00     0.034 A 
ATOM     50  C   UNL A   1      46.738  29.319  28.369  1.00  0.00     0.049 A 
ATOM     51  C   UNL A   1      41.397  30.287  29.729  1.00  0.00     0.074 A 
ATOM     52  C   UNL A   1      47.608  30.392  28.447  1.00  0.00     0.029 A 
ATOM     53  N   UNL A   1      45.484  29.793  28.719  1.00  0.00    -0.354 N 
ATOM     54  N   UNL A   1      42.664  30.226  29.400  1.00  0.00    -0.248 NA
ATOM     55  C   UNL A   1      40.967  31.606  30.218  1.00  0.00     0.031 C 
ATOM     56  C   UNL A   1      46.882  31.511  28.868  1.00  0.00     0.029 A 
ATOM     57  C   UNL A   1      45.555  31.141  29.021  1.00  0.00     0.049 A 
ATOM     58  H   UNL A   1      44.664  29.250  28.748  1.00  0.00     0.167 HD
ATOM     59  C   UNL A   1      43.172  31.505  29.596  1.00  0.00     0.074 A 
ATOM     60  C   UNL A   1      42.071  32.325  30.058  1.00  0.00     0.031 C 
ATOM     61  C   UNL A   1      44.439  31.958  29.420  1.00  0.00     0.034 A 
BRANCH  48  62
ATOM     62  C   UNL A   1      48.460  27.583  27.724  1.00  0.00     0.023 A 
ATOM     63  C   UNL A   1      49.232  26.966  28.730  1.00  0.00     0.012 A 
ATOM     64  C   UNL A   1      49.026  27.792  26.452  1.00  0.00     0.148 A 
ATOM     65  C   UNL A   1      50.556  26.601  28.488  1.00  0.00     0.002 A 
ATOM     66  C   UNL A   1      50.331  27.381  26.203  1.00  0.00     0.091 A 
ATOM     67  F   UNL A   1      48.286  28.400  25.513  1.00  0.00    -0.205 F 
ATOM     68  C   UNL A   1      51.101  26.799  27.222  1.00  0.00     0.022 A 
BRANCH  66  69
ATOM     69  S   UNL A   1      51.096  27.514  24.582  1.00  0.00     0.127 S 
ATOM     70  O   UNL A   1      51.164  28.964  24.407  1.00  0.00    -0.237 OA
ATOM     71  O   UNL A   1      52.389  26.865  24.797  1.00  0.00    -0.237 OA
ATOM     72  O   UNL A   1      50.210  26.815  23.663  1.00  0.00    -0.744 OA
ENDBRANCH  66  69
ENDBRANCH  48  62
BRANCH  49  73
ATOM     73  C   UNL A   1      38.925  29.514  30.004  1.00  0.00     0.023 A 
ATOM     74  C   UNL A   1      38.467  29.201  31.300  1.00  0.00     0.012 A 
ATOM     75  C   UNL A   1      38.039  30.118  29.091  1.00  0.00     0.148 A 
ATOM     76  C   UNL A   1      37.145  29.448  31.668  1.00  0.00     0.002 A 
ATOM     77  C   UNL A   1      36.737  30.412  29.482  1.00  0.00     0.091 A 
ATOM     78  F   UNL A   1      38.489  30.402  27.861  1.00  0.00    -0.205 F 
ATOM     79  C   UNL A   1      36.283  30.062  30.763  1.00  0.00     0.022 A 
BRANCH  77  80
ATOM     80  S   UNL A   1      35.595  31.314  28.429  1.00  0.00     0.127 S 
ATOM     81  O   UNL A   1      35.250  30.306  27.429  1.00  0.00    -0.237 OA
ATOM     82  O   UNL A   1      34.521  31.649  29.365  1.00  0.00    -0.237 OA
ATOM     83  O   UNL A   1      36.340  32.465  27.937  1.00  0.00    -0.744 OA
ENDBRANCH  77  80
ENDBRANCH  49  73
BRANCH  61  84
ATOM     84  C   UNL A   1      44.699  33.420  29.672  1.00  0.00     0.023 A 
ATOM     85  C   UNL A   1      45.124  33.853  30.944  1.00  0.00     0.012 A 
ATOM     86  C   UNL A   1      44.589  34.356  28.625  1.00  0.00     0.148 A 
ATOM     87  C   UNL A   1      45.398  35.200  31.178  1.00  0.00     0.002 A 
ATOM     88  C   UNL A   1      44.914  35.688  28.852  1.00  0.00     0.091 A 
ATOM     89  F   UNL A   1      44.164  33.930  27.426  1.00  0.00    -0.205 F 
ATOM     90  C   UNL A   1      45.305  36.114  30.131  1.00  0.00     0.022 A 
BRANCH  88  91
ATOM     91  S   UNL A   1      44.920  36.910  27.535  1.00  0.00     0.127 S 
ATOM     92  O   UNL A   1      43.516  36.917  27.128  1.00  0.00    -0.237 OA
ATOM     93  O   UNL A   1      45.358  38.119  28.234  1.00  0.00    -0.237 OA
ATOM     94  O   UNL A   1      45.862  36.418  26.539  1.00  0.00    -0.744 OA
ENDBRANCH  88  91
ENDBRANCH  61  84
ENDBRANCH  35  36
ENDBRANCH  27  30
ENDBRANCH  25  26
ENDBRANCH  24  25
ENDBRANCH  23  24
ENDBRANCH   1  23
TORSDOF 19
ENDMDL
MODEL 3
REMARK VINA RESULT:     -10.9      3.562      8.378
REMARK SMILES C[C@@H](C(=O)NCCCCCCNC(=O)c1ccc(-c2c3nc(c(-c4cccc(S(=O)(=O)[O-])c4F)c4ccc([nH]4)c(-c4cccc(S(=O)(=O)[O-])c4F)c4nc(c(-c5cccc(S(=O)(=O)[O-])c5F)c5ccc2[nH]5)C=C4)C=C3)cc1)c1ccc(Cc2ccco2)cc1F
REMARK SMILES IDX 8 1 7 2 6 3 5 4 3 5 4 6 2 8 1 9 78 10 79 11 89 12 80 13
REMARK SMILES IDX 88 14 90 15 81 16 82 17 83 18 84 19 87 20 85 21 86 22 9 23
REMARK SMILES IDX 10 24 11 25 12 26 13 27 14 29 15 30 16 31 77 32 17 33 76 34
REMARK SMILES IDX 18 35 19 36 20 37 70 38 21 39 75 40 69 41 71 42 22 43 74 44
REMARK SMILES IDX 68 45 67 46 23 48 55 49 35 50 54 51 36 52 39 53 53 54 72 55
REMARK SMILES IDX 37 56 38 57 52 59 73 60 40 61 24 62 25 63 33 64 26 65 28 66
REMARK SMILES IDX 34 67 27 68 29 69 30 70 31 71 32 72 56 73 57 74 65 75 58 76
REMARK SMILES IDX 60 77 66 78 59 79 61 80 62 81 63 82 64 83 41 84 42 85 50 86
REMARK SMILES IDX 43 87 45 88 51 89 44 90 46 91 47 92 48 93 49 94
REMARK H PARENT 5 7 12 28 71 47 39 58
REMARK Flexibility Score: inf
ROOT
ATOM      1  C   UNL A   1      31.323  26.392  26.074  1.00  0.00     0.002 C 
ENDROOT
BRANCH   1   2
ATOM      2  C   UNL A   1      32.307  25.469  26.806  1.00  0.00     0.021 C 
BRANCH   2   3
ATOM      3  C   UNL A   1      33.117  24.560  25.879  1.00  0.00     0.116 C 
BRANCH   3   4
ATOM      4  N   UNL A   1      32.365  23.369  25.544  1.00  0.00    -0.356 N 
ATOM      5  C   UNL A   1      32.166  22.754  24.343  1.00  0.00     0.227 C 
ATOM      6  O   UNL A   1      31.455  21.747  24.354  1.00  0.00    -0.274 OA
ATOM      7  H   UNL A   1      31.926  22.930  26.309  1.00  0.00     0.163 HD
BRANCH   5   8
ATOM      8  C   UNL A   1      32.889  23.268  23.087  1.00  0.00     0.108 C 
ATOM      9  C   UNL A   1      34.405  23.036  23.092  1.00  0.00     0.023 C 
BRANCH   8  10
ATOM     10  C   UNL A   1      32.613  24.744  22.829  1.00  0.00    -0.000 A 
ATOM     11  C   UNL A   1      33.674  25.652  22.713  1.00  0.00     0.008 A 
ATOM     12  C   UNL A   1      31.307  25.236  22.730  1.00  0.00     0.127 A 
ATOM     13  C   UNL A   1      33.422  27.014  22.530  1.00  0.00     0.005 A 
ATOM     14  C   UNL A   1      31.049  26.594  22.562  1.00  0.00     0.043 A 
ATOM     15  F   UNL A   1      30.261  24.401  22.823  1.00  0.00    -0.207 F 
ATOM     16  C   UNL A   1      32.108  27.504  22.475  1.00  0.00    -0.038 A 
BRANCH  16  17
ATOM     17  C   UNL A   1      31.836  28.985  22.336  1.00  0.00     0.111 C 
BRANCH  17  18
ATOM     18  C   UNL A   1      30.411  29.352  22.579  1.00  0.00     0.108 A 
ATOM     19  C   UNL A   1      29.712  29.792  23.686  1.00  0.00     0.046 A 
ATOM     20  O   UNL A   1      29.573  29.289  21.502  1.00  0.00    -0.469 OA
ATOM     21  C   UNL A   1      28.376  29.992  23.267  1.00  0.00     0.042 A 
ATOM     22  C   UNL A   1      28.343  29.674  21.931  1.00  0.00     0.195 A 
ENDBRANCH  17  18
ENDBRANCH  16  17
ENDBRANCH   8  10
ENDBRANCH   5   8
ENDBRANCH   3   4
ENDBRANCH   2   3
ENDBRANCH   1   2
BRANCH   1  23
ATOM     23  C   UNL A   1      31.427  27.875  26.442  1.00  0.00     0.002 C 
BRANCH  23  24
ATOM     24  C   UNL A   1      32.619  28.611  25.830  1.00  0.00     0.021 C 
BRANCH  24  25
ATOM     25  C   UNL A   1      33.700  29.006  26.830  1.00  0.00     0.116 C 
BRANCH  25  26
ATOM     26  N   UNL A   1      33.717  30.440  27.073  1.00  0.00    -0.352 N 
ATOM     27  C   UNL A   1      34.600  31.177  27.816  1.00  0.00     0.251 C 
ATOM     28  H   UNL A   1      32.993  30.951  26.644  1.00  0.00     0.163 HD
ATOM     29  O   UNL A   1      34.345  32.355  28.077  1.00  0.00    -0.269 OA
BRANCH  27  30
ATOM     30  C   UNL A   1      35.850  30.563  28.312  1.00  0.00     0.039 A 
ATOM     31  C   UNL A   1      35.834  29.888  29.536  1.00  0.00     0.014 A 
ATOM     32  C   UNL A   1      37.044  30.680  27.593  1.00  0.00     0.014 A 
ATOM     33  C   UNL A   1      37.008  29.312  30.025  1.00  0.00     0.010 A 
ATOM     34  C   UNL A   1      38.193  30.036  28.043  1.00  0.00     0.010 A 
ATOM     35  C   UNL A   1      38.195  29.371  29.278  1.00  0.00    -0.014 A 
BRANCH  35  36
ATOM     36  C   UNL A   1      39.457  28.783  29.796  1.00  0.00     0.031 A 
ATOM     37  C   UNL A   1      40.100  29.353  31.034  1.00  0.00     0.074 A 
ATOM     38  C   UNL A   1      40.056  27.782  29.123  1.00  0.00     0.049 A 
ATOM     39  N   UNL A   1      41.204  28.987  31.632  1.00  0.00    -0.248 NA
ATOM     40  C   UNL A   1      39.433  30.503  31.668  1.00  0.00     0.031 C 
ATOM     41  C   UNL A   1      39.576  27.198  27.869  1.00  0.00     0.029 A 
ATOM     42  N   UNL A   1      41.211  27.090  29.390  1.00  0.00    -0.354 N 
ATOM     43  C   UNL A   1      41.385  29.884  32.679  1.00  0.00     0.074 A 
ATOM     44  C   UNL A   1      40.299  30.833  32.614  1.00  0.00     0.031 C 
ATOM     45  C   UNL A   1      40.420  26.227  27.485  1.00  0.00     0.029 A 
ATOM     46  C   UNL A   1      41.512  26.134  28.450  1.00  0.00     0.049 A 
ATOM     47  H   UNL A   1      41.771  27.262  30.182  1.00  0.00     0.167 HD
ATOM     48  C   UNL A   1      42.351  29.898  33.629  1.00  0.00     0.034 A 
ATOM     49  C   UNL A   1      42.548  25.274  28.377  1.00  0.00     0.034 A 
ATOM     50  C   UNL A   1      43.397  28.916  33.725  1.00  0.00     0.049 A 
ATOM     51  C   UNL A   1      43.570  25.269  29.483  1.00  0.00     0.074 A 
ATOM     52  C   UNL A   1      44.363  28.781  34.705  1.00  0.00     0.029 A 
ATOM     53  N   UNL A   1      43.615  27.903  32.804  1.00  0.00    -0.354 N 
ATOM     54  N   UNL A   1      43.630  26.019  30.557  1.00  0.00    -0.248 NA
ATOM     55  C   UNL A   1      44.643  24.269  29.388  1.00  0.00     0.031 C 
ATOM     56  C   UNL A   1      45.182  27.699  34.364  1.00  0.00     0.029 A 
ATOM     57  C   UNL A   1      44.705  27.142  33.188  1.00  0.00     0.049 A 
ATOM     58  H   UNL A   1      43.075  27.749  31.996  1.00  0.00     0.167 HD
ATOM     59  C   UNL A   1      44.717  25.551  31.288  1.00  0.00     0.074 A 
ATOM     60  C   UNL A   1      45.275  24.442  30.542  1.00  0.00     0.031 C 
ATOM     61  C   UNL A   1      45.212  26.004  32.467  1.00  0.00     0.034 A 
BRANCH  48  62
ATOM     62  C   UNL A   1      42.291  30.983  34.673  1.00  0.00     0.023 A 
ATOM     63  C   UNL A   1      41.628  30.742  35.895  1.00  0.00     0.012 A 
ATOM     64  C   UNL A   1      42.933  32.220  34.470  1.00  0.00     0.148 A 
ATOM     65  C   UNL A   1      41.569  31.729  36.879  1.00  0.00     0.002 A 
ATOM     66  C   UNL A   1      42.912  33.180  35.475  1.00  0.00     0.091 A 
ATOM     67  F   UNL A   1      43.539  32.440  33.294  1.00  0.00    -0.205 F 
ATOM     68  C   UNL A   1      42.220  32.942  36.673  1.00  0.00     0.022 A 
BRANCH  66  69
ATOM     69  S   UNL A   1      43.790  34.742  35.340  1.00  0.00     0.127 S 
ATOM     70  O   UNL A   1      43.667  35.267  36.698  1.00  0.00    -0.237 OA
ATOM     71  O   UNL A   1      45.139  34.307  34.974  1.00  0.00    -0.237 OA
ATOM     72  O   UNL A   1      43.098  35.503  34.310  1.00  0.00    -0.744 OA
ENDBRANCH  66  69
ENDBRANCH  48  62
BRANCH  49  73
ATOM     73  C   UNL A   1      42.621  24.285  27.266  1.00  0.00     0.023 A 
ATOM     74  C   UNL A   1      43.329  24.616  26.093  1.00  0.00     0.012 A 
ATOM     75  C   UNL A   1      42.019  23.016  27.368  1.00  0.00     0.148 A 
ATOM     76  C   UNL A   1      43.402  23.719  25.027  1.00  0.00     0.002 A 
ATOM     77  C   UNL A   1      42.142  22.106  26.324  1.00  0.00     0.091 A 
ATOM     78  F   UNL A   1      41.343  22.722  28.487  1.00  0.00    -0.205 F 
ATOM     79  C   UNL A   1      42.817  22.461  25.147  1.00  0.00     0.022 A 
BRANCH  77  80
ATOM     80  S   UNL A   1      41.531  20.421  26.438  1.00  0.00     0.127 S 
ATOM     81  O   UNL A   1      42.001  20.020  27.761  1.00  0.00    -0.237 OA
ATOM     82  O   UNL A   1      40.084  20.616  26.329  1.00  0.00    -0.237 OA
ATOM     83  O   UNL A   1      42.125  19.711  25.313  1.00  0.00    -0.744 OA
ENDBRANCH  77  80
ENDBRANCH  49  73
BRANCH  61  84
ATOM     84  C   UNL A   1      46.388  25.271  33.058  1.00  0.00     0.023 A 
ATOM     85  C   UNL A   1      47.699  25.728  32.816  1.00  0.00     0.012 A 
ATOM     86  C   UNL A   1      46.187  24.169  33.912  1.00  0.00     0.148 A 
ATOM     87  C   UNL A   1      48.792  25.075  33.385  1.00  0.00     0.002 A 
ATOM     88  C   UNL A   1      47.277  23.556  34.517  1.00  0.00     0.091 A 
ATOM     89  F   UNL A   1      44.933  23.736  34.115  1.00  0.00    -0.205 F 
ATOM     90  C   UNL A   1      48.581  23.999  34.244  1.00  0.00     0.022 A 
BRANCH  88  91
ATOM     91  S   UNL A   1      47.087  22.231  35.715  1.00  0.00     0.127 S 
ATOM     92  O   UNL A   1      46.395  22.913  36.807  1.00  0.00    -0.237 OA
ATOM     93  O   UNL A   1      46.268  21.264  34.983  1.00  0.00    -0.237 OA
ATOM     94  O   UNL A   1      48.435  21.770  36.016  1.00  0.00    -0.744 OA
ENDBRANCH  88  91
ENDBRANCH  61  84
ENDBRANCH  35  36
ENDBRANCH  27  30
ENDBRANCH  25  26
ENDBRANCH  24  25
ENDBRANCH  23  24
ENDBRANCH   1  23
TORSDOF 19
ENDMDL
