MODEL 1
REMARK VINA RESULT:     -12.2      0.000      0.000
REMARK SMILES C/C(=N\Nc1ccccc1C(=O)NCCCCCCNC(=O)c1ccc(-c2c3nc(c(-c4cccc(S(=O)(=O)[O-])c4F)c4ccc([nH]4)c(-c4cccc(S(=O)(=O)[O-])c4F)c4nc(c(-c5cccc(S(=O)(=O)[O-])c5F)c5ccc2[nH]5)C=C4)C=C3)cc1)c1ccc(S(C)(=O)=O)cc1
REMARK SMILES IDX 16 1 15 2 14 3 13 4 11 5 12 6 10 8 5 9 6 10 7 11 9 12 8 13
REMARK SMILES IDX 4 14 3 16 1 17 2 18 86 19 87 20 95 21 88 22 94 23 89 24
REMARK SMILES IDX 90 25 91 26 92 27 93 28 17 29 18 30 19 31 20 32 21 33 22 35
REMARK SMILES IDX 23 36 24 37 85 38 25 39 84 40 26 41 27 42 28 43 78 44 29 45
REMARK SMILES IDX 83 46 77 47 79 48 30 49 82 50 76 51 75 52 31 54 63 55 43 56
REMARK SMILES IDX 62 57 44 58 47 59 61 60 80 61 45 62 46 63 60 65 81 66 48 67
REMARK SMILES IDX 32 68 33 69 41 70 34 71 36 72 42 73 35 74 37 75 38 76 39 77
REMARK SMILES IDX 40 78 64 79 65 80 73 81 66 82 68 83 74 84 67 85 69 86 70 87
REMARK SMILES IDX 71 88 72 89 49 90 50 91 58 92 51 93 53 94 59 95 52 96 54 97
REMARK SMILES IDX 55 98 56 99 57 100
REMARK H PARENT 13 7 4 15 20 34 79 53 47 64
REMARK Flexibility Score: inf
ROOT
ATOM      1  C   UNL A   1      32.215  28.370  25.679  1.00  0.00     0.002 C 
ENDROOT
BRANCH   1   2
ATOM      2  C   UNL A   1      31.426  27.381  26.549  1.00  0.00     0.021 C 
BRANCH   2   3
ATOM      3  C   UNL A   1      31.962  25.952  26.579  1.00  0.00     0.116 C 
BRANCH   3   4
ATOM      4  N   UNL A   1      30.948  24.962  26.891  1.00  0.00    -0.352 N 
ATOM      5  C   UNL A   1      31.041  23.590  26.912  1.00  0.00     0.253 C 
ATOM      6  O   UNL A   1      30.049  22.951  27.273  1.00  0.00    -0.269 OA
ATOM      7  H   UNL A   1      30.063  25.326  27.121  1.00  0.00     0.163 HD
BRANCH   5   8
ATOM      8  C   UNL A   1      32.231  22.845  26.409  1.00  0.00     0.064 A 
ATOM      9  C   UNL A   1      32.437  22.395  25.095  1.00  0.00     0.069 A 
ATOM     10  C   UNL A   1      33.572  21.586  24.842  1.00  0.00     0.028 A 
ATOM     11  C   UNL A   1      34.541  21.345  25.815  1.00  0.00     0.002 A 
ATOM     12  C   UNL A   1      33.240  22.629  27.374  1.00  0.00     0.016 A 
ATOM     13  C   UNL A   1      34.395  21.905  27.074  1.00  0.00     0.001 A 
BRANCH   9  14
ATOM     14  N   UNL A   1      31.753  22.819  23.939  1.00  0.00    -0.277 N 
ATOM     15  H   UNL A   1      31.788  22.213  23.164  1.00  0.00     0.190 HD
BRANCH  14  16
ATOM     16  N   UNL A   1      31.057  23.960  23.775  1.00  0.00    -0.180 NA
ATOM     17  C   UNL A   1      33.076  25.282  23.045  1.00  0.00     0.069 C 
ATOM     18  C   UNL A   1      31.613  25.052  23.335  1.00  0.00     0.065 C 
BRANCH  18  19
ATOM     19  C   UNL A   1      30.705  26.204  23.097  1.00  0.00    -0.002 A 
ATOM     20  C   UNL A   1      31.170  27.299  22.364  1.00  0.00     0.011 A 
ATOM     21  C   UNL A   1      29.432  26.229  23.671  1.00  0.00     0.011 A 
ATOM     22  C   UNL A   1      30.379  28.440  22.226  1.00  0.00     0.021 A 
ATOM     23  C   UNL A   1      28.625  27.358  23.515  1.00  0.00     0.021 A 
ATOM     24  C   UNL A   1      29.111  28.464  22.811  1.00  0.00     0.067 A 
BRANCH  24  25
ATOM     25  S   UNL A   1      28.073  29.890  22.595  1.00  0.00     0.175 S 
ATOM     26  C   UNL A   1      28.984  31.206  23.358  1.00  0.00     0.163 C 
ATOM     27  O   UNL A   1      27.999  30.157  21.166  1.00  0.00    -0.224 OA
ATOM     28  O   UNL A   1      26.865  29.672  23.362  1.00  0.00    -0.224 OA
ENDBRANCH  24  25
ENDBRANCH  18  19
ENDBRANCH  14  16
ENDBRANCH   9  14
ENDBRANCH   5   8
ENDBRANCH   3   4
ENDBRANCH   2   3
ENDBRANCH   1   2
BRANCH   1  29
ATOM     29  C   UNL A   1      31.650  29.788  25.552  1.00  0.00     0.002 C 
BRANCH  29  30
ATOM     30  C   UNL A   1      31.768  30.693  26.772  1.00  0.00     0.021 C 
BRANCH  30  31
ATOM     31  C   UNL A   1      33.093  31.422  26.900  1.00  0.00     0.116 C 
BRANCH  31  32
ATOM     32  N   UNL A   1      32.931  32.842  27.182  1.00  0.00    -0.352 N 
ATOM     33  C   UNL A   1      33.593  33.620  28.099  1.00  0.00     0.251 C 
ATOM     34  H   UNL A   1      32.253  33.307  26.640  1.00  0.00     0.163 HD
ATOM     35  O   UNL A   1      33.230  34.773  28.314  1.00  0.00    -0.269 OA
BRANCH  33  36
ATOM     36  C   UNL A   1      34.731  33.042  28.843  1.00  0.00     0.039 A 
ATOM     37  C   UNL A   1      34.486  32.321  30.014  1.00  0.00     0.014 A 
ATOM     38  C   UNL A   1      36.030  33.170  28.350  1.00  0.00     0.014 A 
ATOM     39  C   UNL A   1      35.542  31.670  30.653  1.00  0.00     0.010 A 
ATOM     40  C   UNL A   1      37.058  32.439  28.927  1.00  0.00     0.010 A 
ATOM     41  C   UNL A   1      36.829  31.692  30.092  1.00  0.00    -0.014 A 
BRANCH  41  42
ATOM     42  C   UNL A   1      37.968  30.963  30.703  1.00  0.00     0.031 A 
ATOM     43  C   UNL A   1      38.402  31.310  32.101  1.00  0.00     0.074 A 
ATOM     44  C   UNL A   1      38.678  30.084  29.968  1.00  0.00     0.049 A 
ATOM     45  N   UNL A   1      39.449  30.900  32.768  1.00  0.00    -0.248 NA
ATOM     46  C   UNL A   1      37.568  32.278  32.836  1.00  0.00     0.031 C 
ATOM     47  C   UNL A   1      38.397  29.717  28.578  1.00  0.00     0.029 A 
ATOM     48  N   UNL A   1      39.805  29.364  30.277  1.00  0.00    -0.354 N 
ATOM     49  C   UNL A   1      39.427  31.593  33.971  1.00  0.00     0.074 A 
ATOM     50  C   UNL A   1      38.285  32.479  33.931  1.00  0.00     0.031 C 
ATOM     51  C   UNL A   1      39.325  28.843  28.156  1.00  0.00     0.029 A 
ATOM     52  C   UNL A   1      40.290  28.620  29.226  1.00  0.00     0.049 A 
ATOM     53  H   UNL A   1      40.227  29.380  31.167  1.00  0.00     0.167 HD
ATOM     54  C   UNL A   1      40.265  31.483  35.028  1.00  0.00     0.034 A 
ATOM     55  C   UNL A   1      41.399  27.860  29.131  1.00  0.00     0.034 A 
ATOM     56  C   UNL A   1      41.370  30.566  35.078  1.00  0.00     0.049 A 
ATOM     57  C   UNL A   1      42.296  27.729  30.331  1.00  0.00     0.074 A 
ATOM     58  C   UNL A   1      42.229  30.313  36.131  1.00  0.00     0.029 A 
ATOM     59  N   UNL A   1      41.773  29.758  34.027  1.00  0.00    -0.354 N 
ATOM     60  N   UNL A   1      42.183  28.289  31.512  1.00  0.00    -0.248 NA
ATOM     61  C   UNL A   1      43.456  26.834  30.203  1.00  0.00     0.031 C 
ATOM     62  C   UNL A   1      43.173  29.374  35.706  1.00  0.00     0.029 A 
ATOM     63  C   UNL A   1      42.874  29.010  34.402  1.00  0.00     0.049 A 
ATOM     64  H   UNL A   1      41.340  29.722  33.143  1.00  0.00     0.167 HD
ATOM     65  C   UNL A   1      43.224  27.779  32.279  1.00  0.00     0.074 A 
ATOM     66  C   UNL A   1      43.955  26.858  31.432  1.00  0.00     0.031 C 
ATOM     67  C   UNL A   1      43.550  28.053  33.566  1.00  0.00     0.034 A 
BRANCH  54  68
ATOM     68  C   UNL A   1      39.995  32.347  36.232  1.00  0.00     0.023 A 
ATOM     69  C   UNL A   1      40.750  33.520  36.438  1.00  0.00     0.012 A 
ATOM     70  C   UNL A   1      38.959  32.027  37.131  1.00  0.00     0.148 A 
ATOM     71  C   UNL A   1      40.507  34.338  37.540  1.00  0.00     0.002 A 
ATOM     72  C   UNL A   1      38.688  32.875  38.198  1.00  0.00     0.091 A 
ATOM     73  F   UNL A   1      38.266  30.897  36.933  1.00  0.00    -0.205 F 
ATOM     74  C   UNL A   1      39.470  34.022  38.412  1.00  0.00     0.022 A 
BRANCH  72  75
ATOM     75  S   UNL A   1      37.320  32.602  39.330  1.00  0.00     0.127 S 
ATOM     76  O   UNL A   1      36.169  32.742  38.440  1.00  0.00    -0.237 OA
ATOM     77  O   UNL A   1      37.573  31.237  39.792  1.00  0.00    -0.237 OA
ATOM     78  O   UNL A   1      37.439  33.624  40.359  1.00  0.00    -0.744 OA
ENDBRANCH  72  75
ENDBRANCH  54  68
BRANCH  55  79
ATOM     79  C   UNL A   1      41.694  27.122  27.869  1.00  0.00     0.023 A 
ATOM     80  C   UNL A   1      42.172  27.830  26.749  1.00  0.00     0.012 A 
ATOM     81  C   UNL A   1      41.521  25.727  27.778  1.00  0.00     0.148 A 
ATOM     82  C   UNL A   1      42.440  27.168  25.550  1.00  0.00     0.002 A 
ATOM     83  C   UNL A   1      41.844  25.066  26.598  1.00  0.00     0.091 A 
ATOM     84  F   UNL A   1      41.059  25.073  28.852  1.00  0.00    -0.205 F 
ATOM     85  C   UNL A   1      42.284  25.786  25.477  1.00  0.00     0.022 A 
BRANCH  83  86
ATOM     86  S   UNL A   1      41.799  23.276  26.452  1.00  0.00     0.127 S 
ATOM     87  O   UNL A   1      42.538  22.861  27.642  1.00  0.00    -0.237 OA
ATOM     88  O   UNL A   1      40.362  23.007  26.493  1.00  0.00    -0.237 OA
ATOM     89  O   UNL A   1      42.433  22.968  25.177  1.00  0.00    -0.744 OA
ENDBRANCH  83  86
ENDBRANCH  55  79
BRANCH  67  90
ATOM     90  C   UNL A   1      44.703  27.302  34.175  1.00  0.00     0.023 A 
ATOM     91  C   UNL A   1      46.010  27.820  34.096  1.00  0.00     0.012 A 
ATOM     92  C   UNL A   1      44.466  26.127  34.917  1.00  0.00     0.148 A 
ATOM     93  C   UNL A   1      47.069  27.165  34.724  1.00  0.00     0.002 A 
ATOM     94  C   UNL A   1      45.516  25.510  35.585  1.00  0.00     0.091 A 
ATOM     95  F   UNL A   1      43.216  25.643  34.965  1.00  0.00    -0.205 F 
ATOM     96  C   UNL A   1      46.819  26.019  35.479  1.00  0.00     0.022 A 
BRANCH  94  97
ATOM     97  S   UNL A   1      45.271  24.096  36.665  1.00  0.00     0.127 S 
ATOM     98  O   UNL A   1      46.639  23.817  37.101  1.00  0.00    -0.237 OA
ATOM     99  O   UNL A   1      44.399  24.648  37.702  1.00  0.00    -0.237 OA
ATOM    100  O   UNL A   1      44.657  23.062  35.844  1.00  0.00    -0.744 OA
ENDBRANCH  94  97
ENDBRANCH  67  90
ENDBRANCH  41  42
ENDBRANCH  33  36
ENDBRANCH  31  32
ENDBRANCH  30  31
ENDBRANCH  29  30
ENDBRANCH   1  29
TORSDOF 20
ENDMDL
MODEL 2
REMARK VINA RESULT:     -12.2      0.758      7.360
REMARK SMILES C/C(=N\Nc1ccccc1C(=O)NCCCCCCNC(=O)c1ccc(-c2c3nc(c(-c4cccc(S(=O)(=O)[O-])c4F)c4ccc([nH]4)c(-c4cccc(S(=O)(=O)[O-])c4F)c4nc(c(-c5cccc(S(=O)(=O)[O-])c5F)c5ccc2[nH]5)C=C4)C=C3)cc1)c1ccc(S(C)(=O)=O)cc1
REMARK SMILES IDX 16 1 15 2 14 3 13 4 11 5 12 6 10 8 5 9 6 10 7 11 9 12 8 13
REMARK SMILES IDX 4 14 3 16 1 17 2 18 86 19 87 20 95 21 88 22 94 23 89 24
REMARK SMILES IDX 90 25 91 26 92 27 93 28 17 29 18 30 19 31 20 32 21 33 22 35
REMARK SMILES IDX 23 36 24 37 85 38 25 39 84 40 26 41 27 42 28 43 78 44 29 45
REMARK SMILES IDX 83 46 77 47 79 48 30 49 82 50 76 51 75 52 31 54 63 55 43 56
REMARK SMILES IDX 62 57 44 58 47 59 61 60 80 61 45 62 46 63 60 65 81 66 48 67
REMARK SMILES IDX 32 68 33 69 41 70 34 71 36 72 42 73 35 74 37 75 38 76 39 77
REMARK SMILES IDX 40 78 64 79 65 80 73 81 66 82 68 83 74 84 67 85 69 86 70 87
REMARK SMILES IDX 71 88 72 89 49 90 50 91 58 92 51 93 53 94 59 95 52 96 54 97
REMARK SMILES IDX 55 98 56 99 57 100
REMARK H PARENT 13 7 4 15 20 34 79 53 47 64
REMARK Flexibility Score: inf
ROOT
ATOM      1  C   UNL A   1      31.598  28.225  26.167  1.00  0.00     0.002 C 
ENDROOT
BRANCH   1   2
ATOM      2  C   UNL A   1      32.969  27.537  26.227  1.00  0.00     0.021 C 
BRANCH   2   3
ATOM      3  C   UNL A   1      32.954  26.017  26.091  1.00  0.00     0.116 C 
BRANCH   3   4
ATOM      4  N   UNL A   1      31.770  25.398  26.656  1.00  0.00    -0.352 N 
ATOM      5  C   UNL A   1      31.449  24.066  26.773  1.00  0.00     0.253 C 
ATOM      6  O   UNL A   1      30.401  23.775  27.355  1.00  0.00    -0.269 OA
ATOM      7  H   UNL A   1      31.097  26.024  27.008  1.00  0.00     0.163 HD
BRANCH   5   8
ATOM      8  C   UNL A   1      32.241  22.976  26.132  1.00  0.00     0.064 A 
ATOM      9  C   UNL A   1      32.076  22.485  24.828  1.00  0.00     0.069 A 
ATOM     10  C   UNL A   1      32.836  21.353  24.444  1.00  0.00     0.028 A 
ATOM     11  C   UNL A   1      33.823  20.811  25.267  1.00  0.00     0.002 A 
ATOM     12  C   UNL A   1      33.272  22.446  26.939  1.00  0.00     0.016 A 
ATOM     13  C   UNL A   1      34.071  21.387  26.503  1.00  0.00     0.001 A 
BRANCH   9  14
ATOM     14  N   UNL A   1      31.384  23.108  23.771  1.00  0.00    -0.277 N 
ATOM     15  H   UNL A   1      31.256  22.571  22.956  1.00  0.00     0.190 HD
BRANCH  14  16
ATOM     16  N   UNL A   1      30.877  24.355  23.750  1.00  0.00    -0.180 NA
ATOM     17  C   UNL A   1      32.555  25.187  22.063  1.00  0.00     0.069 C 
ATOM     18  C   UNL A   1      31.351  25.281  22.967  1.00  0.00     0.065 C 
BRANCH  18  19
ATOM     19  C   UNL A   1      30.626  26.578  22.966  1.00  0.00    -0.002 A 
ATOM     20  C   UNL A   1      29.385  26.666  23.602  1.00  0.00     0.011 A 
ATOM     21  C   UNL A   1      31.138  27.671  22.265  1.00  0.00     0.011 A 
ATOM     22  C   UNL A   1      28.633  27.838  23.516  1.00  0.00     0.021 A 
ATOM     23  C   UNL A   1      30.402  28.856  22.197  1.00  0.00     0.021 A 
ATOM     24  C   UNL A   1      29.145  28.926  22.806  1.00  0.00     0.067 A 
BRANCH  24  25
ATOM     25  S   UNL A   1      28.220  30.442  22.736  1.00  0.00     0.175 S 
ATOM     26  C   UNL A   1      28.017  30.743  21.000  1.00  0.00     0.163 C 
ATOM     27  O   UNL A   1      26.909  30.174  23.308  1.00  0.00    -0.224 OA
ATOM     28  O   UNL A   1      29.057  31.489  23.282  1.00  0.00    -0.224 OA
ENDBRANCH  24  25
ENDBRANCH  18  19
ENDBRANCH  14  16
ENDBRANCH   9  14
ENDBRANCH   5   8
ENDBRANCH   3   4
ENDBRANCH   2   3
ENDBRANCH   1   2
BRANCH   1  29
ATOM     29  C   UNL A   1      31.509  29.527  25.365  1.00  0.00     0.002 C 
BRANCH  29  30
ATOM     30  C   UNL A   1      31.318  30.816  26.155  1.00  0.00     0.021 C 
BRANCH  30  31
ATOM     31  C   UNL A   1      32.581  31.374  26.784  1.00  0.00     0.116 C 
BRANCH  31  32
ATOM     32  N   UNL A   1      32.463  32.783  27.133  1.00  0.00    -0.352 N 
ATOM     33  C   UNL A   1      33.268  33.539  27.949  1.00  0.00     0.251 C 
ATOM     34  H   UNL A   1      31.703  33.259  26.727  1.00  0.00     0.163 HD
ATOM     35  O   UNL A   1      32.942  34.682  28.258  1.00  0.00    -0.269 OA
BRANCH  33  36
ATOM     36  C   UNL A   1      34.516  32.949  28.474  1.00  0.00     0.039 A 
ATOM     37  C   UNL A   1      35.718  33.643  28.321  1.00  0.00     0.014 A 
ATOM     38  C   UNL A   1      34.483  31.734  29.161  1.00  0.00     0.014 A 
ATOM     39  C   UNL A   1      36.878  33.149  28.921  1.00  0.00     0.010 A 
ATOM     40  C   UNL A   1      35.611  31.300  29.841  1.00  0.00     0.010 A 
ATOM     41  C   UNL A   1      36.824  31.994  29.718  1.00  0.00    -0.014 A 
BRANCH  41  42
ATOM     42  C   UNL A   1      38.018  31.468  30.425  1.00  0.00     0.031 A 
ATOM     43  C   UNL A   1      38.875  30.429  29.755  1.00  0.00     0.074 A 
ATOM     44  C   UNL A   1      38.262  31.833  31.699  1.00  0.00     0.049 A 
ATOM     45  N   UNL A   1      39.872  29.740  30.243  1.00  0.00    -0.248 NA
ATOM     46  C   UNL A   1      38.541  30.090  28.360  1.00  0.00     0.031 C 
ATOM     47  C   UNL A   1      37.461  32.780  32.480  1.00  0.00     0.029 A 
ATOM     48  N   UNL A   1      39.234  31.423  32.577  1.00  0.00    -0.354 N 
ATOM     49  C   UNL A   1      40.250  28.858  29.239  1.00  0.00     0.074 A 
ATOM     50  C   UNL A   1      39.352  29.070  28.126  1.00  0.00     0.031 C 
ATOM     51  C   UNL A   1      37.974  32.878  33.717  1.00  0.00     0.029 A 
ATOM     52  C   UNL A   1      39.111  31.971  33.834  1.00  0.00     0.049 A 
ATOM     53  H   UNL A   1      39.952  30.795  32.330  1.00  0.00     0.167 HD
ATOM     54  C   UNL A   1      41.271  27.969  29.231  1.00  0.00     0.034 A 
ATOM     55  C   UNL A   1      39.822  31.751  34.957  1.00  0.00     0.034 A 
ATOM     56  C   UNL A   1      42.187  27.798  30.324  1.00  0.00     0.049 A 
ATOM     57  C   UNL A   1      40.972  30.783  34.912  1.00  0.00     0.074 A 
ATOM     58  C   UNL A   1      43.306  26.988  30.387  1.00  0.00     0.029 A 
ATOM     59  N   UNL A   1      42.086  28.441  31.547  1.00  0.00    -0.354 N 
ATOM     60  N   UNL A   1      41.400  30.055  33.908  1.00  0.00    -0.248 NA
ATOM     61  C   UNL A   1      41.762  30.627  36.143  1.00  0.00     0.031 C 
ATOM     62  C   UNL A   1      43.864  27.117  31.662  1.00  0.00     0.029 A 
ATOM     63  C   UNL A   1      43.118  28.042  32.376  1.00  0.00     0.049 A 
ATOM     64  H   UNL A   1      41.384  29.087  31.790  1.00  0.00     0.167 HD
ATOM     65  C   UNL A   1      42.533  29.396  34.369  1.00  0.00     0.074 A 
ATOM     66  C   UNL A   1      42.731  29.815  35.742  1.00  0.00     0.031 C 
ATOM     67  C   UNL A   1      43.335  28.517  33.718  1.00  0.00     0.034 A 
BRANCH  54  68
ATOM     68  C   UNL A   1      41.473  27.143  27.988  1.00  0.00     0.023 A 
ATOM     69  C   UNL A   1      42.091  27.716  26.857  1.00  0.00     0.012 A 
ATOM     70  C   UNL A   1      41.100  25.785  27.956  1.00  0.00     0.148 A 
ATOM     71  C   UNL A   1      42.297  26.964  25.702  1.00  0.00     0.002 A 
ATOM     72  C   UNL A   1      41.355  25.028  26.819  1.00  0.00     0.091 A 
ATOM     73  F   UNL A   1      40.494  25.262  29.031  1.00  0.00    -0.205 F 
ATOM     74  C   UNL A   1      41.940  25.619  25.687  1.00  0.00     0.022 A 
BRANCH  72  75
ATOM     75  S   UNL A   1      41.012  23.267  26.729  1.00  0.00     0.127 S 
ATOM     76  O   UNL A   1      41.473  22.810  28.039  1.00  0.00    -0.237 OA
ATOM     77  O   UNL A   1      39.559  23.248  26.553  1.00  0.00    -0.237 OA
ATOM     78  O   UNL A   1      41.769  22.767  25.592  1.00  0.00    -0.744 OA
ENDBRANCH  72  75
ENDBRANCH  54  68
BRANCH  55  79
ATOM     79  C   UNL A   1      39.500  32.502  36.204  1.00  0.00     0.023 A 
ATOM     80  C   UNL A   1      40.098  33.757  36.430  1.00  0.00     0.012 A 
ATOM     81  C   UNL A   1      38.594  31.992  37.154  1.00  0.00     0.148 A 
ATOM     82  C   UNL A   1      39.828  34.474  37.596  1.00  0.00     0.002 A 
ATOM     83  C   UNL A   1      38.286  32.738  38.286  1.00  0.00     0.091 A 
ATOM     84  F   UNL A   1      38.040  30.794  36.923  1.00  0.00    -0.205 F 
ATOM     85  C   UNL A   1      38.916  33.970  38.519  1.00  0.00     0.022 A 
BRANCH  83  86
ATOM     86  S   UNL A   1      37.028  32.229  39.463  1.00  0.00     0.127 S 
ATOM     87  O   UNL A   1      37.343  33.065  40.619  1.00  0.00    -0.237 OA
ATOM     88  O   UNL A   1      35.795  32.588  38.760  1.00  0.00    -0.237 OA
ATOM     89  O   UNL A   1      37.217  30.797  39.651  1.00  0.00    -0.744 OA
ENDBRANCH  83  86
ENDBRANCH  55  79
BRANCH  67  90
ATOM     90  C   UNL A   1      44.546  27.996  34.444  1.00  0.00     0.023 A 
ATOM     91  C   UNL A   1      45.748  28.729  34.437  1.00  0.00     0.012 A 
ATOM     92  C   UNL A   1      44.452  26.822  35.219  1.00  0.00     0.148 A 
ATOM     93  C   UNL A   1      46.849  28.286  35.170  1.00  0.00     0.002 A 
ATOM     94  C   UNL A   1      45.534  26.417  35.989  1.00  0.00     0.091 A 
ATOM     95  F   UNL A   1      43.303  26.132  35.196  1.00  0.00    -0.205 F 
ATOM     96  C   UNL A   1      46.737  27.140  35.956  1.00  0.00     0.022 A 
BRANCH  94  97
ATOM     97  S   UNL A   1      45.447  25.017  37.111  1.00  0.00     0.127 S 
ATOM     98  O   UNL A   1      44.346  25.410  37.989  1.00  0.00    -0.237 OA
ATOM     99  O   UNL A   1      45.139  23.913  36.201  1.00  0.00    -0.237 OA
ATOM    100  O   UNL A   1      46.752  24.930  37.751  1.00  0.00    -0.744 OA
ENDBRANCH  94  97
ENDBRANCH  67  90
ENDBRANCH  41  42
ENDBRANCH  33  36
ENDBRANCH  31  32
ENDBRANCH  30  31
ENDBRANCH  29  30
ENDBRANCH   1  29
TORSDOF 20
ENDMDL
MODEL 3
REMARK VINA RESULT:     -11.6      2.370      4.571
REMARK SMILES C/C(=N\Nc1ccccc1C(=O)NCCCCCCNC(=O)c1ccc(-c2c3nc(c(-c4cccc(S(=O)(=O)[O-])c4F)c4ccc([nH]4)c(-c4cccc(S(=O)(=O)[O-])c4F)c4nc(c(-c5cccc(S(=O)(=O)[O-])c5F)c5ccc2[nH]5)C=C4)C=C3)cc1)c1ccc(S(C)(=O)=O)cc1
REMARK SMILES IDX 16 1 15 2 14 3 13 4 11 5 12 6 10 8 5 9 6 10 7 11 9 12 8 13
REMARK SMILES IDX 4 14 3 16 1 17 2 18 86 19 87 20 95 21 88 22 94 23 89 24
REMARK SMILES IDX 90 25 91 26 92 27 93 28 17 29 18 30 19 31 20 32 21 33 22 35
REMARK SMILES IDX 23 36 24 37 85 38 25 39 84 40 26 41 27 42 28 43 78 44 29 45
REMARK SMILES IDX 83 46 77 47 79 48 30 49 82 50 76 51 75 52 31 54 63 55 43 56
REMARK SMILES IDX 62 57 44 58 47 59 61 60 80 61 45 62 46 63 60 65 81 66 48 67
REMARK SMILES IDX 32 68 33 69 41 70 34 71 36 72 42 73 35 74 37 75 38 76 39 77
REMARK SMILES IDX 40 78 64 79 65 80 73 81 66 82 68 83 74 84 67 85 69 86 70 87
REMARK SMILES IDX 71 88 72 89 49 90 50 91 58 92 51 93 53 94 59 95 52 96 54 97
REMARK SMILES IDX 55 98 56 99 57 100
REMARK H PARENT 13 7 4 15 20 34 79 53 47 64
REMARK Flexibility Score: inf
ROOT
ATOM      1  C   UNL A   1      31.113  28.243  25.421  1.00  0.00     0.002 C 
ENDROOT
BRANCH   1   2
ATOM      2  C   UNL A   1      30.925  27.232  26.561  1.00  0.00     0.021 C 
BRANCH   2   3
ATOM      3  C   UNL A   1      31.939  26.092  26.609  1.00  0.00     0.116 C 
BRANCH   3   4
ATOM      4  N   UNL A   1      31.419  24.835  26.103  1.00  0.00    -0.352 N 
ATOM      5  C   UNL A   1      31.531  24.284  24.849  1.00  0.00     0.253 C 
ATOM      6  O   UNL A   1      31.054  23.159  24.668  1.00  0.00    -0.269 OA
ATOM      7  H   UNL A   1      30.913  24.298  26.754  1.00  0.00     0.163 HD
BRANCH   5   8
ATOM      8  C   UNL A   1      32.087  25.022  23.678  1.00  0.00     0.064 A 
ATOM      9  C   UNL A   1      33.442  25.124  23.326  1.00  0.00     0.069 A 
ATOM     10  C   UNL A   1      33.786  25.982  22.253  1.00  0.00     0.028 A 
ATOM     11  C   UNL A   1      32.820  26.609  21.468  1.00  0.00     0.002 A 
ATOM     12  C   UNL A   1      31.116  25.628  22.849  1.00  0.00     0.016 A 
ATOM     13  C   UNL A   1      31.478  26.396  21.741  1.00  0.00     0.001 A 
BRANCH   9  14
ATOM     14  N   UNL A   1      34.498  24.313  23.786  1.00  0.00    -0.277 N 
ATOM     15  H   UNL A   1      35.276  24.782  24.166  1.00  0.00     0.190 HD
BRANCH  14  16
ATOM     16  N   UNL A   1      34.564  22.968  23.763  1.00  0.00    -0.180 NA
ATOM     17  C   UNL A   1      34.554  22.759  26.275  1.00  0.00     0.069 C 
ATOM     18  C   UNL A   1      34.543  22.256  24.852  1.00  0.00     0.065 C 
BRANCH  18  19
ATOM     19  C   UNL A   1      34.510  20.781  24.675  1.00  0.00    -0.002 A 
ATOM     20  C   UNL A   1      33.295  20.156  24.381  1.00  0.00     0.011 A 
ATOM     21  C   UNL A   1      35.661  20.020  24.885  1.00  0.00     0.011 A 
ATOM     22  C   UNL A   1      33.215  18.765  24.325  1.00  0.00     0.021 A 
ATOM     23  C   UNL A   1      35.594  18.627  24.805  1.00  0.00     0.021 A 
ATOM     24  C   UNL A   1      34.368  18.007  24.546  1.00  0.00     0.067 A 
BRANCH  24  25
ATOM     25  S   UNL A   1      34.290  16.236  24.424  1.00  0.00     0.175 S 
ATOM     26  C   UNL A   1      32.786  15.812  25.261  1.00  0.00     0.163 C 
ATOM     27  O   UNL A   1      34.134  15.908  23.014  1.00  0.00    -0.224 OA
ATOM     28  O   UNL A   1      35.398  15.696  25.182  1.00  0.00    -0.224 OA
ENDBRANCH  24  25
ENDBRANCH  18  19
ENDBRANCH  14  16
ENDBRANCH   9  14
ENDBRANCH   5   8
ENDBRANCH   3   4
ENDBRANCH   2   3
ENDBRANCH   1   2
BRANCH   1  29
ATOM     29  C   UNL A   1      32.546  28.486  24.937  1.00  0.00     0.002 C 
BRANCH  29  30
ATOM     30  C   UNL A   1      33.284  29.681  25.527  1.00  0.00     0.021 C 
BRANCH  30  31
ATOM     31  C   UNL A   1      32.800  30.118  26.897  1.00  0.00     0.116 C 
BRANCH  31  32
ATOM     32  N   UNL A   1      32.840  31.563  27.076  1.00  0.00    -0.352 N 
ATOM     33  C   UNL A   1      33.782  32.327  27.719  1.00  0.00     0.251 C 
ATOM     34  H   UNL A   1      32.088  32.061  26.680  1.00  0.00     0.163 HD
ATOM     35  O   UNL A   1      33.589  33.525  27.909  1.00  0.00    -0.269 OA
BRANCH  33  36
ATOM     36  C   UNL A   1      35.018  31.682  28.206  1.00  0.00     0.039 A 
ATOM     37  C   UNL A   1      36.207  32.414  28.231  1.00  0.00     0.014 A 
ATOM     38  C   UNL A   1      34.984  30.370  28.684  1.00  0.00     0.014 A 
ATOM     39  C   UNL A   1      37.349  31.850  28.804  1.00  0.00     0.010 A 
ATOM     40  C   UNL A   1      36.089  29.852  29.343  1.00  0.00     0.010 A 
ATOM     41  C   UNL A   1      37.287  30.580  29.399  1.00  0.00    -0.014 A 
BRANCH  41  42
ATOM     42  C   UNL A   1      38.459  29.968  30.072  1.00  0.00     0.031 A 
ATOM     43  C   UNL A   1      38.871  30.462  31.432  1.00  0.00     0.074 A 
ATOM     44  C   UNL A   1      39.214  29.061  29.420  1.00  0.00     0.049 A 
ATOM     45  N   UNL A   1      39.936  30.168  32.132  1.00  0.00    -0.248 NA
ATOM     46  C   UNL A   1      37.988  31.451  32.076  1.00  0.00     0.031 C 
ATOM     47  C   UNL A   1      38.956  28.555  28.070  1.00  0.00     0.029 A 
ATOM     48  N   UNL A   1      40.375  28.430  29.792  1.00  0.00    -0.354 N 
ATOM     49  C   UNL A   1      39.875  30.966  33.267  1.00  0.00     0.074 A 
ATOM     50  C   UNL A   1      38.690  31.787  33.148  1.00  0.00     0.031 C 
ATOM     51  C   UNL A   1      39.927  27.694  27.728  1.00  0.00     0.029 A 
ATOM     52  C   UNL A   1      40.900  27.618  28.812  1.00  0.00     0.049 A 
ATOM     53  H   UNL A   1      40.793  28.549  30.676  1.00  0.00     0.167 HD
ATOM     54  C   UNL A   1      40.715  30.996  34.328  1.00  0.00     0.034 A 
ATOM     55  C   UNL A   1      42.046  26.909  28.786  1.00  0.00     0.034 A 
ATOM     56  C   UNL A   1      41.863  30.144  34.460  1.00  0.00     0.049 A 
ATOM     57  C   UNL A   1      42.944  26.933  29.992  1.00  0.00     0.074 A 
ATOM     58  C   UNL A   1      42.731  30.031  35.531  1.00  0.00     0.029 A 
ATOM     59  N   UNL A   1      42.310  29.264  33.486  1.00  0.00    -0.354 N 
ATOM     60  N   UNL A   1      42.800  27.593  31.116  1.00  0.00    -0.248 NA
ATOM     61  C   UNL A   1      44.148  26.089  29.944  1.00  0.00     0.031 C 
ATOM     62  C   UNL A   1      43.722  29.106  35.192  1.00  0.00     0.029 A 
ATOM     63  C   UNL A   1      43.445  28.609  33.927  1.00  0.00     0.049 A 
ATOM     64  H   UNL A   1      41.882  29.125  32.611  1.00  0.00     0.167 HD
ATOM     65  C   UNL A   1      43.862  27.208  31.925  1.00  0.00     0.074 A 
ATOM     66  C   UNL A   1      44.641  26.251  31.165  1.00  0.00     0.031 C 
ATOM     67  C   UNL A   1      44.171  27.614  33.181  1.00  0.00     0.034 A 
BRANCH  54  68
ATOM     68  C   UNL A   1      40.398  31.952  35.448  1.00  0.00     0.023 A 
ATOM     69  C   UNL A   1      41.154  33.133  35.597  1.00  0.00     0.012 A 
ATOM     70  C   UNL A   1      39.320  31.708  36.320  1.00  0.00     0.148 A 
ATOM     71  C   UNL A   1      40.868  34.035  36.621  1.00  0.00     0.002 A 
ATOM     72  C   UNL A   1      39.009  32.638  37.305  1.00  0.00     0.091 A 
ATOM     73  F   UNL A   1      38.626  30.571  36.178  1.00  0.00    -0.205 F 
ATOM     74  C   UNL A   1      39.790  33.794  37.466  1.00  0.00     0.022 A 
BRANCH  72  75
ATOM     75  S   UNL A   1      37.588  32.461  38.391  1.00  0.00     0.127 S 
ATOM     76  O   UNL A   1      37.598  31.023  38.659  1.00  0.00    -0.237 OA
ATOM     77  O   UNL A   1      37.968  33.297  39.531  1.00  0.00    -0.237 OA
ATOM     78  O   UNL A   1      36.442  32.946  37.636  1.00  0.00    -0.744 OA
ENDBRANCH  72  75
ENDBRANCH  54  68
BRANCH  55  79
ATOM     79  C   UNL A   1      42.380  26.073  27.597  1.00  0.00     0.023 A 
ATOM     80  C   UNL A   1      43.142  26.632  26.552  1.00  0.00     0.012 A 
ATOM     81  C   UNL A   1      41.966  24.730  27.504  1.00  0.00     0.148 A 
ATOM     82  C   UNL A   1      43.455  25.879  25.419  1.00  0.00     0.002 A 
ATOM     83  C   UNL A   1      42.330  23.970  26.399  1.00  0.00     0.091 A 
ATOM     84  F   UNL A   1      41.238  24.220  28.506  1.00  0.00    -0.205 F 
ATOM     85  C   UNL A   1      43.057  24.547  25.346  1.00  0.00     0.022 A 
BRANCH  83  86
ATOM     86  S   UNL A   1      41.976  22.213  26.278  1.00  0.00     0.127 S 
ATOM     87  O   UNL A   1      42.711  21.841  25.072  1.00  0.00    -0.237 OA
ATOM     88  O   UNL A   1      42.542  21.705  27.528  1.00  0.00    -0.237 OA
ATOM     89  O   UNL A   1      40.525  22.107  26.189  1.00  0.00    -0.744 OA
ENDBRANCH  83  86
ENDBRANCH  55  79
BRANCH  67  90
ATOM     90  C   UNL A   1      45.358  26.981  33.855  1.00  0.00     0.023 A 
ATOM     91  C   UNL A   1      46.625  27.590  33.782  1.00  0.00     0.012 A 
ATOM     92  C   UNL A   1      45.186  25.828  34.648  1.00  0.00     0.148 A 
ATOM     93  C   UNL A   1      47.711  27.046  34.467  1.00  0.00     0.002 A 
ATOM     94  C   UNL A   1      46.259  25.323  35.371  1.00  0.00     0.091 A 
ATOM     95  F   UNL A   1      43.974  25.255  34.689  1.00  0.00    -0.205 F 
ATOM     96  C   UNL A   1      47.525  25.922  35.272  1.00  0.00     0.022 A 
BRANCH  94  97
ATOM     97  S   UNL A   1      46.088  23.947  36.513  1.00  0.00     0.127 S 
ATOM     98  O   UNL A   1      45.642  22.877  35.622  1.00  0.00    -0.237 OA
ATOM     99  O   UNL A   1      47.454  23.794  37.016  1.00  0.00    -0.237 OA
ATOM    100  O   UNL A   1      45.118  24.370  37.513  1.00  0.00    -0.744 OA
ENDBRANCH  94  97
ENDBRANCH  67  90
ENDBRANCH  41  42
ENDBRANCH  33  36
ENDBRANCH  31  32
ENDBRANCH  30  31
ENDBRANCH  29  30
ENDBRANCH   1  29
TORSDOF 20
ENDMDL
