MODEL 1
REMARK VINA RESULT:     -11.7      0.000      0.000
REMARK SMILES C[C@@H](NC(=O)/C(=C/c1ccc(Cl)cc1)NC(=O)c1ccc(C(C)(C)C)cc1)C(=O)NCCCCCCNC(=O)c1ccc(-c2c3nc(c(-c4cccc(S(=O)(=O)[O-])c4F)c4ccc([nH]4)c(-c4cccc(S(=O)(=O)[O-])c4F)c4nc(c(-c5cccc(S(=O)(=O)[O-])c5F)c5ccc2[nH]5)C=C4)C=C3)cc1
REMARK SMILES IDX 32 1 31 2 30 3 28 4 29 5 2 7 1 8 3 9 4 10 5 12 6 13 7 14
REMARK SMILES IDX 15 15 16 16 17 18 18 19 19 20 27 21 20 22 26 23 21 24 22 25
REMARK SMILES IDX 23 26 24 27 25 28 8 29 9 30 14 31 10 32 13 33 11 34 12 35
REMARK SMILES IDX 33 36 34 37 35 38 36 39 37 40 38 41 39 43 40 44 41 45 102 46
REMARK SMILES IDX 42 47 101 48 43 49 44 50 45 51 95 52 46 53 100 54 94 55
REMARK SMILES IDX 96 56 47 57 99 58 93 59 92 60 48 62 80 63 60 64 79 65 61 66
REMARK SMILES IDX 64 67 78 68 97 69 62 70 63 71 77 73 98 74 65 75 49 76 50 77
REMARK SMILES IDX 58 78 51 79 53 80 59 81 52 82 54 83 55 84 56 85 57 86 81 87
REMARK SMILES IDX 82 88 90 89 83 90 85 91 91 92 84 93 86 94 87 95 88 96 89 97
REMARK SMILES IDX 66 98 67 99 75 100 68 101 70 102 76 103 69 104 71 105 72 106
REMARK SMILES IDX 73 107 74 108
REMARK H PARENT 30 6 3 11 15 17 37 42 96 61 64 72
REMARK Flexibility Score: inf
ROOT
ATOM      1  C   UNL A   1      37.553  21.321  25.277  1.00  0.00     0.021 C 
ENDROOT
BRANCH   1   2
ATOM      2  C   UNL A   1      36.119  21.693  24.931  1.00  0.00     0.116 C 
BRANCH   2   3
ATOM      3  N   UNL A   1      35.263  20.534  25.065  1.00  0.00    -0.354 N 
ATOM      4  C   UNL A   1      33.918  20.442  24.912  1.00  0.00     0.242 C 
ATOM      5  O   UNL A   1      33.375  19.365  25.181  1.00  0.00    -0.273 OA
ATOM      6  H   UNL A   1      35.722  19.694  25.299  1.00  0.00     0.163 HD
BRANCH   4   7
ATOM      7  C   UNL A   1      33.074  21.667  24.525  1.00  0.00     0.168 C 
ATOM      8  C   UNL A   1      32.234  21.272  23.304  1.00  0.00     0.041 C 
BRANCH   7   9
ATOM      9  N   UNL A   1      32.245  22.298  25.571  1.00  0.00    -0.339 N 
ATOM     10  C   UNL A   1      31.453  23.416  25.382  1.00  0.00     0.268 C 
ATOM     11  H   UNL A   1      32.256  21.893  26.468  1.00  0.00     0.164 HD
ATOM     12  O   UNL A   1      30.233  23.323  25.471  1.00  0.00    -0.268 OA
BRANCH  10  13
ATOM     13  C   UNL A   1      32.127  24.756  25.241  1.00  0.00     0.107 C 
ATOM     14  C   UNL A   1      32.140  25.536  26.339  1.00  0.00     0.040 C 
BRANCH  13  15
ATOM     15  N   UNL A   1      32.795  25.131  24.093  1.00  0.00    -0.317 N 
ATOM     16  C   UNL A   1      32.585  26.040  23.087  1.00  0.00     0.255 C 
ATOM     17  H   UNL A   1      33.629  24.623  23.965  1.00  0.00     0.170 HD
ATOM     18  O   UNL A   1      33.346  26.034  22.118  1.00  0.00    -0.269 OA
BRANCH  16  19
ATOM     19  C   UNL A   1      31.476  26.995  23.101  1.00  0.00     0.040 A 
ATOM     20  C   UNL A   1      31.748  28.316  22.756  1.00  0.00     0.014 A 
ATOM     21  C   UNL A   1      30.196  26.615  23.492  1.00  0.00     0.014 A 
ATOM     22  C   UNL A   1      30.704  29.236  22.683  1.00  0.00     0.005 A 
ATOM     23  C   UNL A   1      29.151  27.541  23.410  1.00  0.00     0.005 A 
ATOM     24  C   UNL A   1      29.374  28.855  22.954  1.00  0.00    -0.043 A 
BRANCH  24  25
ATOM     25  C   UNL A   1      28.235  29.864  22.739  1.00  0.00    -0.013 C 
ATOM     26  C   UNL A   1      28.229  30.332  21.272  1.00  0.00     0.016 C 
ATOM     27  C   UNL A   1      26.878  29.197  23.068  1.00  0.00     0.016 C 
ATOM     28  C   UNL A   1      28.341  31.113  23.641  1.00  0.00     0.016 C 
ENDBRANCH  24  25
ENDBRANCH  16  19
ENDBRANCH  13  15
BRANCH  14  29
ATOM     29  C   UNL A   1      32.504  26.964  26.498  1.00  0.00    -0.023 A 
ATOM     30  C   UNL A   1      31.603  27.959  26.908  1.00  0.00     0.010 A 
ATOM     31  C   UNL A   1      33.860  27.310  26.401  1.00  0.00     0.010 A 
ATOM     32  C   UNL A   1      32.026  29.269  27.153  1.00  0.00     0.021 A 
ATOM     33  C   UNL A   1      34.292  28.615  26.665  1.00  0.00     0.021 A 
ATOM     34  C   UNL A   1      33.371  29.592  27.031  1.00  0.00     0.041 A 
ATOM     35  Cl  UNL A   1      33.902  31.194  27.360  1.00  0.00    -0.084 Cl
ENDBRANCH  14  29
ENDBRANCH  10  13
ENDBRANCH   7   9
ENDBRANCH   4   7
ENDBRANCH   2   3
ENDBRANCH   1   2
BRANCH   1  36
ATOM     36  C   UNL A   1      37.848  19.836  25.047  1.00  0.00     0.002 C 
BRANCH  36  37
ATOM     37  C   UNL A   1      39.297  19.433  25.339  1.00  0.00     0.002 C 
BRANCH  37  38
ATOM     38  C   UNL A   1      40.090  20.426  26.186  1.00  0.00     0.021 C 
BRANCH  38  39
ATOM     39  C   UNL A   1      41.264  19.816  26.941  1.00  0.00     0.116 C 
BRANCH  39  40
ATOM     40  N   UNL A   1      42.367  19.476  26.056  1.00  0.00    -0.352 N 
ATOM     41  C   UNL A   1      43.328  20.299  25.526  1.00  0.00     0.251 C 
ATOM     42  H   UNL A   1      42.431  18.527  25.803  1.00  0.00     0.163 HD
ATOM     43  O   UNL A   1      44.081  19.883  24.656  1.00  0.00    -0.269 OA
BRANCH  41  44
ATOM     44  C   UNL A   1      43.426  21.694  26.002  1.00  0.00     0.039 A 
ATOM     45  C   UNL A   1      43.639  21.924  27.361  1.00  0.00     0.014 A 
ATOM     46  C   UNL A   1      43.335  22.765  25.107  1.00  0.00     0.014 A 
ATOM     47  C   UNL A   1      43.809  23.232  27.816  1.00  0.00     0.010 A 
ATOM     48  C   UNL A   1      43.594  24.058  25.549  1.00  0.00     0.010 A 
ATOM     49  C   UNL A   1      43.821  24.307  26.909  1.00  0.00    -0.014 A 
BRANCH  49  50
ATOM     50  C   UNL A   1      44.094  25.687  27.381  1.00  0.00     0.031 A 
ATOM     51  C   UNL A   1      45.497  26.230  27.401  1.00  0.00     0.074 A 
ATOM     52  C   UNL A   1      43.073  26.437  27.842  1.00  0.00     0.049 A 
ATOM     53  N   UNL A   1      45.909  27.428  27.727  1.00  0.00    -0.248 NA
ATOM     54  C   UNL A   1      46.580  25.305  27.033  1.00  0.00     0.031 C 
ATOM     55  C   UNL A   1      41.683  25.990  27.960  1.00  0.00     0.029 A 
ATOM     56  N   UNL A   1      43.047  27.728  28.301  1.00  0.00    -0.354 N 
ATOM     57  C   UNL A   1      47.294  27.392  27.638  1.00  0.00     0.074 A 
ATOM     58  C   UNL A   1      47.657  26.043  27.264  1.00  0.00     0.031 C 
ATOM     59  C   UNL A   1      40.935  27.003  28.426  1.00  0.00     0.029 A 
ATOM     60  C   UNL A   1      41.793  28.157  28.667  1.00  0.00     0.049 A 
ATOM     61  H   UNL A   1      43.850  28.295  28.364  1.00  0.00     0.167 HD
ATOM     62  C   UNL A   1      48.185  28.396  27.825  1.00  0.00     0.034 A 
ATOM     63  C   UNL A   1      41.379  29.350  29.135  1.00  0.00     0.034 A 
ATOM     64  C   UNL A   1      47.816  29.743  28.168  1.00  0.00     0.049 A 
ATOM     65  C   UNL A   1      42.381  30.460  29.290  1.00  0.00     0.074 A 
ATOM     66  C   UNL A   1      48.629  30.857  28.276  1.00  0.00     0.029 A 
ATOM     67  N   UNL A   1      46.530  30.158  28.481  1.00  0.00    -0.354 N 
ATOM     68  N   UNL A   1      43.664  30.459  29.023  1.00  0.00    -0.248 NA
ATOM     69  C   UNL A   1      41.868  31.748  29.776  1.00  0.00     0.031 C 
ATOM     70  C   UNL A   1      47.840  31.935  28.698  1.00  0.00     0.029 A 
ATOM     71  C   UNL A   1      46.529  31.503  28.809  1.00  0.00     0.049 A 
ATOM     72  H   UNL A   1      45.733  29.579  28.471  1.00  0.00     0.167 HD
ATOM     73  C   UNL A   1      44.107  31.751  29.278  1.00  0.00     0.074 A 
ATOM     74  C   UNL A   1      42.946  32.514  29.690  1.00  0.00     0.031 C 
ATOM     75  C   UNL A   1      45.363  32.259  29.192  1.00  0.00     0.034 A 
BRANCH  62  76
ATOM     76  C   UNL A   1      49.646  28.078  27.635  1.00  0.00     0.023 A 
ATOM     77  C   UNL A   1      50.427  27.669  28.737  1.00  0.00     0.012 A 
ATOM     78  C   UNL A   1      50.239  28.143  26.359  1.00  0.00     0.148 A 
ATOM     79  C   UNL A   1      51.781  27.373  28.580  1.00  0.00     0.002 A 
ATOM     80  C   UNL A   1      51.576  27.798  26.201  1.00  0.00     0.091 A 
ATOM     81  F   UNL A   1      49.489  28.555  25.327  1.00  0.00    -0.205 F 
ATOM     82  C   UNL A   1      52.352  27.427  27.311  1.00  0.00     0.022 A 
BRANCH  80  83
ATOM     83  S   UNL A   1      52.380  27.755  24.596  1.00  0.00     0.127 S 
ATOM     84  O   UNL A   1      53.789  27.644  24.976  1.00  0.00    -0.237 OA
ATOM     85  O   UNL A   1      51.813  26.546  24.000  1.00  0.00    -0.237 OA
ATOM     86  O   UNL A   1      52.008  28.994  23.927  1.00  0.00    -0.744 OA
ENDBRANCH  80  83
ENDBRANCH  62  76
BRANCH  63  87
ATOM     87  C   UNL A   1      39.934  29.579  29.414  1.00  0.00     0.023 A 
ATOM     88  C   UNL A   1      39.032  29.701  28.338  1.00  0.00     0.012 A 
ATOM     89  C   UNL A   1      39.444  29.648  30.732  1.00  0.00     0.148 A 
ATOM     90  C   UNL A   1      37.674  29.921  28.569  1.00  0.00     0.002 A 
ATOM     91  C   UNL A   1      38.082  29.810  30.955  1.00  0.00     0.091 A 
ATOM     92  F   UNL A   1      40.319  29.535  31.740  1.00  0.00    -0.205 F 
ATOM     93  C   UNL A   1      37.197  29.964  29.876  1.00  0.00     0.022 A 
BRANCH  91  94
ATOM     94  S   UNL A   1      37.360  29.753  32.599  1.00  0.00     0.127 S 
ATOM     95  O   UNL A   1      36.010  30.254  32.351  1.00  0.00    -0.237 OA
ATOM     96  O   UNL A   1      37.440  28.325  32.911  1.00  0.00    -0.237 OA
ATOM     97  O   UNL A   1      38.204  30.599  33.431  1.00  0.00    -0.744 OA
ENDBRANCH  91  94
ENDBRANCH  63  87
BRANCH  75  98
ATOM     98  C   UNL A   1      45.542  33.717  29.531  1.00  0.00     0.023 A 
ATOM     99  C   UNL A   1      45.920  34.097  30.835  1.00  0.00     0.012 A 
ATOM    100  C   UNL A   1      45.366  34.711  28.548  1.00  0.00     0.148 A 
ATOM    101  C   UNL A   1      46.067  35.443  31.169  1.00  0.00     0.002 A 
ATOM    102  C   UNL A   1      45.571  36.048  28.873  1.00  0.00     0.091 A 
ATOM    103  F   UNL A   1      44.991  34.336  27.317  1.00  0.00    -0.205 F 
ATOM    104  C   UNL A   1      45.902  36.416  30.188  1.00  0.00     0.022 A 
BRANCH 102 105
ATOM    105  S   UNL A   1      45.480  37.358  27.650  1.00  0.00     0.127 S 
ATOM    106  O   UNL A   1      44.106  37.222  27.168  1.00  0.00    -0.237 OA
ATOM    107  O   UNL A   1      45.726  38.554  28.458  1.00  0.00    -0.237 OA
ATOM    108  O   UNL A   1      46.519  37.068  26.673  1.00  0.00    -0.744 OA
ENDBRANCH 102 105
ENDBRANCH  75  98
ENDBRANCH  49  50
ENDBRANCH  41  44
ENDBRANCH  39  40
ENDBRANCH  38  39
ENDBRANCH  37  38
ENDBRANCH  36  37
ENDBRANCH   1  36
TORSDOF 22
ENDMDL
MODEL 2
REMARK VINA RESULT:     -11.5      1.315      7.276
REMARK SMILES C[C@@H](NC(=O)/C(=C/c1ccc(Cl)cc1)NC(=O)c1ccc(C(C)(C)C)cc1)C(=O)NCCCCCCNC(=O)c1ccc(-c2c3nc(c(-c4cccc(S(=O)(=O)[O-])c4F)c4ccc([nH]4)c(-c4cccc(S(=O)(=O)[O-])c4F)c4nc(c(-c5cccc(S(=O)(=O)[O-])c5F)c5ccc2[nH]5)C=C4)C=C3)cc1
REMARK SMILES IDX 32 1 31 2 30 3 28 4 29 5 2 7 1 8 3 9 4 10 5 12 6 13 7 14
REMARK SMILES IDX 15 15 16 16 17 18 18 19 19 20 27 21 20 22 26 23 21 24 22 25
REMARK SMILES IDX 23 26 24 27 25 28 8 29 9 30 14 31 10 32 13 33 11 34 12 35
REMARK SMILES IDX 33 36 34 37 35 38 36 39 37 40 38 41 39 43 40 44 41 45 102 46
REMARK SMILES IDX 42 47 101 48 43 49 44 50 45 51 95 52 46 53 100 54 94 55
REMARK SMILES IDX 96 56 47 57 99 58 93 59 92 60 48 62 80 63 60 64 79 65 61 66
REMARK SMILES IDX 64 67 78 68 97 69 62 70 63 71 77 73 98 74 65 75 49 76 50 77
REMARK SMILES IDX 58 78 51 79 53 80 59 81 52 82 54 83 55 84 56 85 57 86 81 87
REMARK SMILES IDX 82 88 90 89 83 90 85 91 91 92 84 93 86 94 87 95 88 96 89 97
REMARK SMILES IDX 66 98 67 99 75 100 68 101 70 102 76 103 69 104 71 105 72 106
REMARK SMILES IDX 73 107 74 108
REMARK H PARENT 30 6 3 11 15 17 37 42 96 61 64 72
REMARK Flexibility Score: inf
ROOT
ATOM      1  C   UNL A   1      36.632  21.599  25.014  1.00  0.00     0.021 C 
ENDROOT
BRANCH   1   2
ATOM      2  C   UNL A   1      35.392  22.294  24.471  1.00  0.00     0.116 C 
BRANCH   2   3
ATOM      3  N   UNL A   1      34.314  21.338  24.332  1.00  0.00    -0.354 N 
ATOM      4  C   UNL A   1      32.975  21.559  24.301  1.00  0.00     0.242 C 
ATOM      5  O   UNL A   1      32.225  20.577  24.282  1.00  0.00    -0.273 OA
ATOM      6  H   UNL A   1      34.591  20.397  24.246  1.00  0.00     0.163 HD
BRANCH   4   7
ATOM      7  C   UNL A   1      32.398  22.980  24.402  1.00  0.00     0.168 C 
ATOM      8  C   UNL A   1      31.185  23.044  23.466  1.00  0.00     0.041 C 
BRANCH   7   9
ATOM      9  N   UNL A   1      32.075  23.506  25.744  1.00  0.00    -0.339 N 
ATOM     10  C   UNL A   1      31.457  24.718  25.987  1.00  0.00     0.268 C 
ATOM     11  H   UNL A   1      32.318  22.952  26.520  1.00  0.00     0.164 HD
ATOM     12  O   UNL A   1      30.337  24.742  26.488  1.00  0.00    -0.268 OA
BRANCH  10  13
ATOM     13  C   UNL A   1      32.252  25.982  25.787  1.00  0.00     0.107 C 
ATOM     14  C   UNL A   1      32.358  26.795  26.856  1.00  0.00     0.040 C 
BRANCH  13  15
ATOM     15  N   UNL A   1      32.933  26.251  24.617  1.00  0.00    -0.317 N 
ATOM     16  C   UNL A   1      32.703  27.015  23.501  1.00  0.00     0.255 C 
ATOM     17  H   UNL A   1      33.796  25.780  24.573  1.00  0.00     0.170 HD
ATOM     18  O   UNL A   1      33.492  26.933  22.559  1.00  0.00    -0.269 OA
BRANCH  16  19
ATOM     19  C   UNL A   1      31.543  27.899  23.371  1.00  0.00     0.040 A 
ATOM     20  C   UNL A   1      31.655  29.198  23.862  1.00  0.00     0.014 A 
ATOM     21  C   UNL A   1      30.347  27.451  22.820  1.00  0.00     0.014 A 
ATOM     22  C   UNL A   1      30.600  30.091  23.686  1.00  0.00     0.005 A 
ATOM     23  C   UNL A   1      29.295  28.354  22.640  1.00  0.00     0.005 A 
ATOM     24  C   UNL A   1      29.418  29.704  23.022  1.00  0.00    -0.043 A 
BRANCH  24  25
ATOM     25  C   UNL A   1      28.330  30.751  22.734  1.00  0.00    -0.013 C 
ATOM     26  C   UNL A   1      27.049  30.391  23.508  1.00  0.00     0.016 C 
ATOM     27  C   UNL A   1      28.821  32.150  23.179  1.00  0.00     0.016 C 
ATOM     28  C   UNL A   1      27.970  30.867  21.236  1.00  0.00     0.016 C 
ENDBRANCH  24  25
ENDBRANCH  16  19
ENDBRANCH  13  15
BRANCH  14  29
ATOM     29  C   UNL A   1      32.859  28.186  26.957  1.00  0.00    -0.023 A 
ATOM     30  C   UNL A   1      32.028  29.305  27.126  1.00  0.00     0.010 A 
ATOM     31  C   UNL A   1      34.244  28.379  27.064  1.00  0.00     0.010 A 
ATOM     32  C   UNL A   1      32.559  30.582  27.332  1.00  0.00     0.021 A 
ATOM     33  C   UNL A   1      34.780  29.652  27.289  1.00  0.00     0.021 A 
ATOM     34  C   UNL A   1      33.935  30.751  27.413  1.00  0.00     0.041 A 
ATOM     35  Cl  UNL A   1      34.593  32.314  27.695  1.00  0.00    -0.084 Cl
ENDBRANCH  14  29
ENDBRANCH  10  13
ENDBRANCH   7   9
ENDBRANCH   4   7
ENDBRANCH   2   3
ENDBRANCH   1   2
BRANCH   1  36
ATOM     36  C   UNL A   1      36.608  20.086  24.783  1.00  0.00     0.002 C 
BRANCH  36  37
ATOM     37  C   UNL A   1      37.966  19.402  24.970  1.00  0.00     0.002 C 
BRANCH  37  38
ATOM     38  C   UNL A   1      39.111  20.329  25.372  1.00  0.00     0.021 C 
BRANCH  38  39
ATOM     39  C   UNL A   1      39.928  19.843  26.562  1.00  0.00     0.116 C 
BRANCH  39  40
ATOM     40  N   UNL A   1      41.133  19.141  26.148  1.00  0.00    -0.352 N 
ATOM     41  C   UNL A   1      42.369  19.656  25.852  1.00  0.00     0.251 C 
ATOM     42  H   UNL A   1      41.048  18.163  26.068  1.00  0.00     0.163 HD
ATOM     43  O   UNL A   1      43.228  18.944  25.348  1.00  0.00    -0.269 OA
BRANCH  41  44
ATOM     44  C   UNL A   1      42.643  21.081  26.131  1.00  0.00     0.039 A 
ATOM     45  C   UNL A   1      42.950  21.462  27.436  1.00  0.00     0.014 A 
ATOM     46  C   UNL A   1      42.621  22.029  25.103  1.00  0.00     0.014 A 
ATOM     47  C   UNL A   1      43.284  22.790  27.703  1.00  0.00     0.010 A 
ATOM     48  C   UNL A   1      43.040  23.331  25.354  1.00  0.00     0.010 A 
ATOM     49  C   UNL A   1      43.364  23.728  26.658  1.00  0.00    -0.014 A 
BRANCH  49  50
ATOM     50  C   UNL A   1      43.809  25.118  26.927  1.00  0.00     0.031 A 
ATOM     51  C   UNL A   1      42.876  26.117  27.555  1.00  0.00     0.074 A 
ATOM     52  C   UNL A   1      45.049  25.493  26.556  1.00  0.00     0.049 A 
ATOM     53  N   UNL A   1      43.116  27.353  27.911  1.00  0.00    -0.248 NA
ATOM     54  C   UNL A   1      41.489  25.685  27.791  1.00  0.00     0.031 C 
ATOM     55  C   UNL A   1      46.014  24.643  25.854  1.00  0.00     0.029 A 
ATOM     56  N   UNL A   1      45.708  26.686  26.709  1.00  0.00    -0.354 N 
ATOM     57  C   UNL A   1      41.908  27.855  28.379  1.00  0.00     0.074 A 
ATOM     58  C   UNL A   1      40.927  26.803  28.226  1.00  0.00     0.031 C 
ATOM     59  C   UNL A   1      47.153  25.331  25.672  1.00  0.00     0.029 A 
ATOM     60  C   UNL A   1      46.990  26.674  26.213  1.00  0.00     0.049 A 
ATOM     61  H   UNL A   1      45.301  27.476  27.135  1.00  0.00     0.167 HD
ATOM     62  C   UNL A   1      41.643  29.073  28.912  1.00  0.00     0.034 A 
ATOM     63  C   UNL A   1      47.932  27.637  26.203  1.00  0.00     0.034 A 
ATOM     64  C   UNL A   1      42.630  30.104  29.089  1.00  0.00     0.049 A 
ATOM     65  C   UNL A   1      47.626  28.963  26.842  1.00  0.00     0.074 A 
ATOM     66  C   UNL A   1      42.490  31.331  29.713  1.00  0.00     0.029 A 
ATOM     67  N   UNL A   1      43.934  30.041  28.622  1.00  0.00    -0.354 N 
ATOM     68  N   UNL A   1      46.531  29.357  27.446  1.00  0.00    -0.248 NA
ATOM     69  C   UNL A   1      48.700  29.965  26.828  1.00  0.00     0.031 C 
ATOM     70  C   UNL A   1      43.698  32.027  29.583  1.00  0.00     0.029 A 
ATOM     71  C   UNL A   1      44.603  31.217  28.919  1.00  0.00     0.049 A 
ATOM     72  H   UNL A   1      44.327  29.273  28.147  1.00  0.00     0.167 HD
ATOM     73  C   UNL A   1      46.795  30.640  27.913  1.00  0.00     0.074 A 
ATOM     74  C   UNL A   1      48.164  30.941  27.547  1.00  0.00     0.031 C 
ATOM     75  C   UNL A   1      45.975  31.496  28.573  1.00  0.00     0.034 A 
BRANCH  62  76
ATOM     76  C   UNL A   1      40.231  29.344  29.367  1.00  0.00     0.023 A 
ATOM     77  C   UNL A   1      39.268  29.799  28.441  1.00  0.00     0.012 A 
ATOM     78  C   UNL A   1      39.845  29.108  30.700  1.00  0.00     0.148 A 
ATOM     79  C   UNL A   1      37.958  30.058  28.845  1.00  0.00     0.002 A 
ATOM     80  C   UNL A   1      38.526  29.319  31.085  1.00  0.00     0.091 A 
ATOM     81  F   UNL A   1      40.777  28.697  31.572  1.00  0.00    -0.205 F 
ATOM     82  C   UNL A   1      37.586  29.807  30.163  1.00  0.00     0.022 A 
BRANCH  80  83
ATOM     83  S   UNL A   1      37.929  28.947  32.737  1.00  0.00     0.127 S 
ATOM     84  O   UNL A   1      36.547  29.421  32.664  1.00  0.00    -0.237 OA
ATOM     85  O   UNL A   1      38.071  27.492  32.795  1.00  0.00    -0.237 OA
ATOM     86  O   UNL A   1      38.794  29.678  33.651  1.00  0.00    -0.744 OA
ENDBRANCH  80  83
ENDBRANCH  62  76
BRANCH  63  87
ATOM     87  C   UNL A   1      49.280  27.352  25.639  1.00  0.00     0.023 A 
ATOM     88  C   UNL A   1      49.466  27.378  24.243  1.00  0.00     0.012 A 
ATOM     89  C   UNL A   1      50.382  27.082  26.474  1.00  0.00     0.148 A 
ATOM     90  C   UNL A   1      50.717  27.110  23.686  1.00  0.00     0.002 A 
ATOM     91  C   UNL A   1      51.637  26.872  25.916  1.00  0.00     0.091 A 
ATOM     92  F   UNL A   1      50.181  27.055  27.799  1.00  0.00    -0.205 F 
ATOM     93  C   UNL A   1      51.804  26.868  24.521  1.00  0.00     0.022 A 
BRANCH  91  94
ATOM     94  S   UNL A   1      53.116  26.677  26.915  1.00  0.00     0.127 S 
ATOM     95  O   UNL A   1      54.080  26.190  25.930  1.00  0.00    -0.237 OA
ATOM     96  O   UNL A   1      53.346  28.045  27.379  1.00  0.00    -0.237 OA
ATOM     97  O   UNL A   1      52.761  25.735  27.968  1.00  0.00    -0.744 OA
ENDBRANCH  91  94
ENDBRANCH  63  87
BRANCH  75  98
ATOM     98  C   UNL A   1      46.546  32.836  28.962  1.00  0.00     0.023 A 
ATOM     99  C   UNL A   1      47.264  32.974  30.168  1.00  0.00     0.012 A 
ATOM    100  C   UNL A   1      46.399  33.954  28.117  1.00  0.00     0.148 A 
ATOM    101  C   UNL A   1      47.779  34.212  30.552  1.00  0.00     0.002 A 
ATOM    102  C   UNL A   1      46.964  35.172  28.478  1.00  0.00     0.091 A 
ATOM    103  F   UNL A   1      45.700  33.811  26.982  1.00  0.00    -0.205 F 
ATOM    104  C   UNL A   1      47.637  35.307  29.704  1.00  0.00     0.022 A 
BRANCH 102 105
ATOM    105  S   UNL A   1      46.919  36.608  27.402  1.00  0.00     0.127 S 
ATOM    106  O   UNL A   1      47.783  37.545  28.118  1.00  0.00    -0.237 OA
ATOM    107  O   UNL A   1      47.487  36.083  26.160  1.00  0.00    -0.237 OA
ATOM    108  O   UNL A   1      45.518  36.993  27.307  1.00  0.00    -0.744 OA
ENDBRANCH 102 105
ENDBRANCH  75  98
ENDBRANCH  49  50
ENDBRANCH  41  44
ENDBRANCH  39  40
ENDBRANCH  38  39
ENDBRANCH  37  38
ENDBRANCH  36  37
ENDBRANCH   1  36
TORSDOF 22
ENDMDL
MODEL 3
REMARK VINA RESULT:     -10.7      6.007      8.363
REMARK SMILES C[C@@H](NC(=O)/C(=C/c1ccc(Cl)cc1)NC(=O)c1ccc(C(C)(C)C)cc1)C(=O)NCCCCCCNC(=O)c1ccc(-c2c3nc(c(-c4cccc(S(=O)(=O)[O-])c4F)c4ccc([nH]4)c(-c4cccc(S(=O)(=O)[O-])c4F)c4nc(c(-c5cccc(S(=O)(=O)[O-])c5F)c5ccc2[nH]5)C=C4)C=C3)cc1
REMARK SMILES IDX 32 1 31 2 30 3 28 4 29 5 2 7 1 8 3 9 4 10 5 12 6 13 7 14
REMARK SMILES IDX 15 15 16 16 17 18 18 19 19 20 27 21 20 22 26 23 21 24 22 25
REMARK SMILES IDX 23 26 24 27 25 28 8 29 9 30 14 31 10 32 13 33 11 34 12 35
REMARK SMILES IDX 33 36 34 37 35 38 36 39 37 40 38 41 39 43 40 44 41 45 102 46
REMARK SMILES IDX 42 47 101 48 43 49 44 50 45 51 95 52 46 53 100 54 94 55
REMARK SMILES IDX 96 56 47 57 99 58 93 59 92 60 48 62 80 63 60 64 79 65 61 66
REMARK SMILES IDX 64 67 78 68 97 69 62 70 63 71 77 73 98 74 65 75 49 76 50 77
REMARK SMILES IDX 58 78 51 79 53 80 59 81 52 82 54 83 55 84 56 85 57 86 81 87
REMARK SMILES IDX 82 88 90 89 83 90 85 91 91 92 84 93 86 94 87 95 88 96 89 97
REMARK SMILES IDX 66 98 67 99 75 100 68 101 70 102 76 103 69 104 71 105 72 106
REMARK SMILES IDX 73 107 74 108
REMARK H PARENT 30 6 3 11 15 17 37 42 96 61 64 72
REMARK Flexibility Score: inf
ROOT
ATOM      1  C   UNL A   1      44.409  23.957  29.784  1.00  0.00     0.021 C 
ENDROOT
BRANCH   1   2
ATOM      2  C   UNL A   1      43.253  24.896  29.474  1.00  0.00     0.116 C 
BRANCH   2   3
ATOM      3  N   UNL A   1      42.534  24.425  28.309  1.00  0.00    -0.354 N 
ATOM      4  C   UNL A   1      41.556  25.043  27.600  1.00  0.00     0.242 C 
ATOM      5  O   UNL A   1      41.003  24.407  26.697  1.00  0.00    -0.273 OA
ATOM      6  H   UNL A   1      42.793  23.532  27.985  1.00  0.00     0.163 HD
BRANCH   4   7
ATOM      7  C   UNL A   1      41.065  26.451  27.978  1.00  0.00     0.168 C 
ATOM      8  C   UNL A   1      41.150  27.314  26.712  1.00  0.00     0.041 C 
BRANCH   7   9
ATOM      9  N   UNL A   1      39.747  26.576  28.631  1.00  0.00    -0.339 N 
ATOM     10  C   UNL A   1      39.131  27.774  28.940  1.00  0.00     0.268 C 
ATOM     11  H   UNL A   1      39.273  25.745  28.863  1.00  0.00     0.164 HD
ATOM     12  O   UNL A   1      38.088  28.087  28.376  1.00  0.00    -0.268 OA
BRANCH  10  13
ATOM     13  C   UNL A   1      39.673  28.583  30.090  1.00  0.00     0.107 C 
ATOM     14  C   UNL A   1      39.250  28.231  31.319  1.00  0.00     0.040 C 
BRANCH  13  15
ATOM     15  N   UNL A   1      40.634  29.560  29.920  1.00  0.00    -0.317 N 
ATOM     16  C   UNL A   1      40.678  30.926  30.041  1.00  0.00     0.255 C 
ATOM     17  H   UNL A   1      41.502  29.183  29.646  1.00  0.00     0.170 HD
ATOM     18  O   UNL A   1      41.700  31.516  29.688  1.00  0.00    -0.269 OA
BRANCH  16  19
ATOM     19  C   UNL A   1      39.550  31.713  30.543  1.00  0.00     0.040 A 
ATOM     20  C   UNL A   1      38.343  31.637  29.853  1.00  0.00     0.014 A 
ATOM     21  C   UNL A   1      39.683  32.551  31.647  1.00  0.00     0.014 A 
ATOM     22  C   UNL A   1      37.227  32.311  30.346  1.00  0.00     0.005 A 
ATOM     23  C   UNL A   1      38.558  33.218  32.139  1.00  0.00     0.005 A 
ATOM     24  C   UNL A   1      37.297  33.071  31.530  1.00  0.00    -0.043 A 
BRANCH  24  25
ATOM     25  C   UNL A   1      36.017  33.693  32.111  1.00  0.00    -0.013 C 
ATOM     26  C   UNL A   1      34.996  33.924  30.981  1.00  0.00     0.016 C 
ATOM     27  C   UNL A   1      35.405  32.741  33.167  1.00  0.00     0.016 C 
ATOM     28  C   UNL A   1      36.258  35.043  32.823  1.00  0.00     0.016 C 
ENDBRANCH  24  25
ENDBRANCH  16  19
ENDBRANCH  13  15
BRANCH  14  29
ATOM     29  C   UNL A   1      39.394  28.926  32.620  1.00  0.00    -0.023 A 
ATOM     30  C   UNL A   1      40.626  29.147  33.255  1.00  0.00     0.010 A 
ATOM     31  C   UNL A   1      38.259  29.548  33.161  1.00  0.00     0.010 A 
ATOM     32  C   UNL A   1      40.716  29.910  34.424  1.00  0.00     0.021 A 
ATOM     33  C   UNL A   1      38.347  30.329  34.319  1.00  0.00     0.021 A 
ATOM     34  C   UNL A   1      39.575  30.499  34.952  1.00  0.00     0.041 A 
ATOM     35  Cl  UNL A   1      39.685  31.462  36.371  1.00  0.00    -0.084 Cl
ENDBRANCH  14  29
ENDBRANCH  10  13
ENDBRANCH   7   9
ENDBRANCH   4   7
ENDBRANCH   2   3
ENDBRANCH   1   2
BRANCH   1  36
ATOM     36  C   UNL A   1      44.147  23.090  31.019  1.00  0.00     0.002 C 
BRANCH  36  37
ATOM     37  C   UNL A   1      44.293  23.835  32.350  1.00  0.00     0.002 C 
BRANCH  37  38
ATOM     38  C   UNL A   1      44.066  22.985  33.599  1.00  0.00     0.021 C 
BRANCH  38  39
ATOM     39  C   UNL A   1      45.334  22.647  34.372  1.00  0.00     0.116 C 
BRANCH  39  40
ATOM     40  N   UNL A   1      45.167  22.828  35.805  1.00  0.00    -0.352 N 
ATOM     41  C   UNL A   1      45.089  23.996  36.520  1.00  0.00     0.251 C 
ATOM     42  H   UNL A   1      45.102  22.000  36.333  1.00  0.00     0.163 HD
ATOM     43  O   UNL A   1      45.126  23.972  37.743  1.00  0.00    -0.269 OA
BRANCH  41  44
ATOM     44  C   UNL A   1      44.981  25.280  35.796  1.00  0.00     0.039 A 
ATOM     45  C   UNL A   1      46.152  25.961  35.463  1.00  0.00     0.014 A 
ATOM     46  C   UNL A   1      43.734  25.791  35.426  1.00  0.00     0.014 A 
ATOM     47  C   UNL A   1      46.071  27.136  34.715  1.00  0.00     0.010 A 
ATOM     48  C   UNL A   1      43.662  26.911  34.606  1.00  0.00     0.010 A 
ATOM     49  C   UNL A   1      44.828  27.603  34.252  1.00  0.00    -0.014 A 
BRANCH  49  50
ATOM     50  C   UNL A   1      44.752  28.800  33.378  1.00  0.00     0.031 A 
ATOM     51  C   UNL A   1      45.086  28.707  31.914  1.00  0.00     0.074 A 
ATOM     52  C   UNL A   1      44.427  29.989  33.923  1.00  0.00     0.049 A 
ATOM     53  N   UNL A   1      45.019  29.637  30.997  1.00  0.00    -0.248 NA
ATOM     54  C   UNL A   1      45.584  27.414  31.420  1.00  0.00     0.031 C 
ATOM     55  C   UNL A   1      44.172  30.226  35.346  1.00  0.00     0.029 A 
ATOM     56  N   UNL A   1      44.262  31.223  33.347  1.00  0.00    -0.354 N 
ATOM     57  C   UNL A   1      45.496  29.055  29.829  1.00  0.00     0.074 A 
ATOM     58  C   UNL A   1      45.885  27.702  30.162  1.00  0.00     0.031 C 
ATOM     59  C   UNL A   1      43.848  31.516  35.525  1.00  0.00     0.029 A 
ATOM     60  C   UNL A   1      43.901  32.203  34.240  1.00  0.00     0.049 A 
ATOM     61  H   UNL A   1      44.389  31.390  32.384  1.00  0.00     0.167 HD
ATOM     62  C   UNL A   1      45.578  29.588  28.586  1.00  0.00     0.034 A 
ATOM     63  C   UNL A   1      43.634  33.509  34.044  1.00  0.00     0.034 A 
ATOM     64  C   UNL A   1      45.161  30.924  28.256  1.00  0.00     0.049 A 
ATOM     65  C   UNL A   1      43.689  34.063  32.647  1.00  0.00     0.074 A 
ATOM     66  C   UNL A   1      45.104  31.524  27.010  1.00  0.00     0.029 A 
ATOM     67  N   UNL A   1      44.751  31.877  29.176  1.00  0.00    -0.354 N 
ATOM     68  N   UNL A   1      43.966  33.447  31.524  1.00  0.00    -0.248 NA
ATOM     69  C   UNL A   1      43.359  35.486  32.489  1.00  0.00     0.031 C 
ATOM     70  C   UNL A   1      44.701  32.854  27.185  1.00  0.00     0.029 A 
ATOM     71  C   UNL A   1      44.464  33.069  28.532  1.00  0.00     0.049 A 
ATOM     72  H   UNL A   1      44.674  31.727  30.146  1.00  0.00     0.167 HD
ATOM     73  C   UNL A   1      43.812  34.397  30.521  1.00  0.00     0.074 A 
ATOM     74  C   UNL A   1      43.388  35.621  31.171  1.00  0.00     0.031 C 
ATOM     75  C   UNL A   1      44.017  34.273  29.186  1.00  0.00     0.034 A 
BRANCH  62  76
ATOM     76  C   UNL A   1      46.119  28.711  27.485  1.00  0.00     0.023 A 
ATOM     77  C   UNL A   1      47.416  28.936  26.977  1.00  0.00     0.012 A 
ATOM     78  C   UNL A   1      45.360  27.637  26.981  1.00  0.00     0.148 A 
ATOM     79  C   UNL A   1      47.930  28.136  25.956  1.00  0.00     0.002 A 
ATOM     80  C   UNL A   1      45.898  26.812  26.000  1.00  0.00     0.091 A 
ATOM     81  F   UNL A   1      44.121  27.450  27.458  1.00  0.00    -0.205 F 
ATOM     82  C   UNL A   1      47.176  27.068  25.477  1.00  0.00     0.022 A 
BRANCH  80  83
ATOM     83  S   UNL A   1      45.040  25.363  25.376  1.00  0.00     0.127 S 
ATOM     84  O   UNL A   1      45.948  24.915  24.320  1.00  0.00    -0.237 OA
ATOM     85  O   UNL A   1      45.002  24.498  26.554  1.00  0.00    -0.237 OA
ATOM     86  O   UNL A   1      43.737  25.831  24.924  1.00  0.00    -0.744 OA
ENDBRANCH  80  83
ENDBRANCH  62  76
BRANCH  63  87
ATOM     87  C   UNL A   1      43.210  34.361  35.190  1.00  0.00     0.023 A 
ATOM     88  C   UNL A   1      44.189  34.990  35.984  1.00  0.00     0.012 A 
ATOM     89  C   UNL A   1      41.849  34.574  35.480  1.00  0.00     0.148 A 
ATOM     90  C   UNL A   1      43.822  35.790  37.066  1.00  0.00     0.002 A 
ATOM     91  C   UNL A   1      41.489  35.417  36.525  1.00  0.00     0.091 A 
ATOM     92  F   UNL A   1      40.934  33.961  34.716  1.00  0.00    -0.205 F 
ATOM     93  C   UNL A   1      42.473  36.012  37.330  1.00  0.00     0.022 A 
BRANCH  91  94
ATOM     94  S   UNL A   1      39.782  35.862  36.861  1.00  0.00     0.127 S 
ATOM     95  O   UNL A   1      39.939  36.927  37.849  1.00  0.00    -0.237 OA
ATOM     96  O   UNL A   1      39.323  36.305  35.544  1.00  0.00    -0.237 OA
ATOM     97  O   UNL A   1      39.143  34.644  37.343  1.00  0.00    -0.744 OA
ENDBRANCH  91  94
ENDBRANCH  63  87
BRANCH  75  98
ATOM     98  C   UNL A   1      43.762  35.490  28.333  1.00  0.00     0.023 A 
ATOM     99  C   UNL A   1      42.472  35.735  27.820  1.00  0.00     0.012 A 
ATOM    100  C   UNL A   1      44.795  36.410  28.065  1.00  0.00     0.148 A 
ATOM    101  C   UNL A   1      42.227  36.845  27.011  1.00  0.00     0.002 A 
ATOM    102  C   UNL A   1      44.530  37.544  27.306  1.00  0.00     0.091 A 
ATOM    103  F   UNL A   1      46.020  36.155  28.545  1.00  0.00    -0.205 F 
ATOM    104  C   UNL A   1      43.252  37.753  26.762  1.00  0.00     0.022 A 
BRANCH 102 105
ATOM    105  S   UNL A   1      45.763  38.818  27.019  1.00  0.00     0.127 S 
ATOM    106  O   UNL A   1      46.597  38.200  25.990  1.00  0.00    -0.237 OA
ATOM    107  O   UNL A   1      44.947  39.939  26.550  1.00  0.00    -0.237 OA
ATOM    108  O   UNL A   1      46.413  39.042  28.303  1.00  0.00    -0.744 OA
ENDBRANCH 102 105
ENDBRANCH  75  98
ENDBRANCH  49  50
ENDBRANCH  41  44
ENDBRANCH  39  40
ENDBRANCH  38  39
ENDBRANCH  37  38
ENDBRANCH  36  37
ENDBRANCH   1  36
TORSDOF 22
ENDMDL
