MODEL 1
REMARK VINA RESULT:      -9.6      0.000      0.000
REMARK SMILES CC(C)[C@H](NC(=O)OCc1ccccc1)C(=O)NCC(=O)NCCCCCCNC(=O)c1ccc(-c2c3nc(c(-c4cccc(S(=O)(=O)[O-])c4F)c4ccc([nH]4)c(-c4cccc(S(=O)(=O)[O-])c4F)c4nc(c(-c5cccc(S(=O)(=O)[O-])c5F)c5ccc2[nH]5)C=C4)C=C3)cc1
REMARK SMILES IDX 24 1 23 2 22 3 20 4 21 5 19 7 18 8 16 9 17 10 4 12 2 13 1 14
REMARK SMILES IDX 3 15 5 16 6 17 7 19 8 20 9 21 10 22 11 23 15 24 12 25 14 26
REMARK SMILES IDX 13 27 25 28 26 29 27 30 28 31 29 32 30 33 31 35 32 36 33 37
REMARK SMILES IDX 94 38 34 39 93 40 35 41 36 42 37 43 87 44 38 45 92 46 86 47
REMARK SMILES IDX 88 48 39 49 91 50 85 51 84 52 40 54 72 55 52 56 71 57 53 58
REMARK SMILES IDX 56 59 70 60 89 61 54 62 55 63 69 65 90 66 57 67 41 68 42 69
REMARK SMILES IDX 50 70 43 71 45 72 51 73 44 74 46 75 47 76 48 77 49 78 73 79
REMARK SMILES IDX 74 80 82 81 75 82 77 83 83 84 76 85 78 86 79 87 80 88 81 89
REMARK SMILES IDX 58 90 59 91 67 92 60 93 62 94 68 95 61 96 63 97 64 98 65 99
REMARK SMILES IDX 66 100
REMARK H PARENT 22 6 18 11 5 18 29 34 88 53 56 64
REMARK Flexibility Score: inf
ROOT
ATOM      1  C   UNL A   1      34.431  31.982  27.988  1.00  0.00     0.021 C 
ENDROOT
BRANCH   1   2
ATOM      2  C   UNL A   1      34.726  30.525  27.646  1.00  0.00     0.116 C 
BRANCH   2   3
ATOM      3  N   UNL A   1      33.579  29.678  27.939  1.00  0.00    -0.355 N 
ATOM      4  C   UNL A   1      32.930  28.820  27.090  1.00  0.00     0.239 C 
ATOM      5  O   UNL A   1      31.844  28.345  27.425  1.00  0.00    -0.273 OA
ATOM      6  H   UNL A   1      33.226  29.728  28.857  1.00  0.00     0.163 HD
BRANCH   4   7
ATOM      7  C   UNL A   1      33.560  28.506  25.732  1.00  0.00     0.216 C 
BRANCH   7   8
ATOM      8  N   UNL A   1      32.724  28.832  24.601  1.00  0.00    -0.345 N 
ATOM      9  C   UNL A   1      31.745  28.128  23.981  1.00  0.00     0.243 C 
ATOM     10  O   UNL A   1      31.059  28.769  23.174  1.00  0.00    -0.273 OA
ATOM     11  H   UNL A   1      32.896  29.720  24.212  1.00  0.00     0.164 HD
BRANCH   9  12
ATOM     12  C   UNL A   1      31.477  26.606  24.184  1.00  0.00     0.177 C 
BRANCH  12  13
ATOM     13  C   UNL A   1      31.469  25.653  22.949  1.00  0.00     0.015 C 
ATOM     14  C   UNL A   1      32.803  25.277  22.292  1.00  0.00     0.010 C 
ATOM     15  C   UNL A   1      30.653  24.385  23.206  1.00  0.00     0.010 C 
ENDBRANCH  12  13
BRANCH  12  16
ATOM     16  N   UNL A   1      30.372  26.333  25.102  1.00  0.00    -0.309 N 
ATOM     17  C   UNL A   1      30.430  25.552  26.223  1.00  0.00     0.408 C 
ATOM     18  H   UNL A   1      29.506  26.751  24.894  1.00  0.00     0.167 HD
ATOM     19  O   UNL A   1      29.380  25.160  26.732  1.00  0.00    -0.225 OA
BRANCH  17  20
ATOM     20  O   UNL A   1      31.673  25.319  26.704  1.00  0.00    -0.445 OA
BRANCH  20  21
ATOM     21  C   UNL A   1      32.129  23.950  26.656  1.00  0.00     0.270 C 
BRANCH  21  22
ATOM     22  C   UNL A   1      33.271  23.696  25.684  1.00  0.00    -0.011 A 
ATOM     23  C   UNL A   1      34.364  24.558  25.574  1.00  0.00     0.007 A 
ATOM     24  C   UNL A   1      33.326  22.484  24.977  1.00  0.00     0.007 A 
ATOM     25  C   UNL A   1      35.519  24.189  24.875  1.00  0.00     0.000 A 
ATOM     26  C   UNL A   1      34.464  22.128  24.241  1.00  0.00     0.000 A 
ATOM     27  C   UNL A   1      35.577  22.964  24.222  1.00  0.00     0.000 A 
ENDBRANCH  21  22
ENDBRANCH  20  21
ENDBRANCH  17  20
ENDBRANCH  12  16
ENDBRANCH   9  12
ENDBRANCH   7   8
ENDBRANCH   4   7
ENDBRANCH   2   3
ENDBRANCH   1   2
BRANCH   1  28
ATOM     28  C   UNL A   1      35.583  32.778  28.611  1.00  0.00     0.002 C 
BRANCH  28  29
ATOM     29  C   UNL A   1      35.380  34.293  28.808  1.00  0.00     0.002 C 
BRANCH  29  30
ATOM     30  C   UNL A   1      33.957  34.888  28.822  1.00  0.00     0.021 C 
BRANCH  30  31
ATOM     31  C   UNL A   1      33.653  36.158  29.641  1.00  0.00     0.116 C 
BRANCH  31  32
ATOM     32  N   UNL A   1      32.621  36.017  30.655  1.00  0.00    -0.352 N 
ATOM     33  C   UNL A   1      32.686  35.457  31.914  1.00  0.00     0.251 C 
ATOM     34  H   UNL A   1      31.740  36.378  30.404  1.00  0.00     0.163 HD
ATOM     35  O   UNL A   1      31.670  35.449  32.609  1.00  0.00    -0.269 OA
BRANCH  33  36
ATOM     36  C   UNL A   1      33.928  34.835  32.454  1.00  0.00     0.039 A 
ATOM     37  C   UNL A   1      33.855  33.549  33.000  1.00  0.00     0.014 A 
ATOM     38  C   UNL A   1      35.145  35.514  32.511  1.00  0.00     0.014 A 
ATOM     39  C   UNL A   1      35.000  32.930  33.530  1.00  0.00     0.010 A 
ATOM     40  C   UNL A   1      36.300  34.887  33.016  1.00  0.00     0.010 A 
ATOM     41  C   UNL A   1      36.251  33.575  33.513  1.00  0.00    -0.014 A 
BRANCH  41  42
ATOM     42  C   UNL A   1      37.498  32.826  33.872  1.00  0.00     0.031 A 
ATOM     43  C   UNL A   1      38.057  31.699  33.039  1.00  0.00     0.074 A 
ATOM     44  C   UNL A   1      38.113  33.123  35.037  1.00  0.00     0.049 A 
ATOM     45  N   UNL A   1      39.162  31.013  33.216  1.00  0.00    -0.248 NA
ATOM     46  C   UNL A   1      37.271  31.267  31.875  1.00  0.00     0.031 C 
ATOM     47  C   UNL A   1      37.631  34.103  36.012  1.00  0.00     0.029 A 
ATOM     48  N   UNL A   1      39.258  32.623  35.611  1.00  0.00    -0.354 N 
ATOM     49  C   UNL A   1      39.196  30.055  32.206  1.00  0.00     0.074 A 
ATOM     50  C   UNL A   1      37.982  30.235  31.435  1.00  0.00     0.031 C 
ATOM     51  C   UNL A   1      38.476  34.142  37.053  1.00  0.00     0.029 A 
ATOM     52  C   UNL A   1      39.552  33.180  36.834  1.00  0.00     0.049 A 
ATOM     53  H   UNL A   1      39.815  31.931  35.186  1.00  0.00     0.167 HD
ATOM     54  C   UNL A   1      40.153  29.131  31.930  1.00  0.00     0.034 A 
ATOM     55  C   UNL A   1      40.570  32.958  37.691  1.00  0.00     0.034 A 
ATOM     56  C   UNL A   1      41.378  28.966  32.678  1.00  0.00     0.049 A 
ATOM     57  C   UNL A   1      41.655  31.984  37.328  1.00  0.00     0.074 A 
ATOM     58  C   UNL A   1      42.454  28.140  32.394  1.00  0.00     0.029 A 
ATOM     59  N   UNL A   1      41.685  29.617  33.862  1.00  0.00    -0.354 N 
ATOM     60  N   UNL A   1      41.772  31.243  36.254  1.00  0.00    -0.248 NA
ATOM     61  C   UNL A   1      42.772  31.848  38.275  1.00  0.00     0.031 C 
ATOM     62  C   UNL A   1      43.398  28.270  33.420  1.00  0.00     0.029 A 
ATOM     63  C   UNL A   1      42.923  29.199  34.330  1.00  0.00     0.049 A 
ATOM     64  H   UNL A   1      41.109  30.280  34.307  1.00  0.00     0.167 HD
ATOM     65  C   UNL A   1      42.984  30.574  36.381  1.00  0.00     0.074 A 
ATOM     66  C   UNL A   1      43.578  31.018  37.625  1.00  0.00     0.031 C 
ATOM     67  C   UNL A   1      43.542  29.664  35.546  1.00  0.00     0.034 A 
BRANCH  54  68
ATOM     68  C   UNL A   1      39.956  28.247  30.720  1.00  0.00     0.023 A 
ATOM     69  C   UNL A   1      39.019  27.195  30.777  1.00  0.00     0.012 A 
ATOM     70  C   UNL A   1      40.619  28.508  29.501  1.00  0.00     0.148 A 
ATOM     71  C   UNL A   1      38.773  26.395  29.662  1.00  0.00     0.002 A 
ATOM     72  C   UNL A   1      40.337  27.732  28.380  1.00  0.00     0.091 A 
ATOM     73  F   UNL A   1      41.513  29.506  29.459  1.00  0.00    -0.205 F 
ATOM     74  C   UNL A   1      39.424  26.667  28.463  1.00  0.00     0.022 A 
BRANCH  72  75
ATOM     75  S   UNL A   1      41.059  28.058  26.767  1.00  0.00     0.127 S 
ATOM     76  O   UNL A   1      42.466  28.264  27.110  1.00  0.00    -0.237 OA
ATOM     77  O   UNL A   1      40.786  26.814  26.045  1.00  0.00    -0.237 OA
ATOM     78  O   UNL A   1      40.361  29.225  26.246  1.00  0.00    -0.744 OA
ENDBRANCH  72  75
ENDBRANCH  54  68
BRANCH  55  79
ATOM     79  C   UNL A   1      40.648  33.753  38.950  1.00  0.00     0.023 A 
ATOM     80  C   UNL A   1      40.097  33.225  40.134  1.00  0.00     0.012 A 
ATOM     81  C   UNL A   1      41.313  34.993  38.991  1.00  0.00     0.148 A 
ATOM     82  C   UNL A   1      40.189  33.930  41.334  1.00  0.00     0.002 A 
ATOM     83  C   UNL A   1      41.452  35.661  40.201  1.00  0.00     0.091 A 
ATOM     84  F   UNL A   1      41.820  35.480  37.849  1.00  0.00    -0.205 F 
ATOM     85  C   UNL A   1      40.877  35.139  41.371  1.00  0.00     0.022 A 
BRANCH  83  86
ATOM     86  S   UNL A   1      42.440  37.152  40.371  1.00  0.00     0.127 S 
ATOM     87  O   UNL A   1      42.291  37.450  41.793  1.00  0.00    -0.237 OA
ATOM     88  O   UNL A   1      43.768  36.680  39.976  1.00  0.00    -0.237 OA
ATOM     89  O   UNL A   1      41.852  38.122  39.457  1.00  0.00    -0.744 OA
ENDBRANCH  83  86
ENDBRANCH  55  79
BRANCH  67  90
ATOM     90  C   UNL A   1      44.883  29.085  35.931  1.00  0.00     0.023 A 
ATOM     91  C   UNL A   1      46.068  29.728  35.519  1.00  0.00     0.012 A 
ATOM     92  C   UNL A   1      44.971  27.936  36.744  1.00  0.00     0.148 A 
ATOM     93  C   UNL A   1      47.316  29.219  35.881  1.00  0.00     0.002 A 
ATOM     94  C   UNL A   1      46.218  27.462  37.139  1.00  0.00     0.091 A 
ATOM     95  F   UNL A   1      43.836  27.324  37.110  1.00  0.00    -0.205 F 
ATOM     96  C   UNL A   1      47.391  28.095  36.698  1.00  0.00     0.022 A 
BRANCH  94  97
ATOM     97  S   UNL A   1      46.411  26.072  38.261  1.00  0.00     0.127 S 
ATOM     98  O   UNL A   1      45.971  26.649  39.530  1.00  0.00    -0.237 OA
ATOM     99  O   UNL A   1      45.494  25.083  37.692  1.00  0.00    -0.237 OA
ATOM    100  O   UNL A   1      47.817  25.698  38.197  1.00  0.00    -0.744 OA
ENDBRANCH  94  97
ENDBRANCH  67  90
ENDBRANCH  41  42
ENDBRANCH  33  36
ENDBRANCH  31  32
ENDBRANCH  30  31
ENDBRANCH  29  30
ENDBRANCH  28  29
ENDBRANCH   1  28
TORSDOF 23
ENDMDL
MODEL 2
REMARK VINA RESULT:      -9.2      8.027     14.580
REMARK SMILES CC(C)[C@H](NC(=O)OCc1ccccc1)C(=O)NCC(=O)NCCCCCCNC(=O)c1ccc(-c2c3nc(c(-c4cccc(S(=O)(=O)[O-])c4F)c4ccc([nH]4)c(-c4cccc(S(=O)(=O)[O-])c4F)c4nc(c(-c5cccc(S(=O)(=O)[O-])c5F)c5ccc2[nH]5)C=C4)C=C3)cc1
REMARK SMILES IDX 24 1 23 2 22 3 20 4 21 5 19 7 18 8 16 9 17 10 4 12 2 13 1 14
REMARK SMILES IDX 3 15 5 16 6 17 7 19 8 20 9 21 10 22 11 23 15 24 12 25 14 26
REMARK SMILES IDX 13 27 25 28 26 29 27 30 28 31 29 32 30 33 31 35 32 36 33 37
REMARK SMILES IDX 94 38 34 39 93 40 35 41 36 42 37 43 87 44 38 45 92 46 86 47
REMARK SMILES IDX 88 48 39 49 91 50 85 51 84 52 40 54 72 55 52 56 71 57 53 58
REMARK SMILES IDX 56 59 70 60 89 61 54 62 55 63 69 65 90 66 57 67 41 68 42 69
REMARK SMILES IDX 50 70 43 71 45 72 51 73 44 74 46 75 47 76 48 77 49 78 73 79
REMARK SMILES IDX 74 80 82 81 75 82 77 83 83 84 76 85 78 86 79 87 80 88 81 89
REMARK SMILES IDX 58 90 59 91 67 92 60 93 62 94 68 95 61 96 63 97 64 98 65 99
REMARK SMILES IDX 66 100
REMARK H PARENT 22 6 18 11 5 18 29 34 88 53 56 64
REMARK Flexibility Score: inf
ROOT
ATOM      1  C   UNL A   1      48.506  37.663  28.098  1.00  0.00     0.021 C 
ENDROOT
BRANCH   1   2
ATOM      2  C   UNL A   1      48.001  38.993  27.551  1.00  0.00     0.116 C 
BRANCH   2   3
ATOM      3  N   UNL A   1      47.769  38.912  26.116  1.00  0.00    -0.355 N 
ATOM      4  C   UNL A   1      47.037  39.766  25.335  1.00  0.00     0.239 C 
ATOM      5  O   UNL A   1      46.752  39.438  24.181  1.00  0.00    -0.273 OA
ATOM      6  H   UNL A   1      48.188  38.151  25.651  1.00  0.00     0.163 HD
BRANCH   4   7
ATOM      7  C   UNL A   1      46.561  41.092  25.932  1.00  0.00     0.216 C 
BRANCH   7   8
ATOM      8  N   UNL A   1      45.486  41.720  25.203  1.00  0.00    -0.345 N 
ATOM      9  C   UNL A   1      44.149  41.749  25.430  1.00  0.00     0.243 C 
ATOM     10  O   UNL A   1      43.511  42.558  24.745  1.00  0.00    -0.273 OA
ATOM     11  H   UNL A   1      45.773  42.212  24.399  1.00  0.00     0.164 HD
BRANCH   9  12
ATOM     12  C   UNL A   1      43.396  40.822  26.431  1.00  0.00     0.177 C 
BRANCH  12  13
ATOM     13  C   UNL A   1      42.059  40.144  25.998  1.00  0.00     0.015 C 
ATOM     14  C   UNL A   1      41.745  38.731  26.507  1.00  0.00     0.010 C 
ATOM     15  C   UNL A   1      40.850  41.051  26.234  1.00  0.00     0.010 C 
ENDBRANCH  12  13
BRANCH  12  16
ATOM     16  N   UNL A   1      43.324  41.373  27.784  1.00  0.00    -0.309 N 
ATOM     17  C   UNL A   1      43.762  40.763  28.927  1.00  0.00     0.408 C 
ATOM     18  H   UNL A   1      42.924  42.267  27.881  1.00  0.00     0.167 HD
ATOM     19  O   UNL A   1      43.376  41.188  30.016  1.00  0.00    -0.225 OA
BRANCH  17  20
ATOM     20  O   UNL A   1      44.640  39.750  28.743  1.00  0.00    -0.445 OA
BRANCH  20  21
ATOM     21  C   UNL A   1      44.428  38.569  29.547  1.00  0.00     0.270 C 
BRANCH  21  22
ATOM     22  C   UNL A   1      44.105  37.312  28.753  1.00  0.00    -0.011 A 
ATOM     23  C   UNL A   1      42.993  36.515  29.037  1.00  0.00     0.007 A 
ATOM     24  C   UNL A   1      44.845  37.009  27.600  1.00  0.00     0.007 A 
ATOM     25  C   UNL A   1      42.564  35.519  28.152  1.00  0.00     0.000 A 
ATOM     26  C   UNL A   1      44.443  35.984  26.733  1.00  0.00     0.000 A 
ATOM     27  C   UNL A   1      43.279  35.265  26.988  1.00  0.00     0.000 A 
ENDBRANCH  21  22
ENDBRANCH  20  21
ENDBRANCH  17  20
ENDBRANCH  12  16
ENDBRANCH   9  12
ENDBRANCH   7   8
ENDBRANCH   4   7
ENDBRANCH   2   3
ENDBRANCH   1   2
BRANCH   1  28
ATOM     28  C   UNL A   1      50.003  37.381  27.923  1.00  0.00     0.002 C 
BRANCH  28  29
ATOM     29  C   UNL A   1      50.708  38.000  26.700  1.00  0.00     0.002 C 
BRANCH  29  30
ATOM     30  C   UNL A   1      52.003  37.368  26.150  1.00  0.00     0.021 C 
BRANCH  30  31
ATOM     31  C   UNL A   1      52.423  35.951  26.584  1.00  0.00     0.116 C 
BRANCH  31  32
ATOM     32  N   UNL A   1      52.302  34.922  25.565  1.00  0.00    -0.352 N 
ATOM     33  C   UNL A   1      51.302  33.994  25.357  1.00  0.00     0.251 C 
ATOM     34  H   UNL A   1      53.048  34.881  24.925  1.00  0.00     0.163 HD
ATOM     35  O   UNL A   1      51.413  33.209  24.416  1.00  0.00    -0.269 OA
BRANCH  33  36
ATOM     36  C   UNL A   1      50.108  33.887  26.243  1.00  0.00     0.039 A 
ATOM     37  C   UNL A   1      48.927  34.534  25.861  1.00  0.00     0.014 A 
ATOM     38  C   UNL A   1      50.143  33.238  27.476  1.00  0.00     0.014 A 
ATOM     39  C   UNL A   1      47.781  34.468  26.673  1.00  0.00     0.010 A 
ATOM     40  C   UNL A   1      48.989  33.148  28.279  1.00  0.00     0.010 A 
ATOM     41  C   UNL A   1      47.783  33.742  27.879  1.00  0.00    -0.014 A 
BRANCH  41  42
ATOM     42  C   UNL A   1      46.504  33.494  28.619  1.00  0.00     0.031 A 
ATOM     43  C   UNL A   1      46.067  34.306  29.814  1.00  0.00     0.074 A 
ATOM     44  C   UNL A   1      45.738  32.446  28.246  1.00  0.00     0.049 A 
ATOM     45  N   UNL A   1      44.953  34.224  30.503  1.00  0.00    -0.248 NA
ATOM     46  C   UNL A   1      47.003  35.319  30.319  1.00  0.00     0.031 C 
ATOM     47  C   UNL A   1      46.081  31.494  27.188  1.00  0.00     0.029 A 
ATOM     48  N   UNL A   1      44.530  31.992  28.720  1.00  0.00    -0.354 N 
ATOM     49  C   UNL A   1      45.059  35.153  31.534  1.00  0.00     0.074 A 
ATOM     50  C   UNL A   1      46.363  35.769  31.393  1.00  0.00     0.031 C 
ATOM     51  C   UNL A   1      45.105  30.580  27.085  1.00  0.00     0.029 A 
ATOM     52  C   UNL A   1      44.073  30.864  28.078  1.00  0.00     0.049 A 
ATOM     53  H   UNL A   1      44.039  32.432  29.451  1.00  0.00     0.167 HD
ATOM     54  C   UNL A   1      44.152  35.481  32.492  1.00  0.00     0.034 A 
ATOM     55  C   UNL A   1      42.952  30.134  28.251  1.00  0.00     0.034 A 
ATOM     56  C   UNL A   1      42.840  34.891  32.620  1.00  0.00     0.049 A 
ATOM     57  C   UNL A   1      41.931  30.561  29.268  1.00  0.00     0.074 A 
ATOM     58  C   UNL A   1      41.816  35.250  33.482  1.00  0.00     0.029 A 
ATOM     59  N   UNL A   1      42.375  33.811  31.887  1.00  0.00    -0.354 N 
ATOM     60  N   UNL A   1      41.962  31.581  30.089  1.00  0.00    -0.248 NA
ATOM     61  C   UNL A   1      40.699  29.763  29.351  1.00  0.00     0.031 C 
ATOM     62  C   UNL A   1      40.744  34.370  33.291  1.00  0.00     0.029 A 
ATOM     63  C   UNL A   1      41.088  33.479  32.289  1.00  0.00     0.049 A 
ATOM     64  H   UNL A   1      42.883  33.346  31.184  1.00  0.00     0.167 HD
ATOM     65  C   UNL A   1      40.748  31.565  30.765  1.00  0.00     0.074 A 
ATOM     66  C   UNL A   1      39.991  30.448  30.240  1.00  0.00     0.031 C 
ATOM     67  C   UNL A   1      40.311  32.394  31.745  1.00  0.00     0.034 A 
BRANCH  54  68
ATOM     68  C   UNL A   1      44.513  36.584  33.460  1.00  0.00     0.023 A 
ATOM     69  C   UNL A   1      45.345  36.293  34.561  1.00  0.00     0.012 A 
ATOM     70  C   UNL A   1      44.115  37.920  33.237  1.00  0.00     0.148 A 
ATOM     71  C   UNL A   1      45.741  37.297  35.443  1.00  0.00     0.002 A 
ATOM     72  C   UNL A   1      44.550  38.924  34.098  1.00  0.00     0.091 A 
ATOM     73  F   UNL A   1      43.319  38.186  32.191  1.00  0.00    -0.205 F 
ATOM     74  C   UNL A   1      45.352  38.612  35.208  1.00  0.00     0.022 A 
BRANCH  72  75
ATOM     75  S   UNL A   1      44.174  40.662  33.831  1.00  0.00     0.127 S 
ATOM     76  O   UNL A   1      44.998  40.965  32.662  1.00  0.00    -0.237 OA
ATOM     77  O   UNL A   1      42.734  40.632  33.570  1.00  0.00    -0.237 OA
ATOM     78  O   UNL A   1      44.551  41.345  35.061  1.00  0.00    -0.744 OA
ENDBRANCH  72  75
ENDBRANCH  54  68
BRANCH  55  79
ATOM     79  C   UNL A   1      42.704  28.961  27.366  1.00  0.00     0.023 A 
ATOM     80  C   UNL A   1      42.074  29.156  26.122  1.00  0.00     0.012 A 
ATOM     81  C   UNL A   1      43.140  27.671  27.725  1.00  0.00     0.148 A 
ATOM     82  C   UNL A   1      41.864  28.081  25.257  1.00  0.00     0.002 A 
ATOM     83  C   UNL A   1      42.979  26.616  26.834  1.00  0.00     0.091 A 
ATOM     84  F   UNL A   1      43.726  27.508  28.919  1.00  0.00    -0.205 F 
ATOM     85  C   UNL A   1      42.328  26.816  25.607  1.00  0.00     0.022 A 
BRANCH  83  86
ATOM     86  S   UNL A   1      43.668  24.985  27.137  1.00  0.00     0.127 S 
ATOM     87  O   UNL A   1      43.314  24.277  25.910  1.00  0.00    -0.237 OA
ATOM     88  O   UNL A   1      45.093  25.283  27.288  1.00  0.00    -0.237 OA
ATOM     89  O   UNL A   1      43.024  24.504  28.352  1.00  0.00    -0.744 OA
ENDBRANCH  83  86
ENDBRANCH  55  79
BRANCH  67  90
ATOM     90  C   UNL A   1      38.934  32.146  32.315  1.00  0.00     0.023 A 
ATOM     91  C   UNL A   1      38.799  31.529  33.574  1.00  0.00     0.012 A 
ATOM     92  C   UNL A   1      37.778  32.571  31.629  1.00  0.00     0.148 A 
ATOM     93  C   UNL A   1      37.536  31.308  34.127  1.00  0.00     0.002 A 
ATOM     94  C   UNL A   1      36.525  32.389  32.207  1.00  0.00     0.091 A 
ATOM     95  F   UNL A   1      37.922  33.137  30.422  1.00  0.00    -0.205 F 
ATOM     96  C   UNL A   1      36.402  31.747  33.449  1.00  0.00     0.022 A 
BRANCH  94  97
ATOM     97  S   UNL A   1      35.014  33.000  31.448  1.00  0.00     0.127 S 
ATOM     98  O   UNL A   1      34.950  32.200  30.226  1.00  0.00    -0.237 OA
ATOM     99  O   UNL A   1      34.003  32.662  32.451  1.00  0.00    -0.237 OA
ATOM    100  O   UNL A   1      35.215  34.429  31.251  1.00  0.00    -0.744 OA
ENDBRANCH  94  97
ENDBRANCH  67  90
ENDBRANCH  41  42
ENDBRANCH  33  36
ENDBRANCH  31  32
ENDBRANCH  30  31
ENDBRANCH  29  30
ENDBRANCH  28  29
ENDBRANCH   1  28
TORSDOF 23
ENDMDL
MODEL 3
REMARK VINA RESULT:      -9.0      3.188      8.654
REMARK SMILES CC(C)[C@H](NC(=O)OCc1ccccc1)C(=O)NCC(=O)NCCCCCCNC(=O)c1ccc(-c2c3nc(c(-c4cccc(S(=O)(=O)[O-])c4F)c4ccc([nH]4)c(-c4cccc(S(=O)(=O)[O-])c4F)c4nc(c(-c5cccc(S(=O)(=O)[O-])c5F)c5ccc2[nH]5)C=C4)C=C3)cc1
REMARK SMILES IDX 24 1 23 2 22 3 20 4 21 5 19 7 18 8 16 9 17 10 4 12 2 13 1 14
REMARK SMILES IDX 3 15 5 16 6 17 7 19 8 20 9 21 10 22 11 23 15 24 12 25 14 26
REMARK SMILES IDX 13 27 25 28 26 29 27 30 28 31 29 32 30 33 31 35 32 36 33 37
REMARK SMILES IDX 94 38 34 39 93 40 35 41 36 42 37 43 87 44 38 45 92 46 86 47
REMARK SMILES IDX 88 48 39 49 91 50 85 51 84 52 40 54 72 55 52 56 71 57 53 58
REMARK SMILES IDX 56 59 70 60 89 61 54 62 55 63 69 65 90 66 57 67 41 68 42 69
REMARK SMILES IDX 50 70 43 71 45 72 51 73 44 74 46 75 47 76 48 77 49 78 73 79
REMARK SMILES IDX 74 80 82 81 75 82 77 83 83 84 76 85 78 86 79 87 80 88 81 89
REMARK SMILES IDX 58 90 59 91 67 92 60 93 62 94 68 95 61 96 63 97 64 98 65 99
REMARK SMILES IDX 66 100
REMARK H PARENT 22 6 18 11 5 18 29 34 88 53 56 64
REMARK Flexibility Score: inf
ROOT
ATOM      1  C   UNL A   1      31.269  30.594  25.619  1.00  0.00     0.021 C 
ENDROOT
BRANCH   1   2
ATOM      2  C   UNL A   1      31.353  29.538  24.521  1.00  0.00     0.116 C 
BRANCH   2   3
ATOM      3  N   UNL A   1      30.432  29.841  23.435  1.00  0.00    -0.355 N 
ATOM      4  C   UNL A   1      30.101  29.047  22.369  1.00  0.00     0.239 C 
ATOM      5  O   UNL A   1      29.480  29.533  21.421  1.00  0.00    -0.273 OA
ATOM      6  H   UNL A   1      29.995  30.723  23.470  1.00  0.00     0.163 HD
BRANCH   4   7
ATOM      7  C   UNL A   1      30.545  27.583  22.371  1.00  0.00     0.216 C 
BRANCH   7   8
ATOM      8  N   UNL A   1      31.917  27.379  21.972  1.00  0.00    -0.345 N 
ATOM      9  C   UNL A   1      32.786  26.372  22.240  1.00  0.00     0.243 C 
ATOM     10  O   UNL A   1      33.826  26.376  21.570  1.00  0.00    -0.273 OA
ATOM     11  H   UNL A   1      32.287  28.096  21.408  1.00  0.00     0.164 HD
BRANCH   9  12
ATOM     12  C   UNL A   1      32.577  25.283  23.335  1.00  0.00     0.177 C 
BRANCH  12  13
ATOM     13  C   UNL A   1      32.064  23.867  22.927  1.00  0.00     0.015 C 
ATOM     14  C   UNL A   1      33.085  22.743  22.707  1.00  0.00     0.010 C 
ATOM     15  C   UNL A   1      30.950  23.370  23.850  1.00  0.00     0.010 C 
ENDBRANCH  12  13
BRANCH  12  16
ATOM     16  N   UNL A   1      31.907  25.791  24.532  1.00  0.00    -0.309 N 
ATOM     17  C   UNL A   1      32.307  25.596  25.824  1.00  0.00     0.408 C 
ATOM     18  H   UNL A   1      31.091  26.324  24.394  1.00  0.00     0.167 HD
ATOM     19  O   UNL A   1      31.508  25.809  26.736  1.00  0.00    -0.225 OA
BRANCH  17  20
ATOM     20  O   UNL A   1      33.598  25.220  25.980  1.00  0.00    -0.445 OA
BRANCH  20  21
ATOM     21  C   UNL A   1      33.817  23.868  26.438  1.00  0.00     0.270 C 
BRANCH  21  22
ATOM     22  C   UNL A   1      35.006  23.167  25.798  1.00  0.00    -0.011 A 
ATOM     23  C   UNL A   1      35.219  21.792  25.925  1.00  0.00     0.007 A 
ATOM     24  C   UNL A   1      35.843  23.877  24.923  1.00  0.00     0.007 A 
ATOM     25  C   UNL A   1      36.158  21.122  25.131  1.00  0.00     0.000 A 
ATOM     26  C   UNL A   1      36.813  23.216  24.157  1.00  0.00     0.000 A 
ATOM     27  C   UNL A   1      36.944  21.833  24.232  1.00  0.00     0.000 A 
ENDBRANCH  21  22
ENDBRANCH  20  21
ENDBRANCH  17  20
ENDBRANCH  12  16
ENDBRANCH   9  12
ENDBRANCH   7   8
ENDBRANCH   4   7
ENDBRANCH   2   3
ENDBRANCH   1   2
BRANCH   1  28
ATOM     28  C   UNL A   1      31.946  30.244  26.949  1.00  0.00     0.002 C 
BRANCH  28  29
ATOM     29  C   UNL A   1      33.476  30.066  26.947  1.00  0.00     0.002 C 
BRANCH  29  30
ATOM     30  C   UNL A   1      34.388  31.193  27.477  1.00  0.00     0.021 C 
BRANCH  30  31
ATOM     31  C   UNL A   1      34.098  31.852  28.839  1.00  0.00     0.116 C 
BRANCH  31  32
ATOM     32  N   UNL A   1      34.545  33.229  28.976  1.00  0.00    -0.352 N 
ATOM     33  C   UNL A   1      35.789  33.729  29.303  1.00  0.00     0.251 C 
ATOM     34  H   UNL A   1      33.853  33.909  28.809  1.00  0.00     0.163 HD
ATOM     35  O   UNL A   1      35.937  34.950  29.360  1.00  0.00    -0.269 OA
BRANCH  33  36
ATOM     36  C   UNL A   1      36.951  32.851  29.617  1.00  0.00     0.039 A 
ATOM     37  C   UNL A   1      38.236  33.287  29.275  1.00  0.00     0.014 A 
ATOM     38  C   UNL A   1      36.804  31.576  30.163  1.00  0.00     0.014 A 
ATOM     39  C   UNL A   1      39.358  32.485  29.543  1.00  0.00     0.010 A 
ATOM     40  C   UNL A   1      37.928  30.781  30.457  1.00  0.00     0.010 A 
ATOM     41  C   UNL A   1      39.226  31.233  30.173  1.00  0.00    -0.014 A 
BRANCH  41  42
ATOM     42  C   UNL A   1      40.436  30.491  30.652  1.00  0.00     0.031 A 
ATOM     43  C   UNL A   1      41.197  30.866  31.901  1.00  0.00     0.074 A 
ATOM     44  C   UNL A   1      40.916  29.482  29.893  1.00  0.00     0.049 A 
ATOM     45  N   UNL A   1      42.226  30.264  32.451  1.00  0.00    -0.248 NA
ATOM     46  C   UNL A   1      40.771  32.079  32.611  1.00  0.00     0.031 C 
ATOM     47  C   UNL A   1      40.366  29.076  28.598  1.00  0.00     0.029 A 
ATOM     48  N   UNL A   1      41.979  28.631  30.081  1.00  0.00    -0.354 N 
ATOM     49  C   UNL A   1      42.587  31.032  33.554  1.00  0.00     0.074 A 
ATOM     50  C   UNL A   1      41.679  32.161  33.578  1.00  0.00     0.031 C 
ATOM     51  C   UNL A   1      41.084  28.050  28.117  1.00  0.00     0.029 A 
ATOM     52  C   UNL A   1      42.157  27.733  29.054  1.00  0.00     0.049 A 
ATOM     53  H   UNL A   1      42.559  28.662  30.877  1.00  0.00     0.167 HD
ATOM     54  C   UNL A   1      43.564  30.810  34.473  1.00  0.00     0.034 A 
ATOM     55  C   UNL A   1      43.070  26.757  28.875  1.00  0.00     0.034 A 
ATOM     56  C   UNL A   1      44.453  29.672  34.471  1.00  0.00     0.049 A 
ATOM     57  C   UNL A   1      44.093  26.484  29.941  1.00  0.00     0.074 A 
ATOM     58  C   UNL A   1      45.384  29.306  35.430  1.00  0.00     0.029 A 
ATOM     59  N   UNL A   1      44.540  28.728  33.460  1.00  0.00    -0.354 N 
ATOM     60  N   UNL A   1      44.275  27.097  31.085  1.00  0.00    -0.248 NA
ATOM     61  C   UNL A   1      45.009  25.356  29.713  1.00  0.00     0.031 C 
ATOM     62  C   UNL A   1      46.055  28.160  34.986  1.00  0.00     0.029 A 
ATOM     63  C   UNL A   1      45.521  27.793  33.762  1.00  0.00     0.049 A 
ATOM     64  H   UNL A   1      43.987  28.722  32.645  1.00  0.00     0.167 HD
ATOM     65  C   UNL A   1      45.305  26.415  31.724  1.00  0.00     0.074 A 
ATOM     66  C   UNL A   1      45.690  25.325  30.851  1.00  0.00     0.031 C 
ATOM     67  C   UNL A   1      45.885  26.682  32.919  1.00  0.00     0.034 A 
BRANCH  54  68
ATOM     68  C   UNL A   1      43.695  31.789  35.617  1.00  0.00     0.023 A 
ATOM     69  C   UNL A   1      44.583  32.878  35.495  1.00  0.00     0.012 A 
ATOM     70  C   UNL A   1      42.881  31.694  36.766  1.00  0.00     0.148 A 
ATOM     71  C   UNL A   1      44.689  33.830  36.509  1.00  0.00     0.002 A 
ATOM     72  C   UNL A   1      42.962  32.672  37.754  1.00  0.00     0.091 A 
ATOM     73  F   UNL A   1      42.045  30.652  36.875  1.00  0.00    -0.205 F 
ATOM     74  C   UNL A   1      43.875  33.733  37.633  1.00  0.00     0.022 A 
BRANCH  72  75
ATOM     75  S   UNL A   1      41.893  32.682  39.199  1.00  0.00     0.127 S 
ATOM     76  O   UNL A   1      42.390  31.525  39.942  1.00  0.00    -0.237 OA
ATOM     77  O   UNL A   1      42.206  33.976  39.809  1.00  0.00    -0.237 OA
ATOM     78  O   UNL A   1      40.534  32.566  38.691  1.00  0.00    -0.744 OA
ENDBRANCH  72  75
ENDBRANCH  54  68
BRANCH  55  79
ATOM     79  C   UNL A   1      42.992  25.903  27.655  1.00  0.00     0.023 A 
ATOM     80  C   UNL A   1      43.646  26.319  26.479  1.00  0.00     0.012 A 
ATOM     81  C   UNL A   1      42.329  24.662  27.674  1.00  0.00     0.148 A 
ATOM     82  C   UNL A   1      43.622  25.521  25.335  1.00  0.00     0.002 A 
ATOM     83  C   UNL A   1      42.358  23.847  26.549  1.00  0.00     0.091 A 
ATOM     84  F   UNL A   1      41.704  24.293  28.802  1.00  0.00    -0.205 F 
ATOM     85  C   UNL A   1      42.991  24.281  25.374  1.00  0.00     0.022 A 
BRANCH  83  86
ATOM     86  S   UNL A   1      41.695  22.177  26.551  1.00  0.00     0.127 S 
ATOM     87  O   UNL A   1      42.290  21.619  27.762  1.00  0.00    -0.237 OA
ATOM     88  O   UNL A   1      40.254  22.426  26.630  1.00  0.00    -0.237 OA
ATOM     89  O   UNL A   1      42.132  21.577  25.298  1.00  0.00    -0.744 OA
ENDBRANCH  83  86
ENDBRANCH  55  79
BRANCH  67  90
ATOM     90  C   UNL A   1      46.998  25.771  33.380  1.00  0.00     0.023 A 
ATOM     91  C   UNL A   1      48.335  26.085  33.066  1.00  0.00     0.012 A 
ATOM     92  C   UNL A   1      46.725  24.634  34.169  1.00  0.00     0.148 A 
ATOM     93  C   UNL A   1      49.379  25.266  33.499  1.00  0.00     0.002 A 
ATOM     94  C   UNL A   1      47.774  23.849  34.636  1.00  0.00     0.091 A 
ATOM     95  F   UNL A   1      45.447  24.337  34.442  1.00  0.00    -0.205 F 
ATOM     96  C   UNL A   1      49.100  24.156  34.292  1.00  0.00     0.022 A 
BRANCH  94  97
ATOM     97  S   UNL A   1      47.518  22.449  35.735  1.00  0.00     0.127 S 
ATOM     98  O   UNL A   1      46.059  22.364  35.773  1.00  0.00    -0.237 OA
ATOM     99  O   UNL A   1      48.172  21.360  35.009  1.00  0.00    -0.237 OA
ATOM    100  O   UNL A   1      48.157  22.806  36.994  1.00  0.00    -0.744 OA
ENDBRANCH  94  97
ENDBRANCH  67  90
ENDBRANCH  41  42
ENDBRANCH  33  36
ENDBRANCH  31  32
ENDBRANCH  30  31
ENDBRANCH  29  30
ENDBRANCH  28  29
ENDBRANCH   1  28
TORSDOF 23
ENDMDL
