MODEL 1
REMARK VINA RESULT:     -11.8      0.000      0.000
REMARK SMILES COc1ccc2cc([C@H](C)C(=O)NCCCCCCNC(=O)c3ccc(-c4c5nc(c(-c6cccc(S(=O)(=O)[O-])c6F)c6ccc([nH]6)c(-c6cccc(S(=O)(=O)[O-])c6F)c6nc(c(-c7cccc(S(=O)(=O)[O-])c7F)c7ccc4[nH]7)C=C6)C=C5)cc3)ccc2c1
REMARK SMILES IDX 17 1 16 2 15 3 14 4 13 5 11 6 12 7 9 9 10 10 8 11 3 12 4 13
REMARK SMILES IDX 89 14 5 15 88 16 6 17 87 18 7 19 86 20 2 21 1 22 18 23 19 24
REMARK SMILES IDX 20 25 21 26 22 28 23 29 24 30 85 31 25 32 84 33 26 34 27 35
REMARK SMILES IDX 28 36 78 37 29 38 83 39 77 40 79 41 30 42 82 43 76 44 75 45
REMARK SMILES IDX 31 47 63 48 43 49 62 50 44 51 47 52 61 53 80 54 45 55 46 56
REMARK SMILES IDX 60 58 81 59 48 60 32 61 33 62 41 63 34 64 36 65 42 66 35 67
REMARK SMILES IDX 37 68 38 69 39 70 40 71 64 72 65 73 73 74 66 75 68 76 74 77
REMARK SMILES IDX 67 78 69 79 70 80 71 81 72 82 49 83 50 84 58 85 51 86 53 87
REMARK SMILES IDX 59 88 52 89 54 90 55 91 56 92 57 93
REMARK H PARENT 13 8 20 27 79 46 47 57
REMARK Flexibility Score: inf
ROOT
ATOM      1  C   UNL A   1      36.636  20.690  24.775  1.00  0.00     0.002 C 
ENDROOT
BRANCH   1   2
ATOM      2  C   UNL A   1      37.073  22.111  24.398  1.00  0.00     0.002 C 
BRANCH   2   3
ATOM      3  C   UNL A   1      36.150  22.825  23.404  1.00  0.00     0.021 C 
BRANCH   3   4
ATOM      4  C   UNL A   1      35.225  23.844  24.057  1.00  0.00     0.116 C 
BRANCH   4   5
ATOM      5  N   UNL A   1      34.246  24.340  23.104  1.00  0.00    -0.356 N 
ATOM      6  C   UNL A   1      32.884  24.309  23.159  1.00  0.00     0.227 C 
ATOM      7  O   UNL A   1      32.261  24.861  22.248  1.00  0.00    -0.274 OA
ATOM      8  H   UNL A   1      34.623  24.764  22.299  1.00  0.00     0.163 HD
BRANCH   6   9
ATOM      9  C   UNL A   1      32.148  23.598  24.299  1.00  0.00     0.105 C 
ATOM     10  C   UNL A   1      30.651  23.936  24.215  1.00  0.00     0.023 C 
BRANCH   9  11
ATOM     11  C   UNL A   1      32.490  22.117  24.463  1.00  0.00    -0.035 A 
ATOM     12  C   UNL A   1      33.218  17.106  23.858  1.00  0.00     0.119 A 
ATOM     13  C   UNL A   1      32.678  17.565  22.658  1.00  0.00     0.047 A 
ATOM     14  C   UNL A   1      33.432  18.004  24.903  1.00  0.00     0.055 A 
ATOM     15  C   UNL A   1      32.374  18.922  22.501  1.00  0.00     0.012 A 
ATOM     16  C   UNL A   1      33.117  19.363  24.762  1.00  0.00    -0.015 A 
ATOM     17  C   UNL A   1      32.590  19.837  23.544  1.00  0.00    -0.018 A 
ATOM     18  C   UNL A   1      33.297  20.255  25.823  1.00  0.00     0.009 A 
ATOM     19  C   UNL A   1      32.288  21.209  23.409  1.00  0.00     0.013 A 
ATOM     20  C   UNL A   1      32.954  21.600  25.685  1.00  0.00     0.005 A 
BRANCH  12  21
ATOM     21  O   UNL A   1      33.507  15.802  24.144  1.00  0.00    -0.497 OA
ATOM     22  C   UNL A   1      33.004  15.322  25.387  1.00  0.00     0.278 C 
ENDBRANCH  12  21
ENDBRANCH   9  11
ENDBRANCH   6   9
ENDBRANCH   4   5
ENDBRANCH   3   4
ENDBRANCH   2   3
ENDBRANCH   1   2
BRANCH   1  23
ATOM     23  C   UNL A   1      37.782  19.696  24.976  1.00  0.00     0.021 C 
BRANCH  23  24
ATOM     24  C   UNL A   1      38.990  20.267  25.710  1.00  0.00     0.116 C 
BRANCH  24  25
ATOM     25  N   UNL A   1      40.015  19.259  25.937  1.00  0.00    -0.352 N 
ATOM     26  C   UNL A   1      41.354  19.429  26.172  1.00  0.00     0.251 C 
ATOM     27  H   UNL A   1      39.703  18.326  25.918  1.00  0.00     0.163 HD
ATOM     28  O   UNL A   1      42.112  18.461  26.141  1.00  0.00    -0.269 OA
BRANCH  26  29
ATOM     29  C   UNL A   1      41.883  20.780  26.447  1.00  0.00     0.039 A 
ATOM     30  C   UNL A   1      42.148  21.636  25.376  1.00  0.00     0.014 A 
ATOM     31  C   UNL A   1      42.113  21.202  27.760  1.00  0.00     0.014 A 
ATOM     32  C   UNL A   1      42.598  22.933  25.625  1.00  0.00     0.010 A 
ATOM     33  C   UNL A   1      42.485  22.519  28.008  1.00  0.00     0.010 A 
ATOM     34  C   UNL A   1      42.743  23.395  26.944  1.00  0.00    -0.014 A 
BRANCH  34  35
ATOM     35  C   UNL A   1      43.160  24.792  27.226  1.00  0.00     0.031 A 
ATOM     36  C   UNL A   1      42.205  25.751  27.886  1.00  0.00     0.074 A 
ATOM     37  C   UNL A   1      44.374  25.217  26.824  1.00  0.00     0.049 A 
ATOM     38  N   UNL A   1      42.380  27.014  28.180  1.00  0.00    -0.248 NA
ATOM     39  C   UNL A   1      40.873  25.234  28.238  1.00  0.00     0.031 C 
ATOM     40  C   UNL A   1      45.359  24.404  26.106  1.00  0.00     0.029 A 
ATOM     41  N   UNL A   1      44.979  26.443  26.941  1.00  0.00    -0.354 N 
ATOM     42  C   UNL A   1      41.175  27.448  28.719  1.00  0.00     0.074 A 
ATOM     43  C   UNL A   1      40.263  26.326  28.676  1.00  0.00     0.031 C 
ATOM     44  C   UNL A   1      46.448  25.149  25.857  1.00  0.00     0.029 A 
ATOM     45  C   UNL A   1      46.227  26.499  26.365  1.00  0.00     0.049 A 
ATOM     46  H   UNL A   1      44.559  27.209  27.394  1.00  0.00     0.167 HD
ATOM     47  C   UNL A   1      40.862  28.663  29.229  1.00  0.00     0.034 A 
ATOM     48  C   UNL A   1      47.092  27.526  26.250  1.00  0.00     0.034 A 
ATOM     49  C   UNL A   1      41.782  29.766  29.301  1.00  0.00     0.049 A 
ATOM     50  C   UNL A   1      46.730  28.856  26.851  1.00  0.00     0.074 A 
ATOM     51  C   UNL A   1      41.589  31.010  29.875  1.00  0.00     0.029 A 
ATOM     52  N   UNL A   1      43.063  29.764  28.772  1.00  0.00    -0.354 N 
ATOM     53  N   UNL A   1      45.642  29.203  27.495  1.00  0.00    -0.248 NA
ATOM     54  C   UNL A   1      47.731  29.929  26.741  1.00  0.00     0.031 C 
ATOM     55  C   UNL A   1      42.741  31.772  29.662  1.00  0.00     0.029 A 
ATOM     56  C   UNL A   1      43.668  30.989  28.993  1.00  0.00     0.049 A 
ATOM     57  H   UNL A   1      43.481  29.003  28.307  1.00  0.00     0.167 HD
ATOM     58  C   UNL A   1      45.842  30.517  27.901  1.00  0.00     0.074 A 
ATOM     59  C   UNL A   1      47.164  30.898  27.447  1.00  0.00     0.031 C 
ATOM     60  C   UNL A   1      45.003  31.339  28.579  1.00  0.00     0.034 A 
BRANCH  47  61
ATOM     61  C   UNL A   1      39.477  28.852  29.793  1.00  0.00     0.023 A 
ATOM     62  C   UNL A   1      39.187  28.409  31.100  1.00  0.00     0.012 A 
ATOM     63  C   UNL A   1      38.480  29.523  29.056  1.00  0.00     0.148 A 
ATOM     64  C   UNL A   1      37.920  28.594  31.650  1.00  0.00     0.002 A 
ATOM     65  C   UNL A   1      37.234  29.748  29.630  1.00  0.00     0.091 A 
ATOM     66  F   UNL A   1      38.767  29.922  27.809  1.00  0.00    -0.205 F 
ATOM     67  C   UNL A   1      36.949  29.274  30.920  1.00  0.00     0.022 A 
BRANCH  65  68
ATOM     68  S   UNL A   1      35.942  30.684  28.806  1.00  0.00     0.127 S 
ATOM     69  O   UNL A   1      35.240  29.633  28.072  1.00  0.00    -0.237 OA
ATOM     70  O   UNL A   1      35.198  31.240  29.938  1.00  0.00    -0.237 OA
ATOM     71  O   UNL A   1      36.623  31.672  27.981  1.00  0.00    -0.744 OA
ENDBRANCH  65  68
ENDBRANCH  47  61
BRANCH  48  72
ATOM     72  C   UNL A   1      48.412  27.319  25.588  1.00  0.00     0.023 A 
ATOM     73  C   UNL A   1      49.524  26.935  26.363  1.00  0.00     0.012 A 
ATOM     74  C   UNL A   1      48.568  27.483  24.198  1.00  0.00     0.148 A 
ATOM     75  C   UNL A   1      50.775  26.755  25.773  1.00  0.00     0.002 A 
ATOM     76  C   UNL A   1      49.804  27.246  23.608  1.00  0.00     0.091 A 
ATOM     77  F   UNL A   1      47.500  27.856  23.480  1.00  0.00    -0.205 F 
ATOM     78  C   UNL A   1      50.913  26.901  24.396  1.00  0.00     0.022 A 
BRANCH  76  79
ATOM     79  S   UNL A   1      50.046  27.286  21.828  1.00  0.00     0.127 S 
ATOM     80  O   UNL A   1      49.818  28.698  21.527  1.00  0.00    -0.237 OA
ATOM     81  O   UNL A   1      51.435  26.845  21.704  1.00  0.00    -0.237 OA
ATOM     82  O   UNL A   1      49.069  26.359  21.276  1.00  0.00    -0.744 OA
ENDBRANCH  76  79
ENDBRANCH  48  72
BRANCH  60  83
ATOM     83  C   UNL A   1      45.499  32.721  28.918  1.00  0.00     0.023 A 
ATOM     84  C   UNL A   1      46.172  32.951  30.134  1.00  0.00     0.012 A 
ATOM     85  C   UNL A   1      45.359  33.776  27.994  1.00  0.00     0.148 A 
ATOM     86  C   UNL A   1      46.666  34.219  30.440  1.00  0.00     0.002 A 
ATOM     87  C   UNL A   1      45.901  35.022  28.283  1.00  0.00     0.091 A 
ATOM     88  F   UNL A   1      44.699  33.540  26.850  1.00  0.00    -0.205 F 
ATOM     89  C   UNL A   1      46.542  35.249  29.511  1.00  0.00     0.022 A 
BRANCH  87  90
ATOM     90  S   UNL A   1      45.878  36.379  27.106  1.00  0.00     0.127 S 
ATOM     91  O   UNL A   1      44.459  36.733  27.089  1.00  0.00    -0.237 OA
ATOM     92  O   UNL A   1      46.744  37.364  27.755  1.00  0.00    -0.237 OA
ATOM     93  O   UNL A   1      46.401  35.841  25.859  1.00  0.00    -0.744 OA
ENDBRANCH  87  90
ENDBRANCH  60  83
ENDBRANCH  34  35
ENDBRANCH  26  29
ENDBRANCH  24  25
ENDBRANCH  23  24
ENDBRANCH   1  23
TORSDOF 18
ENDMDL
MODEL 2
REMARK VINA RESULT:     -11.8      5.701     10.960
REMARK SMILES COc1ccc2cc([C@H](C)C(=O)NCCCCCCNC(=O)c3ccc(-c4c5nc(c(-c6cccc(S(=O)(=O)[O-])c6F)c6ccc([nH]6)c(-c6cccc(S(=O)(=O)[O-])c6F)c6nc(c(-c7cccc(S(=O)(=O)[O-])c7F)c7ccc4[nH]7)C=C6)C=C5)cc3)ccc2c1
REMARK SMILES IDX 17 1 16 2 15 3 14 4 13 5 11 6 12 7 9 9 10 10 8 11 3 12 4 13
REMARK SMILES IDX 89 14 5 15 88 16 6 17 87 18 7 19 86 20 2 21 1 22 18 23 19 24
REMARK SMILES IDX 20 25 21 26 22 28 23 29 24 30 85 31 25 32 84 33 26 34 27 35
REMARK SMILES IDX 28 36 78 37 29 38 83 39 77 40 79 41 30 42 82 43 76 44 75 45
REMARK SMILES IDX 31 47 63 48 43 49 62 50 44 51 47 52 61 53 80 54 45 55 46 56
REMARK SMILES IDX 60 58 81 59 48 60 32 61 33 62 41 63 34 64 36 65 42 66 35 67
REMARK SMILES IDX 37 68 38 69 39 70 40 71 64 72 65 73 73 74 66 75 68 76 74 77
REMARK SMILES IDX 67 78 69 79 70 80 71 81 72 82 49 83 50 84 58 85 51 86 53 87
REMARK SMILES IDX 59 88 52 89 54 90 55 91 56 92 57 93
REMARK H PARENT 13 8 20 27 79 46 47 57
REMARK Flexibility Score: inf
ROOT
ATOM      1  C   UNL A   1      32.474  26.632  26.121  1.00  0.00     0.002 C 
ENDROOT
BRANCH   1   2
ATOM      2  C   UNL A   1      33.742  26.330  25.314  1.00  0.00     0.002 C 
BRANCH   2   3
ATOM      3  C   UNL A   1      34.609  25.198  25.878  1.00  0.00     0.021 C 
BRANCH   3   4
ATOM      4  C   UNL A   1      34.861  24.071  24.883  1.00  0.00     0.116 C 
BRANCH   4   5
ATOM      5  N   UNL A   1      34.077  22.896  25.222  1.00  0.00    -0.356 N 
ATOM      6  C   UNL A   1      33.240  22.153  24.444  1.00  0.00     0.227 C 
ATOM      7  O   UNL A   1      32.732  21.147  24.947  1.00  0.00    -0.274 OA
ATOM      8  H   UNL A   1      34.165  22.589  26.154  1.00  0.00     0.163 HD
BRANCH   6   9
ATOM      9  C   UNL A   1      32.922  22.558  23.002  1.00  0.00     0.105 C 
ATOM     10  C   UNL A   1      32.151  21.417  22.319  1.00  0.00     0.023 C 
BRANCH   9  11
ATOM     11  C   UNL A   1      32.326  23.957  22.841  1.00  0.00    -0.035 A 
ATOM     12  C   UNL A   1      29.464  28.173  23.045  1.00  0.00     0.119 A 
ATOM     13  C   UNL A   1      28.809  27.224  23.827  1.00  0.00     0.047 A 
ATOM     14  C   UNL A   1      30.656  27.832  22.406  1.00  0.00     0.055 A 
ATOM     15  C   UNL A   1      29.358  25.946  23.985  1.00  0.00     0.012 A 
ATOM     16  C   UNL A   1      31.207  26.551  22.544  1.00  0.00    -0.015 A 
ATOM     17  C   UNL A   1      30.560  25.593  23.351  1.00  0.00    -0.018 A 
ATOM     18  C   UNL A   1      32.382  26.199  21.873  1.00  0.00     0.009 A 
ATOM     19  C   UNL A   1      31.131  24.311  23.493  1.00  0.00     0.013 A 
ATOM     20  C   UNL A   1      32.909  24.913  21.993  1.00  0.00     0.005 A 
BRANCH  12  21
ATOM     21  O   UNL A   1      29.001  29.431  22.779  1.00  0.00    -0.497 OA
ATOM     22  C   UNL A   1      29.558  30.057  21.628  1.00  0.00     0.278 C 
ENDBRANCH  12  21
ENDBRANCH   9  11
ENDBRANCH   6   9
ENDBRANCH   4   5
ENDBRANCH   3   4
ENDBRANCH   2   3
ENDBRANCH   1   2
BRANCH   1  23
ATOM     23  C   UNL A   1      31.860  28.010  25.864  1.00  0.00     0.021 C 
BRANCH  23  24
ATOM     24  C   UNL A   1      32.866  29.083  25.464  1.00  0.00     0.116 C 
BRANCH  24  25
ATOM     25  N   UNL A   1      32.408  30.418  25.822  1.00  0.00    -0.352 N 
ATOM     26  C   UNL A   1      32.878  31.257  26.798  1.00  0.00     0.251 C 
ATOM     27  H   UNL A   1      31.657  30.765  25.290  1.00  0.00     0.163 HD
ATOM     28  O   UNL A   1      32.245  32.267  27.099  1.00  0.00    -0.269 OA
BRANCH  26  29
ATOM     29  C   UNL A   1      34.138  30.934  27.496  1.00  0.00     0.039 A 
ATOM     30  C   UNL A   1      35.072  31.948  27.716  1.00  0.00     0.014 A 
ATOM     31  C   UNL A   1      34.396  29.632  27.937  1.00  0.00     0.014 A 
ATOM     32  C   UNL A   1      36.243  31.668  28.420  1.00  0.00     0.010 A 
ATOM     33  C   UNL A   1      35.525  29.373  28.707  1.00  0.00     0.010 A 
ATOM     34  C   UNL A   1      36.467  30.384  28.947  1.00  0.00    -0.014 A 
BRANCH  34  35
ATOM     35  C   UNL A   1      37.677  30.086  29.753  1.00  0.00     0.031 A 
ATOM     36  C   UNL A   1      38.740  29.166  29.216  1.00  0.00     0.074 A 
ATOM     37  C   UNL A   1      37.785  30.588  31.000  1.00  0.00     0.049 A 
ATOM     38  N   UNL A   1      39.846  28.764  29.787  1.00  0.00    -0.248 NA
ATOM     39  C   UNL A   1      38.523  28.604  27.873  1.00  0.00     0.031 C 
ATOM     40  C   UNL A   1      36.785  31.429  31.662  1.00  0.00     0.029 A 
ATOM     41  N   UNL A   1      38.774  30.446  31.941  1.00  0.00    -0.354 N 
ATOM     42  C   UNL A   1      40.437  27.880  28.892  1.00  0.00     0.074 A 
ATOM     43  C   UNL A   1      39.549  27.774  27.755  1.00  0.00     0.031 C 
ATOM     44  C   UNL A   1      37.216  31.737  32.896  1.00  0.00     0.029 A 
ATOM     45  C   UNL A   1      38.503  31.090  33.126  1.00  0.00     0.049 A 
ATOM     46  H   UNL A   1      39.598  29.932  31.782  1.00  0.00     0.167 HD
ATOM     47  C   UNL A   1      41.624  27.236  28.993  1.00  0.00     0.034 A 
ATOM     48  C   UNL A   1      39.209  31.144  34.273  1.00  0.00     0.034 A 
ATOM     49  C   UNL A   1      42.519  27.372  30.109  1.00  0.00     0.049 A 
ATOM     50  C   UNL A   1      40.537  30.443  34.347  1.00  0.00     0.074 A 
ATOM     51  C   UNL A   1      43.782  26.829  30.269  1.00  0.00     0.029 A 
ATOM     52  N   UNL A   1      42.244  28.091  31.262  1.00  0.00    -0.354 N 
ATOM     53  N   UNL A   1      41.151  29.736  33.428  1.00  0.00    -0.248 NA
ATOM     54  C   UNL A   1      41.289  30.575  35.604  1.00  0.00     0.031 C 
ATOM     55  C   UNL A   1      44.255  27.190  31.534  1.00  0.00     0.029 A 
ATOM     56  C   UNL A   1      43.306  27.994  32.144  1.00  0.00     0.049 A 
ATOM     57  H   UNL A   1      41.415  28.595  31.429  1.00  0.00     0.167 HD
ATOM     58  C   UNL A   1      42.374  29.375  33.980  1.00  0.00     0.074 A 
ATOM     59  C   UNL A   1      42.423  29.956  35.305  1.00  0.00     0.031 C 
ATOM     60  C   UNL A   1      43.364  28.619  33.442  1.00  0.00     0.034 A 
BRANCH  47  61
ATOM     61  C   UNL A   1      42.047  26.359  27.842  1.00  0.00     0.023 A 
ATOM     62  C   UNL A   1      42.879  26.882  26.831  1.00  0.00     0.012 A 
ATOM     63  C   UNL A   1      41.672  25.001  27.792  1.00  0.00     0.148 A 
ATOM     64  C   UNL A   1      43.301  26.082  25.771  1.00  0.00     0.002 A 
ATOM     65  C   UNL A   1      42.138  24.196  26.758  1.00  0.00     0.091 A 
ATOM     66  F   UNL A   1      40.866  24.525  28.750  1.00  0.00    -0.205 F 
ATOM     67  C   UNL A   1      42.940  24.738  25.741  1.00  0.00     0.022 A 
BRANCH  65  68
ATOM     68  S   UNL A   1      41.798  22.435  26.671  1.00  0.00     0.127 S 
ATOM     69  O   UNL A   1      40.338  22.413  26.743  1.00  0.00    -0.237 OA
ATOM     70  O   UNL A   1      42.351  22.081  25.364  1.00  0.00    -0.237 OA
ATOM     71  O   UNL A   1      42.487  21.835  27.806  1.00  0.00    -0.744 OA
ENDBRANCH  65  68
ENDBRANCH  47  61
BRANCH  48  72
ATOM     72  C   UNL A   1      38.699  31.942  35.425  1.00  0.00     0.023 A 
ATOM     73  C   UNL A   1      38.756  33.348  35.374  1.00  0.00     0.012 A 
ATOM     74  C   UNL A   1      38.146  31.317  36.560  1.00  0.00     0.148 A 
ATOM     75  C   UNL A   1      38.304  34.118  36.447  1.00  0.00     0.002 A 
ATOM     76  C   UNL A   1      37.646  32.091  37.601  1.00  0.00     0.091 A 
ATOM     77  F   UNL A   1      38.109  29.978  36.591  1.00  0.00    -0.205 F 
ATOM     78  C   UNL A   1      37.742  33.490  37.554  1.00  0.00     0.022 A 
BRANCH  76  79
ATOM     79  S   UNL A   1      36.791  31.375  39.009  1.00  0.00     0.127 S 
ATOM     80  O   UNL A   1      37.854  31.323  40.010  1.00  0.00    -0.237 OA
ATOM     81  O   UNL A   1      35.750  32.371  39.265  1.00  0.00    -0.237 OA
ATOM     82  O   UNL A   1      36.291  30.085  38.554  1.00  0.00    -0.744 OA
ENDBRANCH  76  79
ENDBRANCH  48  72
BRANCH  60  83
ATOM     83  C   UNL A   1      44.610  28.411  34.261  1.00  0.00     0.023 A 
ATOM     84  C   UNL A   1      45.694  29.303  34.139  1.00  0.00     0.012 A 
ATOM     85  C   UNL A   1      44.676  27.370  35.209  1.00  0.00     0.148 A 
ATOM     86  C   UNL A   1      46.837  29.139  34.920  1.00  0.00     0.002 A 
ATOM     87  C   UNL A   1      45.796  27.246  36.021  1.00  0.00     0.091 A 
ATOM     88  F   UNL A   1      43.641  26.521  35.298  1.00  0.00    -0.205 F 
ATOM     89  C   UNL A   1      46.883  28.120  35.868  1.00  0.00     0.022 A 
BRANCH  87  90
ATOM     90  S   UNL A   1      45.902  26.027  37.336  1.00  0.00     0.127 S 
ATOM     91  O   UNL A   1      47.293  26.172  37.764  1.00  0.00    -0.237 OA
ATOM     92  O   UNL A   1      44.915  26.522  38.296  1.00  0.00    -0.237 OA
ATOM     93  O   UNL A   1      45.567  24.747  36.728  1.00  0.00    -0.744 OA
ENDBRANCH  87  90
ENDBRANCH  60  83
ENDBRANCH  34  35
ENDBRANCH  26  29
ENDBRANCH  24  25
ENDBRANCH  23  24
ENDBRANCH   1  23
TORSDOF 18
ENDMDL
MODEL 3
REMARK VINA RESULT:     -11.7      5.663      9.298
REMARK SMILES COc1ccc2cc([C@H](C)C(=O)NCCCCCCNC(=O)c3ccc(-c4c5nc(c(-c6cccc(S(=O)(=O)[O-])c6F)c6ccc([nH]6)c(-c6cccc(S(=O)(=O)[O-])c6F)c6nc(c(-c7cccc(S(=O)(=O)[O-])c7F)c7ccc4[nH]7)C=C6)C=C5)cc3)ccc2c1
REMARK SMILES IDX 17 1 16 2 15 3 14 4 13 5 11 6 12 7 9 9 10 10 8 11 3 12 4 13
REMARK SMILES IDX 89 14 5 15 88 16 6 17 87 18 7 19 86 20 2 21 1 22 18 23 19 24
REMARK SMILES IDX 20 25 21 26 22 28 23 29 24 30 85 31 25 32 84 33 26 34 27 35
REMARK SMILES IDX 28 36 78 37 29 38 83 39 77 40 79 41 30 42 82 43 76 44 75 45
REMARK SMILES IDX 31 47 63 48 43 49 62 50 44 51 47 52 61 53 80 54 45 55 46 56
REMARK SMILES IDX 60 58 81 59 48 60 32 61 33 62 41 63 34 64 36 65 42 66 35 67
REMARK SMILES IDX 37 68 38 69 39 70 40 71 64 72 65 73 73 74 66 75 68 76 74 77
REMARK SMILES IDX 67 78 69 79 70 80 71 81 72 82 49 83 50 84 58 85 51 86 53 87
REMARK SMILES IDX 59 88 52 89 54 90 55 91 56 92 57 93
REMARK H PARENT 13 8 20 27 79 46 47 57
REMARK Flexibility Score: inf
ROOT
ATOM      1  C   UNL A   1      31.787  27.685  26.364  1.00  0.00     0.002 C 
ENDROOT
BRANCH   1   2
ATOM      2  C   UNL A   1      33.263  27.354  26.610  1.00  0.00     0.002 C 
BRANCH   2   3
ATOM      3  C   UNL A   1      33.842  26.273  25.690  1.00  0.00     0.021 C 
BRANCH   3   4
ATOM      4  C   UNL A   1      33.386  24.863  26.048  1.00  0.00     0.116 C 
BRANCH   4   5
ATOM      5  N   UNL A   1      33.945  23.889  25.126  1.00  0.00    -0.356 N 
ATOM      6  C   UNL A   1      33.384  23.309  24.027  1.00  0.00     0.227 C 
ATOM      7  O   UNL A   1      34.089  22.550  23.356  1.00  0.00    -0.274 OA
ATOM      8  H   UNL A   1      34.867  23.606  25.323  1.00  0.00     0.163 HD
BRANCH   6   9
ATOM      9  C   UNL A   1      31.924  23.571  23.645  1.00  0.00     0.105 C 
ATOM     10  C   UNL A   1      31.008  22.947  24.710  1.00  0.00     0.023 C 
BRANCH   9  11
ATOM     11  C   UNL A   1      31.608  25.015  23.256  1.00  0.00    -0.035 A 
ATOM     12  C   UNL A   1      29.479  29.585  22.490  1.00  0.00     0.119 A 
ATOM     13  C   UNL A   1      28.520  28.819  23.148  1.00  0.00     0.047 A 
ATOM     14  C   UNL A   1      30.716  29.021  22.181  1.00  0.00     0.055 A 
ATOM     15  C   UNL A   1      28.809  27.500  23.516  1.00  0.00     0.012 A 
ATOM     16  C   UNL A   1      31.012  27.696  22.531  1.00  0.00    -0.015 A 
ATOM     17  C   UNL A   1      30.054  26.922  23.216  1.00  0.00    -0.018 A 
ATOM     18  C   UNL A   1      32.239  27.121  22.188  1.00  0.00     0.009 A 
ATOM     19  C   UNL A   1      30.367  25.594  23.574  1.00  0.00     0.013 A 
ATOM     20  C   UNL A   1      32.515  25.792  22.514  1.00  0.00     0.005 A 
BRANCH  12  21
ATOM     21  O   UNL A   1      29.294  30.862  22.039  1.00  0.00    -0.497 OA
ATOM     22  C   UNL A   1      27.951  31.335  22.075  1.00  0.00     0.278 C 
ENDBRANCH  12  21
ENDBRANCH   9  11
ENDBRANCH   6   9
ENDBRANCH   4   5
ENDBRANCH   3   4
ENDBRANCH   2   3
ENDBRANCH   1   2
BRANCH   1  23
ATOM     23  C   UNL A   1      31.514  29.128  25.930  1.00  0.00     0.021 C 
BRANCH  23  24
ATOM     24  C   UNL A   1      32.764  29.986  25.774  1.00  0.00     0.116 C 
BRANCH  24  25
ATOM     25  N   UNL A   1      32.531  31.365  26.177  1.00  0.00    -0.352 N 
ATOM     26  C   UNL A   1      33.171  32.101  27.139  1.00  0.00     0.251 C 
ATOM     27  H   UNL A   1      31.815  31.833  25.691  1.00  0.00     0.163 HD
ATOM     28  O   UNL A   1      32.713  33.187  27.489  1.00  0.00    -0.269 OA
BRANCH  26  29
ATOM     29  C   UNL A   1      34.403  31.577  27.762  1.00  0.00     0.039 A 
ATOM     30  C   UNL A   1      35.501  32.424  27.912  1.00  0.00     0.014 A 
ATOM     31  C   UNL A   1      34.471  30.251  28.202  1.00  0.00     0.014 A 
ATOM     32  C   UNL A   1      36.653  31.957  28.547  1.00  0.00     0.010 A 
ATOM     33  C   UNL A   1      35.588  29.812  28.905  1.00  0.00     0.010 A 
ATOM     34  C   UNL A   1      36.695  30.656  29.075  1.00  0.00    -0.014 A 
BRANCH  34  35
ATOM     35  C   UNL A   1      37.889  30.164  29.809  1.00  0.00     0.031 A 
ATOM     36  C   UNL A   1      38.165  30.635  31.211  1.00  0.00     0.074 A 
ATOM     37  C   UNL A   1      38.762  29.347  29.185  1.00  0.00     0.049 A 
ATOM     38  N   UNL A   1      39.171  30.342  31.995  1.00  0.00    -0.248 NA
ATOM     39  C   UNL A   1      37.202  31.577  31.803  1.00  0.00     0.031 C 
ATOM     40  C   UNL A   1      38.644  28.882  27.802  1.00  0.00     0.029 A 
ATOM     41  N   UNL A   1      39.932  28.781  29.627  1.00  0.00    -0.354 N 
ATOM     42  C   UNL A   1      38.980  31.085  33.153  1.00  0.00     0.074 A 
ATOM     43  C   UNL A   1      37.783  31.873  32.957  1.00  0.00     0.031 C 
ATOM     44  C   UNL A   1      39.692  28.094  27.511  1.00  0.00     0.029 A 
ATOM     45  C   UNL A   1      40.572  28.025  28.673  1.00  0.00     0.049 A 
ATOM     46  H   UNL A   1      40.279  28.906  30.540  1.00  0.00     0.167 HD
ATOM     47  C   UNL A   1      39.718  31.092  34.289  1.00  0.00     0.034 A 
ATOM     48  C   UNL A   1      41.742  27.359  28.725  1.00  0.00     0.034 A 
ATOM     49  C   UNL A   1      40.887  30.281  34.492  1.00  0.00     0.049 A 
ATOM     50  C   UNL A   1      42.527  27.361  30.009  1.00  0.00     0.074 A 
ATOM     51  C   UNL A   1      41.655  30.152  35.636  1.00  0.00     0.029 A 
ATOM     52  N   UNL A   1      41.467  29.471  33.528  1.00  0.00    -0.354 N 
ATOM     53  N   UNL A   1      42.247  27.948  31.147  1.00  0.00    -0.248 NA
ATOM     54  C   UNL A   1      43.771  26.577  30.028  1.00  0.00     0.031 C 
ATOM     55  C   UNL A   1      42.720  29.292  35.352  1.00  0.00     0.029 A 
ATOM     56  C   UNL A   1      42.591  28.850  34.045  1.00  0.00     0.049 A 
ATOM     57  H   UNL A   1      41.129  29.355  32.611  1.00  0.00     0.167 HD
ATOM     58  C   UNL A   1      43.256  27.575  32.027  1.00  0.00     0.074 A 
ATOM     59  C   UNL A   1      44.143  26.694  31.296  1.00  0.00     0.031 C 
ATOM     60  C   UNL A   1      43.438  27.937  33.321  1.00  0.00     0.034 A 
BRANCH  47  61
ATOM     61  C   UNL A   1      39.254  31.973  35.421  1.00  0.00     0.023 A 
ATOM     62  C   UNL A   1      38.367  31.460  36.389  1.00  0.00     0.012 A 
ATOM     63  C   UNL A   1      39.745  33.286  35.563  1.00  0.00     0.148 A 
ATOM     64  C   UNL A   1      37.945  32.249  37.457  1.00  0.00     0.002 A 
ATOM     65  C   UNL A   1      39.358  34.051  36.658  1.00  0.00     0.091 A 
ATOM     66  F   UNL A   1      40.573  33.764  34.624  1.00  0.00    -0.205 F 
ATOM     67  C   UNL A   1      38.449  33.539  37.598  1.00  0.00     0.022 A 
BRANCH  65  68
ATOM     68  S   UNL A   1      40.013  35.693  36.974  1.00  0.00     0.127 S 
ATOM     69  O   UNL A   1      41.447  35.427  37.060  1.00  0.00    -0.237 OA
ATOM     70  O   UNL A   1      39.598  36.424  35.776  1.00  0.00    -0.237 OA
ATOM     71  O   UNL A   1      39.388  36.145  38.209  1.00  0.00    -0.744 OA
ENDBRANCH  65  68
ENDBRANCH  47  61
BRANCH  48  72
ATOM     72  C   UNL A   1      42.213  26.584  27.542  1.00  0.00     0.023 A 
ATOM     73  C   UNL A   1      42.959  27.234  26.539  1.00  0.00     0.012 A 
ATOM     74  C   UNL A   1      41.943  25.208  27.413  1.00  0.00     0.148 A 
ATOM     75  C   UNL A   1      43.396  26.538  25.412  1.00  0.00     0.002 A 
ATOM     76  C   UNL A   1      42.429  24.507  26.315  1.00  0.00     0.091 A 
ATOM     77  F   UNL A   1      41.225  24.610  28.374  1.00  0.00    -0.205 F 
ATOM     78  C   UNL A   1      43.139  25.174  25.305  1.00  0.00     0.022 A 
BRANCH  76  79
ATOM     79  S   UNL A   1      42.257  22.726  26.155  1.00  0.00     0.127 S 
ATOM     80  O   UNL A   1      42.988  22.248  27.326  1.00  0.00    -0.237 OA
ATOM     81  O   UNL A   1      40.805  22.559  26.223  1.00  0.00    -0.237 OA
ATOM     82  O   UNL A   1      42.842  22.387  24.865  1.00  0.00    -0.744 OA
ENDBRANCH  76  79
ENDBRANCH  48  72
BRANCH  60  83
ATOM     83  C   UNL A   1      44.615  27.348  34.054  1.00  0.00     0.023 A 
ATOM     84  C   UNL A   1      45.852  28.023  34.062  1.00  0.00     0.012 A 
ATOM     85  C   UNL A   1      44.472  26.160  34.797  1.00  0.00     0.148 A 
ATOM     86  C   UNL A   1      46.937  27.504  34.768  1.00  0.00     0.002 A 
ATOM     87  C   UNL A   1      45.541  25.678  35.542  1.00  0.00     0.091 A 
ATOM     88  F   UNL A   1      43.291  25.523  34.763  1.00  0.00    -0.205 F 
ATOM     89  C   UNL A   1      46.778  26.340  35.516  1.00  0.00     0.022 A 
BRANCH  87  90
ATOM     90  S   UNL A   1      45.401  24.243  36.614  1.00  0.00     0.127 S 
ATOM     91  O   UNL A   1      46.769  24.109  37.110  1.00  0.00    -0.237 OA
ATOM     92  O   UNL A   1      44.432  24.698  37.612  1.00  0.00    -0.237 OA
ATOM     93  O   UNL A   1      44.934  23.153  35.769  1.00  0.00    -0.744 OA
ENDBRANCH  87  90
ENDBRANCH  60  83
ENDBRANCH  34  35
ENDBRANCH  26  29
ENDBRANCH  24  25
ENDBRANCH  23  24
ENDBRANCH   1  23
TORSDOF 18
ENDMDL
