MODEL 1
REMARK VINA RESULT:     -10.4      0.000      0.000
REMARK SMILES [NH3+][C@@H](Cc1c[nH]c2ccccc12)C(=O)N[C@@H](CS)C(=O)N[C@@H](CO)C(=O)NCCCCCCNC(=O)c1ccc(-c2c3nc(c(-c4cccc(S(=O)(=O)[O-])c4F)c4ccc([nH]4)c(-c4cccc(S(=O)(=O)[O-])c4F)c4nc(c(-c5cccc(S(=O)(=O)[O-])c5F)c5ccc2[nH]5)C=C4)C=C3)cc1
REMARK SMILES IDX 29 1 28 2 27 3 25 4 26 5 22 7 21 8 19 9 20 10 16 12 15 13
REMARK SMILES IDX 13 14 14 15 2 17 1 18 3 22 4 23 5 24 12 25 6 26 7 27 11 28
REMARK SMILES IDX 8 30 10 31 9 32 17 33 18 34 23 36 24 37 30 39 31 40 32 41
REMARK SMILES IDX 33 42 34 43 35 44 36 46 37 47 38 48 99 49 39 50 98 51 40 52
REMARK SMILES IDX 41 53 42 54 92 55 43 56 97 57 91 58 93 59 44 60 96 61 90 62
REMARK SMILES IDX 89 63 45 65 77 66 57 67 76 68 58 69 61 70 75 71 94 72 59 73
REMARK SMILES IDX 60 74 74 76 95 77 62 78 46 79 47 80 55 81 48 82 50 83 56 84
REMARK SMILES IDX 49 85 51 86 52 87 53 88 54 89 78 90 79 91 87 92 80 93 82 94
REMARK SMILES IDX 88 95 81 96 83 97 84 98 85 99 86 100 63 101 64 102 72 103
REMARK SMILES IDX 65 104 67 105 73 106 66 107 68 108 69 109 70 110 71 111
REMARK H PARENT 27 6 21 11 15 16 1 19 1 20 1 21 6 29 18 35 24 38 34 45 93 64
REMARK H PARENT 61 75
REMARK Flexibility Score: inf
ROOT
ATOM      1  C   UNL A   1      38.943  23.604  26.667  1.00  0.00     0.021 C 
ENDROOT
BRANCH   1   2
ATOM      2  C   UNL A   1      37.568  23.764  26.032  1.00  0.00     0.116 C 
BRANCH   2   3
ATOM      3  N   UNL A   1      37.614  23.522  24.608  1.00  0.00    -0.354 N 
ATOM      4  C   UNL A   1      36.663  23.035  23.774  1.00  0.00     0.244 C 
ATOM      5  O   UNL A   1      36.914  23.020  22.563  1.00  0.00    -0.273 OA
ATOM      6  H   UNL A   1      38.469  23.747  24.176  1.00  0.00     0.163 HD
BRANCH   4   7
ATOM      7  C   UNL A   1      35.302  22.544  24.276  1.00  0.00     0.197 C 
BRANCH   7   8
ATOM      8  N   UNL A   1      34.196  22.826  23.378  1.00  0.00    -0.340 N 
ATOM      9  C   UNL A   1      32.874  22.794  23.656  1.00  0.00     0.244 C 
ATOM     10  O   UNL A   1      32.162  22.373  22.735  1.00  0.00    -0.273 OA
ATOM     11  H   UNL A   1      34.438  23.068  22.455  1.00  0.00     0.164 HD
BRANCH   9  12
ATOM     12  C   UNL A   1      32.259  23.203  25.015  1.00  0.00     0.181 C 
BRANCH  12  13
ATOM     13  N   UNL A   1      33.059  24.236  25.638  1.00  0.00    -0.338 N 
ATOM     14  C   UNL A   1      32.819  25.574  25.672  1.00  0.00     0.279 C 
ATOM     15  O   UNL A   1      33.637  26.259  26.302  1.00  0.00    -0.268 OA
ATOM     16  H   UNL A   1      33.878  23.932  26.093  1.00  0.00     0.164 HD
BRANCH  14  17
ATOM     17  C   UNL A   1      31.674  26.279  24.874  1.00  0.00     0.275 C 
BRANCH  17  18
ATOM     18  N   UNL A   1      30.906  27.184  25.753  1.00  0.00    -0.347 N 
ATOM     19  H   UNL A   1      29.909  27.053  25.588  1.00  0.00     0.345 HD
ATOM     20  H   UNL A   1      31.161  28.151  25.550  1.00  0.00     0.345 HD
ATOM     21  H   UNL A   1      31.120  26.974  26.728  1.00  0.00     0.345 HD
ENDBRANCH  17  18
BRANCH  17  22
ATOM     22  C   UNL A   1      31.877  26.756  23.421  1.00  0.00     0.113 C 
BRANCH  22  23
ATOM     23  C   UNL A   1      31.174  27.936  22.774  1.00  0.00    -0.016 A 
ATOM     24  C   UNL A   1      31.915  28.903  22.108  1.00  0.00     0.087 A 
ATOM     25  C   UNL A   1      29.799  28.396  22.706  1.00  0.00     0.003 A 
ATOM     26  N   UNL A   1      31.116  29.971  21.832  1.00  0.00    -0.361 N 
ATOM     27  C   UNL A   1      29.840  29.726  22.269  1.00  0.00     0.046 A 
ATOM     28  C   UNL A   1      28.534  27.900  23.099  1.00  0.00     0.010 A 
ATOM     29  H   UNL A   1      31.411  30.798  21.385  1.00  0.00     0.166 HD
ATOM     30  C   UNL A   1      28.741  30.594  22.325  1.00  0.00     0.026 A 
ATOM     31  C   UNL A   1      27.420  28.753  23.160  1.00  0.00     0.001 A 
ATOM     32  C   UNL A   1      27.534  30.091  22.809  1.00  0.00     0.002 A 
ENDBRANCH  22  23
ENDBRANCH  17  22
ENDBRANCH  14  17
ENDBRANCH  12  13
BRANCH  12  33
ATOM     33  C   UNL A   1      30.745  23.298  25.255  1.00  0.00     0.101 C 
BRANCH  33  34
ATOM     34  S   UNL A   1      30.170  23.010  26.971  1.00  0.00    -0.177 SA
ATOM     35  H   UNL A   1      28.883  23.432  27.095  1.00  0.00     0.102 HD
ENDBRANCH  33  34
ENDBRANCH  12  33
ENDBRANCH   9  12
ENDBRANCH   7   8
BRANCH   7  36
ATOM     36  C   UNL A   1      35.298  21.098  24.783  1.00  0.00     0.191 C 
BRANCH  36  37
ATOM     37  O   UNL A   1      36.599  20.529  24.861  1.00  0.00    -0.394 OA
ATOM     38  H   UNL A   1      37.250  21.230  25.014  1.00  0.00     0.210 HD
ENDBRANCH  36  37
ENDBRANCH   7  36
ENDBRANCH   4   7
ENDBRANCH   2   3
ENDBRANCH   1   2
BRANCH   1  39
ATOM     39  C   UNL A   1      39.740  22.411  26.134  1.00  0.00     0.002 C 
BRANCH  39  40
ATOM     40  C   UNL A   1      40.401  21.548  27.214  1.00  0.00     0.002 C 
BRANCH  40  41
ATOM     41  C   UNL A   1      40.712  20.112  26.788  1.00  0.00     0.021 C 
BRANCH  41  42
ATOM     42  C   UNL A   1      42.092  19.623  27.203  1.00  0.00     0.116 C 
BRANCH  42  43
ATOM     43  N   UNL A   1      42.856  19.144  26.063  1.00  0.00    -0.352 N 
ATOM     44  C   UNL A   1      43.613  19.865  25.176  1.00  0.00     0.251 C 
ATOM     45  H   UNL A   1      42.825  18.173  25.907  1.00  0.00     0.163 HD
ATOM     46  O   UNL A   1      44.008  19.354  24.137  1.00  0.00    -0.269 OA
BRANCH  44  47
ATOM     47  C   UNL A   1      43.933  21.273  25.493  1.00  0.00     0.039 A 
ATOM     48  C   UNL A   1      43.401  22.284  24.692  1.00  0.00     0.014 A 
ATOM     49  C   UNL A   1      44.734  21.584  26.595  1.00  0.00     0.014 A 
ATOM     50  C   UNL A   1      43.636  23.617  25.029  1.00  0.00     0.010 A 
ATOM     51  C   UNL A   1      44.897  22.911  26.975  1.00  0.00     0.010 A 
ATOM     52  C   UNL A   1      44.360  23.940  26.190  1.00  0.00    -0.014 A 
BRANCH  52  53
ATOM     53  C   UNL A   1      44.563  25.351  26.599  1.00  0.00     0.031 A 
ATOM     54  C   UNL A   1      45.925  25.980  26.493  1.00  0.00     0.074 A 
ATOM     55  C   UNL A   1      43.538  26.040  27.137  1.00  0.00     0.049 A 
ATOM     56  N   UNL A   1      46.308  27.181  26.840  1.00  0.00    -0.248 NA
ATOM     57  C   UNL A   1      47.007  25.141  25.949  1.00  0.00     0.031 C 
ATOM     58  C   UNL A   1      42.189  25.515  27.357  1.00  0.00     0.029 A 
ATOM     59  N   UNL A   1      43.476  27.324  27.617  1.00  0.00    -0.354 N 
ATOM     60  C   UNL A   1      47.673  27.233  26.586  1.00  0.00     0.074 A 
ATOM     61  C   UNL A   1      48.061  25.929  26.097  1.00  0.00     0.031 C 
ATOM     62  C   UNL A   1      41.430  26.471  27.916  1.00  0.00     0.029 A 
ATOM     63  C   UNL A   1      42.245  27.663  28.127  1.00  0.00     0.049 A 
ATOM     64  H   UNL A   1      44.241  27.944  27.598  1.00  0.00     0.167 HD
ATOM     65  C   UNL A   1      48.521  28.280  26.718  1.00  0.00     0.034 A 
ATOM     66  C   UNL A   1      41.824  28.803  28.708  1.00  0.00     0.034 A 
ATOM     67  C   UNL A   1      48.123  29.583  27.180  1.00  0.00     0.049 A 
ATOM     68  C   UNL A   1      42.784  29.954  28.836  1.00  0.00     0.074 A 
ATOM     69  C   UNL A   1      48.887  30.731  27.279  1.00  0.00     0.029 A 
ATOM     70  N   UNL A   1      46.853  29.906  27.635  1.00  0.00    -0.354 N 
ATOM     71  N   UNL A   1      44.035  30.033  28.449  1.00  0.00    -0.248 NA
ATOM     72  C   UNL A   1      42.266  31.184  29.452  1.00  0.00     0.031 C 
ATOM     73  C   UNL A   1      48.089  31.741  27.826  1.00  0.00     0.029 A 
ATOM     74  C   UNL A   1      46.816  31.232  28.032  1.00  0.00     0.049 A 
ATOM     75  H   UNL A   1      46.091  29.285  27.670  1.00  0.00     0.167 HD
ATOM     76  C   UNL A   1      44.442  31.330  28.741  1.00  0.00     0.074 A 
ATOM     77  C   UNL A   1      43.298  32.006  29.317  1.00  0.00     0.031 C 
ATOM     78  C   UNL A   1      45.657  31.905  28.562  1.00  0.00     0.034 A 
BRANCH  65  79
ATOM     79  C   UNL A   1      49.958  28.067  26.316  1.00  0.00     0.023 A 
ATOM     80  C   UNL A   1      50.942  27.897  27.312  1.00  0.00     0.012 A 
ATOM     81  C   UNL A   1      50.331  27.995  24.959  1.00  0.00     0.148 A 
ATOM     82  C   UNL A   1      52.279  27.704  26.966  1.00  0.00     0.002 A 
ATOM     83  C   UNL A   1      51.658  27.753  24.623  1.00  0.00     0.091 A 
ATOM     84  F   UNL A   1      49.387  28.180  24.026  1.00  0.00    -0.205 F 
ATOM     85  C   UNL A   1      52.634  27.620  25.623  1.00  0.00     0.022 A 
BRANCH  83  86
ATOM     86  S   UNL A   1      52.204  27.550  22.924  1.00  0.00     0.127 S 
ATOM     87  O   UNL A   1      52.495  28.932  22.542  1.00  0.00    -0.237 OA
ATOM     88  O   UNL A   1      53.385  26.700  23.080  1.00  0.00    -0.237 OA
ATOM     89  O   UNL A   1      51.096  26.927  22.215  1.00  0.00    -0.744 OA
ENDBRANCH  83  86
ENDBRANCH  65  79
BRANCH  66  90
ATOM     90  C   UNL A   1      40.409  28.933  29.158  1.00  0.00     0.023 A 
ATOM     91  C   UNL A   1      39.397  29.149  28.201  1.00  0.00     0.012 A 
ATOM     92  C   UNL A   1      40.058  28.820  30.516  1.00  0.00     0.148 A 
ATOM     93  C   UNL A   1      38.065  29.287  28.594  1.00  0.00     0.002 A 
ATOM     94  C   UNL A   1      38.723  28.900  30.894  1.00  0.00     0.091 A 
ATOM     95  F   UNL A   1      41.037  28.620  31.410  1.00  0.00    -0.205 F 
ATOM     96  C   UNL A   1      37.727  29.152  29.938  1.00  0.00     0.022 A 
BRANCH  94  97
ATOM     97  S   UNL A   1      38.179  28.613  32.582  1.00  0.00     0.127 S 
ATOM     98  O   UNL A   1      36.791  29.066  32.530  1.00  0.00    -0.237 OA
ATOM     99  O   UNL A   1      38.353  27.166  32.711  1.00  0.00    -0.237 OA
ATOM    100  O   UNL A   1      39.069  29.404  33.423  1.00  0.00    -0.744 OA
ENDBRANCH  94  97
ENDBRANCH  66  90
BRANCH  78 101
ATOM    101  C   UNL A   1      45.809  33.352  28.957  1.00  0.00     0.023 A 
ATOM    102  C   UNL A   1      46.271  33.685  30.245  1.00  0.00     0.012 A 
ATOM    103  C   UNL A   1      45.559  34.379  28.025  1.00  0.00     0.148 A 
ATOM    104  C   UNL A   1      46.446  35.018  30.613  1.00  0.00     0.002 A 
ATOM    105  C   UNL A   1      45.787  35.702  28.380  1.00  0.00     0.091 A 
ATOM    106  F   UNL A   1      45.104  34.042  26.809  1.00  0.00    -0.205 F 
ATOM    107  C   UNL A   1      46.216  36.025  29.678  1.00  0.00     0.022 A 
BRANCH 105 108
ATOM    108  S   UNL A   1      45.614  37.057  27.215  1.00  0.00     0.127 S 
ATOM    109  O   UNL A   1      44.181  37.020  26.924  1.00  0.00    -0.237 OA
ATOM    110  O   UNL A   1      46.044  38.207  28.013  1.00  0.00    -0.237 OA
ATOM    111  O   UNL A   1      46.486  36.739  26.094  1.00  0.00    -0.744 OA
ENDBRANCH 105 108
ENDBRANCH  78 101
ENDBRANCH  52  53
ENDBRANCH  44  47
ENDBRANCH  42  43
ENDBRANCH  41  42
ENDBRANCH  40  41
ENDBRANCH  39  40
ENDBRANCH   1  39
TORSDOF 27
ENDMDL
MODEL 2
REMARK VINA RESULT:     -10.3      3.271      4.302
REMARK SMILES [NH3+][C@@H](Cc1c[nH]c2ccccc12)C(=O)N[C@@H](CS)C(=O)N[C@@H](CO)C(=O)NCCCCCCNC(=O)c1ccc(-c2c3nc(c(-c4cccc(S(=O)(=O)[O-])c4F)c4ccc([nH]4)c(-c4cccc(S(=O)(=O)[O-])c4F)c4nc(c(-c5cccc(S(=O)(=O)[O-])c5F)c5ccc2[nH]5)C=C4)C=C3)cc1
REMARK SMILES IDX 29 1 28 2 27 3 25 4 26 5 22 7 21 8 19 9 20 10 16 12 15 13
REMARK SMILES IDX 13 14 14 15 2 17 1 18 3 22 4 23 5 24 12 25 6 26 7 27 11 28
REMARK SMILES IDX 8 30 10 31 9 32 17 33 18 34 23 36 24 37 30 39 31 40 32 41
REMARK SMILES IDX 33 42 34 43 35 44 36 46 37 47 38 48 99 49 39 50 98 51 40 52
REMARK SMILES IDX 41 53 42 54 92 55 43 56 97 57 91 58 93 59 44 60 96 61 90 62
REMARK SMILES IDX 89 63 45 65 77 66 57 67 76 68 58 69 61 70 75 71 94 72 59 73
REMARK SMILES IDX 60 74 74 76 95 77 62 78 46 79 47 80 55 81 48 82 50 83 56 84
REMARK SMILES IDX 49 85 51 86 52 87 53 88 54 89 78 90 79 91 87 92 80 93 82 94
REMARK SMILES IDX 88 95 81 96 83 97 84 98 85 99 86 100 63 101 64 102 72 103
REMARK SMILES IDX 65 104 67 105 73 106 66 107 68 108 69 109 70 110 71 111
REMARK H PARENT 27 6 21 11 15 16 1 19 1 20 1 21 6 29 18 35 24 38 34 45 93 64
REMARK H PARENT 61 75
REMARK Flexibility Score: inf
ROOT
ATOM      1  C   UNL A   1      36.123  22.449  24.094  1.00  0.00     0.021 C 
ENDROOT
BRANCH   1   2
ATOM      2  C   UNL A   1      34.625  22.379  23.831  1.00  0.00     0.116 C 
BRANCH   2   3
ATOM      3  N   UNL A   1      34.047  21.181  24.398  1.00  0.00    -0.354 N 
ATOM      4  C   UNL A   1      33.268  21.024  25.496  1.00  0.00     0.244 C 
ATOM      5  O   UNL A   1      32.807  19.897  25.716  1.00  0.00    -0.273 OA
ATOM      6  H   UNL A   1      34.250  20.351  23.911  1.00  0.00     0.163 HD
BRANCH   4   7
ATOM      7  C   UNL A   1      32.921  22.185  26.432  1.00  0.00     0.197 C 
BRANCH   7   8
ATOM      8  N   UNL A   1      31.498  22.390  26.631  1.00  0.00    -0.340 N 
ATOM      9  C   UNL A   1      30.773  23.498  26.358  1.00  0.00     0.244 C 
ATOM     10  O   UNL A   1      29.870  23.738  27.171  1.00  0.00    -0.273 OA
ATOM     11  H   UNL A   1      31.000  21.630  27.010  1.00  0.00     0.164 HD
BRANCH   9  12
ATOM     12  C   UNL A   1      31.041  24.442  25.162  1.00  0.00     0.181 C 
BRANCH  12  13
ATOM     13  N   UNL A   1      32.254  25.200  25.384  1.00  0.00    -0.338 N 
ATOM     14  C   UNL A   1      32.376  26.534  25.618  1.00  0.00     0.279 C 
ATOM     15  O   UNL A   1      33.525  26.951  25.816  1.00  0.00    -0.268 OA
ATOM     16  H   UNL A   1      33.094  24.687  25.363  1.00  0.00     0.164 HD
BRANCH  14  17
ATOM     17  C   UNL A   1      31.191  27.551  25.524  1.00  0.00     0.275 C 
BRANCH  17  18
ATOM     18  N   UNL A   1      31.619  28.892  25.972  1.00  0.00    -0.347 N 
ATOM     19  H   UNL A   1      31.928  29.437  25.168  1.00  0.00     0.345 HD
ATOM     20  H   UNL A   1      32.388  28.799  26.636  1.00  0.00     0.345 HD
ATOM     21  H   UNL A   1      30.836  29.366  26.424  1.00  0.00     0.345 HD
ENDBRANCH  17  18
BRANCH  17  22
ATOM     22  C   UNL A   1      30.187  27.516  24.354  1.00  0.00     0.113 C 
BRANCH  22  23
ATOM     23  C   UNL A   1      30.023  28.596  23.299  1.00  0.00    -0.016 A 
ATOM     24  C   UNL A   1      30.979  28.744  22.303  1.00  0.00     0.087 A 
ATOM     25  C   UNL A   1      29.061  29.657  23.064  1.00  0.00     0.003 A 
ATOM     26  N   UNL A   1      30.756  29.909  21.635  1.00  0.00    -0.361 N 
ATOM     27  C   UNL A   1      29.645  30.533  22.140  1.00  0.00     0.046 A 
ATOM     28  C   UNL A   1      27.829  30.065  23.626  1.00  0.00     0.010 A 
ATOM     29  H   UNL A   1      31.312  30.253  20.898  1.00  0.00     0.166 HD
ATOM     30  C   UNL A   1      29.141  31.810  21.857  1.00  0.00     0.026 A 
ATOM     31  C   UNL A   1      27.306  31.340  23.354  1.00  0.00     0.001 A 
ATOM     32  C   UNL A   1      27.975  32.212  22.505  1.00  0.00     0.002 A 
ENDBRANCH  22  23
ENDBRANCH  17  22
ENDBRANCH  14  17
ENDBRANCH  12  13
BRANCH  12  33
ATOM     33  C   UNL A   1      30.758  24.048  23.705  1.00  0.00     0.101 C 
BRANCH  33  34
ATOM     34  S   UNL A   1      31.930  24.680  22.446  1.00  0.00    -0.177 SA
ATOM     35  H   UNL A   1      32.803  23.695  22.104  1.00  0.00     0.102 HD
ENDBRANCH  33  34
ENDBRANCH  12  33
ENDBRANCH   9  12
ENDBRANCH   7   8
BRANCH   7  36
ATOM     36  C   UNL A   1      33.709  22.195  27.747  1.00  0.00     0.191 C 
BRANCH  36  37
ATOM     37  O   UNL A   1      34.931  21.472  27.673  1.00  0.00    -0.394 OA
ATOM     38  H   UNL A   1      35.107  21.228  26.751  1.00  0.00     0.210 HD
ENDBRANCH  36  37
ENDBRANCH   7  36
ENDBRANCH   4   7
ENDBRANCH   2   3
ENDBRANCH   1   2
BRANCH   1  39
ATOM     39  C   UNL A   1      36.566  23.709  24.843  1.00  0.00     0.002 C 
BRANCH  39  40
ATOM     40  C   UNL A   1      37.585  23.464  25.961  1.00  0.00     0.002 C 
BRANCH  40  41
ATOM     41  C   UNL A   1      38.484  22.243  25.756  1.00  0.00     0.021 C 
BRANCH  41  42
ATOM     42  C   UNL A   1      39.602  22.111  26.779  1.00  0.00     0.116 C 
BRANCH  42  43
ATOM     43  N   UNL A   1      40.862  21.748  26.151  1.00  0.00    -0.352 N 
ATOM     44  C   UNL A   1      41.958  22.538  25.910  1.00  0.00     0.251 C 
ATOM     45  H   UNL A   1      40.940  20.811  25.861  1.00  0.00     0.163 HD
ATOM     46  O   UNL A   1      42.851  22.152  25.169  1.00  0.00    -0.269 OA
BRANCH  44  47
ATOM     47  C   UNL A   1      42.031  23.868  26.552  1.00  0.00     0.039 A 
ATOM     48  C   UNL A   1      42.300  23.944  27.919  1.00  0.00     0.014 A 
ATOM     49  C   UNL A   1      41.861  25.028  25.792  1.00  0.00     0.014 A 
ATOM     50  C   UNL A   1      42.445  25.196  28.517  1.00  0.00     0.010 A 
ATOM     51  C   UNL A   1      42.088  26.271  26.373  1.00  0.00     0.010 A 
ATOM     52  C   UNL A   1      42.371  26.367  27.743  1.00  0.00    -0.014 A 
BRANCH  52  53
ATOM     53  C   UNL A   1      42.589  27.703  28.350  1.00  0.00     0.031 A 
ATOM     54  C   UNL A   1      43.985  28.224  28.547  1.00  0.00     0.074 A 
ATOM     55  C   UNL A   1      41.531  28.411  28.791  1.00  0.00     0.049 A 
ATOM     56  N   UNL A   1      44.378  29.344  29.097  1.00  0.00    -0.248 NA
ATOM     57  C   UNL A   1      45.090  27.363  28.091  1.00  0.00     0.031 C 
ATOM     58  C   UNL A   1      40.134  27.979  28.721  1.00  0.00     0.029 A 
ATOM     59  N   UNL A   1      41.469  29.635  29.408  1.00  0.00    -0.354 N 
ATOM     60  C   UNL A   1      45.766  29.310  29.080  1.00  0.00     0.074 A 
ATOM     61  C   UNL A   1      46.150  28.040  28.506  1.00  0.00     0.031 C 
ATOM     62  C   UNL A   1      39.352  28.928  29.259  1.00  0.00     0.029 A 
ATOM     63  C   UNL A   1      40.192  30.018  29.746  1.00  0.00     0.049 A 
ATOM     64  H   UNL A   1      42.263  30.188  29.591  1.00  0.00     0.167 HD
ATOM     65  C   UNL A   1      46.643  30.262  29.476  1.00  0.00     0.034 A 
ATOM     66  C   UNL A   1      39.749  31.118  30.384  1.00  0.00     0.034 A 
ATOM     67  C   UNL A   1      46.254  31.535  30.022  1.00  0.00     0.049 A 
ATOM     68  C   UNL A   1      40.744  32.164  30.809  1.00  0.00     0.074 A 
ATOM     69  C   UNL A   1      47.060  32.598  30.386  1.00  0.00     0.029 A 
ATOM     70  N   UNL A   1      44.948  31.911  30.298  1.00  0.00    -0.354 N 
ATOM     71  N   UNL A   1      42.045  32.181  30.646  1.00  0.00    -0.248 NA
ATOM     72  C   UNL A   1      40.205  33.358  31.476  1.00  0.00     0.031 C 
ATOM     73  C   UNL A   1      46.245  33.604  30.913  1.00  0.00     0.029 A 
ATOM     74  C   UNL A   1      44.926  33.183  30.842  1.00  0.00     0.049 A 
ATOM     75  H   UNL A   1      44.153  31.355  30.131  1.00  0.00     0.167 HD
ATOM     76  C   UNL A   1      42.477  33.400  31.157  1.00  0.00     0.074 A 
ATOM     77  C   UNL A   1      41.294  34.101  31.614  1.00  0.00     0.031 C 
ATOM     78  C   UNL A   1      43.737  33.889  31.252  1.00  0.00     0.034 A 
BRANCH  65  79
ATOM     79  C   UNL A   1      48.112  29.976  29.294  1.00  0.00     0.023 A 
ATOM     80  C   UNL A   1      48.852  29.425  30.361  1.00  0.00     0.012 A 
ATOM     81  C   UNL A   1      48.752  30.213  28.062  1.00  0.00     0.148 A 
ATOM     82  C   UNL A   1      50.213  29.156  30.219  1.00  0.00     0.002 A 
ATOM     83  C   UNL A   1      50.097  29.896  27.913  1.00  0.00     0.091 A 
ATOM     84  F   UNL A   1      48.039  30.757  27.066  1.00  0.00    -0.205 F 
ATOM     85  C   UNL A   1      50.832  29.381  28.993  1.00  0.00     0.022 A 
BRANCH  83  86
ATOM     86  S   UNL A   1      50.967  30.075  26.351  1.00  0.00     0.127 S 
ATOM     87  O   UNL A   1      50.212  29.165  25.489  1.00  0.00    -0.237 OA
ATOM     88  O   UNL A   1      50.776  31.495  26.055  1.00  0.00    -0.237 OA
ATOM     89  O   UNL A   1      52.346  29.688  26.612  1.00  0.00    -0.744 OA
ENDBRANCH  83  86
ENDBRANCH  65  79
BRANCH  66  90
ATOM     90  C   UNL A   1      38.288  31.315  30.607  1.00  0.00     0.023 A 
ATOM     91  C   UNL A   1      37.698  30.823  31.787  1.00  0.00     0.012 A 
ATOM     92  C   UNL A   1      37.490  32.003  29.674  1.00  0.00     0.148 A 
ATOM     93  C   UNL A   1      36.330  30.982  32.018  1.00  0.00     0.002 A 
ATOM     94  C   UNL A   1      36.142  32.208  29.936  1.00  0.00     0.091 A 
ATOM     95  F   UNL A   1      38.072  32.457  28.555  1.00  0.00    -0.205 F 
ATOM     96  C   UNL A   1      35.555  31.683  31.098  1.00  0.00     0.022 A 
BRANCH  94  97
ATOM     97  S   UNL A   1      35.092  33.206  28.873  1.00  0.00     0.127 S 
ATOM     98  O   UNL A   1      35.819  34.473  28.839  1.00  0.00    -0.237 OA
ATOM     99  O   UNL A   1      35.120  32.444  27.624  1.00  0.00    -0.237 OA
ATOM    100  O   UNL A   1      33.791  33.244  29.527  1.00  0.00    -0.744 OA
ENDBRANCH  94  97
ENDBRANCH  66  90
BRANCH  78 101
ATOM    101  C   UNL A   1      43.910  35.265  31.841  1.00  0.00     0.023 A 
ATOM    102  C   UNL A   1      43.894  36.397  31.001  1.00  0.00     0.012 A 
ATOM    103  C   UNL A   1      44.018  35.440  33.235  1.00  0.00     0.148 A 
ATOM    104  C   UNL A   1      44.021  37.678  31.537  1.00  0.00     0.002 A 
ATOM    105  C   UNL A   1      44.090  36.721  33.765  1.00  0.00     0.091 A 
ATOM    106  F   UNL A   1      44.048  34.349  34.016  1.00  0.00    -0.205 F 
ATOM    107  C   UNL A   1      44.106  37.841  32.917  1.00  0.00     0.022 A 
BRANCH 105 108
ATOM    108  S   UNL A   1      44.103  37.035  35.533  1.00  0.00     0.127 S 
ATOM    109  O   UNL A   1      42.899  36.329  35.970  1.00  0.00    -0.237 OA
ATOM    110  O   UNL A   1      45.359  36.411  35.949  1.00  0.00    -0.237 OA
ATOM    111  O   UNL A   1      44.066  38.482  35.687  1.00  0.00    -0.744 OA
ENDBRANCH 105 108
ENDBRANCH  78 101
ENDBRANCH  52  53
ENDBRANCH  44  47
ENDBRANCH  42  43
ENDBRANCH  41  42
ENDBRANCH  40  41
ENDBRANCH  39  40
ENDBRANCH   1  39
TORSDOF 27
ENDMDL
MODEL 3
REMARK VINA RESULT:     -10.3      1.682      2.118
REMARK SMILES [NH3+][C@@H](Cc1c[nH]c2ccccc12)C(=O)N[C@@H](CS)C(=O)N[C@@H](CO)C(=O)NCCCCCCNC(=O)c1ccc(-c2c3nc(c(-c4cccc(S(=O)(=O)[O-])c4F)c4ccc([nH]4)c(-c4cccc(S(=O)(=O)[O-])c4F)c4nc(c(-c5cccc(S(=O)(=O)[O-])c5F)c5ccc2[nH]5)C=C4)C=C3)cc1
REMARK SMILES IDX 29 1 28 2 27 3 25 4 26 5 22 7 21 8 19 9 20 10 16 12 15 13
REMARK SMILES IDX 13 14 14 15 2 17 1 18 3 22 4 23 5 24 12 25 6 26 7 27 11 28
REMARK SMILES IDX 8 30 10 31 9 32 17 33 18 34 23 36 24 37 30 39 31 40 32 41
REMARK SMILES IDX 33 42 34 43 35 44 36 46 37 47 38 48 99 49 39 50 98 51 40 52
REMARK SMILES IDX 41 53 42 54 92 55 43 56 97 57 91 58 93 59 44 60 96 61 90 62
REMARK SMILES IDX 89 63 45 65 77 66 57 67 76 68 58 69 61 70 75 71 94 72 59 73
REMARK SMILES IDX 60 74 74 76 95 77 62 78 46 79 47 80 55 81 48 82 50 83 56 84
REMARK SMILES IDX 49 85 51 86 52 87 53 88 54 89 78 90 79 91 87 92 80 93 82 94
REMARK SMILES IDX 88 95 81 96 83 97 84 98 85 99 86 100 63 101 64 102 72 103
REMARK SMILES IDX 65 104 67 105 73 106 66 107 68 108 69 109 70 110 71 111
REMARK H PARENT 27 6 21 11 15 16 1 19 1 20 1 21 6 29 18 35 24 38 34 45 93 64
REMARK H PARENT 61 75
REMARK Flexibility Score: inf
ROOT
ATOM      1  C   UNL A   1      39.064  23.372  26.852  1.00  0.00     0.021 C 
ENDROOT
BRANCH   1   2
ATOM      2  C   UNL A   1      37.755  23.277  26.078  1.00  0.00     0.116 C 
BRANCH   2   3
ATOM      3  N   UNL A   1      37.483  21.917  25.669  1.00  0.00    -0.354 N 
ATOM      4  C   UNL A   1      36.301  21.290  25.454  1.00  0.00     0.244 C 
ATOM      5  O   UNL A   1      36.335  20.139  25.002  1.00  0.00    -0.273 OA
ATOM      6  H   UNL A   1      38.281  21.359  25.524  1.00  0.00     0.163 HD
BRANCH   4   7
ATOM      7  C   UNL A   1      34.952  21.966  25.717  1.00  0.00     0.197 C 
BRANCH   7   8
ATOM      8  N   UNL A   1      33.883  21.532  24.836  1.00  0.00    -0.340 N 
ATOM      9  C   UNL A   1      32.826  22.251  24.397  1.00  0.00     0.244 C 
ATOM     10  O   UNL A   1      31.771  21.611  24.294  1.00  0.00    -0.273 OA
ATOM     11  H   UNL A   1      33.933  20.601  24.520  1.00  0.00     0.164 HD
BRANCH   9  12
ATOM     12  C   UNL A   1      32.874  23.764  24.076  1.00  0.00     0.181 C 
BRANCH  12  13
ATOM     13  N   UNL A   1      32.831  24.537  25.299  1.00  0.00    -0.338 N 
ATOM     14  C   UNL A   1      31.736  25.018  25.946  1.00  0.00     0.279 C 
ATOM     15  O   UNL A   1      31.950  25.626  27.004  1.00  0.00    -0.268 OA
ATOM     16  H   UNL A   1      33.701  24.739  25.713  1.00  0.00     0.164 HD
BRANCH  14  17
ATOM     17  C   UNL A   1      30.282  24.956  25.372  1.00  0.00     0.275 C 
BRANCH  17  18
ATOM     18  N   UNL A   1      29.289  25.178  26.443  1.00  0.00    -0.347 N 
ATOM     19  H   UNL A   1      29.566  25.985  27.001  1.00  0.00     0.345 HD
ATOM     20  H   UNL A   1      29.242  24.352  27.039  1.00  0.00     0.345 HD
ATOM     21  H   UNL A   1      28.373  25.350  26.028  1.00  0.00     0.345 HD
ENDBRANCH  17  18
BRANCH  17  22
ATOM     22  C   UNL A   1      29.933  25.547  23.991  1.00  0.00     0.113 C 
BRANCH  22  23
ATOM     23  C   UNL A   1      29.057  26.763  23.747  1.00  0.00    -0.016 A 
ATOM     24  C   UNL A   1      27.696  26.704  24.016  1.00  0.00     0.087 A 
ATOM     25  C   UNL A   1      29.279  28.089  23.200  1.00  0.00     0.003 A 
ATOM     26  N   UNL A   1      27.086  27.803  23.496  1.00  0.00    -0.361 N 
ATOM     27  C   UNL A   1      28.016  28.622  22.910  1.00  0.00     0.046 A 
ATOM     28  C   UNL A   1      30.395  28.848  22.778  1.00  0.00     0.010 A 
ATOM     29  H   UNL A   1      26.118  27.984  23.533  1.00  0.00     0.166 HD
ATOM     30  C   UNL A   1      27.821  29.772  22.133  1.00  0.00     0.026 A 
ATOM     31  C   UNL A   1      30.220  30.005  22.000  1.00  0.00     0.001 A 
ATOM     32  C   UNL A   1      28.947  30.439  21.655  1.00  0.00     0.002 A 
ENDBRANCH  22  23
ENDBRANCH  17  22
ENDBRANCH  14  17
ENDBRANCH  12  13
BRANCH  12  33
ATOM     33  C   UNL A   1      33.729  24.353  22.945  1.00  0.00     0.101 C 
BRANCH  33  34
ATOM     34  S   UNL A   1      33.645  26.169  22.719  1.00  0.00    -0.177 SA
ATOM     35  H   UNL A   1      32.745  26.694  23.592  1.00  0.00     0.102 HD
ENDBRANCH  33  34
ENDBRANCH  12  33
ENDBRANCH   9  12
ENDBRANCH   7   8
BRANCH   7  36
ATOM     36  C   UNL A   1      34.531  21.987  27.191  1.00  0.00     0.191 C 
BRANCH  36  37
ATOM     37  O   UNL A   1      33.273  21.366  27.422  1.00  0.00    -0.394 OA
ATOM     38  H   UNL A   1      33.381  20.645  28.062  1.00  0.00     0.210 HD
ENDBRANCH  36  37
ENDBRANCH   7  36
ENDBRANCH   4   7
ENDBRANCH   2   3
ENDBRANCH   1   2
BRANCH   1  39
ATOM     39  C   UNL A   1      40.180  22.479  26.302  1.00  0.00     0.002 C 
BRANCH  39  40
ATOM     40  C   UNL A   1      40.577  21.315  27.215  1.00  0.00     0.002 C 
BRANCH  40  41
ATOM     41  C   UNL A   1      40.869  20.000  26.491  1.00  0.00     0.021 C 
BRANCH  41  42
ATOM     42  C   UNL A   1      42.163  19.324  26.919  1.00  0.00     0.116 C 
BRANCH  42  43
ATOM     43  N   UNL A   1      43.039  19.077  25.785  1.00  0.00    -0.352 N 
ATOM     44  C   UNL A   1      43.712  19.986  25.009  1.00  0.00     0.251 C 
ATOM     45  H   UNL A   1      43.165  18.132  25.542  1.00  0.00     0.163 HD
ATOM     46  O   UNL A   1      44.224  19.643  23.952  1.00  0.00    -0.269 OA
BRANCH  44  47
ATOM     47  C   UNL A   1      43.797  21.389  25.468  1.00  0.00     0.039 A 
ATOM     48  C   UNL A   1      44.293  21.654  26.745  1.00  0.00     0.014 A 
ATOM     49  C   UNL A   1      43.410  22.432  24.623  1.00  0.00     0.014 A 
ATOM     50  C   UNL A   1      44.446  22.978  27.157  1.00  0.00     0.010 A 
ATOM     51  C   UNL A   1      43.641  23.749  25.004  1.00  0.00     0.010 A 
ATOM     52  C   UNL A   1      44.150  24.035  26.278  1.00  0.00    -0.014 A 
BRANCH  52  53
ATOM     53  C   UNL A   1      44.370  25.447  26.676  1.00  0.00     0.031 A 
ATOM     54  C   UNL A   1      45.739  26.058  26.566  1.00  0.00     0.074 A 
ATOM     55  C   UNL A   1      43.352  26.152  27.206  1.00  0.00     0.049 A 
ATOM     56  N   UNL A   1      46.136  27.258  26.903  1.00  0.00    -0.248 NA
ATOM     57  C   UNL A   1      46.812  25.202  26.031  1.00  0.00     0.031 C 
ATOM     58  C   UNL A   1      41.997  25.645  27.429  1.00  0.00     0.029 A 
ATOM     59  N   UNL A   1      43.305  27.441  27.674  1.00  0.00    -0.354 N 
ATOM     60  C   UNL A   1      47.502  27.291  26.650  1.00  0.00     0.074 A 
ATOM     61  C   UNL A   1      47.875  25.979  26.173  1.00  0.00     0.031 C 
ATOM     62  C   UNL A   1      41.249  26.615  27.979  1.00  0.00     0.029 A 
ATOM     63  C   UNL A   1      42.078  27.799  28.180  1.00  0.00     0.049 A 
ATOM     64  H   UNL A   1      44.078  28.052  27.651  1.00  0.00     0.167 HD
ATOM     65  C   UNL A   1      48.362  28.329  26.774  1.00  0.00     0.034 A 
ATOM     66  C   UNL A   1      41.669  28.949  28.750  1.00  0.00     0.034 A 
ATOM     67  C   UNL A   1      47.979  29.640  27.224  1.00  0.00     0.049 A 
ATOM     68  C   UNL A   1      42.643  30.090  28.870  1.00  0.00     0.074 A 
ATOM     69  C   UNL A   1      48.756  30.781  27.314  1.00  0.00     0.029 A 
ATOM     70  N   UNL A   1      46.713  29.983  27.674  1.00  0.00    -0.354 N 
ATOM     71  N   UNL A   1      43.895  30.151  28.484  1.00  0.00    -0.248 NA
ATOM     72  C   UNL A   1      42.139  31.331  29.474  1.00  0.00     0.031 C 
ATOM     73  C   UNL A   1      47.970  31.805  27.851  1.00  0.00     0.029 A 
ATOM     74  C   UNL A   1      46.691  31.313  28.060  1.00  0.00     0.049 A 
ATOM     75  H   UNL A   1      45.943  29.371  27.714  1.00  0.00     0.167 HD
ATOM     76  C   UNL A   1      44.318  31.445  28.765  1.00  0.00     0.074 A 
ATOM     77  C   UNL A   1      43.180  32.140  29.333  1.00  0.00     0.031 C 
ATOM     78  C   UNL A   1      45.539  32.004  28.582  1.00  0.00     0.034 A 
BRANCH  65  79
ATOM     79  C   UNL A   1      49.798  28.096  26.376  1.00  0.00     0.023 A 
ATOM     80  C   UNL A   1      50.154  28.109  25.012  1.00  0.00     0.012 A 
ATOM     81  C   UNL A   1      50.799  27.903  27.348  1.00  0.00     0.148 A 
ATOM     82  C   UNL A   1      51.473  27.891  24.618  1.00  0.00     0.002 A 
ATOM     83  C   UNL A   1      52.120  27.736  26.950  1.00  0.00     0.091 A 
ATOM     84  F   UNL A   1      50.440  27.872  28.639  1.00  0.00    -0.205 F 
ATOM     85  C   UNL A   1      52.457  27.716  25.587  1.00  0.00     0.022 A 
BRANCH  83  86
ATOM     86  S   UNL A   1      53.473  27.581  28.122  1.00  0.00     0.127 S 
ATOM     87  O   UNL A   1      53.239  26.242  28.665  1.00  0.00    -0.237 OA
ATOM     88  O   UNL A   1      54.645  27.690  27.254  1.00  0.00    -0.237 OA
ATOM     89  O   UNL A   1      53.313  28.675  29.068  1.00  0.00    -0.744 OA
ENDBRANCH  83  86
ENDBRANCH  65  79
BRANCH  66  90
ATOM     90  C   UNL A   1      40.255  29.100  29.197  1.00  0.00     0.023 A 
ATOM     91  C   UNL A   1      39.246  29.308  28.237  1.00  0.00     0.012 A 
ATOM     92  C   UNL A   1      39.903  29.014  30.557  1.00  0.00     0.148 A 
ATOM     93  C   UNL A   1      37.915  29.464  28.626  1.00  0.00     0.002 A 
ATOM     94  C   UNL A   1      38.569  29.113  30.933  1.00  0.00     0.091 A 
ATOM     95  F   UNL A   1      40.880  28.822  31.454  1.00  0.00    -0.205 F 
ATOM     96  C   UNL A   1      37.575  29.357  29.972  1.00  0.00     0.022 A 
BRANCH  94  97
ATOM     97  S   UNL A   1      38.022  28.861  32.626  1.00  0.00     0.127 S 
ATOM     98  O   UNL A   1      36.650  29.360  32.574  1.00  0.00    -0.237 OA
ATOM     99  O   UNL A   1      38.147  27.411  32.768  1.00  0.00    -0.237 OA
ATOM    100  O   UNL A   1      38.940  29.630  33.455  1.00  0.00    -0.744 OA
ENDBRANCH  94  97
ENDBRANCH  66  90
BRANCH  78 101
ATOM    101  C   UNL A   1      45.708  33.452  28.965  1.00  0.00     0.023 A 
ATOM    102  C   UNL A   1      46.154  33.792  30.257  1.00  0.00     0.012 A 
ATOM    103  C   UNL A   1      45.490  34.473  28.018  1.00  0.00     0.148 A 
ATOM    104  C   UNL A   1      46.344  35.126  30.614  1.00  0.00     0.002 A 
ATOM    105  C   UNL A   1      45.733  35.796  28.363  1.00  0.00     0.091 A 
ATOM    106  F   UNL A   1      45.050  34.131  26.798  1.00  0.00    -0.205 F 
ATOM    107  C   UNL A   1      46.146  36.126  29.665  1.00  0.00     0.022 A 
BRANCH 105 108
ATOM    108  S   UNL A   1      45.602  37.142  27.181  1.00  0.00     0.127 S 
ATOM    109  O   UNL A   1      44.170  37.135  26.880  1.00  0.00    -0.237 OA
ATOM    110  O   UNL A   1      46.053  38.290  27.969  1.00  0.00    -0.237 OA
ATOM    111  O   UNL A   1      46.474  36.790  26.070  1.00  0.00    -0.744 OA
ENDBRANCH 105 108
ENDBRANCH  78 101
ENDBRANCH  52  53
ENDBRANCH  44  47
ENDBRANCH  42  43
ENDBRANCH  41  42
ENDBRANCH  40  41
ENDBRANCH  39  40
ENDBRANCH   1  39
TORSDOF 27
ENDMDL
