MODEL 1
REMARK VINA RESULT:      -9.7      0.000      0.000
REMARK SMILES O=C(NCCCCCCNC(=O)c1ccccc1-c1ccc(/C=C2/SC(=S)N(Cc3ccccc3)C2=O)o1)c1ccc(-c2c3nc(c(-c4cccc(S(=O)(=O)[O-])c4F)c4ccc([nH]4)c(-c4cccc(S(=O)(=O)[O-])c4F)c4nc(c(-c5cccc(S(=O)(=O)[O-])c5F)c5ccc2[nH]5)C=C4)C=C3)cc1
REMARK SMILES IDX 7 1 6 2 5 3 4 4 3 5 1 6 2 7 39 9 40 10 101 11 41 12 100 13
REMARK SMILES IDX 42 14 43 15 44 16 94 17 45 18 99 19 93 20 95 21 46 22 98 23
REMARK SMILES IDX 92 24 91 25 47 27 79 28 59 29 78 30 60 31 63 32 77 33 96 34
REMARK SMILES IDX 61 35 62 36 76 38 97 39 64 40 48 41 49 42 57 43 50 44 52 45
REMARK SMILES IDX 58 46 51 47 53 48 54 49 55 50 56 51 80 52 81 53 89 54 82 55
REMARK SMILES IDX 84 56 90 57 83 58 85 59 86 60 87 61 88 62 65 63 66 64 74 65
REMARK SMILES IDX 67 66 69 67 75 68 68 69 70 70 71 71 72 72 73 73 8 74 9 75
REMARK SMILES IDX 10 76 11 77 12 79 13 80 14 81 18 82 15 83 17 84 16 85 19 86
REMARK SMILES IDX 20 87 38 88 21 89 22 90 23 91 24 92 25 93 36 94 26 95 28 96
REMARK SMILES IDX 37 97 27 98 29 99 30 100 31 101 35 102 32 103 34 104 33 105
REMARK H PARENT 3 8 95 26 63 37 10 78
REMARK Flexibility Score: inf
ROOT
ATOM      1  C   UNL A   1      47.031  40.301  29.051  1.00  0.00     0.002 C 
ENDROOT
BRANCH   1   2
ATOM      2  C   UNL A   1      47.064  41.811  29.309  1.00  0.00     0.002 C 
BRANCH   2   3
ATOM      3  C   UNL A   1      45.742  42.435  29.751  1.00  0.00     0.021 C 
BRANCH   3   4
ATOM      4  C   UNL A   1      44.544  42.112  28.869  1.00  0.00     0.116 C 
BRANCH   4   5
ATOM      5  N   UNL A   1      43.287  42.124  29.597  1.00  0.00    -0.352 N 
ATOM      6  O   UNL A   1      41.386  41.272  30.458  1.00  0.00    -0.269 OA
ATOM      7  C   UNL A   1      42.493  41.066  29.971  1.00  0.00     0.251 C 
ATOM      8  H   UNL A   1      42.957  43.015  29.859  1.00  0.00     0.163 HD
BRANCH   7   9
ATOM      9  C   UNL A   1      42.974  39.682  29.752  1.00  0.00     0.039 A 
ATOM     10  C   UNL A   1      42.692  39.016  28.558  1.00  0.00     0.014 A 
ATOM     11  C   UNL A   1      43.699  39.042  30.759  1.00  0.00     0.014 A 
ATOM     12  C   UNL A   1      42.997  37.666  28.432  1.00  0.00     0.010 A 
ATOM     13  C   UNL A   1      44.096  37.712  30.587  1.00  0.00     0.010 A 
ATOM     14  C   UNL A   1      43.722  37.004  29.435  1.00  0.00    -0.014 A 
BRANCH  14  15
ATOM     15  C   UNL A   1      44.157  35.602  29.208  1.00  0.00     0.031 A 
ATOM     16  C   UNL A   1      45.530  35.276  28.688  1.00  0.00     0.074 A 
ATOM     17  C   UNL A   1      43.282  34.612  29.475  1.00  0.00     0.049 A 
ATOM     18  N   UNL A   1      46.058  34.103  28.450  1.00  0.00    -0.248 NA
ATOM     19  C   UNL A   1      46.424  36.405  28.388  1.00  0.00     0.031 C 
ATOM     20  C   UNL A   1      41.906  34.811  29.942  1.00  0.00     0.029 A 
ATOM     21  N   UNL A   1      43.408  33.250  29.391  1.00  0.00    -0.354 N 
ATOM     22  C   UNL A   1      47.324  34.348  27.934  1.00  0.00     0.074 A 
ATOM     23  C   UNL A   1      47.486  35.786  27.889  1.00  0.00     0.031 C 
ATOM     24  C   UNL A   1      41.325  33.618  30.125  1.00  0.00     0.029 A 
ATOM     25  C   UNL A   1      42.259  32.572  29.728  1.00  0.00     0.049 A 
ATOM     26  H   UNL A   1      44.240  32.800  29.118  1.00  0.00     0.167 HD
ATOM     27  C   UNL A   1      48.266  33.456  27.542  1.00  0.00     0.034 A 
ATOM     28  C   UNL A   1      41.973  31.258  29.694  1.00  0.00     0.034 A 
ATOM     29  C   UNL A   1      48.103  32.026  27.609  1.00  0.00     0.049 A 
ATOM     30  C   UNL A   1      43.040  30.296  29.264  1.00  0.00     0.074 A 
ATOM     31  C   UNL A   1      49.024  31.041  27.302  1.00  0.00     0.029 A 
ATOM     32  N   UNL A   1      46.939  31.376  27.992  1.00  0.00    -0.354 N 
ATOM     33  N   UNL A   1      44.276  30.543  28.904  1.00  0.00    -0.248 NA
ATOM     34  C   UNL A   1      42.684  28.870  29.260  1.00  0.00     0.031 C 
ATOM     35  C   UNL A   1      48.406  29.796  27.462  1.00  0.00     0.029 A 
ATOM     36  C   UNL A   1      47.112  30.004  27.911  1.00  0.00     0.049 A 
ATOM     37  H   UNL A   1      46.111  31.824  28.280  1.00  0.00     0.167 HD
ATOM     38  C   UNL A   1      44.855  29.305  28.659  1.00  0.00     0.074 A 
ATOM     39  C   UNL A   1      43.840  28.308  28.937  1.00  0.00     0.031 C 
ATOM     40  C   UNL A   1      46.109  29.021  28.229  1.00  0.00     0.034 A 
BRANCH  27  41
ATOM     41  C   UNL A   1      49.575  33.992  27.015  1.00  0.00     0.023 A 
ATOM     42  C   UNL A   1      49.716  34.276  25.641  1.00  0.00     0.012 A 
ATOM     43  C   UNL A   1      50.639  34.287  27.893  1.00  0.00     0.148 A 
ATOM     44  C   UNL A   1      50.903  34.815  25.144  1.00  0.00     0.002 A 
ATOM     45  C   UNL A   1      51.801  34.866  27.397  1.00  0.00     0.091 A 
ATOM     46  F   UNL A   1      50.494  33.996  29.193  1.00  0.00    -0.205 F 
ATOM     47  C   UNL A   1      51.940  35.119  26.023  1.00  0.00     0.022 A 
BRANCH  45  48
ATOM     48  S   UNL A   1      53.160  35.376  28.457  1.00  0.00     0.127 S 
ATOM     49  O   UNL A   1      53.563  34.102  29.052  1.00  0.00    -0.237 OA
ATOM     50  O   UNL A   1      54.113  35.926  27.492  1.00  0.00    -0.237 OA
ATOM     51  O   UNL A   1      52.604  36.350  29.385  1.00  0.00    -0.744 OA
ENDBRANCH  45  48
ENDBRANCH  27  41
BRANCH  28  52
ATOM     52  C   UNL A   1      40.622  30.787  30.104  1.00  0.00     0.023 A 
ATOM     53  C   UNL A   1      39.648  30.522  29.123  1.00  0.00     0.012 A 
ATOM     54  C   UNL A   1      40.314  30.556  31.459  1.00  0.00     0.148 A 
ATOM     55  C   UNL A   1      38.382  30.063  29.486  1.00  0.00     0.002 A 
ATOM     56  C   UNL A   1      39.073  30.039  31.808  1.00  0.00     0.091 A 
ATOM     57  F   UNL A   1      41.253  30.823  32.377  1.00  0.00    -0.205 F 
ATOM     58  C   UNL A   1      38.098  29.811  30.826  1.00  0.00     0.022 A 
BRANCH  56  59
ATOM     59  S   UNL A   1      38.673  29.552  33.490  1.00  0.00     0.127 S 
ATOM     60  O   UNL A   1      38.478  30.846  34.137  1.00  0.00    -0.237 OA
ATOM     61  O   UNL A   1      37.451  28.770  33.292  1.00  0.00    -0.237 OA
ATOM     62  O   UNL A   1      39.813  28.776  33.957  1.00  0.00    -0.744 OA
ENDBRANCH  56  59
ENDBRANCH  28  52
BRANCH  40  63
ATOM     63  C   UNL A   1      46.471  27.568  28.069  1.00  0.00     0.023 A 
ATOM     64  C   UNL A   1      46.964  26.837  29.168  1.00  0.00     0.012 A 
ATOM     65  C   UNL A   1      46.266  26.912  26.839  1.00  0.00     0.148 A 
ATOM     66  C   UNL A   1      47.283  25.486  29.035  1.00  0.00     0.002 A 
ATOM     67  C   UNL A   1      46.536  25.554  26.728  1.00  0.00     0.091 A 
ATOM     68  F   UNL A   1      45.815  27.630  25.799  1.00  0.00    -0.205 F 
ATOM     69  C   UNL A   1      47.058  24.843  27.821  1.00  0.00     0.022 A 
BRANCH  67  70
ATOM     70  S   UNL A   1      46.185  24.621  25.234  1.00  0.00     0.127 S 
ATOM     71  O   UNL A   1      47.070  25.268  24.265  1.00  0.00    -0.237 OA
ATOM     72  O   UNL A   1      46.585  23.266  25.615  1.00  0.00    -0.237 OA
ATOM     73  O   UNL A   1      44.760  24.783  24.983  1.00  0.00    -0.744 OA
ENDBRANCH  67  70
ENDBRANCH  40  63
ENDBRANCH  14  15
ENDBRANCH   7   9
ENDBRANCH   4   5
ENDBRANCH   3   4
ENDBRANCH   2   3
ENDBRANCH   1   2
BRANCH   1  74
ATOM     74  C   UNL A   1      47.197  39.856  27.592  1.00  0.00     0.021 C 
BRANCH  74  75
ATOM     75  C   UNL A   1      45.918  39.873  26.766  1.00  0.00     0.116 C 
BRANCH  75  76
ATOM     76  N   UNL A   1      46.158  40.025  25.342  1.00  0.00    -0.352 N 
ATOM     77  C   UNL A   1      46.347  41.181  24.626  1.00  0.00     0.252 C 
ATOM     78  H   UNL A   1      46.189  39.189  24.822  1.00  0.00     0.163 HD
ATOM     79  O   UNL A   1      46.547  41.137  23.416  1.00  0.00    -0.269 OA
BRANCH  77  80
ATOM     80  C   UNL A   1      46.263  42.497  25.299  1.00  0.00     0.050 A 
ATOM     81  C   UNL A   1      47.449  42.983  25.868  1.00  0.00     0.014 A 
ATOM     82  C   UNL A   1      45.068  43.233  25.393  1.00  0.00     0.030 A 
ATOM     83  C   UNL A   1      47.462  44.228  26.496  1.00  0.00     0.001 A 
ATOM     84  C   UNL A   1      45.104  44.492  26.012  1.00  0.00     0.013 A 
ATOM     85  C   UNL A   1      46.293  44.985  26.558  1.00  0.00     0.001 A 
BRANCH  82  86
ATOM     86  C   UNL A   1      43.808  42.717  24.889  1.00  0.00     0.135 A 
ATOM     87  C   UNL A   1      42.985  41.684  25.272  1.00  0.00     0.051 A 
ATOM     88  O   UNL A   1      43.356  43.274  23.728  1.00  0.00    -0.457 OA
ATOM     89  C   UNL A   1      41.992  41.589  24.275  1.00  0.00     0.051 A 
ATOM     90  C   UNL A   1      42.235  42.586  23.334  1.00  0.00     0.128 A 
BRANCH  90  91
ATOM     91  C   UNL A   1      41.497  42.857  22.151  1.00  0.00     0.068 C 
ATOM     92  C   UNL A   1      42.124  43.022  20.982  1.00  0.00     0.084 C 
ATOM     93  S   UNL A   1      41.458  43.822  19.615  1.00  0.00    -0.054 SA
ATOM     94  C   UNL A   1      43.557  42.744  20.729  1.00  0.00     0.266 C 
ATOM     95  C   UNL A   1      43.066  44.237  19.001  1.00  0.00     0.148 C 
ATOM     96  N   UNL A   1      44.026  43.580  19.740  1.00  0.00    -0.288 N 
ATOM     97  O   UNL A   1      44.198  41.871  21.301  1.00  0.00    -0.268 OA
ATOM     98  S   UNL A   1      43.287  45.285  17.725  1.00  0.00    -0.052 S 
BRANCH  96  99
ATOM     99  C   UNL A   1      45.468  43.638  19.521  1.00  0.00     0.163 C 
BRANCH  99 100
ATOM    100  C   UNL A   1      46.219  44.226  20.705  1.00  0.00    -0.028 A 
ATOM    101  C   UNL A   1      47.372  43.599  21.198  1.00  0.00     0.005 A 
ATOM    102  C   UNL A   1      45.757  45.379  21.364  1.00  0.00     0.005 A 
ATOM    103  C   UNL A   1      48.035  44.108  22.319  1.00  0.00     0.000 A 
ATOM    104  C   UNL A   1      46.431  45.898  22.471  1.00  0.00     0.000 A 
ATOM    105  C   UNL A   1      47.567  45.257  22.953  1.00  0.00     0.000 A 
ENDBRANCH  99 100
ENDBRANCH  96  99
ENDBRANCH  90  91
ENDBRANCH  82  86
ENDBRANCH  77  80
ENDBRANCH  75  76
ENDBRANCH  74  75
ENDBRANCH   1  74
TORSDOF 20
ENDMDL
MODEL 2
REMARK VINA RESULT:      -9.2      5.519      9.874
REMARK SMILES O=C(NCCCCCCNC(=O)c1ccccc1-c1ccc(/C=C2/SC(=S)N(Cc3ccccc3)C2=O)o1)c1ccc(-c2c3nc(c(-c4cccc(S(=O)(=O)[O-])c4F)c4ccc([nH]4)c(-c4cccc(S(=O)(=O)[O-])c4F)c4nc(c(-c5cccc(S(=O)(=O)[O-])c5F)c5ccc2[nH]5)C=C4)C=C3)cc1
REMARK SMILES IDX 7 1 6 2 5 3 4 4 3 5 1 6 2 7 39 9 40 10 101 11 41 12 100 13
REMARK SMILES IDX 42 14 43 15 44 16 94 17 45 18 99 19 93 20 95 21 46 22 98 23
REMARK SMILES IDX 92 24 91 25 47 27 79 28 59 29 78 30 60 31 63 32 77 33 96 34
REMARK SMILES IDX 61 35 62 36 76 38 97 39 64 40 48 41 49 42 57 43 50 44 52 45
REMARK SMILES IDX 58 46 51 47 53 48 54 49 55 50 56 51 80 52 81 53 89 54 82 55
REMARK SMILES IDX 84 56 90 57 83 58 85 59 86 60 87 61 88 62 65 63 66 64 74 65
REMARK SMILES IDX 67 66 69 67 75 68 68 69 70 70 71 71 72 72 73 73 8 74 9 75
REMARK SMILES IDX 10 76 11 77 12 79 13 80 14 81 18 82 15 83 17 84 16 85 19 86
REMARK SMILES IDX 20 87 38 88 21 89 22 90 23 91 24 92 25 93 36 94 26 95 28 96
REMARK SMILES IDX 37 97 27 98 29 99 30 100 31 101 35 102 32 103 34 104 33 105
REMARK H PARENT 3 8 95 26 63 37 10 78
REMARK Flexibility Score: inf
ROOT
ATOM      1  C   UNL A   1      38.243  33.717  29.106  1.00  0.00     0.002 C 
ENDROOT
BRANCH   1   2
ATOM      2  C   UNL A   1      36.894  33.721  29.835  1.00  0.00     0.002 C 
BRANCH   2   3
ATOM      3  C   UNL A   1      35.659  33.678  28.939  1.00  0.00     0.021 C 
BRANCH   3   4
ATOM      4  C   UNL A   1      34.548  32.750  29.409  1.00  0.00     0.116 C 
BRANCH   4   5
ATOM      5  N   UNL A   1      34.000  31.935  28.338  1.00  0.00    -0.352 N 
ATOM      6  O   UNL A   1      34.012  30.375  26.713  1.00  0.00    -0.269 OA
ATOM      7  C   UNL A   1      34.560  30.855  27.699  1.00  0.00     0.251 C 
ATOM      8  H   UNL A   1      33.102  32.193  28.027  1.00  0.00     0.163 HD
BRANCH   7   9
ATOM      9  C   UNL A   1      35.843  30.302  28.192  1.00  0.00     0.039 A 
ATOM     10  C   UNL A   1      35.890  29.581  29.386  1.00  0.00     0.014 A 
ATOM     11  C   UNL A   1      37.011  30.522  27.457  1.00  0.00     0.014 A 
ATOM     12  C   UNL A   1      37.118  29.216  29.924  1.00  0.00     0.010 A 
ATOM     13  C   UNL A   1      38.236  30.062  27.952  1.00  0.00     0.010 A 
ATOM     14  C   UNL A   1      38.304  29.432  29.204  1.00  0.00    -0.014 A 
BRANCH  14  15
ATOM     15  C   UNL A   1      39.583  28.903  29.740  1.00  0.00     0.031 A 
ATOM     16  C   UNL A   1      40.258  29.526  30.930  1.00  0.00     0.074 A 
ATOM     17  C   UNL A   1      40.140  27.839  29.127  1.00  0.00     0.049 A 
ATOM     18  N   UNL A   1      41.371  29.171  31.520  1.00  0.00    -0.248 NA
ATOM     19  C   UNL A   1      39.613  30.703  31.533  1.00  0.00     0.031 C 
ATOM     20  C   UNL A   1      39.597  27.179  27.935  1.00  0.00     0.029 A 
ATOM     21  N   UNL A   1      41.279  27.130  29.407  1.00  0.00    -0.354 N 
ATOM     22  C   UNL A   1      41.584  30.098  32.532  1.00  0.00     0.074 A 
ATOM     23  C   UNL A   1      40.484  31.038  32.476  1.00  0.00     0.031 C 
ATOM     24  C   UNL A   1      40.388  26.149  27.602  1.00  0.00     0.029 A 
ATOM     25  C   UNL A   1      41.526  26.115  28.512  1.00  0.00     0.049 A 
ATOM     26  H   UNL A   1      41.863  27.327  30.175  1.00  0.00     0.167 HD
ATOM     27  C   UNL A   1      42.598  30.154  33.430  1.00  0.00     0.034 A 
ATOM     28  C   UNL A   1      42.565  25.268  28.411  1.00  0.00     0.034 A 
ATOM     29  C   UNL A   1      43.677  29.201  33.490  1.00  0.00     0.049 A 
ATOM     30  C   UNL A   1      43.667  25.349  29.425  1.00  0.00     0.074 A 
ATOM     31  C   UNL A   1      44.712  29.132  34.407  1.00  0.00     0.029 A 
ATOM     32  N   UNL A   1      43.873  28.164  32.591  1.00  0.00    -0.354 N 
ATOM     33  N   UNL A   1      43.781  26.152  30.455  1.00  0.00    -0.248 NA
ATOM     34  C   UNL A   1      44.771  24.391  29.282  1.00  0.00     0.031 C 
ATOM     35  C   UNL A   1      45.554  28.078  34.039  1.00  0.00     0.029 A 
ATOM     36  C   UNL A   1      45.021  27.462  32.919  1.00  0.00     0.049 A 
ATOM     37  H   UNL A   1      43.282  27.956  31.831  1.00  0.00     0.167 HD
ATOM     38  C   UNL A   1      44.953  25.779  31.099  1.00  0.00     0.074 A 
ATOM     39  C   UNL A   1      45.499  24.660  30.358  1.00  0.00     0.031 C 
ATOM     40  C   UNL A   1      45.532  26.323  32.198  1.00  0.00     0.034 A 
BRANCH  27  41
ATOM     41  C   UNL A   1      42.589  31.276  34.439  1.00  0.00     0.023 A 
ATOM     42  C   UNL A   1      42.144  31.033  35.755  1.00  0.00     0.012 A 
ATOM     43  C   UNL A   1      43.095  32.549  34.107  1.00  0.00     0.148 A 
ATOM     44  C   UNL A   1      42.172  32.046  36.713  1.00  0.00     0.002 A 
ATOM     45  C   UNL A   1      43.162  33.540  35.079  1.00  0.00     0.091 A 
ATOM     46  F   UNL A   1      43.499  32.767  32.847  1.00  0.00    -0.205 F 
ATOM     47  C   UNL A   1      42.690  33.295  36.378  1.00  0.00     0.022 A 
BRANCH  45  48
ATOM     48  S   UNL A   1      43.892  35.154  34.772  1.00  0.00     0.127 S 
ATOM     49  O   UNL A   1      43.832  35.761  36.101  1.00  0.00    -0.237 OA
ATOM     50  O   UNL A   1      45.240  34.801  34.323  1.00  0.00    -0.237 OA
ATOM     51  O   UNL A   1      43.060  35.786  33.759  1.00  0.00    -0.744 OA
ENDBRANCH  45  48
ENDBRANCH  27  41
BRANCH  28  52
ATOM     52  C   UNL A   1      42.590  24.257  27.318  1.00  0.00     0.023 A 
ATOM     53  C   UNL A   1      43.270  24.542  26.120  1.00  0.00     0.012 A 
ATOM     54  C   UNL A   1      41.980  22.997  27.481  1.00  0.00     0.148 A 
ATOM     55  C   UNL A   1      43.319  23.602  25.091  1.00  0.00     0.002 A 
ATOM     56  C   UNL A   1      42.086  22.043  26.477  1.00  0.00     0.091 A 
ATOM     57  F   UNL A   1      41.330  22.750  28.626  1.00  0.00    -0.205 F 
ATOM     58  C   UNL A   1      42.738  22.349  25.273  1.00  0.00     0.022 A 
BRANCH  56  59
ATOM     59  S   UNL A   1      41.492  20.360  26.684  1.00  0.00     0.127 S 
ATOM     60  O   UNL A   1      40.061  20.572  26.880  1.00  0.00    -0.237 OA
ATOM     61  O   UNL A   1      41.858  19.755  25.402  1.00  0.00    -0.237 OA
ATOM     62  O   UNL A   1      42.216  19.825  27.828  1.00  0.00    -0.744 OA
ENDBRANCH  56  59
ENDBRANCH  28  52
BRANCH  40  63
ATOM     63  C   UNL A   1      46.807  25.692  32.692  1.00  0.00     0.023 A 
ATOM     64  C   UNL A   1      48.051  26.140  32.208  1.00  0.00     0.012 A 
ATOM     65  C   UNL A   1      46.770  24.691  33.684  1.00  0.00     0.148 A 
ATOM     66  C   UNL A   1      49.238  25.575  32.675  1.00  0.00     0.002 A 
ATOM     67  C   UNL A   1      47.957  24.172  34.183  1.00  0.00     0.091 A 
ATOM     68  F   UNL A   1      45.575  24.265  34.117  1.00  0.00    -0.205 F 
ATOM     69  C   UNL A   1      49.192  24.602  33.669  1.00  0.00     0.022 A 
BRANCH  67  70
ATOM     70  S   UNL A   1      47.998  22.986  35.532  1.00  0.00     0.127 S 
ATOM     71  O   UNL A   1      47.246  21.866  34.966  1.00  0.00    -0.237 OA
ATOM     72  O   UNL A   1      49.433  22.742  35.685  1.00  0.00    -0.237 OA
ATOM     73  O   UNL A   1      47.373  23.647  36.668  1.00  0.00    -0.744 OA
ENDBRANCH  67  70
ENDBRANCH  40  63
ENDBRANCH  14  15
ENDBRANCH   7   9
ENDBRANCH   4   5
ENDBRANCH   3   4
ENDBRANCH   2   3
ENDBRANCH   1   2
BRANCH   1  74
ATOM     74  C   UNL A   1      39.475  34.056  29.954  1.00  0.00     0.021 C 
BRANCH  74  75
ATOM     75  C   UNL A   1      40.591  34.774  29.208  1.00  0.00     0.116 C 
BRANCH  75  76
ATOM     76  N   UNL A   1      41.741  35.071  30.045  1.00  0.00    -0.352 N 
ATOM     77  C   UNL A   1      43.073  34.926  29.748  1.00  0.00     0.252 C 
ATOM     78  H   UNL A   1      41.537  35.423  30.942  1.00  0.00     0.163 HD
ATOM     79  O   UNL A   1      43.930  35.232  30.572  1.00  0.00    -0.269 OA
BRANCH  77  80
ATOM     80  C   UNL A   1      43.490  34.352  28.449  1.00  0.00     0.050 A 
ATOM     81  C   UNL A   1      43.791  32.982  28.440  1.00  0.00     0.014 A 
ATOM     82  C   UNL A   1      43.604  35.119  27.276  1.00  0.00     0.030 A 
ATOM     83  C   UNL A   1      44.165  32.359  27.251  1.00  0.00     0.001 A 
ATOM     84  C   UNL A   1      43.962  34.471  26.084  1.00  0.00     0.013 A 
ATOM     85  C   UNL A   1      44.239  33.100  26.073  1.00  0.00     0.001 A 
BRANCH  82  86
ATOM     86  C   UNL A   1      43.381  36.554  27.273  1.00  0.00     0.135 A 
ATOM     87  C   UNL A   1      42.331  37.350  26.879  1.00  0.00     0.051 A 
ATOM     88  O   UNL A   1      44.449  37.325  27.629  1.00  0.00    -0.457 OA
ATOM     89  C   UNL A   1      42.794  38.679  26.974  1.00  0.00     0.051 A 
ATOM     90  C   UNL A   1      44.103  38.642  27.446  1.00  0.00     0.128 A 
BRANCH  90  91
ATOM     91  C   UNL A   1      44.968  39.743  27.685  1.00  0.00     0.068 C 
ATOM     92  C   UNL A   1      44.801  40.516  28.762  1.00  0.00     0.084 C 
ATOM     93  S   UNL A   1      45.411  42.115  28.926  1.00  0.00    -0.054 SA
ATOM     94  C   UNL A   1      43.895  40.225  29.897  1.00  0.00     0.266 C 
ATOM     95  C   UNL A   1      44.148  42.540  30.091  1.00  0.00     0.148 C 
ATOM     96  N   UNL A   1      43.455  41.405  30.456  1.00  0.00    -0.288 N 
ATOM     97  O   UNL A   1      43.623  39.096  30.285  1.00  0.00    -0.268 OA
ATOM     98  S   UNL A   1      43.898  44.106  30.601  1.00  0.00    -0.052 S 
BRANCH  96  99
ATOM     99  C   UNL A   1      42.362  41.338  31.421  1.00  0.00     0.163 C 
BRANCH  99 100
ATOM    100  C   UNL A   1      42.823  41.584  32.848  1.00  0.00    -0.028 A 
ATOM    101  C   UNL A   1      42.229  42.591  33.623  1.00  0.00     0.005 A 
ATOM    102  C   UNL A   1      43.880  40.849  33.413  1.00  0.00     0.005 A 
ATOM    103  C   UNL A   1      42.686  42.855  34.919  1.00  0.00     0.000 A 
ATOM    104  C   UNL A   1      44.321  41.100  34.713  1.00  0.00     0.000 A 
ATOM    105  C   UNL A   1      43.729  42.108  35.464  1.00  0.00     0.000 A 
ENDBRANCH  99 100
ENDBRANCH  96  99
ENDBRANCH  90  91
ENDBRANCH  82  86
ENDBRANCH  77  80
ENDBRANCH  75  76
ENDBRANCH  74  75
ENDBRANCH   1  74
TORSDOF 20
ENDMDL
MODEL 3
REMARK VINA RESULT:      -8.9      3.353      8.413
REMARK SMILES O=C(NCCCCCCNC(=O)c1ccccc1-c1ccc(/C=C2/SC(=S)N(Cc3ccccc3)C2=O)o1)c1ccc(-c2c3nc(c(-c4cccc(S(=O)(=O)[O-])c4F)c4ccc([nH]4)c(-c4cccc(S(=O)(=O)[O-])c4F)c4nc(c(-c5cccc(S(=O)(=O)[O-])c5F)c5ccc2[nH]5)C=C4)C=C3)cc1
REMARK SMILES IDX 7 1 6 2 5 3 4 4 3 5 1 6 2 7 39 9 40 10 101 11 41 12 100 13
REMARK SMILES IDX 42 14 43 15 44 16 94 17 45 18 99 19 93 20 95 21 46 22 98 23
REMARK SMILES IDX 92 24 91 25 47 27 79 28 59 29 78 30 60 31 63 32 77 33 96 34
REMARK SMILES IDX 61 35 62 36 76 38 97 39 64 40 48 41 49 42 57 43 50 44 52 45
REMARK SMILES IDX 58 46 51 47 53 48 54 49 55 50 56 51 80 52 81 53 89 54 82 55
REMARK SMILES IDX 84 56 90 57 83 58 85 59 86 60 87 61 88 62 65 63 66 64 74 65
REMARK SMILES IDX 67 66 69 67 75 68 68 69 70 70 71 71 72 72 73 73 8 74 9 75
REMARK SMILES IDX 10 76 11 77 12 79 13 80 14 81 18 82 15 83 17 84 16 85 19 86
REMARK SMILES IDX 20 87 38 88 21 89 22 90 23 91 24 92 25 93 36 94 26 95 28 96
REMARK SMILES IDX 37 97 27 98 29 99 30 100 31 101 35 102 32 103 34 104 33 105
REMARK H PARENT 3 8 95 26 63 37 10 78
REMARK Flexibility Score: inf
ROOT
ATOM      1  C   UNL A   1      45.525  40.990  28.325  1.00  0.00     0.002 C 
ENDROOT
BRANCH   1   2
ATOM      2  C   UNL A   1      44.075  40.556  28.559  1.00  0.00     0.002 C 
BRANCH   2   3
ATOM      3  C   UNL A   1      43.829  39.048  28.563  1.00  0.00     0.021 C 
BRANCH   3   4
ATOM      4  C   UNL A   1      43.007  38.521  27.396  1.00  0.00     0.116 C 
BRANCH   4   5
ATOM      5  N   UNL A   1      41.932  37.638  27.815  1.00  0.00    -0.352 N 
ATOM      6  O   UNL A   1      40.856  35.678  28.098  1.00  0.00    -0.269 OA
ATOM      7  C   UNL A   1      41.905  36.264  27.851  1.00  0.00     0.251 C 
ATOM      8  H   UNL A   1      41.108  38.086  28.116  1.00  0.00     0.163 HD
BRANCH   7   9
ATOM      9  C   UNL A   1      43.142  35.503  27.559  1.00  0.00     0.039 A 
ATOM     10  C   UNL A   1      43.413  35.066  26.261  1.00  0.00     0.014 A 
ATOM     11  C   UNL A   1      44.029  35.213  28.598  1.00  0.00     0.014 A 
ATOM     12  C   UNL A   1      44.484  34.210  26.031  1.00  0.00     0.010 A 
ATOM     13  C   UNL A   1      45.164  34.436  28.342  1.00  0.00     0.010 A 
ATOM     14  C   UNL A   1      45.385  33.903  27.063  1.00  0.00    -0.014 A 
BRANCH  14  15
ATOM     15  C   UNL A   1      46.597  33.103  26.752  1.00  0.00     0.031 A 
ATOM     16  C   UNL A   1      46.592  31.602  26.826  1.00  0.00     0.074 A 
ATOM     17  C   UNL A   1      47.721  33.760  26.403  1.00  0.00     0.049 A 
ATOM     18  N   UNL A   1      47.566  30.766  26.573  1.00  0.00    -0.248 NA
ATOM     19  C   UNL A   1      45.340  30.950  27.244  1.00  0.00     0.031 C 
ATOM     20  C   UNL A   1      47.856  35.219  26.341  1.00  0.00     0.029 A 
ATOM     21  N   UNL A   1      48.959  33.298  26.041  1.00  0.00    -0.354 N 
ATOM     22  C   UNL A   1      47.066  29.498  26.840  1.00  0.00     0.074 A 
ATOM     23  C   UNL A   1      45.697  29.673  27.280  1.00  0.00     0.031 C 
ATOM     24  C   UNL A   1      49.096  35.531  25.941  1.00  0.00     0.029 A 
ATOM     25  C   UNL A   1      49.864  34.302  25.783  1.00  0.00     0.049 A 
ATOM     26  H   UNL A   1      49.180  32.342  25.971  1.00  0.00     0.167 HD
ATOM     27  C   UNL A   1      47.688  28.300  26.722  1.00  0.00     0.034 A 
ATOM     28  C   UNL A   1      51.174  34.247  25.482  1.00  0.00     0.034 A 
ATOM     29  C   UNL A   1      49.045  28.135  26.264  1.00  0.00     0.049 A 
ATOM     30  C   UNL A   1      51.831  32.906  25.349  1.00  0.00     0.074 A 
ATOM     31  C   UNL A   1      49.740  26.960  26.043  1.00  0.00     0.029 A 
ATOM     32  N   UNL A   1      49.918  29.173  25.975  1.00  0.00    -0.354 N 
ATOM     33  N   UNL A   1      51.303  31.714  25.479  1.00  0.00    -0.248 NA
ATOM     34  C   UNL A   1      53.259  32.899  25.002  1.00  0.00     0.031 C 
ATOM     35  C   UNL A   1      51.045  27.287  25.659  1.00  0.00     0.029 A 
ATOM     36  C   UNL A   1      51.150  28.667  25.597  1.00  0.00     0.049 A 
ATOM     37  H   UNL A   1      49.694  30.131  26.031  1.00  0.00     0.167 HD
ATOM     38  C   UNL A   1      52.324  30.814  25.201  1.00  0.00     0.074 A 
ATOM     39  C   UNL A   1      53.495  31.601  24.871  1.00  0.00     0.031 C 
ATOM     40  C   UNL A   1      52.296  29.459  25.231  1.00  0.00     0.034 A 
BRANCH  27  41
ATOM     41  C   UNL A   1      46.908  27.058  27.077  1.00  0.00     0.023 A 
ATOM     42  C   UNL A   1      46.875  26.607  28.412  1.00  0.00     0.012 A 
ATOM     43  C   UNL A   1      46.146  26.382  26.102  1.00  0.00     0.148 A 
ATOM     44  C   UNL A   1      46.122  25.486  28.766  1.00  0.00     0.002 A 
ATOM     45  C   UNL A   1      45.362  25.295  26.471  1.00  0.00     0.091 A 
ATOM     46  F   UNL A   1      46.201  26.815  24.834  1.00  0.00    -0.205 F 
ATOM     47  C   UNL A   1      45.359  24.838  27.798  1.00  0.00     0.022 A 
BRANCH  45  48
ATOM     48  S   UNL A   1      44.276  24.445  25.318  1.00  0.00     0.127 S 
ATOM     49  O   UNL A   1      43.652  23.445  26.184  1.00  0.00    -0.237 OA
ATOM     50  O   UNL A   1      43.383  25.521  24.886  1.00  0.00    -0.237 OA
ATOM     51  O   UNL A   1      45.137  23.913  24.271  1.00  0.00    -0.744 OA
ENDBRANCH  45  48
ENDBRANCH  27  41
BRANCH  28  52
ATOM     52  C   UNL A   1      51.934  35.510  25.265  1.00  0.00     0.023 A 
ATOM     53  C   UNL A   1      52.127  35.991  23.956  1.00  0.00     0.012 A 
ATOM     54  C   UNL A   1      52.424  36.258  26.353  1.00  0.00     0.148 A 
ATOM     55  C   UNL A   1      52.820  37.180  23.734  1.00  0.00     0.002 A 
ATOM     56  C   UNL A   1      53.059  37.473  26.127  1.00  0.00     0.091 A 
ATOM     57  F   UNL A   1      52.237  35.777  27.590  1.00  0.00    -0.205 F 
ATOM     58  C   UNL A   1      53.276  37.927  24.818  1.00  0.00     0.022 A 
BRANCH  56  59
ATOM     59  S   UNL A   1      53.550  38.564  27.466  1.00  0.00     0.127 S 
ATOM     60  O   UNL A   1      52.365  38.540  28.320  1.00  0.00    -0.237 OA
ATOM     61  O   UNL A   1      54.717  37.866  28.009  1.00  0.00    -0.237 OA
ATOM     62  O   UNL A   1      53.854  39.844  26.840  1.00  0.00    -0.744 OA
ENDBRANCH  56  59
ENDBRANCH  28  52
BRANCH  40  63
ATOM     63  C   UNL A   1      53.563  28.734  24.859  1.00  0.00     0.023 A 
ATOM     64  C   UNL A   1      54.410  28.231  25.866  1.00  0.00     0.012 A 
ATOM     65  C   UNL A   1      53.882  28.501  23.507  1.00  0.00     0.148 A 
ATOM     66  C   UNL A   1      55.575  27.540  25.532  1.00  0.00     0.002 A 
ATOM     67  C   UNL A   1      55.015  27.767  23.183  1.00  0.00     0.091 A 
ATOM     68  F   UNL A   1      53.073  29.006  22.564  1.00  0.00    -0.205 F 
ATOM     69  C   UNL A   1      55.871  27.298  24.193  1.00  0.00     0.022 A 
BRANCH  67  70
ATOM     70  S   UNL A   1      55.423  27.322  21.491  1.00  0.00     0.127 S 
ATOM     71  O   UNL A   1      54.237  26.567  21.088  1.00  0.00    -0.237 OA
ATOM     72  O   UNL A   1      55.558  28.632  20.851  1.00  0.00    -0.237 OA
ATOM     73  O   UNL A   1      56.658  26.554  21.563  1.00  0.00    -0.744 OA
ENDBRANCH  67  70
ENDBRANCH  40  63
ENDBRANCH  14  15
ENDBRANCH   7   9
ENDBRANCH   4   5
ENDBRANCH   3   4
ENDBRANCH   2   3
ENDBRANCH   1   2
BRANCH   1  74
ATOM     74  C   UNL A   1      46.489  39.904  27.830  1.00  0.00     0.021 C 
BRANCH  74  75
ATOM     75  C   UNL A   1      47.543  40.383  26.841  1.00  0.00     0.116 C 
BRANCH  75  76
ATOM     76  N   UNL A   1      47.079  40.377  25.464  1.00  0.00    -0.352 N 
ATOM     77  C   UNL A   1      46.619  41.431  24.714  1.00  0.00     0.252 C 
ATOM     78  H   UNL A   1      47.097  39.503  25.010  1.00  0.00     0.163 HD
ATOM     79  O   UNL A   1      46.268  41.258  23.551  1.00  0.00    -0.269 OA
BRANCH  77  80
ATOM     80  C   UNL A   1      46.496  42.778  25.315  1.00  0.00     0.050 A 
ATOM     81  C   UNL A   1      47.675  43.341  25.827  1.00  0.00     0.014 A 
ATOM     82  C   UNL A   1      45.275  43.470  25.398  1.00  0.00     0.030 A 
ATOM     83  C   UNL A   1      47.651  44.619  26.385  1.00  0.00     0.001 A 
ATOM     84  C   UNL A   1      45.274  44.762  25.945  1.00  0.00     0.013 A 
ATOM     85  C   UNL A   1      46.454  45.332  26.434  1.00  0.00     0.001 A 
BRANCH  82  86
ATOM     86  C   UNL A   1      44.026  42.878  24.954  1.00  0.00     0.135 A 
ATOM     87  C   UNL A   1      43.279  41.806  25.385  1.00  0.00     0.051 A 
ATOM     88  O   UNL A   1      43.495  43.391  23.808  1.00  0.00    -0.457 OA
ATOM     89  C   UNL A   1      42.252  41.641  24.433  1.00  0.00     0.051 A 
ATOM     90  C   UNL A   1      42.399  42.636  23.470  1.00  0.00     0.128 A 
BRANCH  90  91
ATOM     91  C   UNL A   1      41.598  42.848  22.316  1.00  0.00     0.068 C 
ATOM     92  C   UNL A   1      42.164  42.986  21.113  1.00  0.00     0.084 C 
ATOM     93  S   UNL A   1      41.412  43.723  19.754  1.00  0.00    -0.054 SA
ATOM     94  C   UNL A   1      43.589  42.734  20.799  1.00  0.00     0.266 C 
ATOM     95  C   UNL A   1      42.978  44.153  19.047  1.00  0.00     0.148 C 
ATOM     96  N   UNL A   1      43.989  43.545  19.761  1.00  0.00    -0.288 N 
ATOM     97  O   UNL A   1      44.279  41.896  21.368  1.00  0.00    -0.268 OA
ATOM     98  S   UNL A   1      43.111  45.160  17.727  1.00  0.00    -0.052 S 
BRANCH  96  99
ATOM     99  C   UNL A   1      45.417  43.629  19.469  1.00  0.00     0.163 C 
BRANCH  99 100
ATOM    100  C   UNL A   1      46.208  44.279  20.592  1.00  0.00    -0.028 A 
ATOM    101  C   UNL A   1      47.356  43.658  21.105  1.00  0.00     0.005 A 
ATOM    102  C   UNL A   1      45.791  45.488  21.177  1.00  0.00     0.005 A 
ATOM    103  C   UNL A   1      48.057  44.227  22.173  1.00  0.00     0.000 A 
ATOM    104  C   UNL A   1      46.502  46.065  22.229  1.00  0.00     0.000 A 
ATOM    105  C   UNL A   1      47.632  45.430  22.733  1.00  0.00     0.000 A 
ENDBRANCH  99 100
ENDBRANCH  96  99
ENDBRANCH  90  91
ENDBRANCH  82  86
ENDBRANCH  77  80
ENDBRANCH  75  76
ENDBRANCH  74  75
ENDBRANCH   1  74
TORSDOF 20
ENDMDL
