MODEL 1
REMARK VINA RESULT:     -12.2      0.000      0.000
REMARK SMILES CN(C)S(=O)(=O)c1cccc(-c2cc(Cl)cc(C(=O)NCCCCCCNC(=O)c3ccc(-c4c5nc(c(-c6cccc(S(=O)(=O)[O-])c6F)c6ccc([nH]6)c(-c6cccc(S(=O)(=O)[O-])c6F)c6nc(c(-c7cccc(S(=O)(=O)[O-])c7F)c7ccc4[nH]7)C=C6)C=C5)cc3)c2)c1
REMARK SMILES IDX 23 1 22 2 21 3 20 4 18 5 19 6 17 8 12 9 13 10 93 11 14 12
REMARK SMILES IDX 15 13 16 14 11 15 7 16 8 17 94 18 9 19 10 20 4 21 5 22 6 23
REMARK SMILES IDX 2 24 1 25 3 26 24 27 25 28 26 29 27 30 28 31 29 33 30 34
REMARK SMILES IDX 31 35 92 36 32 37 91 38 33 39 34 40 35 41 85 42 36 43 90 44
REMARK SMILES IDX 84 45 86 46 37 47 89 48 83 49 82 50 38 52 70 53 50 54 69 55
REMARK SMILES IDX 51 56 54 57 68 58 87 59 52 60 53 61 67 63 88 64 55 65 39 66
REMARK SMILES IDX 40 67 48 68 41 69 43 70 49 71 42 72 44 73 45 74 46 75 47 76
REMARK SMILES IDX 71 77 72 78 80 79 73 80 75 81 81 82 74 83 76 84 77 85 78 86
REMARK SMILES IDX 79 87 56 88 57 89 65 90 58 91 60 92 66 93 59 94 61 95 62 96
REMARK SMILES IDX 63 97 64 98
REMARK H PARENT 20 7 27 32 86 51 54 62
REMARK Flexibility Score: inf
ROOT
ATOM      1  C   UNL A   1      30.319  28.666  23.149  1.00  0.00     0.002 C 
ENDROOT
BRANCH   1   2
ATOM      2  C   UNL A   1      29.195  27.784  23.692  1.00  0.00     0.021 C 
BRANCH   2   3
ATOM      3  C   UNL A   1      29.446  26.280  23.710  1.00  0.00     0.116 C 
BRANCH   3   4
ATOM      4  N   UNL A   1      29.237  25.644  25.002  1.00  0.00    -0.352 N 
ATOM      5  C   UNL A   1      30.141  25.110  25.898  1.00  0.00     0.251 C 
ATOM      6  O   UNL A   1      29.723  24.587  26.929  1.00  0.00    -0.269 OA
ATOM      7  H   UNL A   1      28.296  25.583  25.284  1.00  0.00     0.163 HD
BRANCH   5   8
ATOM      8  C   UNL A   1      31.604  25.099  25.625  1.00  0.00     0.041 A 
ATOM      9  C   UNL A   1      33.639  23.888  25.032  1.00  0.00    -0.016 A 
ATOM     10  C   UNL A   1      34.395  24.995  25.434  1.00  0.00     0.029 A 
ATOM     11  C   UNL A   1      32.239  24.004  25.041  1.00  0.00     0.022 A 
ATOM     12  C   UNL A   1      33.758  26.153  25.889  1.00  0.00     0.042 A 
ATOM     13  Cl  UNL A   1      34.704  27.504  26.382  1.00  0.00    -0.084 Cl
ATOM     14  C   UNL A   1      32.370  26.201  26.012  1.00  0.00     0.034 A 
BRANCH   9  15
ATOM     15  C   UNL A   1      34.228  22.557  24.804  1.00  0.00    -0.017 A 
ATOM     16  C   UNL A   1      33.955  20.153  24.614  1.00  0.00     0.083 A 
ATOM     17  C   UNL A   1      35.300  19.954  24.935  1.00  0.00     0.022 A 
ATOM     18  C   UNL A   1      33.425  21.443  24.511  1.00  0.00     0.030 A 
ATOM     19  C   UNL A   1      36.125  21.051  25.151  1.00  0.00     0.002 A 
ATOM     20  C   UNL A   1      35.589  22.339  25.093  1.00  0.00     0.009 A 
BRANCH  16  21
ATOM     21  S   UNL A   1      32.927  18.717  24.419  1.00  0.00     0.242 S 
ATOM     22  O   UNL A   1      32.327  18.818  23.103  1.00  0.00    -0.207 OA
ATOM     23  O   UNL A   1      32.156  18.626  25.633  1.00  0.00    -0.207 OA
BRANCH  21  24
ATOM     24  N   UNL A   1      34.015  17.379  24.361  1.00  0.00    -0.204 NA
ATOM     25  C   UNL A   1      33.598  16.316  25.323  1.00  0.00     0.124 C 
ATOM     26  C   UNL A   1      34.221  16.797  23.015  1.00  0.00     0.124 C 
ENDBRANCH  21  24
ENDBRANCH  16  21
ENDBRANCH   9  15
ENDBRANCH   5   8
ENDBRANCH   3   4
ENDBRANCH   2   3
ENDBRANCH   1   2
BRANCH   1  27
ATOM     27  C   UNL A   1      31.578  28.790  24.011  1.00  0.00     0.002 C 
BRANCH  27  28
ATOM     28  C   UNL A   1      31.450  29.578  25.316  1.00  0.00     0.021 C 
BRANCH  28  29
ATOM     29  C   UNL A   1      32.720  30.249  25.832  1.00  0.00     0.116 C 
BRANCH  29  30
ATOM     30  N   UNL A   1      32.501  31.606  26.298  1.00  0.00    -0.352 N 
ATOM     31  C   UNL A   1      33.176  32.324  27.257  1.00  0.00     0.251 C 
ATOM     32  H   UNL A   1      31.759  32.085  25.862  1.00  0.00     0.163 HD
ATOM     33  O   UNL A   1      32.758  33.432  27.585  1.00  0.00    -0.269 OA
BRANCH  31  34
ATOM     34  C   UNL A   1      34.381  31.767  27.916  1.00  0.00     0.039 A 
ATOM     35  C   UNL A   1      35.509  32.583  28.053  1.00  0.00     0.014 A 
ATOM     36  C   UNL A   1      34.423  30.445  28.371  1.00  0.00     0.014 A 
ATOM     37  C   UNL A   1      36.656  32.093  28.686  1.00  0.00     0.010 A 
ATOM     38  C   UNL A   1      35.543  29.980  29.060  1.00  0.00     0.010 A 
ATOM     39  C   UNL A   1      36.675  30.793  29.215  1.00  0.00    -0.014 A 
BRANCH  39  40
ATOM     40  C   UNL A   1      37.874  30.260  29.916  1.00  0.00     0.031 A 
ATOM     41  C   UNL A   1      38.199  30.717  31.314  1.00  0.00     0.074 A 
ATOM     42  C   UNL A   1      38.715  29.427  29.269  1.00  0.00     0.049 A 
ATOM     43  N   UNL A   1      39.227  30.414  32.064  1.00  0.00    -0.248 NA
ATOM     44  C   UNL A   1      37.257  31.659  31.942  1.00  0.00     0.031 C 
ATOM     45  C   UNL A   1      38.552  28.966  27.889  1.00  0.00     0.029 A 
ATOM     46  N   UNL A   1      39.887  28.841  29.678  1.00  0.00    -0.354 N 
ATOM     47  C   UNL A   1      39.079  31.155  33.230  1.00  0.00     0.074 A 
ATOM     48  C   UNL A   1      37.877  31.946  33.078  1.00  0.00     0.031 C 
ATOM     49  C   UNL A   1      39.584  28.169  27.566  1.00  0.00     0.029 A 
ATOM     50  C   UNL A   1      40.492  28.078  28.706  1.00  0.00     0.049 A 
ATOM     51  H   UNL A   1      40.260  28.957  30.581  1.00  0.00     0.167 HD
ATOM     52  C   UNL A   1      39.853  31.155  34.343  1.00  0.00     0.034 A 
ATOM     53  C   UNL A   1      41.646  27.382  28.731  1.00  0.00     0.034 A 
ATOM     54  C   UNL A   1      41.015  30.326  34.516  1.00  0.00     0.049 A 
ATOM     55  C   UNL A   1      42.454  27.350  30.002  1.00  0.00     0.074 A 
ATOM     56  C   UNL A   1      41.821  30.196  35.633  1.00  0.00     0.029 A 
ATOM     57  N   UNL A   1      41.533  29.481  33.548  1.00  0.00    -0.354 N 
ATOM     58  N   UNL A   1      42.213  27.939  31.149  1.00  0.00    -0.248 NA
ATOM     59  C   UNL A   1      43.669  26.522  29.998  1.00  0.00     0.031 C 
ATOM     60  C   UNL A   1      42.831  29.274  35.338  1.00  0.00     0.029 A 
ATOM     61  C   UNL A   1      42.645  28.820  34.041  1.00  0.00     0.049 A 
ATOM     62  H   UNL A   1      41.166  29.366  32.641  1.00  0.00     0.167 HD
ATOM     63  C   UNL A   1      43.217  27.519  32.012  1.00  0.00     0.074 A 
ATOM     64  C   UNL A   1      44.062  26.612  31.262  1.00  0.00     0.031 C 
ATOM     65  C   UNL A   1      43.432  27.864  33.306  1.00  0.00     0.034 A 
BRANCH  52  66
ATOM     66  C   UNL A   1      39.426  32.033  35.491  1.00  0.00     0.023 A 
ATOM     67  C   UNL A   1      39.842  33.381  35.520  1.00  0.00     0.012 A 
ATOM     68  C   UNL A   1      38.577  31.550  36.505  1.00  0.00     0.148 A 
ATOM     69  C   UNL A   1      39.449  34.223  36.559  1.00  0.00     0.002 A 
ATOM     70  C   UNL A   1      38.155  32.408  37.515  1.00  0.00     0.091 A 
ATOM     71  F   UNL A   1      38.209  30.261  36.474  1.00  0.00    -0.205 F 
ATOM     72  C   UNL A   1      38.598  33.741  37.549  1.00  0.00     0.022 A 
BRANCH  70  73
ATOM     73  S   UNL A   1      37.001  31.902  38.795  1.00  0.00     0.127 S 
ATOM     74  O   UNL A   1      37.702  32.320  40.008  1.00  0.00    -0.237 OA
ATOM     75  O   UNL A   1      35.813  32.694  38.475  1.00  0.00    -0.237 OA
ATOM     76  O   UNL A   1      36.831  30.464  38.632  1.00  0.00    -0.744 OA
ENDBRANCH  70  73
ENDBRANCH  52  66
BRANCH  53  77
ATOM     77  C   UNL A   1      42.056  26.576  27.545  1.00  0.00     0.023 A 
ATOM     78  C   UNL A   1      42.745  27.208  26.492  1.00  0.00     0.012 A 
ATOM     79  C   UNL A   1      41.798  25.193  27.461  1.00  0.00     0.148 A 
ATOM     80  C   UNL A   1      43.141  26.490  25.364  1.00  0.00     0.002 A 
ATOM     81  C   UNL A   1      42.244  24.472  26.359  1.00  0.00     0.091 A 
ATOM     82  F   UNL A   1      41.127  24.609  28.464  1.00  0.00    -0.205 F 
ATOM     83  C   UNL A   1      42.900  25.121  25.302  1.00  0.00     0.022 A 
BRANCH  81  84
ATOM     84  S   UNL A   1      42.101  22.683  26.260  1.00  0.00     0.127 S 
ATOM     85  O   UNL A   1      40.653  22.499  26.246  1.00  0.00    -0.237 OA
ATOM     86  O   UNL A   1      42.772  22.392  24.991  1.00  0.00    -0.237 OA
ATOM     87  O   UNL A   1      42.802  22.175  27.432  1.00  0.00    -0.744 OA
ENDBRANCH  81  84
ENDBRANCH  53  77
BRANCH  65  88
ATOM     88  C   UNL A   1      44.594  27.225  34.019  1.00  0.00     0.023 A 
ATOM     89  C   UNL A   1      45.822  27.910  34.110  1.00  0.00     0.012 A 
ATOM     90  C   UNL A   1      44.446  25.983  34.667  1.00  0.00     0.148 A 
ATOM     91  C   UNL A   1      46.893  27.355  34.809  1.00  0.00     0.002 A 
ATOM     92  C   UNL A   1      45.503  25.456  35.400  1.00  0.00     0.091 A 
ATOM     93  F   UNL A   1      43.276  25.336  34.551  1.00  0.00    -0.205 F 
ATOM     94  C   UNL A   1      46.730  26.136  35.463  1.00  0.00     0.022 A 
BRANCH  92  95
ATOM     95  S   UNL A   1      45.344  23.939  36.350  1.00  0.00     0.127 S 
ATOM     96  O   UNL A   1      46.706  23.412  36.301  1.00  0.00    -0.237 OA
ATOM     97  O   UNL A   1      44.929  24.433  37.663  1.00  0.00    -0.237 OA
ATOM     98  O   UNL A   1      44.335  23.145  35.662  1.00  0.00    -0.744 OA
ENDBRANCH  92  95
ENDBRANCH  65  88
ENDBRANCH  39  40
ENDBRANCH  31  34
ENDBRANCH  29  30
ENDBRANCH  28  29
ENDBRANCH  27  28
ENDBRANCH   1  27
TORSDOF 19
ENDMDL
MODEL 2
REMARK VINA RESULT:     -11.5      1.583      2.057
REMARK SMILES CN(C)S(=O)(=O)c1cccc(-c2cc(Cl)cc(C(=O)NCCCCCCNC(=O)c3ccc(-c4c5nc(c(-c6cccc(S(=O)(=O)[O-])c6F)c6ccc([nH]6)c(-c6cccc(S(=O)(=O)[O-])c6F)c6nc(c(-c7cccc(S(=O)(=O)[O-])c7F)c7ccc4[nH]7)C=C6)C=C5)cc3)c2)c1
REMARK SMILES IDX 23 1 22 2 21 3 20 4 18 5 19 6 17 8 12 9 13 10 93 11 14 12
REMARK SMILES IDX 15 13 16 14 11 15 7 16 8 17 94 18 9 19 10 20 4 21 5 22 6 23
REMARK SMILES IDX 2 24 1 25 3 26 24 27 25 28 26 29 27 30 28 31 29 33 30 34
REMARK SMILES IDX 31 35 92 36 32 37 91 38 33 39 34 40 35 41 85 42 36 43 90 44
REMARK SMILES IDX 84 45 86 46 37 47 89 48 83 49 82 50 38 52 70 53 50 54 69 55
REMARK SMILES IDX 51 56 54 57 68 58 87 59 52 60 53 61 67 63 88 64 55 65 39 66
REMARK SMILES IDX 40 67 48 68 41 69 43 70 49 71 42 72 44 73 45 74 46 75 47 76
REMARK SMILES IDX 71 77 72 78 80 79 73 80 75 81 81 82 74 83 76 84 77 85 78 86
REMARK SMILES IDX 79 87 56 88 57 89 65 90 58 91 60 92 66 93 59 94 61 95 62 96
REMARK SMILES IDX 63 97 64 98
REMARK H PARENT 20 7 27 32 86 51 54 62
REMARK Flexibility Score: inf
ROOT
ATOM      1  C   UNL A   1      31.158  27.786  24.031  1.00  0.00     0.002 C 
ENDROOT
BRANCH   1   2
ATOM      2  C   UNL A   1      29.771  27.158  23.889  1.00  0.00     0.021 C 
BRANCH   2   3
ATOM      3  C   UNL A   1      29.684  25.642  24.025  1.00  0.00     0.116 C 
BRANCH   3   4
ATOM      4  N   UNL A   1      29.645  25.155  25.397  1.00  0.00    -0.352 N 
ATOM      5  C   UNL A   1      30.512  24.330  26.083  1.00  0.00     0.251 C 
ATOM      6  O   UNL A   1      30.254  24.025  27.245  1.00  0.00    -0.269 OA
ATOM      7  H   UNL A   1      28.872  25.465  25.922  1.00  0.00     0.163 HD
BRANCH   5   8
ATOM      8  C   UNL A   1      31.723  23.754  25.439  1.00  0.00     0.041 A 
ATOM      9  C   UNL A   1      32.803  21.967  24.174  1.00  0.00    -0.016 A 
ATOM     10  C   UNL A   1      34.051  22.504  24.513  1.00  0.00     0.029 A 
ATOM     11  C   UNL A   1      31.652  22.672  24.563  1.00  0.00     0.022 A 
ATOM     12  C   UNL A   1      34.129  23.673  25.273  1.00  0.00     0.042 A 
ATOM     13  Cl  UNL A   1      35.672  24.317  25.683  1.00  0.00    -0.084 Cl
ATOM     14  C   UNL A   1      32.975  24.286  25.761  1.00  0.00     0.034 A 
BRANCH   9  15
ATOM     15  C   UNL A   1      32.638  20.612  23.618  1.00  0.00    -0.017 A 
ATOM     16  C   UNL A   1      33.332  18.289  23.529  1.00  0.00     0.083 A 
ATOM     17  C   UNL A   1      32.788  18.153  22.250  1.00  0.00     0.022 A 
ATOM     18  C   UNL A   1      33.231  19.495  24.228  1.00  0.00     0.030 A 
ATOM     19  C   UNL A   1      32.130  19.229  21.666  1.00  0.00     0.002 A 
ATOM     20  C   UNL A   1      32.064  20.449  22.342  1.00  0.00     0.009 A 
BRANCH  16  21
ATOM     21  S   UNL A   1      34.226  16.908  24.201  1.00  0.00     0.242 S 
ATOM     22  O   UNL A   1      35.510  17.423  24.636  1.00  0.00    -0.207 OA
ATOM     23  O   UNL A   1      34.087  15.849  23.233  1.00  0.00    -0.207 OA
BRANCH  21  24
ATOM     24  N   UNL A   1      33.368  16.459  25.629  1.00  0.00    -0.204 NA
ATOM     25  C   UNL A   1      32.522  17.588  26.115  1.00  0.00     0.124 C 
ATOM     26  C   UNL A   1      32.555  15.226  25.510  1.00  0.00     0.124 C 
ENDBRANCH  21  24
ENDBRANCH  16  21
ENDBRANCH   9  15
ENDBRANCH   5   8
ENDBRANCH   3   4
ENDBRANCH   2   3
ENDBRANCH   1   2
BRANCH   1  27
ATOM     27  C   UNL A   1      31.815  27.705  25.411  1.00  0.00     0.002 C 
BRANCH  27  28
ATOM     28  C   UNL A   1      31.884  29.000  26.223  1.00  0.00     0.021 C 
BRANCH  28  29
ATOM     29  C   UNL A   1      32.918  30.030  25.776  1.00  0.00     0.116 C 
BRANCH  29  30
ATOM     30  N   UNL A   1      32.599  31.381  26.198  1.00  0.00    -0.352 N 
ATOM     31  C   UNL A   1      33.178  32.154  27.177  1.00  0.00     0.251 C 
ATOM     32  H   UNL A   1      31.859  31.810  25.710  1.00  0.00     0.163 HD
ATOM     33  O   UNL A   1      32.682  33.244  27.456  1.00  0.00    -0.269 OA
BRANCH  31  34
ATOM     34  C   UNL A   1      34.372  31.678  27.915  1.00  0.00     0.039 A 
ATOM     35  C   UNL A   1      34.369  30.376  28.429  1.00  0.00     0.014 A 
ATOM     36  C   UNL A   1      35.477  32.506  28.134  1.00  0.00     0.014 A 
ATOM     37  C   UNL A   1      35.487  29.891  29.115  1.00  0.00     0.010 A 
ATOM     38  C   UNL A   1      36.616  32.000  28.760  1.00  0.00     0.010 A 
ATOM     39  C   UNL A   1      36.630  30.692  29.268  1.00  0.00    -0.014 A 
BRANCH  39  40
ATOM     40  C   UNL A   1      37.840  30.188  29.970  1.00  0.00     0.031 A 
ATOM     41  C   UNL A   1      38.155  30.656  31.367  1.00  0.00     0.074 A 
ATOM     42  C   UNL A   1      38.700  29.373  29.325  1.00  0.00     0.049 A 
ATOM     43  N   UNL A   1      39.189  30.378  32.118  1.00  0.00    -0.248 NA
ATOM     44  C   UNL A   1      37.192  31.579  31.992  1.00  0.00     0.031 C 
ATOM     45  C   UNL A   1      38.547  28.905  27.947  1.00  0.00     0.029 A 
ATOM     46  N   UNL A   1      39.884  28.814  29.736  1.00  0.00    -0.354 N 
ATOM     47  C   UNL A   1      39.025  31.119  33.282  1.00  0.00     0.074 A 
ATOM     48  C   UNL A   1      37.805  31.882  33.128  1.00  0.00     0.031 C 
ATOM     49  C   UNL A   1      39.597  28.130  27.627  1.00  0.00     0.029 A 
ATOM     50  C   UNL A   1      40.507  28.062  28.767  1.00  0.00     0.049 A 
ATOM     51  H   UNL A   1      40.255  28.940  30.640  1.00  0.00     0.167 HD
ATOM     52  C   UNL A   1      39.798  31.140  34.395  1.00  0.00     0.034 A 
ATOM     53  C   UNL A   1      41.676  27.392  28.794  1.00  0.00     0.034 A 
ATOM     54  C   UNL A   1      40.978  30.337  34.571  1.00  0.00     0.049 A 
ATOM     55  C   UNL A   1      42.484  27.381  30.066  1.00  0.00     0.074 A 
ATOM     56  C   UNL A   1      41.787  30.228  35.688  1.00  0.00     0.029 A 
ATOM     57  N   UNL A   1      41.515  29.501  33.605  1.00  0.00    -0.354 N 
ATOM     58  N   UNL A   1      42.230  27.968  31.210  1.00  0.00    -0.248 NA
ATOM     59  C   UNL A   1      43.717  26.581  30.063  1.00  0.00     0.031 C 
ATOM     60  C   UNL A   1      42.817  29.328  35.396  1.00  0.00     0.029 A 
ATOM     61  C   UNL A   1      42.641  28.866  34.100  1.00  0.00     0.049 A 
ATOM     62  H   UNL A   1      41.150  29.375  32.699  1.00  0.00     0.167 HD
ATOM     63  C   UNL A   1      43.243  27.572  32.075  1.00  0.00     0.074 A 
ATOM     64  C   UNL A   1      44.107  26.683  31.327  1.00  0.00     0.031 C 
ATOM     65  C   UNL A   1      43.449  27.926  33.368  1.00  0.00     0.034 A 
BRANCH  52  66
ATOM     66  C   UNL A   1      39.351  32.011  35.541  1.00  0.00     0.023 A 
ATOM     67  C   UNL A   1      38.486  31.476  36.517  1.00  0.00     0.012 A 
ATOM     68  C   UNL A   1      39.822  33.330  35.683  1.00  0.00     0.148 A 
ATOM     69  C   UNL A   1      38.069  32.250  37.599  1.00  0.00     0.002 A 
ATOM     70  C   UNL A   1      39.435  34.082  36.787  1.00  0.00     0.091 A 
ATOM     71  F   UNL A   1      40.626  33.831  34.734  1.00  0.00    -0.205 F 
ATOM     72  C   UNL A   1      38.550  33.548  37.740  1.00  0.00     0.022 A 
BRANCH  70  73
ATOM     73  S   UNL A   1      40.060  35.738  37.096  1.00  0.00     0.127 S 
ATOM     74  O   UNL A   1      41.498  35.497  37.199  1.00  0.00    -0.237 OA
ATOM     75  O   UNL A   1      39.648  36.456  35.889  1.00  0.00    -0.237 OA
ATOM     76  O   UNL A   1      39.409  36.189  38.319  1.00  0.00    -0.744 OA
ENDBRANCH  70  73
ENDBRANCH  52  66
BRANCH  53  77
ATOM     77  C   UNL A   1      42.104  26.592  27.610  1.00  0.00     0.023 A 
ATOM     78  C   UNL A   1      42.844  27.220  26.590  1.00  0.00     0.012 A 
ATOM     79  C   UNL A   1      41.813  25.218  27.498  1.00  0.00     0.148 A 
ATOM     80  C   UNL A   1      43.258  26.508  25.465  1.00  0.00     0.002 A 
ATOM     81  C   UNL A   1      42.277  24.500  26.400  1.00  0.00     0.091 A 
ATOM     82  F   UNL A   1      41.094  24.638  28.469  1.00  0.00    -0.205 F 
ATOM     83  C   UNL A   1      42.984  25.146  25.374  1.00  0.00     0.022 A 
BRANCH  81  84
ATOM     84  S   UNL A   1      42.091  22.718  26.270  1.00  0.00     0.127 S 
ATOM     85  O   UNL A   1      40.639  22.566  26.284  1.00  0.00    -0.237 OA
ATOM     86  O   UNL A   1      42.728  22.436  24.982  1.00  0.00    -0.237 OA
ATOM     87  O   UNL A   1      42.805  22.170  27.417  1.00  0.00    -0.744 OA
ENDBRANCH  81  84
ENDBRANCH  53  77
BRANCH  65  88
ATOM     88  C   UNL A   1      44.625  27.315  34.083  1.00  0.00     0.023 A 
ATOM     89  C   UNL A   1      45.879  27.956  34.042  1.00  0.00     0.012 A 
ATOM     90  C   UNL A   1      44.469  26.151  34.860  1.00  0.00     0.148 A 
ATOM     91  C   UNL A   1      46.967  27.430  34.739  1.00  0.00     0.002 A 
ATOM     92  C   UNL A   1      45.545  25.658  35.589  1.00  0.00     0.091 A 
ATOM     93  F   UNL A   1      43.273  25.543  34.870  1.00  0.00    -0.205 F 
ATOM     94  C   UNL A   1      46.797  26.290  35.521  1.00  0.00     0.022 A 
BRANCH  92  95
ATOM     95  S   UNL A   1      45.385  24.250  36.695  1.00  0.00     0.127 S 
ATOM     96  O   UNL A   1      46.772  24.027  37.096  1.00  0.00    -0.237 OA
ATOM     97  O   UNL A   1      44.522  24.779  37.753  1.00  0.00    -0.237 OA
ATOM     98  O   UNL A   1      44.778  23.190  35.901  1.00  0.00    -0.744 OA
ENDBRANCH  92  95
ENDBRANCH  65  88
ENDBRANCH  39  40
ENDBRANCH  31  34
ENDBRANCH  29  30
ENDBRANCH  28  29
ENDBRANCH  27  28
ENDBRANCH   1  27
TORSDOF 19
ENDMDL
MODEL 3
REMARK VINA RESULT:     -11.5      1.568      7.534
REMARK SMILES CN(C)S(=O)(=O)c1cccc(-c2cc(Cl)cc(C(=O)NCCCCCCNC(=O)c3ccc(-c4c5nc(c(-c6cccc(S(=O)(=O)[O-])c6F)c6ccc([nH]6)c(-c6cccc(S(=O)(=O)[O-])c6F)c6nc(c(-c7cccc(S(=O)(=O)[O-])c7F)c7ccc4[nH]7)C=C6)C=C5)cc3)c2)c1
REMARK SMILES IDX 23 1 22 2 21 3 20 4 18 5 19 6 17 8 12 9 13 10 93 11 14 12
REMARK SMILES IDX 15 13 16 14 11 15 7 16 8 17 94 18 9 19 10 20 4 21 5 22 6 23
REMARK SMILES IDX 2 24 1 25 3 26 24 27 25 28 26 29 27 30 28 31 29 33 30 34
REMARK SMILES IDX 31 35 92 36 32 37 91 38 33 39 34 40 35 41 85 42 36 43 90 44
REMARK SMILES IDX 84 45 86 46 37 47 89 48 83 49 82 50 38 52 70 53 50 54 69 55
REMARK SMILES IDX 51 56 54 57 68 58 87 59 52 60 53 61 67 63 88 64 55 65 39 66
REMARK SMILES IDX 40 67 48 68 41 69 43 70 49 71 42 72 44 73 45 74 46 75 47 76
REMARK SMILES IDX 71 77 72 78 80 79 73 80 75 81 81 82 74 83 76 84 77 85 78 86
REMARK SMILES IDX 79 87 56 88 57 89 65 90 58 91 60 92 66 93 59 94 61 95 62 96
REMARK SMILES IDX 63 97 64 98
REMARK H PARENT 20 7 27 32 86 51 54 62
REMARK Flexibility Score: inf
ROOT
ATOM      1  C   UNL A   1      32.951  29.340  25.092  1.00  0.00     0.002 C 
ENDROOT
BRANCH   1   2
ATOM      2  C   UNL A   1      33.363  28.956  23.671  1.00  0.00     0.021 C 
BRANCH   2   3
ATOM      3  C   UNL A   1      32.247  28.549  22.715  1.00  0.00     0.116 C 
BRANCH   3   4
ATOM      4  N   UNL A   1      32.647  27.612  21.675  1.00  0.00    -0.352 N 
ATOM      5  C   UNL A   1      32.891  26.256  21.733  1.00  0.00     0.251 C 
ATOM      6  O   UNL A   1      33.255  25.670  20.715  1.00  0.00    -0.269 OA
ATOM      7  H   UNL A   1      32.764  28.013  20.784  1.00  0.00     0.163 HD
BRANCH   5   8
ATOM      8  C   UNL A   1      32.782  25.491  23.004  1.00  0.00     0.041 A 
ATOM      9  C   UNL A   1      33.331  23.531  24.352  1.00  0.00    -0.016 A 
ATOM     10  C   UNL A   1      32.322  23.889  25.254  1.00  0.00     0.029 A 
ATOM     11  C   UNL A   1      33.610  24.407  23.289  1.00  0.00     0.022 A 
ATOM     12  C   UNL A   1      31.579  25.055  25.050  1.00  0.00     0.042 A 
ATOM     13  Cl  UNL A   1      30.339  25.476  26.167  1.00  0.00    -0.084 Cl
ATOM     14  C   UNL A   1      31.784  25.843  23.918  1.00  0.00     0.034 A 
BRANCH   9  15
ATOM     15  C   UNL A   1      33.964  22.201  24.345  1.00  0.00    -0.017 A 
ATOM     16  C   UNL A   1      33.760  19.787  24.473  1.00  0.00     0.083 A 
ATOM     17  C   UNL A   1      35.086  19.675  24.895  1.00  0.00     0.022 A 
ATOM     18  C   UNL A   1      33.206  21.032  24.163  1.00  0.00     0.030 A 
ATOM     19  C   UNL A   1      35.871  20.817  25.004  1.00  0.00     0.002 A 
ATOM     20  C   UNL A   1      35.310  22.068  24.738  1.00  0.00     0.009 A 
BRANCH  16  21
ATOM     21  S   UNL A   1      32.779  18.306  24.421  1.00  0.00     0.242 S 
ATOM     22  O   UNL A   1      32.090  18.315  23.145  1.00  0.00    -0.207 OA
ATOM     23  O   UNL A   1      32.094  18.251  25.687  1.00  0.00    -0.207 OA
BRANCH  21  24
ATOM     24  N   UNL A   1      33.913  17.007  24.356  1.00  0.00    -0.204 NA
ATOM     25  C   UNL A   1      33.378  15.802  25.057  1.00  0.00     0.124 C 
ATOM     26  C   UNL A   1      34.374  16.644  22.996  1.00  0.00     0.124 C 
ENDBRANCH  21  24
ENDBRANCH  16  21
ENDBRANCH   9  15
ENDBRANCH   5   8
ENDBRANCH   3   4
ENDBRANCH   2   3
ENDBRANCH   1   2
BRANCH   1  27
ATOM     27  C   UNL A   1      31.521  29.849  25.283  1.00  0.00     0.002 C 
BRANCH  27  28
ATOM     28  C   UNL A   1      31.353  31.202  25.978  1.00  0.00     0.021 C 
BRANCH  28  29
ATOM     29  C   UNL A   1      32.488  31.638  26.900  1.00  0.00     0.116 C 
BRANCH  29  30
ATOM     30  N   UNL A   1      32.482  33.061  27.182  1.00  0.00    -0.352 N 
ATOM     31  C   UNL A   1      33.321  33.801  27.982  1.00  0.00     0.251 C 
ATOM     32  H   UNL A   1      31.772  33.575  26.732  1.00  0.00     0.163 HD
ATOM     33  O   UNL A   1      33.075  34.989  28.177  1.00  0.00    -0.269 OA
BRANCH  31  34
ATOM     34  C   UNL A   1      34.498  33.176  28.632  1.00  0.00     0.039 A 
ATOM     35  C   UNL A   1      35.775  33.643  28.300  1.00  0.00     0.014 A 
ATOM     36  C   UNL A   1      34.360  32.120  29.538  1.00  0.00     0.014 A 
ATOM     37  C   UNL A   1      36.904  33.087  28.909  1.00  0.00     0.010 A 
ATOM     38  C   UNL A   1      35.482  31.612  30.193  1.00  0.00     0.010 A 
ATOM     39  C   UNL A   1      36.766  32.080  29.878  1.00  0.00    -0.014 A 
BRANCH  39  40
ATOM     40  C   UNL A   1      37.952  31.493  30.558  1.00  0.00     0.031 A 
ATOM     41  C   UNL A   1      38.772  30.434  29.870  1.00  0.00     0.074 A 
ATOM     42  C   UNL A   1      38.244  31.852  31.825  1.00  0.00     0.049 A 
ATOM     43  N   UNL A   1      39.799  29.762  30.320  1.00  0.00    -0.248 NA
ATOM     44  C   UNL A   1      38.367  30.062  28.503  1.00  0.00     0.031 C 
ATOM     45  C   UNL A   1      37.486  32.812  32.628  1.00  0.00     0.029 A 
ATOM     46  N   UNL A   1      39.243  31.431  32.667  1.00  0.00    -0.354 N 
ATOM     47  C   UNL A   1      40.139  28.865  29.315  1.00  0.00     0.074 A 
ATOM     48  C   UNL A   1      39.189  29.057  28.240  1.00  0.00     0.031 C 
ATOM     49  C   UNL A   1      38.047  32.909  33.845  1.00  0.00     0.029 A 
ATOM     50  C   UNL A   1      39.191  32.003  33.917  1.00  0.00     0.049 A 
ATOM     51  H   UNL A   1      39.933  30.781  32.402  1.00  0.00     0.167 HD
ATOM     52  C   UNL A   1      41.167  27.983  29.272  1.00  0.00     0.034 A 
ATOM     53  C   UNL A   1      39.975  31.821  34.998  1.00  0.00     0.034 A 
ATOM     54  C   UNL A   1      42.145  27.834  30.316  1.00  0.00     0.049 A 
ATOM     55  C   UNL A   1      41.148  30.882  34.901  1.00  0.00     0.074 A 
ATOM     56  C   UNL A   1      43.267  27.025  30.336  1.00  0.00     0.029 A 
ATOM     57  N   UNL A   1      42.121  28.514  31.524  1.00  0.00    -0.354 N 
ATOM     58  N   UNL A   1      41.541  30.155  33.883  1.00  0.00    -0.248 NA
ATOM     59  C   UNL A   1      42.011  30.769  36.086  1.00  0.00     0.031 C 
ATOM     60  C   UNL A   1      43.920  27.213  31.559  1.00  0.00     0.029 A 
ATOM     61  C   UNL A   1      43.211  28.149  32.295  1.00  0.00     0.049 A 
ATOM     62  H   UNL A   1      41.430  29.162  31.794  1.00  0.00     0.167 HD
ATOM     63  C   UNL A   1      42.718  29.536  34.288  1.00  0.00     0.074 A 
ATOM     64  C   UNL A   1      42.984  29.986  35.638  1.00  0.00     0.031 C 
ATOM     65  C   UNL A   1      43.501  28.662  33.608  1.00  0.00     0.034 A 
BRANCH  52  66
ATOM     66  C   UNL A   1      41.327  27.157  28.022  1.00  0.00     0.023 A 
ATOM     67  C   UNL A   1      41.904  27.744  26.876  1.00  0.00     0.012 A 
ATOM     68  C   UNL A   1      40.962  25.797  27.992  1.00  0.00     0.148 A 
ATOM     69  C   UNL A   1      42.083  27.001  25.710  1.00  0.00     0.002 A 
ATOM     70  C   UNL A   1      41.182  25.053  26.838  1.00  0.00     0.091 A 
ATOM     71  F   UNL A   1      40.395  25.261  29.082  1.00  0.00    -0.205 F 
ATOM     72  C   UNL A   1      41.732  25.655  25.694  1.00  0.00     0.022 A 
BRANCH  70  73
ATOM     73  S   UNL A   1      40.832  23.292  26.742  1.00  0.00     0.127 S 
ATOM     74  O   UNL A   1      41.341  22.819  28.028  1.00  0.00    -0.237 OA
ATOM     75  O   UNL A   1      39.374  23.272  26.620  1.00  0.00    -0.237 OA
ATOM     76  O   UNL A   1      41.545  22.808  25.567  1.00  0.00    -0.744 OA
ENDBRANCH  70  73
ENDBRANCH  52  66
BRANCH  53  77
ATOM     77  C   UNL A   1      39.737  32.621  36.235  1.00  0.00     0.023 A 
ATOM     78  C   UNL A   1      40.450  33.822  36.421  1.00  0.00     0.012 A 
ATOM     79  C   UNL A   1      38.799  32.223  37.208  1.00  0.00     0.148 A 
ATOM     80  C   UNL A   1      40.259  34.595  37.566  1.00  0.00     0.002 A 
ATOM     81  C   UNL A   1      38.573  33.027  38.320  1.00  0.00     0.091 A 
ATOM     82  F   UNL A   1      38.142  31.070  37.024  1.00  0.00    -0.205 F 
ATOM     83  C   UNL A   1      39.314  34.204  38.510  1.00  0.00     0.022 A 
BRANCH  81  84
ATOM     84  S   UNL A   1      37.278  32.672  39.514  1.00  0.00     0.127 S 
ATOM     85  O   UNL A   1      37.660  31.344  39.985  1.00  0.00    -0.237 OA
ATOM     86  O   UNL A   1      37.458  33.748  40.491  1.00  0.00    -0.237 OA
ATOM     87  O   UNL A   1      36.030  32.754  38.766  1.00  0.00    -0.744 OA
ENDBRANCH  81  84
ENDBRANCH  53  77
BRANCH  65  88
ATOM     88  C   UNL A   1      44.752  28.167  34.286  1.00  0.00     0.023 A 
ATOM     89  C   UNL A   1      45.945  28.909  34.184  1.00  0.00     0.012 A 
ATOM     90  C   UNL A   1      44.724  27.009  35.089  1.00  0.00     0.148 A 
ATOM     91  C   UNL A   1      47.099  28.490  34.845  1.00  0.00     0.002 A 
ATOM     92  C   UNL A   1      45.865  26.622  35.782  1.00  0.00     0.091 A 
ATOM     93  F   UNL A   1      43.585  26.304  35.156  1.00  0.00    -0.205 F 
ATOM     94  C   UNL A   1      47.056  27.356  35.653  1.00  0.00     0.022 A 
BRANCH  92  95
ATOM     95  S   UNL A   1      45.868  25.229  36.917  1.00  0.00     0.127 S 
ATOM     96  O   UNL A   1      44.830  25.618  37.870  1.00  0.00    -0.237 OA
ATOM     97  O   UNL A   1      45.505  24.112  36.044  1.00  0.00    -0.237 OA
ATOM     98  O   UNL A   1      47.221  25.156  37.451  1.00  0.00    -0.744 OA
ENDBRANCH  92  95
ENDBRANCH  65  88
ENDBRANCH  39  40
ENDBRANCH  31  34
ENDBRANCH  29  30
ENDBRANCH  28  29
ENDBRANCH  27  28
ENDBRANCH   1  27
TORSDOF 19
ENDMDL
