MODEL 1
REMARK VINA RESULT:     -12.5      0.000      0.000
REMARK SMILES C[C@@]12CC[C@@H]3c4ccc(O)cc4/C(=N\OCC(=O)NCCCCCCNC(=O)c4ccc(-c5c6nc(c(-c7cccc(S(=O)(=O)[O-])c7F)c7ccc([nH]7)c(-c7cccc(S(=O)(=O)[O-])c7F)c7nc(c(-c8cccc(S(=O)(=O)[O-])c8F)c8ccc5[nH]8)C=C7)C=C6)cc4)C[C@H]3[C@@H]1C[C@H](O)[C@@H]2O
REMARK SMILES IDX 22 1 21 2 20 3 19 4 17 5 18 6 16 8 15 9 14 10 1 11 2 12 3 13
REMARK SMILES IDX 94 14 98 15 4 16 93 17 95 18 96 19 5 20 92 21 6 22 13 23
REMARK SMILES IDX 7 24 12 25 8 26 11 27 9 28 99 29 97 31 10 33 23 35 24 36
REMARK SMILES IDX 25 37 26 38 27 39 28 41 29 42 30 43 91 44 31 45 90 46 32 47
REMARK SMILES IDX 33 48 34 49 84 50 35 51 89 52 83 53 85 54 36 55 88 56 82 57
REMARK SMILES IDX 81 58 37 60 69 61 49 62 68 63 50 64 53 65 67 66 86 67 51 68
REMARK SMILES IDX 52 69 66 71 87 72 54 73 38 74 39 75 47 76 40 77 42 78 48 79
REMARK SMILES IDX 41 80 43 81 44 82 45 83 46 84 70 85 71 86 79 87 72 88 74 89
REMARK SMILES IDX 80 90 73 91 75 92 76 93 77 94 78 95 55 96 56 97 64 98 57 99
REMARK SMILES IDX 59 100 65 101 58 102 60 103 61 104 62 105 63 106
REMARK H PARENT 19 7 99 30 97 32 10 34 26 40 85 59 53 70
REMARK Flexibility Score: inf
ROOT
ATOM      1  C   UNL A   1      34.874  20.438  25.009  1.00  0.00     0.002 C 
ENDROOT
BRANCH   1   2
ATOM      2  C   UNL A   1      33.551  20.702  25.728  1.00  0.00     0.021 C 
BRANCH   2   3
ATOM      3  C   UNL A   1      33.680  21.443  27.057  1.00  0.00     0.116 C 
BRANCH   3   4
ATOM      4  N   UNL A   1      33.887  22.864  26.855  1.00  0.00    -0.353 N 
ATOM      5  C   UNL A   1      32.965  23.817  26.522  1.00  0.00     0.260 C 
ATOM      6  O   UNL A   1      33.363  24.962  26.291  1.00  0.00    -0.271 OA
ATOM      7  H   UNL A   1      34.810  23.184  26.973  1.00  0.00     0.163 HD
BRANCH   5   8
ATOM      8  C   UNL A   1      31.477  23.465  26.518  1.00  0.00     0.363 C 
BRANCH   8   9
ATOM      9  O   UNL A   1      30.809  23.427  25.271  1.00  0.00    -0.385 OA
BRANCH   9  10
ATOM     10  N   UNL A   1      29.827  24.424  25.163  1.00  0.00    -0.090 NA
ATOM     11  C   UNL A   1      28.838  31.513  24.336  1.00  0.00     0.014 C 
ATOM     12  C   UNL A   1      29.541  30.406  23.504  1.00  0.00    -0.001 C 
ATOM     13  C   UNL A   1      30.991  30.391  23.984  1.00  0.00     0.010 C 
ATOM     14  C   UNL A   1      28.794  29.053  23.681  1.00  0.00     0.004 C 
ATOM     15  C   UNL A   1      29.376  30.672  21.990  1.00  0.00     0.149 C 
ATOM     16  C   UNL A   1      31.802  29.229  23.479  1.00  0.00     0.009 C 
ATOM     17  C   UNL A   1      29.669  27.768  23.416  1.00  0.00     0.006 C 
ATOM     18  C   UNL A   1      27.580  29.210  22.697  1.00  0.00     0.039 C 
ATOM     19  C   UNL A   1      27.888  30.409  21.768  1.00  0.00     0.144 C 
ATOM     20  C   UNL A   1      31.155  27.902  23.860  1.00  0.00     0.024 C 
ATOM     21  C   UNL A   1      29.111  26.518  24.150  1.00  0.00     0.065 C 
ATOM     22  C   UNL A   1      31.931  26.699  23.338  1.00  0.00    -0.035 A 
ATOM     23  C   UNL A   1      30.106  25.341  24.277  1.00  0.00     0.088 C 
ATOM     24  C   UNL A   1      33.205  26.799  22.752  1.00  0.00     0.008 A 
ATOM     25  C   UNL A   1      31.360  25.426  23.478  1.00  0.00     0.006 A 
ATOM     26  C   UNL A   1      33.873  25.669  22.285  1.00  0.00     0.046 A 
ATOM     27  C   UNL A   1      32.005  24.297  22.958  1.00  0.00     0.056 A 
ATOM     28  C   UNL A   1      33.260  24.429  22.376  1.00  0.00     0.116 A 
BRANCH  15  29
ATOM     29  O   UNL A   1      30.100  29.747  21.169  1.00  0.00    -0.390 OA
ATOM     30  H   UNL A   1      29.805  29.830  20.249  1.00  0.00     0.211 HD
ENDBRANCH  15  29
BRANCH  19  31
ATOM     31  O   UNL A   1      27.647  30.093  20.399  1.00  0.00    -0.390 OA
ATOM     32  H   UNL A   1      27.140  30.810  19.987  1.00  0.00     0.211 HD
ENDBRANCH  19  31
BRANCH  28  33
ATOM     33  O   UNL A   1      33.882  23.306  21.916  1.00  0.00    -0.508 OA
ATOM     34  H   UNL A   1      33.635  22.937  21.092  1.00  0.00     0.293 HD
ENDBRANCH  28  33
ENDBRANCH   9  10
ENDBRANCH   8   9
ENDBRANCH   5   8
ENDBRANCH   3   4
ENDBRANCH   2   3
ENDBRANCH   1   2
BRANCH   1  35
ATOM     35  C   UNL A   1      35.424  21.620  24.209  1.00  0.00     0.002 C 
BRANCH  35  36
ATOM     36  C   UNL A   1      36.940  21.799  24.279  1.00  0.00     0.021 C 
BRANCH  36  37
ATOM     37  C   UNL A   1      37.523  21.777  25.687  1.00  0.00     0.116 C 
BRANCH  37  38
ATOM     38  N   UNL A   1      38.651  20.864  25.817  1.00  0.00    -0.352 N 
ATOM     39  C   UNL A   1      39.916  21.106  26.299  1.00  0.00     0.251 C 
ATOM     40  H   UNL A   1      38.483  19.941  25.517  1.00  0.00     0.163 HD
ATOM     41  O   UNL A   1      40.792  20.252  26.191  1.00  0.00    -0.269 OA
BRANCH  39  42
ATOM     42  C   UNL A   1      40.218  22.417  26.912  1.00  0.00     0.039 A 
ATOM     43  C   UNL A   1      39.636  23.580  26.404  1.00  0.00     0.014 A 
ATOM     44  C   UNL A   1      41.139  22.492  27.960  1.00  0.00     0.014 A 
ATOM     45  C   UNL A   1      40.130  24.818  26.796  1.00  0.00     0.010 A 
ATOM     46  C   UNL A   1      41.557  23.743  28.424  1.00  0.00     0.010 A 
ATOM     47  C   UNL A   1      41.107  24.917  27.801  1.00  0.00    -0.014 A 
BRANCH  47  48
ATOM     48  C   UNL A   1      41.649  26.257  28.156  1.00  0.00     0.031 A 
ATOM     49  C   UNL A   1      43.047  26.662  27.759  1.00  0.00     0.074 A 
ATOM     50  C   UNL A   1      40.851  27.140  28.788  1.00  0.00     0.049 A 
ATOM     51  N   UNL A   1      43.644  27.813  27.931  1.00  0.00    -0.248 NA
ATOM     52  C   UNL A   1      43.884  25.656  27.084  1.00  0.00     0.031 C 
ATOM     53  C   UNL A   1      39.488  26.865  29.248  1.00  0.00     0.029 A 
ATOM     54  N   UNL A   1      41.060  28.451  29.139  1.00  0.00    -0.354 N 
ATOM     55  C   UNL A   1      44.931  27.659  27.430  1.00  0.00     0.074 A 
ATOM     56  C   UNL A   1      45.036  26.301  26.948  1.00  0.00     0.031 C 
ATOM     57  C   UNL A   1      38.967  27.981  29.775  1.00  0.00     0.029 A 
ATOM     58  C   UNL A   1      39.974  29.037  29.744  1.00  0.00     0.049 A 
ATOM     59  H   UNL A   1      41.906  28.926  28.972  1.00  0.00     0.167 HD
ATOM     60  C   UNL A   1      45.928  28.572  27.356  1.00  0.00     0.034 A 
ATOM     61  C   UNL A   1      39.802  30.281  30.232  1.00  0.00     0.034 A 
ATOM     62  C   UNL A   1      45.809  29.939  27.783  1.00  0.00     0.049 A 
ATOM     63  C   UNL A   1      40.920  31.275  30.132  1.00  0.00     0.074 A 
ATOM     64  C   UNL A   1      46.750  30.949  27.684  1.00  0.00     0.029 A 
ATOM     65  N   UNL A   1      44.692  30.487  28.389  1.00  0.00    -0.354 N 
ATOM     66  N   UNL A   1      42.093  31.131  29.568  1.00  0.00    -0.248 NA
ATOM     67  C   UNL A   1      40.691  32.603  30.718  1.00  0.00     0.031 C 
ATOM     68  C   UNL A   1      46.208  32.106  28.247  1.00  0.00     0.029 A 
ATOM     69  C   UNL A   1      44.922  31.820  28.678  1.00  0.00     0.049 A 
ATOM     70  H   UNL A   1      43.858  30.001  28.584  1.00  0.00     0.167 HD
ATOM     71  C   UNL A   1      42.738  32.351  29.718  1.00  0.00     0.074 A 
ATOM     72  C   UNL A   1      41.821  33.230  30.412  1.00  0.00     0.031 C 
ATOM     73  C   UNL A   1      43.986  32.701  29.326  1.00  0.00     0.034 A 
BRANCH  60  74
ATOM     74  C   UNL A   1      47.236  28.154  26.744  1.00  0.00     0.023 A 
ATOM     75  C   UNL A   1      48.295  27.755  27.584  1.00  0.00     0.012 A 
ATOM     76  C   UNL A   1      47.373  28.033  25.346  1.00  0.00     0.148 A 
ATOM     77  C   UNL A   1      49.474  27.246  27.041  1.00  0.00     0.002 A 
ATOM     78  C   UNL A   1      48.538  27.497  24.814  1.00  0.00     0.091 A 
ATOM     79  F   UNL A   1      46.352  28.426  24.571  1.00  0.00    -0.205 F 
ATOM     80  C   UNL A   1      49.591  27.107  25.659  1.00  0.00     0.022 A 
BRANCH  78  81
ATOM     81  S   UNL A   1      48.771  27.221  23.055  1.00  0.00     0.127 S 
ATOM     82  O   UNL A   1      47.977  28.307  22.480  1.00  0.00    -0.237 OA
ATOM     83  O   UNL A   1      50.218  27.380  22.909  1.00  0.00    -0.237 OA
ATOM     84  O   UNL A   1      48.271  25.881  22.787  1.00  0.00    -0.744 OA
ENDBRANCH  78  81
ENDBRANCH  60  74
BRANCH  61  85
ATOM     85  C   UNL A   1      38.488  30.648  30.825  1.00  0.00     0.023 A 
ATOM     86  C   UNL A   1      38.249  30.394  32.188  1.00  0.00     0.012 A 
ATOM     87  C   UNL A   1      37.517  31.331  30.066  1.00  0.00     0.148 A 
ATOM     88  C   UNL A   1      37.061  30.812  32.787  1.00  0.00     0.002 A 
ATOM     89  C   UNL A   1      36.355  31.780  30.678  1.00  0.00     0.091 A 
ATOM     90  F   UNL A   1      37.774  31.560  28.771  1.00  0.00    -0.205 F 
ATOM     91  C   UNL A   1      36.120  31.515  32.037  1.00  0.00     0.022 A 
BRANCH  89  92
ATOM     92  S   UNL A   1      35.137  32.786  29.825  1.00  0.00     0.127 S 
ATOM     93  O   UNL A   1      35.972  33.838  29.249  1.00  0.00    -0.237 OA
ATOM     94  O   UNL A   1      34.590  31.834  28.859  1.00  0.00    -0.237 OA
ATOM     95  O   UNL A   1      34.197  33.224  30.846  1.00  0.00    -0.744 OA
ENDBRANCH  89  92
ENDBRANCH  61  85
BRANCH  73  96
ATOM     96  C   UNL A   1      44.460  34.097  29.609  1.00  0.00     0.023 A 
ATOM     97  C   UNL A   1      45.138  34.366  30.813  1.00  0.00     0.012 A 
ATOM     98  C   UNL A   1      44.380  35.093  28.616  1.00  0.00     0.148 A 
ATOM     99  C   UNL A   1      45.735  35.607  31.023  1.00  0.00     0.002 A 
ATOM    100  C   UNL A   1      45.006  36.316  28.818  1.00  0.00     0.091 A 
ATOM    101  F   UNL A   1      43.725  34.807  27.480  1.00  0.00    -0.205 F 
ATOM    102  C   UNL A   1      45.682  36.575  30.022  1.00  0.00     0.022 A 
BRANCH 100 103
ATOM    103  S   UNL A   1      45.058  37.598  27.561  1.00  0.00     0.127 S 
ATOM    104  O   UNL A   1      45.930  36.994  26.555  1.00  0.00    -0.237 OA
ATOM    105  O   UNL A   1      43.652  37.702  27.171  1.00  0.00    -0.237 OA
ATOM    106  O   UNL A   1      45.601  38.783  28.213  1.00  0.00    -0.744 OA
ENDBRANCH 100 103
ENDBRANCH  73  96
ENDBRANCH  47  48
ENDBRANCH  39  42
ENDBRANCH  37  38
ENDBRANCH  36  37
ENDBRANCH  35  36
ENDBRANCH   1  35
TORSDOF 21
ENDMDL
MODEL 2
REMARK VINA RESULT:     -12.1      2.705      8.252
REMARK SMILES C[C@@]12CC[C@@H]3c4ccc(O)cc4/C(=N\OCC(=O)NCCCCCCNC(=O)c4ccc(-c5c6nc(c(-c7cccc(S(=O)(=O)[O-])c7F)c7ccc([nH]7)c(-c7cccc(S(=O)(=O)[O-])c7F)c7nc(c(-c8cccc(S(=O)(=O)[O-])c8F)c8ccc5[nH]8)C=C7)C=C6)cc4)C[C@H]3[C@@H]1C[C@H](O)[C@@H]2O
REMARK SMILES IDX 22 1 21 2 20 3 19 4 17 5 18 6 16 8 15 9 14 10 1 11 2 12 3 13
REMARK SMILES IDX 94 14 98 15 4 16 93 17 95 18 96 19 5 20 92 21 6 22 13 23
REMARK SMILES IDX 7 24 12 25 8 26 11 27 9 28 99 29 97 31 10 33 23 35 24 36
REMARK SMILES IDX 25 37 26 38 27 39 28 41 29 42 30 43 91 44 31 45 90 46 32 47
REMARK SMILES IDX 33 48 34 49 84 50 35 51 89 52 83 53 85 54 36 55 88 56 82 57
REMARK SMILES IDX 81 58 37 60 69 61 49 62 68 63 50 64 53 65 67 66 86 67 51 68
REMARK SMILES IDX 52 69 66 71 87 72 54 73 38 74 39 75 47 76 40 77 42 78 48 79
REMARK SMILES IDX 41 80 43 81 44 82 45 83 46 84 70 85 71 86 79 87 72 88 74 89
REMARK SMILES IDX 80 90 73 91 75 92 76 93 77 94 78 95 55 96 56 97 64 98 57 99
REMARK SMILES IDX 59 100 65 101 58 102 60 103 61 104 62 105 63 106
REMARK H PARENT 19 7 99 30 97 32 10 34 26 40 85 59 53 70
REMARK Flexibility Score: inf
ROOT
ATOM      1  C   UNL A   1      40.622  21.929  26.031  1.00  0.00     0.002 C 
ENDROOT
BRANCH   1   2
ATOM      2  C   UNL A   1      40.118  23.163  26.780  1.00  0.00     0.021 C 
BRANCH   2   3
ATOM      3  C   UNL A   1      38.606  23.369  26.733  1.00  0.00     0.116 C 
BRANCH   3   4
ATOM      4  N   UNL A   1      38.100  23.270  25.377  1.00  0.00    -0.353 N 
ATOM      5  C   UNL A   1      37.284  22.313  24.843  1.00  0.00     0.260 C 
ATOM      6  O   UNL A   1      37.051  22.350  23.631  1.00  0.00    -0.271 OA
ATOM      7  H   UNL A   1      38.379  23.987  24.762  1.00  0.00     0.163 HD
BRANCH   5   8
ATOM      8  C   UNL A   1      36.629  21.277  25.757  1.00  0.00     0.363 C 
BRANCH   8   9
ATOM      9  O   UNL A   1      35.444  21.648  26.436  1.00  0.00    -0.385 OA
BRANCH   9  10
ATOM     10  N   UNL A   1      35.262  23.039  26.468  1.00  0.00    -0.090 NA
ATOM     11  C   UNL A   1      33.782  28.782  22.376  1.00  0.00     0.014 C 
ATOM     12  C   UNL A   1      33.044  27.454  22.698  1.00  0.00    -0.001 C 
ATOM     13  C   UNL A   1      33.491  26.466  21.623  1.00  0.00     0.010 C 
ATOM     14  C   UNL A   1      33.366  27.007  24.153  1.00  0.00     0.004 C 
ATOM     15  C   UNL A   1      31.516  27.679  22.759  1.00  0.00     0.149 C 
ATOM     16  C   UNL A   1      33.082  25.041  21.878  1.00  0.00     0.009 C 
ATOM     17  C   UNL A   1      33.207  25.462  24.427  1.00  0.00     0.006 C 
ATOM     18  C   UNL A   1      32.400  27.907  25.002  1.00  0.00     0.039 C 
ATOM     19  C   UNL A   1      31.353  28.507  24.032  1.00  0.00     0.144 C 
ATOM     20  C   UNL A   1      33.602  24.554  23.225  1.00  0.00     0.024 C 
ATOM     21  C   UNL A   1      34.069  24.988  25.628  1.00  0.00     0.065 C 
ATOM     22  C   UNL A   1      33.181  23.123  23.536  1.00  0.00    -0.035 A 
ATOM     23  C   UNL A   1      34.286  23.459  25.709  1.00  0.00     0.088 C 
ATOM     24  C   UNL A   1      32.560  22.282  22.596  1.00  0.00     0.008 A 
ATOM     25  C   UNL A   1      33.455  22.609  24.812  1.00  0.00     0.006 A 
ATOM     26  C   UNL A   1      32.188  20.981  22.929  1.00  0.00     0.046 A 
ATOM     27  C   UNL A   1      33.032  21.322  25.165  1.00  0.00     0.056 A 
ATOM     28  C   UNL A   1      32.411  20.517  24.216  1.00  0.00     0.116 A 
BRANCH  15  29
ATOM     29  O   UNL A   1      30.772  26.467  22.940  1.00  0.00    -0.390 OA
ATOM     30  H   UNL A   1      31.177  25.757  22.419  1.00  0.00     0.211 HD
ENDBRANCH  15  29
BRANCH  19  31
ATOM     31  O   UNL A   1      30.027  28.372  24.536  1.00  0.00    -0.390 OA
ATOM     32  H   UNL A   1      29.800  29.156  25.061  1.00  0.00     0.211 HD
ENDBRANCH  19  31
BRANCH  28  33
ATOM     33  O   UNL A   1      32.048  19.254  24.578  1.00  0.00    -0.508 OA
ATOM     34  H   UNL A   1      32.014  18.574  23.935  1.00  0.00     0.293 HD
ENDBRANCH  28  33
ENDBRANCH   9  10
ENDBRANCH   8   9
ENDBRANCH   5   8
ENDBRANCH   3   4
ENDBRANCH   2   3
ENDBRANCH   1   2
BRANCH   1  35
ATOM     35  C   UNL A   1      40.848  20.691  26.900  1.00  0.00     0.002 C 
BRANCH  35  36
ATOM     36  C   UNL A   1      41.284  19.439  26.140  1.00  0.00     0.021 C 
BRANCH  36  37
ATOM     37  C   UNL A   1      42.687  18.944  26.473  1.00  0.00     0.116 C 
BRANCH  37  38
ATOM     38  N   UNL A   1      43.532  18.809  25.295  1.00  0.00    -0.352 N 
ATOM     39  C   UNL A   1      44.181  19.783  24.573  1.00  0.00     0.251 C 
ATOM     40  H   UNL A   1      43.656  17.888  24.968  1.00  0.00     0.163 HD
ATOM     41  O   UNL A   1      44.728  19.503  23.509  1.00  0.00    -0.269 OA
BRANCH  39  42
ATOM     42  C   UNL A   1      44.180  21.175  25.072  1.00  0.00     0.039 A 
ATOM     43  C   UNL A   1      43.794  22.222  24.233  1.00  0.00     0.014 A 
ATOM     44  C   UNL A   1      44.630  21.441  26.368  1.00  0.00     0.014 A 
ATOM     45  C   UNL A   1      44.056  23.532  24.611  1.00  0.00     0.010 A 
ATOM     46  C   UNL A   1      44.795  22.767  26.783  1.00  0.00     0.010 A 
ATOM     47  C   UNL A   1      44.574  23.823  25.885  1.00  0.00    -0.014 A 
BRANCH  47  48
ATOM     48  C   UNL A   1      44.891  25.235  26.234  1.00  0.00     0.031 A 
ATOM     49  C   UNL A   1      43.835  26.156  26.792  1.00  0.00     0.074 A 
ATOM     50  C   UNL A   1      46.160  25.673  26.105  1.00  0.00     0.049 A 
ATOM     51  N   UNL A   1      43.964  27.389  27.209  1.00  0.00    -0.248 NA
ATOM     52  C   UNL A   1      42.462  25.634  26.899  1.00  0.00     0.031 C 
ATOM     53  C   UNL A   1      47.270  24.890  25.556  1.00  0.00     0.029 A 
ATOM     54  N   UNL A   1      46.736  26.873  26.440  1.00  0.00    -0.354 N 
ATOM     55  C   UNL A   1      42.692  27.804  27.583  1.00  0.00     0.074 A 
ATOM     56  C   UNL A   1      41.798  26.694  27.343  1.00  0.00     0.031 C 
ATOM     57  C   UNL A   1      48.397  25.609  25.635  1.00  0.00     0.029 A 
ATOM     58  C   UNL A   1      48.086  26.924  26.187  1.00  0.00     0.049 A 
ATOM     59  H   UNL A   1      46.231  27.625  26.826  1.00  0.00     0.167 HD
ATOM     60  C   UNL A   1      42.305  28.993  28.103  1.00  0.00     0.034 A 
ATOM     61  C   UNL A   1      48.979  27.916  26.366  1.00  0.00     0.034 A 
ATOM     62  C   UNL A   1      43.200  30.078  28.396  1.00  0.00     0.049 A 
ATOM     63  C   UNL A   1      48.526  29.221  26.949  1.00  0.00     0.074 A 
ATOM     64  C   UNL A   1      42.902  31.296  28.984  1.00  0.00     0.029 A 
ATOM     65  N   UNL A   1      44.557  30.085  28.123  1.00  0.00    -0.354 N 
ATOM     66  N   UNL A   1      47.336  29.554  27.383  1.00  0.00    -0.248 NA
ATOM     67  C   UNL A   1      49.536  30.282  27.083  1.00  0.00     0.031 C 
ATOM     68  C   UNL A   1      44.076  32.046  29.052  1.00  0.00     0.029 A 
ATOM     69  C   UNL A   1      45.109  31.289  28.523  1.00  0.00     0.049 A 
ATOM     70  H   UNL A   1      45.054  29.344  27.708  1.00  0.00     0.167 HD
ATOM     71  C   UNL A   1      47.454  30.855  27.853  1.00  0.00     0.074 A 
ATOM     72  C   UNL A   1      48.834  31.247  27.667  1.00  0.00     0.031 C 
ATOM     73  C   UNL A   1      46.494  31.653  28.378  1.00  0.00     0.034 A 
BRANCH  60  74
ATOM     74  C   UNL A   1      40.854  29.186  28.446  1.00  0.00     0.023 A 
ATOM     75  C   UNL A   1      39.922  29.401  27.412  1.00  0.00     0.012 A 
ATOM     76  C   UNL A   1      40.399  29.026  29.771  1.00  0.00     0.148 A 
ATOM     77  C   UNL A   1      38.557  29.459  27.690  1.00  0.00     0.002 A 
ATOM     78  C   UNL A   1      39.036  29.055  30.036  1.00  0.00     0.091 A 
ATOM     79  F   UNL A   1      41.308  28.828  30.737  1.00  0.00    -0.205 F 
ATOM     80  C   UNL A   1      38.114  29.275  28.998  1.00  0.00     0.022 A 
BRANCH  78  81
ATOM     81  S   UNL A   1      38.354  28.772  31.674  1.00  0.00     0.127 S 
ATOM     82  O   UNL A   1      39.010  29.825  32.449  1.00  0.00    -0.237 OA
ATOM     83  O   UNL A   1      36.924  28.980  31.450  1.00  0.00    -0.237 OA
ATOM     84  O   UNL A   1      38.727  27.413  32.038  1.00  0.00    -0.744 OA
ENDBRANCH  78  81
ENDBRANCH  60  74
BRANCH  61  85
ATOM     85  C   UNL A   1      50.404  27.676  26.014  1.00  0.00     0.023 A 
ATOM     86  C   UNL A   1      51.304  27.269  27.017  1.00  0.00     0.012 A 
ATOM     87  C   UNL A   1      50.844  27.759  24.679  1.00  0.00     0.148 A 
ATOM     88  C   UNL A   1      52.623  26.949  26.695  1.00  0.00     0.002 A 
ATOM     89  C   UNL A   1      52.147  27.400  24.359  1.00  0.00     0.091 A 
ATOM     90  F   UNL A   1      49.964  28.148  23.747  1.00  0.00    -0.205 F 
ATOM     91  C   UNL A   1      53.041  27.003  25.366  1.00  0.00     0.022 A 
BRANCH  89  92
ATOM     92  S   UNL A   1      52.746  27.332  22.668  1.00  0.00     0.127 S 
ATOM     93  O   UNL A   1      53.728  28.413  22.658  1.00  0.00    -0.237 OA
ATOM     94  O   UNL A   1      53.310  25.984  22.607  1.00  0.00    -0.237 OA
ATOM     95  O   UNL A   1      51.578  27.541  21.824  1.00  0.00    -0.744 OA
ENDBRANCH  89  92
ENDBRANCH  61  85
BRANCH  73  96
ATOM     96  C   UNL A   1      46.876  33.037  28.816  1.00  0.00     0.023 A 
ATOM     97  C   UNL A   1      47.412  33.231  30.103  1.00  0.00     0.012 A 
ATOM     98  C   UNL A   1      46.860  34.106  27.899  1.00  0.00     0.148 A 
ATOM     99  C   UNL A   1      47.931  34.471  30.471  1.00  0.00     0.002 A 
ATOM    100  C   UNL A   1      47.409  35.329  28.260  1.00  0.00     0.091 A 
ATOM    101  F   UNL A   1      46.340  33.891  26.681  1.00  0.00    -0.205 F 
ATOM    102  C   UNL A   1      47.943  35.514  29.547  1.00  0.00     0.022 A 
BRANCH 100 103
ATOM    103  S   UNL A   1      47.539  36.710  27.118  1.00  0.00     0.127 S 
ATOM    104  O   UNL A   1      48.317  36.122  26.028  1.00  0.00    -0.237 OA
ATOM    105  O   UNL A   1      46.137  36.975  26.797  1.00  0.00    -0.237 OA
ATOM    106  O   UNL A   1      48.212  37.777  27.847  1.00  0.00    -0.744 OA
ENDBRANCH 100 103
ENDBRANCH  73  96
ENDBRANCH  47  48
ENDBRANCH  39  42
ENDBRANCH  37  38
ENDBRANCH  36  37
ENDBRANCH  35  36
ENDBRANCH   1  35
TORSDOF 21
ENDMDL
MODEL 3
REMARK VINA RESULT:     -11.9      2.672      4.319
REMARK SMILES C[C@@]12CC[C@@H]3c4ccc(O)cc4/C(=N\OCC(=O)NCCCCCCNC(=O)c4ccc(-c5c6nc(c(-c7cccc(S(=O)(=O)[O-])c7F)c7ccc([nH]7)c(-c7cccc(S(=O)(=O)[O-])c7F)c7nc(c(-c8cccc(S(=O)(=O)[O-])c8F)c8ccc5[nH]8)C=C7)C=C6)cc4)C[C@H]3[C@@H]1C[C@H](O)[C@@H]2O
REMARK SMILES IDX 22 1 21 2 20 3 19 4 17 5 18 6 16 8 15 9 14 10 1 11 2 12 3 13
REMARK SMILES IDX 94 14 98 15 4 16 93 17 95 18 96 19 5 20 92 21 6 22 13 23
REMARK SMILES IDX 7 24 12 25 8 26 11 27 9 28 99 29 97 31 10 33 23 35 24 36
REMARK SMILES IDX 25 37 26 38 27 39 28 41 29 42 30 43 91 44 31 45 90 46 32 47
REMARK SMILES IDX 33 48 34 49 84 50 35 51 89 52 83 53 85 54 36 55 88 56 82 57
REMARK SMILES IDX 81 58 37 60 69 61 49 62 68 63 50 64 53 65 67 66 86 67 51 68
REMARK SMILES IDX 52 69 66 71 87 72 54 73 38 74 39 75 47 76 40 77 42 78 48 79
REMARK SMILES IDX 41 80 43 81 44 82 45 83 46 84 70 85 71 86 79 87 72 88 74 89
REMARK SMILES IDX 80 90 73 91 75 92 76 93 77 94 78 95 55 96 56 97 64 98 57 99
REMARK SMILES IDX 59 100 65 101 58 102 60 103 61 104 62 105 63 106
REMARK H PARENT 19 7 99 30 97 32 10 34 26 40 85 59 53 70
REMARK Flexibility Score: inf
ROOT
ATOM      1  C   UNL A   1      40.379  22.417  26.220  1.00  0.00     0.002 C 
ENDROOT
BRANCH   1   2
ATOM      2  C   UNL A   1      39.788  23.794  26.528  1.00  0.00     0.021 C 
BRANCH   2   3
ATOM      3  C   UNL A   1      38.265  23.868  26.458  1.00  0.00     0.116 C 
BRANCH   3   4
ATOM      4  N   UNL A   1      37.776  23.508  25.142  1.00  0.00    -0.353 N 
ATOM      5  C   UNL A   1      37.079  22.393  24.769  1.00  0.00     0.260 C 
ATOM      6  O   UNL A   1      36.845  22.220  23.570  1.00  0.00    -0.271 OA
ATOM      7  H   UNL A   1      37.970  24.152  24.422  1.00  0.00     0.163 HD
BRANCH   5   8
ATOM      8  C   UNL A   1      36.549  21.437  25.839  1.00  0.00     0.363 C 
BRANCH   8   9
ATOM      9  O   UNL A   1      35.340  21.777  26.490  1.00  0.00    -0.385 OA
BRANCH   9  10
ATOM     10  N   UNL A   1      35.127  23.164  26.527  1.00  0.00    -0.090 NA
ATOM     11  C   UNL A   1      33.685  28.913  22.429  1.00  0.00     0.014 C 
ATOM     12  C   UNL A   1      32.964  27.566  22.710  1.00  0.00    -0.001 C 
ATOM     13  C   UNL A   1      33.474  26.598  21.645  1.00  0.00     0.010 C 
ATOM     14  C   UNL A   1      33.238  27.113  24.173  1.00  0.00     0.004 C 
ATOM     15  C   UNL A   1      31.430  27.758  22.712  1.00  0.00     0.149 C 
ATOM     16  C   UNL A   1      33.086  25.162  21.872  1.00  0.00     0.009 C 
ATOM     17  C   UNL A   1      33.102  25.561  24.427  1.00  0.00     0.006 C 
ATOM     18  C   UNL A   1      32.220  27.984  24.991  1.00  0.00     0.039 C 
ATOM     19  C   UNL A   1      31.199  28.570  23.986  1.00  0.00     0.144 C 
ATOM     20  C   UNL A   1      33.563  24.674  23.234  1.00  0.00     0.024 C 
ATOM     21  C   UNL A   1      33.926  25.095  25.657  1.00  0.00     0.065 C 
ATOM     22  C   UNL A   1      33.162  23.231  23.515  1.00  0.00    -0.035 A 
ATOM     23  C   UNL A   1      34.173  23.571  25.733  1.00  0.00     0.088 C 
ATOM     24  C   UNL A   1      32.596  22.387  22.545  1.00  0.00     0.008 A 
ATOM     25  C   UNL A   1      33.396  22.712  24.797  1.00  0.00     0.006 A 
ATOM     26  C   UNL A   1      32.240  21.075  22.852  1.00  0.00     0.046 A 
ATOM     27  C   UNL A   1      32.987  21.412  25.122  1.00  0.00     0.056 A 
ATOM     28  C   UNL A   1      32.422  20.604  24.143  1.00  0.00     0.116 A 
BRANCH  15  29
ATOM     29  O   UNL A   1      30.706  26.529  22.854  1.00  0.00    -0.390 OA
ATOM     30  H   UNL A   1      30.055  26.452  22.138  1.00  0.00     0.211 HD
ENDBRANCH  15  29
BRANCH  19  31
ATOM     31  O   UNL A   1      29.858  28.403  24.435  1.00  0.00    -0.390 OA
ATOM     32  H   UNL A   1      29.568  27.494  24.257  1.00  0.00     0.211 HD
ENDBRANCH  19  31
BRANCH  28  33
ATOM     33  O   UNL A   1      32.072  19.329  24.479  1.00  0.00    -0.508 OA
ATOM     34  H   UNL A   1      31.869  19.118  25.368  1.00  0.00     0.293 HD
ENDBRANCH  28  33
ENDBRANCH   9  10
ENDBRANCH   8   9
ENDBRANCH   5   8
ENDBRANCH   3   4
ENDBRANCH   2   3
ENDBRANCH   1   2
BRANCH   1  35
ATOM     35  C   UNL A   1      40.536  21.495  27.430  1.00  0.00     0.002 C 
BRANCH  35  36
ATOM     36  C   UNL A   1      41.018  20.081  27.107  1.00  0.00     0.021 C 
BRANCH  36  37
ATOM     37  C   UNL A   1      42.527  19.885  27.187  1.00  0.00     0.116 C 
BRANCH  37  38
ATOM     38  N   UNL A   1      43.088  19.318  25.967  1.00  0.00    -0.352 N 
ATOM     39  C   UNL A   1      43.864  19.920  25.004  1.00  0.00     0.251 C 
ATOM     40  H   UNL A   1      42.882  18.368  25.810  1.00  0.00     0.163 HD
ATOM     41  O   UNL A   1      44.120  19.329  23.959  1.00  0.00    -0.269 OA
BRANCH  39  42
ATOM     42  C   UNL A   1      44.351  21.298  25.226  1.00  0.00     0.039 A 
ATOM     43  C   UNL A   1      45.402  21.537  26.113  1.00  0.00     0.014 A 
ATOM     44  C   UNL A   1      43.711  22.365  24.591  1.00  0.00     0.014 A 
ATOM     45  C   UNL A   1      45.668  22.837  26.522  1.00  0.00     0.010 A 
ATOM     46  C   UNL A   1      44.054  23.678  24.931  1.00  0.00     0.010 A 
ATOM     47  C   UNL A   1      44.988  23.925  25.949  1.00  0.00    -0.014 A 
BRANCH  47  48
ATOM     48  C   UNL A   1      45.262  25.299  26.452  1.00  0.00     0.031 A 
ATOM     49  C   UNL A   1      46.643  25.900  26.362  1.00  0.00     0.074 A 
ATOM     50  C   UNL A   1      44.243  26.036  26.937  1.00  0.00     0.049 A 
ATOM     51  N   UNL A   1      47.033  27.104  26.691  1.00  0.00    -0.248 NA
ATOM     52  C   UNL A   1      47.726  25.049  25.839  1.00  0.00     0.031 C 
ATOM     53  C   UNL A   1      42.866  25.564  27.099  1.00  0.00     0.029 A 
ATOM     54  N   UNL A   1      44.199  27.339  27.366  1.00  0.00    -0.354 N 
ATOM     55  C   UNL A   1      48.402  27.144  26.459  1.00  0.00     0.074 A 
ATOM     56  C   UNL A   1      48.784  25.841  25.963  1.00  0.00     0.031 C 
ATOM     57  C   UNL A   1      42.105  26.572  27.545  1.00  0.00     0.029 A 
ATOM     58  C   UNL A   1      42.945  27.746  27.756  1.00  0.00     0.049 A 
ATOM     59  H   UNL A   1      44.989  27.926  27.392  1.00  0.00     0.167 HD
ATOM     60  C   UNL A   1      49.262  28.178  26.620  1.00  0.00     0.034 A 
ATOM     61  C   UNL A   1      42.514  28.927  28.240  1.00  0.00     0.034 A 
ATOM     62  C   UNL A   1      48.877  29.490  27.059  1.00  0.00     0.049 A 
ATOM     63  C   UNL A   1      43.485  30.058  28.403  1.00  0.00     0.074 A 
ATOM     64  C   UNL A   1      49.673  30.615  27.188  1.00  0.00     0.029 A 
ATOM     65  N   UNL A   1      47.598  29.857  27.442  1.00  0.00    -0.354 N 
ATOM     66  N   UNL A   1      44.755  30.097  28.086  1.00  0.00    -0.248 NA
ATOM     67  C   UNL A   1      42.967  31.310  28.974  1.00  0.00     0.031 C 
ATOM     68  C   UNL A   1      48.879  31.659  27.666  1.00  0.00     0.029 A 
ATOM     69  C   UNL A   1      47.585  31.188  27.816  1.00  0.00     0.049 A 
ATOM     70  H   UNL A   1      46.815  29.259  27.446  1.00  0.00     0.167 HD
ATOM     71  C   UNL A   1      45.186  31.377  28.405  1.00  0.00     0.074 A 
ATOM     72  C   UNL A   1      44.040  32.091  28.927  1.00  0.00     0.031 C 
ATOM     73  C   UNL A   1      46.428  31.904  28.289  1.00  0.00     0.034 A 
BRANCH  60  74
ATOM     74  C   UNL A   1      50.710  27.965  26.274  1.00  0.00     0.023 A 
ATOM     75  C   UNL A   1      51.627  27.665  27.300  1.00  0.00     0.012 A 
ATOM     76  C   UNL A   1      51.133  27.933  24.930  1.00  0.00     0.148 A 
ATOM     77  C   UNL A   1      52.949  27.342  26.995  1.00  0.00     0.002 A 
ATOM     78  C   UNL A   1      52.443  27.581  24.632  1.00  0.00     0.091 A 
ATOM     79  F   UNL A   1      50.240  28.228  23.975  1.00  0.00    -0.205 F 
ATOM     80  C   UNL A   1      53.353  27.289  25.662  1.00  0.00     0.022 A 
BRANCH  78  81
ATOM     81  S   UNL A   1      53.052  27.426  22.949  1.00  0.00     0.127 S 
ATOM     82  O   UNL A   1      51.943  26.729  22.299  1.00  0.00    -0.237 OA
ATOM     83  O   UNL A   1      53.211  28.825  22.552  1.00  0.00    -0.237 OA
ATOM     84  O   UNL A   1      54.293  26.668  23.037  1.00  0.00    -0.744 OA
ENDBRANCH  78  81
ENDBRANCH  60  74
BRANCH  61  85
ATOM     85  C   UNL A   1      41.071  29.090  28.564  1.00  0.00     0.023 A 
ATOM     86  C   UNL A   1      40.142  29.249  27.519  1.00  0.00     0.012 A 
ATOM     87  C   UNL A   1      40.612  28.994  29.892  1.00  0.00     0.148 A 
ATOM     88  C   UNL A   1      38.775  29.311  27.792  1.00  0.00     0.002 A 
ATOM     89  C   UNL A   1      39.249  29.015  30.153  1.00  0.00     0.091 A 
ATOM     90  F   UNL A   1      41.521  28.841  30.864  1.00  0.00    -0.205 F 
ATOM     91  C   UNL A   1      38.328  29.183  29.106  1.00  0.00     0.022 A 
BRANCH  89  92
ATOM     92  S   UNL A   1      38.573  28.748  31.795  1.00  0.00     0.127 S 
ATOM     93  O   UNL A   1      39.201  29.827  32.553  1.00  0.00    -0.237 OA
ATOM     94  O   UNL A   1      37.140  28.914  31.556  1.00  0.00    -0.237 OA
ATOM     95  O   UNL A   1      38.974  27.401  32.176  1.00  0.00    -0.744 OA
ENDBRANCH  89  92
ENDBRANCH  61  85
BRANCH  73  96
ATOM     96  C   UNL A   1      46.643  33.329  28.709  1.00  0.00     0.023 A 
ATOM     97  C   UNL A   1      47.139  33.602  29.997  1.00  0.00     0.012 A 
ATOM     98  C   UNL A   1      46.513  34.375  27.775  1.00  0.00     0.148 A 
ATOM     99  C   UNL A   1      47.507  34.899  30.350  1.00  0.00     0.002 A 
ATOM    100  C   UNL A   1      46.913  35.659  28.122  1.00  0.00     0.091 A 
ATOM    101  F   UNL A   1      46.036  34.084  26.555  1.00  0.00    -0.205 F 
ATOM    102  C   UNL A   1      47.409  35.923  29.410  1.00  0.00     0.022 A 
BRANCH 100 103
ATOM    103  S   UNL A   1      46.896  37.029  26.959  1.00  0.00     0.127 S 
ATOM    104  O   UNL A   1      47.557  38.081  27.729  1.00  0.00    -0.237 OA
ATOM    105  O   UNL A   1      47.682  36.496  25.847  1.00  0.00    -0.237 OA
ATOM    106  O   UNL A   1      45.494  37.282  26.652  1.00  0.00    -0.744 OA
ENDBRANCH 100 103
ENDBRANCH  73  96
ENDBRANCH  47  48
ENDBRANCH  39  42
ENDBRANCH  37  38
ENDBRANCH  36  37
ENDBRANCH  35  36
ENDBRANCH   1  35
TORSDOF 21
ENDMDL
