MODEL 1
REMARK VINA RESULT:     -11.8      0.000      0.000
REMARK SMILES O=C(NCCCCCCNC(=O)c1ccc([C@H]2CCCN(C(=O)c3ccc4[nH]ccc4c3)C2)cc1)c1ccc(-c2c3nc(c(-c4cccc(S(=O)(=O)[O-])c4F)c4ccc([nH]4)c(-c4cccc(S(=O)(=O)[O-])c4F)c4nc(c(-c5cccc(S(=O)(=O)[O-])c5F)c5ccc2[nH]5)C=C4)C=C3)cc1
REMARK SMILES IDX 6 1 5 2 4 3 3 4 1 5 2 6 36 8 37 9 98 10 38 11 97 12 39 13
REMARK SMILES IDX 40 14 41 15 91 16 42 17 96 18 90 19 92 20 43 21 95 22 89 23
REMARK SMILES IDX 88 24 44 26 76 27 56 28 75 29 57 30 60 31 74 32 93 33 58 34
REMARK SMILES IDX 59 35 73 37 94 38 61 39 45 40 46 41 54 42 47 43 49 44 55 45
REMARK SMILES IDX 48 46 50 47 51 48 52 49 53 50 77 51 78 52 86 53 79 54 81 55
REMARK SMILES IDX 87 56 80 57 82 58 83 59 84 60 85 61 62 62 63 63 71 64 64 65
REMARK SMILES IDX 66 66 72 67 65 68 67 69 68 70 69 71 70 72 7 73 8 74 9 75
REMARK SMILES IDX 10 76 11 77 12 79 13 80 14 81 35 82 15 83 34 84 16 85 17 86
REMARK SMILES IDX 18 87 33 88 19 89 21 90 20 91 22 92 23 93 24 94 25 95 32 96
REMARK SMILES IDX 26 97 31 98 27 99 30 100 28 101 29 102
REMARK H PARENT 3 7 92 25 60 36 10 78 28 103
REMARK Flexibility Score: inf
ROOT
ATOM      1  C   UNL A   1      34.788  34.192  29.231  1.00  0.00     0.002 C 
ENDROOT
BRANCH   1   2
ATOM      2  C   UNL A   1      33.410  34.850  29.183  1.00  0.00     0.021 C 
BRANCH   2   3
ATOM      3  C   UNL A   1      33.333  36.207  29.869  1.00  0.00     0.116 C 
BRANCH   3   4
ATOM      4  N   UNL A   1      32.386  36.217  30.973  1.00  0.00    -0.352 N 
ATOM      5  O   UNL A   1      31.492  35.533  32.925  1.00  0.00    -0.269 OA
ATOM      6  C   UNL A   1      32.461  35.562  32.181  1.00  0.00     0.251 C 
ATOM      7  H   UNL A   1      31.582  36.768  30.838  1.00  0.00     0.163 HD
BRANCH   6   8
ATOM      8  C   UNL A   1      33.720  34.876  32.551  1.00  0.00     0.039 A 
ATOM      9  C   UNL A   1      33.701  33.536  32.947  1.00  0.00     0.014 A 
ATOM     10  C   UNL A   1      34.923  35.583  32.515  1.00  0.00     0.014 A 
ATOM     11  C   UNL A   1      34.856  32.951  33.450  1.00  0.00     0.010 A 
ATOM     12  C   UNL A   1      36.104  34.959  32.927  1.00  0.00     0.010 A 
ATOM     13  C   UNL A   1      36.076  33.646  33.425  1.00  0.00    -0.014 A 
BRANCH  13  14
ATOM     14  C   UNL A   1      37.317  32.944  33.839  1.00  0.00     0.031 A 
ATOM     15  C   UNL A   1      38.086  33.359  35.062  1.00  0.00     0.074 A 
ATOM     16  C   UNL A   1      37.748  31.915  33.084  1.00  0.00     0.049 A 
ATOM     17  N   UNL A   1      39.179  32.836  35.558  1.00  0.00    -0.248 NA
ATOM     18  C   UNL A   1      37.575  34.509  35.823  1.00  0.00     0.031 C 
ATOM     19  C   UNL A   1      37.105  31.450  31.850  1.00  0.00     0.029 A 
ATOM     20  N   UNL A   1      38.823  31.077  33.230  1.00  0.00    -0.354 N 
ATOM     21  C   UNL A   1      39.510  33.612  36.661  1.00  0.00     0.074 A 
ATOM     22  C   UNL A   1      38.504  34.648  36.761  1.00  0.00     0.031 C 
ATOM     23  C   UNL A   1      37.781  30.401  31.367  1.00  0.00     0.029 A 
ATOM     24  C   UNL A   1      38.941  30.156  32.216  1.00  0.00     0.049 A 
ATOM     25  H   UNL A   1      39.450  31.129  33.988  1.00  0.00     0.167 HD
ATOM     26  C   UNL A   1      40.552  33.467  37.517  1.00  0.00     0.034 A 
ATOM     27  C   UNL A   1      39.890  29.233  31.975  1.00  0.00     0.034 A 
ATOM     28  C   UNL A   1      41.536  32.420  37.420  1.00  0.00     0.049 A 
ATOM     29  C   UNL A   1      41.027  29.095  32.942  1.00  0.00     0.074 A 
ATOM     30  C   UNL A   1      42.589  32.151  38.276  1.00  0.00     0.029 A 
ATOM     31  N   UNL A   1      41.602  31.483  36.400  1.00  0.00    -0.354 N 
ATOM     32  N   UNL A   1      41.249  29.756  34.051  1.00  0.00    -0.248 NA
ATOM     33  C   UNL A   1      42.029  28.064  32.642  1.00  0.00     0.031 C 
ATOM     34  C   UNL A   1      43.314  31.073  37.753  1.00  0.00     0.029 A 
ATOM     35  C   UNL A   1      42.688  30.644  36.595  1.00  0.00     0.049 A 
ATOM     36  H   UNL A   1      40.971  31.423  35.647  1.00  0.00     0.167 HD
ATOM     37  C   UNL A   1      42.401  29.203  34.598  1.00  0.00     0.074 A 
ATOM     38  C   UNL A   1      42.813  28.136  33.709  1.00  0.00     0.031 C 
ATOM     39  C   UNL A   1      43.064  29.558  35.727  1.00  0.00     0.034 A 
BRANCH  26  40
ATOM     40  C   UNL A   1      40.676  34.452  38.653  1.00  0.00     0.023 A 
ATOM     41  C   UNL A   1      41.535  35.563  38.528  1.00  0.00     0.012 A 
ATOM     42  C   UNL A   1      39.886  34.320  39.814  1.00  0.00     0.148 A 
ATOM     43  C   UNL A   1      41.630  36.508  39.550  1.00  0.00     0.002 A 
ATOM     44  C   UNL A   1      39.952  35.288  40.808  1.00  0.00     0.091 A 
ATOM     45  F   UNL A   1      39.087  33.249  39.923  1.00  0.00    -0.205 F 
ATOM     46  C   UNL A   1      40.832  36.377  40.683  1.00  0.00     0.022 A 
BRANCH  44  47
ATOM     47  S   UNL A   1      38.907  35.254  42.269  1.00  0.00     0.127 S 
ATOM     48  O   UNL A   1      37.573  35.350  41.678  1.00  0.00    -0.237 OA
ATOM     49  O   UNL A   1      39.226  33.947  42.844  1.00  0.00    -0.237 OA
ATOM     50  O   UNL A   1      39.314  36.392  43.081  1.00  0.00    -0.744 OA
ENDBRANCH  44  47
ENDBRANCH  26  40
BRANCH  27  51
ATOM     51  C   UNL A   1      39.781  28.357  30.775  1.00  0.00     0.023 A 
ATOM     52  C   UNL A   1      38.967  27.209  30.823  1.00  0.00     0.012 A 
ATOM     53  C   UNL A   1      40.445  28.682  29.576  1.00  0.00     0.148 A 
ATOM     54  C   UNL A   1      38.842  26.383  29.706  1.00  0.00     0.002 A 
ATOM     55  C   UNL A   1      40.267  27.889  28.450  1.00  0.00     0.091 A 
ATOM     56  F   UNL A   1      41.221  29.775  29.556  1.00  0.00    -0.205 F 
ATOM     57  C   UNL A   1      39.481  26.728  28.518  1.00  0.00     0.022 A 
BRANCH  55  58
ATOM     58  S   UNL A   1      40.935  28.335  26.844  1.00  0.00     0.127 S 
ATOM     59  O   UNL A   1      42.278  28.786  27.196  1.00  0.00    -0.237 OA
ATOM     60  O   UNL A   1      40.879  27.058  26.131  1.00  0.00    -0.237 OA
ATOM     61  O   UNL A   1      40.041  29.356  26.316  1.00  0.00    -0.744 OA
ENDBRANCH  55  58
ENDBRANCH  27  51
BRANCH  39  62
ATOM     62  C   UNL A   1      44.287  28.758  36.090  1.00  0.00     0.023 A 
ATOM     63  C   UNL A   1      45.557  29.166  35.637  1.00  0.00     0.012 A 
ATOM     64  C   UNL A   1      44.180  27.632  36.931  1.00  0.00     0.148 A 
ATOM     65  C   UNL A   1      46.699  28.443  35.984  1.00  0.00     0.002 A 
ATOM     66  C   UNL A   1      45.326  26.949  37.316  1.00  0.00     0.091 A 
ATOM     67  F   UNL A   1      42.960  27.249  37.334  1.00  0.00    -0.205 F 
ATOM     68  C   UNL A   1      46.585  27.344  36.833  1.00  0.00     0.022 A 
BRANCH  66  69
ATOM     69  S   UNL A   1      45.287  25.582  38.480  1.00  0.00     0.127 S 
ATOM     70  O   UNL A   1      46.704  25.240  38.586  1.00  0.00    -0.237 OA
ATOM     71  O   UNL A   1      44.720  26.209  39.674  1.00  0.00    -0.237 OA
ATOM     72  O   UNL A   1      44.442  24.561  37.874  1.00  0.00    -0.744 OA
ENDBRANCH  66  69
ENDBRANCH  39  62
ENDBRANCH  13  14
ENDBRANCH   6   8
ENDBRANCH   3   4
ENDBRANCH   2   3
ENDBRANCH   1   2
BRANCH   1  73
ATOM     73  C   UNL A   1      34.780  32.690  29.528  1.00  0.00     0.002 C 
BRANCH  73  74
ATOM     74  C   UNL A   1      35.555  31.822  28.531  1.00  0.00     0.021 C 
BRANCH  74  75
ATOM     75  C   UNL A   1      34.681  30.983  27.604  1.00  0.00     0.116 C 
BRANCH  75  76
ATOM     76  N   UNL A   1      33.370  31.584  27.406  1.00  0.00    -0.352 N 
ATOM     77  C   UNL A   1      32.254  31.041  26.820  1.00  0.00     0.251 C 
ATOM     78  H   UNL A   1      33.269  32.505  27.738  1.00  0.00     0.163 HD
ATOM     79  O   UNL A   1      31.288  31.742  26.540  1.00  0.00    -0.269 OA
BRANCH  77  80
ATOM     80  C   UNL A   1      32.232  29.596  26.520  1.00  0.00     0.039 A 
ATOM     81  C   UNL A   1      32.702  29.141  25.290  1.00  0.00     0.014 A 
ATOM     82  C   UNL A   1      31.734  28.694  27.458  1.00  0.00     0.014 A 
ATOM     83  C   UNL A   1      32.746  27.767  25.034  1.00  0.00     0.005 A 
ATOM     84  C   UNL A   1      31.803  27.326  27.206  1.00  0.00     0.005 A 
ATOM     85  C   UNL A   1      32.339  26.831  26.004  1.00  0.00    -0.043 A 
BRANCH  85  86
ATOM     86  C   UNL A   1      32.431  25.332  25.717  1.00  0.00     0.039 C 
ATOM     87  C   UNL A   1      31.393  24.509  26.522  1.00  0.00     0.012 C 
ATOM     88  C   UNL A   1      32.280  24.976  24.221  1.00  0.00     0.128 C 
ATOM     89  C   UNL A   1      31.472  23.010  26.201  1.00  0.00     0.022 C 
ATOM     90  N   UNL A   1      32.379  23.542  23.999  1.00  0.00    -0.338 N 
ATOM     91  C   UNL A   1      31.381  22.739  24.702  1.00  0.00     0.120 C 
BRANCH  90  92
ATOM     92  C   UNL A   1      33.459  23.061  23.271  1.00  0.00     0.253 C 
ATOM     93  O   UNL A   1      33.465  22.942  22.047  1.00  0.00    -0.269 OA
BRANCH  92  94
ATOM     94  C   UNL A   1      34.686  22.681  23.982  1.00  0.00     0.040 A 
ATOM     95  C   UNL A   1      34.854  21.344  24.345  1.00  0.00     0.016 A 
ATOM     96  C   UNL A   1      35.598  23.673  24.370  1.00  0.00     0.024 A 
ATOM     97  C   UNL A   1      35.974  20.943  25.073  1.00  0.00     0.027 A 
ATOM     98  C   UNL A   1      36.710  23.289  25.141  1.00  0.00     0.000 A 
ATOM     99  C   UNL A   1      36.881  21.939  25.457  1.00  0.00     0.045 A 
ATOM    100  C   UNL A   1      37.776  24.001  25.757  1.00  0.00     0.028 A 
ATOM    101  N   UNL A   1      38.042  21.842  26.191  1.00  0.00    -0.361 N 
ATOM    102  C   UNL A   1      38.569  23.087  26.410  1.00  0.00     0.083 A 
ATOM    103  H   UNL A   1      38.436  20.999  26.512  1.00  0.00     0.166 HD
ENDBRANCH  92  94
ENDBRANCH  90  92
ENDBRANCH  85  86
ENDBRANCH  77  80
ENDBRANCH  75  76
ENDBRANCH  74  75
ENDBRANCH  73  74
ENDBRANCH   1  73
TORSDOF 19
ENDMDL
MODEL 2
REMARK VINA RESULT:     -11.7      1.602      7.748
REMARK SMILES O=C(NCCCCCCNC(=O)c1ccc([C@H]2CCCN(C(=O)c3ccc4[nH]ccc4c3)C2)cc1)c1ccc(-c2c3nc(c(-c4cccc(S(=O)(=O)[O-])c4F)c4ccc([nH]4)c(-c4cccc(S(=O)(=O)[O-])c4F)c4nc(c(-c5cccc(S(=O)(=O)[O-])c5F)c5ccc2[nH]5)C=C4)C=C3)cc1
REMARK SMILES IDX 6 1 5 2 4 3 3 4 1 5 2 6 36 8 37 9 98 10 38 11 97 12 39 13
REMARK SMILES IDX 40 14 41 15 91 16 42 17 96 18 90 19 92 20 43 21 95 22 89 23
REMARK SMILES IDX 88 24 44 26 76 27 56 28 75 29 57 30 60 31 74 32 93 33 58 34
REMARK SMILES IDX 59 35 73 37 94 38 61 39 45 40 46 41 54 42 47 43 49 44 55 45
REMARK SMILES IDX 48 46 50 47 51 48 52 49 53 50 77 51 78 52 86 53 79 54 81 55
REMARK SMILES IDX 87 56 80 57 82 58 83 59 84 60 85 61 62 62 63 63 71 64 64 65
REMARK SMILES IDX 66 66 72 67 65 68 67 69 68 70 69 71 70 72 7 73 8 74 9 75
REMARK SMILES IDX 10 76 11 77 12 79 13 80 14 81 35 82 15 83 34 84 16 85 17 86
REMARK SMILES IDX 18 87 33 88 19 89 21 90 20 91 22 92 23 93 24 94 25 95 32 96
REMARK SMILES IDX 26 97 31 98 27 99 30 100 28 101 29 102
REMARK H PARENT 3 7 92 25 60 36 10 78 28 103
REMARK Flexibility Score: inf
ROOT
ATOM      1  C   UNL A   1      35.872  34.160  28.363  1.00  0.00     0.002 C 
ENDROOT
BRANCH   1   2
ATOM      2  C   UNL A   1      34.626  35.045  28.364  1.00  0.00     0.021 C 
BRANCH   2   3
ATOM      3  C   UNL A   1      33.406  34.421  29.030  1.00  0.00     0.116 C 
BRANCH   3   4
ATOM      4  N   UNL A   1      32.846  35.270  30.067  1.00  0.00    -0.352 N 
ATOM      5  O   UNL A   1      32.482  35.979  32.175  1.00  0.00    -0.269 OA
ATOM      6  C   UNL A   1      33.178  35.338  31.402  1.00  0.00     0.251 C 
ATOM      7  H   UNL A   1      32.131  35.881  29.777  1.00  0.00     0.163 HD
BRANCH   6   8
ATOM      8  C   UNL A   1      34.371  34.606  31.884  1.00  0.00     0.039 A 
ATOM      9  C   UNL A   1      35.620  35.230  31.903  1.00  0.00     0.014 A 
ATOM     10  C   UNL A   1      34.239  33.281  32.305  1.00  0.00     0.014 A 
ATOM     11  C   UNL A   1      36.757  34.488  32.196  1.00  0.00     0.010 A 
ATOM     12  C   UNL A   1      35.373  32.565  32.697  1.00  0.00     0.010 A 
ATOM     13  C   UNL A   1      36.646  33.153  32.619  1.00  0.00    -0.014 A 
BRANCH  13  14
ATOM     14  C   UNL A   1      37.866  32.431  33.060  1.00  0.00     0.031 A 
ATOM     15  C   UNL A   1      38.460  31.317  32.244  1.00  0.00     0.074 A 
ATOM     16  C   UNL A   1      38.436  32.796  34.225  1.00  0.00     0.049 A 
ATOM     17  N   UNL A   1      39.528  30.602  32.490  1.00  0.00    -0.248 NA
ATOM     18  C   UNL A   1      37.769  30.951  30.998  1.00  0.00     0.031 C 
ATOM     19  C   UNL A   1      37.921  33.835  35.123  1.00  0.00     0.029 A 
ATOM     20  N   UNL A   1      39.560  32.339  34.861  1.00  0.00    -0.354 N 
ATOM     21  C   UNL A   1      39.617  29.677  31.458  1.00  0.00     0.074 A 
ATOM     22  C   UNL A   1      38.491  29.917  30.582  1.00  0.00     0.031 C 
ATOM     23  C   UNL A   1      38.738  33.953  36.177  1.00  0.00     0.029 A 
ATOM     24  C   UNL A   1      39.797  32.957  36.066  1.00  0.00     0.049 A 
ATOM     25  H   UNL A   1      40.144  31.637  34.490  1.00  0.00     0.167 HD
ATOM     26  C   UNL A   1      40.558  28.722  31.255  1.00  0.00     0.034 A 
ATOM     27  C   UNL A   1      40.742  32.732  36.997  1.00  0.00     0.034 A 
ATOM     28  C   UNL A   1      41.687  28.504  32.123  1.00  0.00     0.049 A 
ATOM     29  C   UNL A   1      41.772  31.671  36.742  1.00  0.00     0.074 A 
ATOM     30  C   UNL A   1      42.728  27.606  31.968  1.00  0.00     0.029 A 
ATOM     31  N   UNL A   1      41.913  29.173  33.317  1.00  0.00    -0.354 N 
ATOM     32  N   UNL A   1      41.912  30.896  35.695  1.00  0.00    -0.248 NA
ATOM     33  C   UNL A   1      42.790  31.474  37.782  1.00  0.00     0.031 C 
ATOM     34  C   UNL A   1      43.565  27.707  33.086  1.00  0.00     0.029 A 
ATOM     35  C   UNL A   1      43.068  28.698  33.917  1.00  0.00     0.049 A 
ATOM     36  H   UNL A   1      41.337  29.883  33.684  1.00  0.00     0.167 HD
ATOM     37  C   UNL A   1      43.051  30.137  35.935  1.00  0.00     0.074 A 
ATOM     38  C   UNL A   1      43.575  30.567  37.216  1.00  0.00     0.031 C 
ATOM     39  C   UNL A   1      43.603  29.163  35.171  1.00  0.00     0.034 A 
BRANCH  26  40
ATOM     40  C   UNL A   1      40.426  27.846  30.035  1.00  0.00     0.023 A 
ATOM     41  C   UNL A   1      39.443  26.837  29.998  1.00  0.00     0.012 A 
ATOM     42  C   UNL A   1      41.224  28.071  28.894  1.00  0.00     0.148 A 
ATOM     43  C   UNL A   1      39.276  26.046  28.860  1.00  0.00     0.002 A 
ATOM     44  C   UNL A   1      41.022  27.310  27.748  1.00  0.00     0.091 A 
ATOM     45  F   UNL A   1      42.165  29.024  28.951  1.00  0.00    -0.205 F 
ATOM     46  C   UNL A   1      40.057  26.289  27.734  1.00  0.00     0.022 A 
BRANCH  44  47
ATOM     47  S   UNL A   1      41.920  27.599  26.219  1.00  0.00     0.127 S 
ATOM     48  O   UNL A   1      41.405  26.526  25.370  1.00  0.00    -0.237 OA
ATOM     49  O   UNL A   1      41.469  28.940  25.847  1.00  0.00    -0.237 OA
ATOM     50  O   UNL A   1      43.333  27.504  26.558  1.00  0.00    -0.744 OA
ENDBRANCH  44  47
ENDBRANCH  26  40
BRANCH  27  51
ATOM     51  C   UNL A   1      40.764  33.550  38.241  1.00  0.00     0.023 A 
ATOM     52  C   UNL A   1      41.667  34.625  38.352  1.00  0.00     0.012 A 
ATOM     53  C   UNL A   1      39.864  33.294  39.295  1.00  0.00     0.148 A 
ATOM     54  C   UNL A   1      41.693  35.412  39.504  1.00  0.00     0.002 A 
ATOM     55  C   UNL A   1      39.854  34.119  40.411  1.00  0.00     0.091 A 
ATOM     56  F   UNL A   1      39.019  32.261  39.170  1.00  0.00    -0.205 F 
ATOM     57  C   UNL A   1      40.781  35.167  40.527  1.00  0.00     0.022 A 
BRANCH  55  58
ATOM     58  S   UNL A   1      38.623  33.965  41.710  1.00  0.00     0.127 S 
ATOM     59  O   UNL A   1      37.386  33.887  40.940  1.00  0.00    -0.237 OA
ATOM     60  O   UNL A   1      39.027  32.718  42.360  1.00  0.00    -0.237 OA
ATOM     61  O   UNL A   1      38.778  35.152  42.541  1.00  0.00    -0.744 OA
ENDBRANCH  55  58
ENDBRANCH  27  51
BRANCH  39  62
ATOM     62  C   UNL A   1      44.867  28.519  35.679  1.00  0.00     0.023 A 
ATOM     63  C   UNL A   1      46.117  29.109  35.409  1.00  0.00     0.012 A 
ATOM     64  C   UNL A   1      44.805  27.356  36.474  1.00  0.00     0.148 A 
ATOM     65  C   UNL A   1      47.292  28.531  35.892  1.00  0.00     0.002 A 
ATOM     66  C   UNL A   1      45.974  26.817  36.996  1.00  0.00     0.091 A 
ATOM     67  F   UNL A   1      43.607  26.800  36.701  1.00  0.00    -0.205 F 
ATOM     68  C   UNL A   1      47.219  27.394  36.695  1.00  0.00     0.022 A 
BRANCH  66  69
ATOM     69  S   UNL A   1      45.971  25.414  38.116  1.00  0.00     0.127 S 
ATOM     70  O   UNL A   1      45.651  26.052  39.392  1.00  0.00    -0.237 OA
ATOM     71  O   UNL A   1      44.903  24.581  37.565  1.00  0.00    -0.237 OA
ATOM     72  O   UNL A   1      47.302  24.826  38.029  1.00  0.00    -0.744 OA
ENDBRANCH  66  69
ENDBRANCH  39  62
ENDBRANCH  13  14
ENDBRANCH   6   8
ENDBRANCH   3   4
ENDBRANCH   2   3
ENDBRANCH   1   2
BRANCH   1  73
ATOM     73  C   UNL A   1      35.679  32.767  28.968  1.00  0.00     0.002 C 
BRANCH  73  74
ATOM     74  C   UNL A   1      35.821  31.602  27.984  1.00  0.00     0.021 C 
BRANCH  74  75
ATOM     75  C   UNL A   1      34.767  30.510  28.135  1.00  0.00     0.116 C 
BRANCH  75  76
ATOM     76  N   UNL A   1      33.446  30.975  27.740  1.00  0.00    -0.352 N 
ATOM     77  C   UNL A   1      32.572  30.422  26.838  1.00  0.00     0.251 C 
ATOM     78  H   UNL A   1      33.136  31.800  28.180  1.00  0.00     0.163 HD
ATOM     79  O   UNL A   1      31.585  31.042  26.459  1.00  0.00    -0.269 OA
BRANCH  77  80
ATOM     80  C   UNL A   1      32.838  29.066  26.320  1.00  0.00     0.039 A 
ATOM     81  C   UNL A   1      32.294  27.961  26.970  1.00  0.00     0.014 A 
ATOM     82  C   UNL A   1      33.638  28.893  25.192  1.00  0.00     0.014 A 
ATOM     83  C   UNL A   1      32.488  26.683  26.438  1.00  0.00     0.005 A 
ATOM     84  C   UNL A   1      33.807  27.620  24.653  1.00  0.00     0.005 A 
ATOM     85  C   UNL A   1      33.211  26.492  25.244  1.00  0.00    -0.043 A 
BRANCH  85  86
ATOM     86  C   UNL A   1      33.380  25.089  24.660  1.00  0.00     0.039 C 
ATOM     87  C   UNL A   1      33.381  25.088  23.110  1.00  0.00     0.012 C 
ATOM     88  C   UNL A   1      34.654  24.363  25.147  1.00  0.00     0.128 C 
ATOM     89  C   UNL A   1      33.584  23.680  22.534  1.00  0.00     0.022 C 
ATOM     90  N   UNL A   1      34.767  23.033  24.568  1.00  0.00    -0.338 N 
ATOM     91  C   UNL A   1      34.823  22.999  23.109  1.00  0.00     0.120 C 
BRANCH  90  92
ATOM     92  C   UNL A   1      34.679  21.936  25.415  1.00  0.00     0.253 C 
ATOM     93  O   UNL A   1      35.035  21.945  26.591  1.00  0.00    -0.269 OA
BRANCH  92  94
ATOM     94  C   UNL A   1      34.112  20.683  24.901  1.00  0.00     0.040 A 
ATOM     95  C   UNL A   1      32.756  20.656  24.570  1.00  0.00     0.016 A 
ATOM     96  C   UNL A   1      34.908  19.529  24.856  1.00  0.00     0.024 A 
ATOM     97  C   UNL A   1      32.158  19.474  24.133  1.00  0.00     0.027 A 
ATOM     98  C   UNL A   1      34.306  18.322  24.458  1.00  0.00     0.000 A 
ATOM     99  C   UNL A   1      32.959  18.325  24.091  1.00  0.00     0.045 A 
ATOM    100  C   UNL A   1      34.763  16.979  24.360  1.00  0.00     0.028 A 
ATOM    101  N   UNL A   1      32.636  17.036  23.732  1.00  0.00    -0.361 N 
ATOM    102  C   UNL A   1      33.709  16.207  23.928  1.00  0.00     0.083 A 
ATOM    103  H   UNL A   1      31.760  16.750  23.384  1.00  0.00     0.166 HD
ENDBRANCH  92  94
ENDBRANCH  90  92
ENDBRANCH  85  86
ENDBRANCH  77  80
ENDBRANCH  75  76
ENDBRANCH  74  75
ENDBRANCH  73  74
ENDBRANCH   1  73
TORSDOF 19
ENDMDL
MODEL 3
REMARK VINA RESULT:     -11.5      4.378      8.501
REMARK SMILES O=C(NCCCCCCNC(=O)c1ccc([C@H]2CCCN(C(=O)c3ccc4[nH]ccc4c3)C2)cc1)c1ccc(-c2c3nc(c(-c4cccc(S(=O)(=O)[O-])c4F)c4ccc([nH]4)c(-c4cccc(S(=O)(=O)[O-])c4F)c4nc(c(-c5cccc(S(=O)(=O)[O-])c5F)c5ccc2[nH]5)C=C4)C=C3)cc1
REMARK SMILES IDX 6 1 5 2 4 3 3 4 1 5 2 6 36 8 37 9 98 10 38 11 97 12 39 13
REMARK SMILES IDX 40 14 41 15 91 16 42 17 96 18 90 19 92 20 43 21 95 22 89 23
REMARK SMILES IDX 88 24 44 26 76 27 56 28 75 29 57 30 60 31 74 32 93 33 58 34
REMARK SMILES IDX 59 35 73 37 94 38 61 39 45 40 46 41 54 42 47 43 49 44 55 45
REMARK SMILES IDX 48 46 50 47 51 48 52 49 53 50 77 51 78 52 86 53 79 54 81 55
REMARK SMILES IDX 87 56 80 57 82 58 83 59 84 60 85 61 62 62 63 63 71 64 64 65
REMARK SMILES IDX 66 66 72 67 65 68 67 69 68 70 69 71 70 72 7 73 8 74 9 75
REMARK SMILES IDX 10 76 11 77 12 79 13 80 14 81 35 82 15 83 34 84 16 85 17 86
REMARK SMILES IDX 18 87 33 88 19 89 21 90 20 91 22 92 23 93 24 94 25 95 32 96
REMARK SMILES IDX 26 97 31 98 27 99 30 100 28 101 29 102
REMARK H PARENT 3 7 92 25 60 36 10 78 28 103
REMARK Flexibility Score: inf
ROOT
ATOM      1  C   UNL A   1      34.359  34.966  29.459  1.00  0.00     0.002 C 
ENDROOT
BRANCH   1   2
ATOM      2  C   UNL A   1      34.839  33.806  28.588  1.00  0.00     0.021 C 
BRANCH   2   3
ATOM      3  C   UNL A   1      34.540  32.424  29.153  1.00  0.00     0.116 C 
BRANCH   3   4
ATOM      4  N   UNL A   1      33.964  31.532  28.160  1.00  0.00    -0.352 N 
ATOM      5  O   UNL A   1      33.976  29.910  26.596  1.00  0.00    -0.269 OA
ATOM      6  C   UNL A   1      34.536  30.442  27.543  1.00  0.00     0.251 C 
ATOM      7  H   UNL A   1      33.039  31.734  27.892  1.00  0.00     0.163 HD
BRANCH   6   8
ATOM      8  C   UNL A   1      35.844  29.945  28.027  1.00  0.00     0.039 A 
ATOM      9  C   UNL A   1      35.946  29.336  29.280  1.00  0.00     0.014 A 
ATOM     10  C   UNL A   1      36.977  30.105  27.227  1.00  0.00     0.014 A 
ATOM     11  C   UNL A   1      37.198  29.026  29.795  1.00  0.00     0.010 A 
ATOM     12  C   UNL A   1      38.224  29.698  27.708  1.00  0.00     0.010 A 
ATOM     13  C   UNL A   1      38.350  29.182  29.007  1.00  0.00    -0.014 A 
BRANCH  13  14
ATOM     14  C   UNL A   1      39.655  28.710  29.535  1.00  0.00     0.031 A 
ATOM     15  C   UNL A   1      40.349  29.416  30.666  1.00  0.00     0.074 A 
ATOM     16  C   UNL A   1      40.215  27.623  28.969  1.00  0.00     0.049 A 
ATOM     17  N   UNL A   1      41.485  29.116  31.244  1.00  0.00    -0.248 NA
ATOM     18  C   UNL A   1      39.695  30.613  31.217  1.00  0.00     0.031 C 
ATOM     19  C   UNL A   1      39.653  26.882  27.836  1.00  0.00     0.029 A 
ATOM     20  N   UNL A   1      41.376  26.954  29.257  1.00  0.00    -0.354 N 
ATOM     21  C   UNL A   1      41.704  30.104  32.196  1.00  0.00     0.074 A 
ATOM     22  C   UNL A   1      40.584  31.018  32.116  1.00  0.00     0.031 C 
ATOM     23  C   UNL A   1      40.454  25.850  27.541  1.00  0.00     0.029 A 
ATOM     24  C   UNL A   1      41.618  25.891  28.418  1.00  0.00     0.049 A 
ATOM     25  H   UNL A   1      41.978  27.208  29.994  1.00  0.00     0.167 HD
ATOM     26  C   UNL A   1      42.738  30.231  33.063  1.00  0.00     0.034 A 
ATOM     27  C   UNL A   1      42.670  25.057  28.339  1.00  0.00     0.034 A 
ATOM     28  C   UNL A   1      43.838  29.304  33.148  1.00  0.00     0.049 A 
ATOM     29  C   UNL A   1      43.798  25.220  29.315  1.00  0.00     0.074 A 
ATOM     30  C   UNL A   1      44.899  29.310  34.036  1.00  0.00     0.029 A 
ATOM     31  N   UNL A   1      44.030  28.219  32.305  1.00  0.00    -0.354 N 
ATOM     32  N   UNL A   1      43.922  26.084  30.292  1.00  0.00    -0.248 NA
ATOM     33  C   UNL A   1      44.917  24.276  29.196  1.00  0.00     0.031 C 
ATOM     34  C   UNL A   1      45.752  28.250  33.707  1.00  0.00     0.029 A 
ATOM     35  C   UNL A   1      45.201  27.558  32.641  1.00  0.00     0.049 A 
ATOM     36  H   UNL A   1      43.424  27.957  31.575  1.00  0.00     0.167 HD
ATOM     37  C   UNL A   1      45.118  25.771  30.925  1.00  0.00     0.074 A 
ATOM     38  C   UNL A   1      45.666  24.622  30.234  1.00  0.00     0.031 C 
ATOM     39  C   UNL A   1      45.715  26.390  31.974  1.00  0.00     0.034 A 
BRANCH  26  40
ATOM     40  C   UNL A   1      42.728  31.404  34.010  1.00  0.00     0.023 A 
ATOM     41  C   UNL A   1      43.316  32.625  33.623  1.00  0.00     0.012 A 
ATOM     42  C   UNL A   1      42.069  31.322  35.255  1.00  0.00     0.148 A 
ATOM     43  C   UNL A   1      43.278  33.735  34.468  1.00  0.00     0.002 A 
ATOM     44  C   UNL A   1      41.995  32.444  36.072  1.00  0.00     0.091 A 
ATOM     45  F   UNL A   1      41.529  30.150  35.615  1.00  0.00    -0.205 F 
ATOM     46  C   UNL A   1      42.609  33.647  35.686  1.00  0.00     0.022 A 
BRANCH  44  47
ATOM     47  S   UNL A   1      41.087  32.458  37.623  1.00  0.00     0.127 S 
ATOM     48  O   UNL A   1      41.912  31.581  38.453  1.00  0.00    -0.237 OA
ATOM     49  O   UNL A   1      41.137  33.873  37.994  1.00  0.00    -0.237 OA
ATOM     50  O   UNL A   1      39.756  31.956  37.314  1.00  0.00    -0.744 OA
ENDBRANCH  44  47
ENDBRANCH  26  40
BRANCH  27  51
ATOM     51  C   UNL A   1      42.685  23.981  27.310  1.00  0.00     0.023 A 
ATOM     52  C   UNL A   1      43.309  24.212  26.070  1.00  0.00     0.012 A 
ATOM     53  C   UNL A   1      42.121  22.716  27.574  1.00  0.00     0.148 A 
ATOM     54  C   UNL A   1      43.345  23.211  25.097  1.00  0.00     0.002 A 
ATOM     55  C   UNL A   1      42.216  21.706  26.626  1.00  0.00     0.091 A 
ATOM     56  F   UNL A   1      41.525  22.521  28.759  1.00  0.00    -0.205 F 
ATOM     57  C   UNL A   1      42.810  21.957  25.379  1.00  0.00     0.022 A 
BRANCH  55  58
ATOM     58  S   UNL A   1      41.681  20.024  26.956  1.00  0.00     0.127 S 
ATOM     59  O   UNL A   1      40.402  20.244  27.624  1.00  0.00    -0.237 OA
ATOM     60  O   UNL A   1      41.586  19.469  25.606  1.00  0.00    -0.237 OA
ATOM     61  O   UNL A   1      42.730  19.432  27.776  1.00  0.00    -0.744 OA
ENDBRANCH  55  58
ENDBRANCH  27  51
BRANCH  39  62
ATOM     62  C   UNL A   1      47.015  25.811  32.469  1.00  0.00     0.023 A 
ATOM     63  C   UNL A   1      48.236  26.246  31.918  1.00  0.00     0.012 A 
ATOM     64  C   UNL A   1      47.024  24.876  33.524  1.00  0.00     0.148 A 
ATOM     65  C   UNL A   1      49.446  25.731  32.383  1.00  0.00     0.002 A 
ATOM     66  C   UNL A   1      48.235  24.409  34.018  1.00  0.00     0.091 A 
ATOM     67  F   UNL A   1      45.851  24.461  34.020  1.00  0.00    -0.205 F 
ATOM     68  C   UNL A   1      49.446  24.824  33.440  1.00  0.00     0.022 A 
BRANCH  66  69
ATOM     69  S   UNL A   1      48.337  23.314  35.438  1.00  0.00     0.127 S 
ATOM     70  O   UNL A   1      47.435  23.967  36.384  1.00  0.00    -0.237 OA
ATOM     71  O   UNL A   1      47.840  22.052  34.891  1.00  0.00    -0.237 OA
ATOM     72  O   UNL A   1      49.741  23.291  35.829  1.00  0.00    -0.744 OA
ENDBRANCH  66  69
ENDBRANCH  39  62
ENDBRANCH  13  14
ENDBRANCH   6   8
ENDBRANCH   3   4
ENDBRANCH   2   3
ENDBRANCH   1   2
BRANCH   1  73
ATOM     73  C   UNL A   1      33.757  34.559  30.807  1.00  0.00     0.002 C 
BRANCH  73  74
ATOM     74  C   UNL A   1      34.058  35.509  31.971  1.00  0.00     0.021 C 
BRANCH  74  75
ATOM     75  C   UNL A   1      35.451  35.355  32.574  1.00  0.00     0.116 C 
BRANCH  75  76
ATOM     76  N   UNL A   1      35.670  34.013  33.093  1.00  0.00    -0.352 N 
ATOM     77  C   UNL A   1      36.627  33.097  32.734  1.00  0.00     0.251 C 
ATOM     78  H   UNL A   1      35.048  33.722  33.799  1.00  0.00     0.163 HD
ATOM     79  O   UNL A   1      36.555  31.933  33.113  1.00  0.00    -0.269 OA
BRANCH  77  80
ATOM     80  C   UNL A   1      37.745  33.527  31.873  1.00  0.00     0.039 A 
ATOM     81  C   UNL A   1      38.853  34.151  32.444  1.00  0.00     0.014 A 
ATOM     82  C   UNL A   1      37.690  33.319  30.497  1.00  0.00     0.014 A 
ATOM     83  C   UNL A   1      39.943  34.494  31.639  1.00  0.00     0.005 A 
ATOM     84  C   UNL A   1      38.788  33.641  29.704  1.00  0.00     0.005 A 
ATOM     85  C   UNL A   1      39.950  34.205  30.260  1.00  0.00    -0.043 A 
BRANCH  85  86
ATOM     86  C   UNL A   1      41.167  34.556  29.404  1.00  0.00     0.039 C 
ATOM     87  C   UNL A   1      40.880  35.705  28.405  1.00  0.00     0.012 C 
ATOM     88  C   UNL A   1      42.419  34.931  30.229  1.00  0.00     0.128 C 
ATOM     89  C   UNL A   1      42.118  36.072  27.575  1.00  0.00     0.022 C 
ATOM     90  N   UNL A   1      43.550  35.251  29.372  1.00  0.00    -0.338 N 
ATOM     91  C   UNL A   1      43.331  36.365  28.453  1.00  0.00     0.120 C 
BRANCH  90  92
ATOM     92  C   UNL A   1      44.657  34.414  29.402  1.00  0.00     0.253 C 
ATOM     93  O   UNL A   1      45.812  34.806  29.557  1.00  0.00    -0.269 OA
BRANCH  92  94
ATOM     94  C   UNL A   1      44.460  32.965  29.261  1.00  0.00     0.040 A 
ATOM     95  C   UNL A   1      44.935  32.131  30.274  1.00  0.00     0.016 A 
ATOM     96  C   UNL A   1      43.904  32.454  28.079  1.00  0.00     0.024 A 
ATOM     97  C   UNL A   1      44.824  30.745  30.158  1.00  0.00     0.027 A 
ATOM     98  C   UNL A   1      43.826  31.058  27.932  1.00  0.00     0.000 A 
ATOM     99  C   UNL A   1      44.267  30.241  28.975  1.00  0.00     0.045 A 
ATOM    100  C   UNL A   1      43.401  30.200  26.881  1.00  0.00     0.028 A 
ATOM    101  N   UNL A   1      44.061  28.938  28.581  1.00  0.00    -0.361 N 
ATOM    102  C   UNL A   1      43.574  28.902  27.302  1.00  0.00     0.083 A 
ATOM    103  H   UNL A   1      44.238  28.146  29.139  1.00  0.00     0.166 HD
ENDBRANCH  92  94
ENDBRANCH  90  92
ENDBRANCH  85  86
ENDBRANCH  77  80
ENDBRANCH  75  76
ENDBRANCH  74  75
ENDBRANCH  73  74
ENDBRANCH   1  73
TORSDOF 19
ENDMDL
