MODEL 1
REMARK VINA RESULT:     -11.4      0.000      0.000
REMARK SMILES Cc1[nH]ncc1S(=O)(=O)N1CC[C@@H](C(=O)NCCCCCCNC(=O)c2ccc(-c3c4nc(c(-c5cccc(S(=O)(=O)[O-])c5F)c5ccc([nH]5)c(-c5cccc(S(=O)(=O)[O-])c5F)c5nc(c(-c6cccc(S(=O)(=O)[O-])c6F)c6ccc3[nH]6)C=C5)C=C4)cc2)[C@@H]1C
REMARK SMILES IDX 20 1 19 2 18 3 17 4 16 5 14 6 15 7 13 9 10 10 11 11 89 12
REMARK SMILES IDX 12 13 90 14 7 15 8 16 9 17 6 18 1 19 2 20 3 21 4 22 5 24
REMARK SMILES IDX 21 25 22 26 23 27 24 28 25 30 26 31 27 32 88 33 28 34 87 35
REMARK SMILES IDX 29 36 30 37 31 38 81 39 32 40 86 41 80 42 82 43 33 44 85 45
REMARK SMILES IDX 79 46 78 47 34 49 66 50 46 51 65 52 47 53 50 54 64 55 83 56
REMARK SMILES IDX 48 57 49 58 63 60 84 61 51 62 35 63 36 64 44 65 37 66 39 67
REMARK SMILES IDX 45 68 38 69 40 70 41 71 42 72 43 73 67 74 68 75 76 76 69 77
REMARK SMILES IDX 71 78 77 79 70 80 72 81 73 82 74 83 75 84 52 85 53 86 61 87
REMARK SMILES IDX 54 88 56 89 62 90 55 91 57 92 58 93 59 94 60 95
REMARK H PARENT 16 8 3 23 23 29 82 48 50 59
REMARK Flexibility Score: inf
ROOT
ATOM      1  C   UNL A   1      34.211  22.428  23.999  1.00  0.00     0.002 C 
ENDROOT
BRANCH   1   2
ATOM      2  C   UNL A   1      33.435  21.693  25.104  1.00  0.00     0.002 C 
BRANCH   2   3
ATOM      3  C   UNL A   1      31.943  21.445  24.838  1.00  0.00     0.021 C 
BRANCH   3   4
ATOM      4  C   UNL A   1      30.998  22.134  25.822  1.00  0.00     0.116 C 
BRANCH   4   5
ATOM      5  N   UNL A   1      31.465  23.426  26.297  1.00  0.00    -0.356 N 
ATOM      6  C   UNL A   1      31.130  24.700  25.969  1.00  0.00     0.224 C 
ATOM      7  O   UNL A   1      31.385  25.555  26.831  1.00  0.00    -0.275 OA
ATOM      8  H   UNL A   1      32.159  23.365  26.993  1.00  0.00     0.163 HD
BRANCH   6   9
ATOM      9  C   UNL A   1      30.488  25.170  24.660  1.00  0.00     0.098 C 
ATOM     10  N   UNL A   1      31.049  27.197  23.657  1.00  0.00    -0.194 NA
ATOM     11  C   UNL A   1      31.482  26.227  22.667  1.00  0.00     0.104 C 
ATOM     12  C   UNL A   1      30.023  26.620  24.535  1.00  0.00     0.082 C 
ATOM     13  C   UNL A   1      31.380  24.903  23.426  1.00  0.00     0.032 C 
ATOM     14  C   UNL A   1      28.643  26.704  23.876  1.00  0.00     0.026 C 
BRANCH  10  15
ATOM     15  S   UNL A   1      31.485  28.797  23.614  1.00  0.00     0.246 S 
ATOM     16  O   UNL A   1      30.262  29.578  23.546  1.00  0.00    -0.207 OA
ATOM     17  O   UNL A   1      32.562  28.945  22.674  1.00  0.00    -0.207 OA
BRANCH  15  18
ATOM     18  C   UNL A   1      32.172  29.294  25.120  1.00  0.00     0.123 A 
ATOM     19  C   UNL A   1      34.026  27.556  25.896  1.00  0.00     0.067 C 
ATOM     20  C   UNL A   1      33.151  28.746  25.940  1.00  0.00     0.052 A 
ATOM     21  N   UNL A   1      33.239  29.611  27.003  1.00  0.00    -0.281 N 
ATOM     22  N   UNL A   1      32.351  30.608  26.969  1.00  0.00    -0.183 NA
ATOM     23  H   UNL A   1      33.898  29.505  27.726  1.00  0.00     0.190 HD
ATOM     24  C   UNL A   1      31.745  30.457  25.790  1.00  0.00     0.157 A 
ENDBRANCH  15  18
ENDBRANCH  10  15
ENDBRANCH   6   9
ENDBRANCH   4   5
ENDBRANCH   3   4
ENDBRANCH   2   3
ENDBRANCH   1   2
BRANCH   1  25
ATOM     25  C   UNL A   1      35.597  22.958  24.382  1.00  0.00     0.021 C 
BRANCH  25  26
ATOM     26  C   UNL A   1      36.122  22.521  25.747  1.00  0.00     0.116 C 
BRANCH  26  27
ATOM     27  N   UNL A   1      37.005  21.366  25.664  1.00  0.00    -0.352 N 
ATOM     28  C   UNL A   1      38.367  21.283  25.825  1.00  0.00     0.251 C 
ATOM     29  H   UNL A   1      36.556  20.513  25.461  1.00  0.00     0.163 HD
ATOM     30  O   UNL A   1      38.940  20.228  25.560  1.00  0.00    -0.269 OA
BRANCH  28  31
ATOM     31  C   UNL A   1      39.153  22.447  26.299  1.00  0.00     0.039 A 
ATOM     32  C   UNL A   1      38.890  23.710  25.751  1.00  0.00     0.014 A 
ATOM     33  C   UNL A   1      40.173  22.300  27.239  1.00  0.00     0.014 A 
ATOM     34  C   UNL A   1      39.612  24.828  26.186  1.00  0.00     0.010 A 
ATOM     35  C   UNL A   1      40.848  23.423  27.716  1.00  0.00     0.010 A 
ATOM     36  C   UNL A   1      40.582  24.696  27.189  1.00  0.00    -0.014 A 
BRANCH  36  37
ATOM     37  C   UNL A   1      41.360  25.856  27.697  1.00  0.00     0.031 A 
ATOM     38  C   UNL A   1      40.665  26.917  28.507  1.00  0.00     0.074 A 
ATOM     39  C   UNL A   1      42.643  26.026  27.324  1.00  0.00     0.049 A 
ATOM     40  N   UNL A   1      41.103  28.089  28.886  1.00  0.00    -0.248 NA
ATOM     41  C   UNL A   1      39.279  26.634  28.915  1.00  0.00     0.031 C 
ATOM     42  C   UNL A   1      43.411  25.102  26.489  1.00  0.00     0.029 A 
ATOM     43  N   UNL A   1      43.513  27.063  27.562  1.00  0.00    -0.354 N 
ATOM     44  C   UNL A   1      40.030  28.709  29.516  1.00  0.00     0.074 A 
ATOM     45  C   UNL A   1      38.917  27.786  29.461  1.00  0.00     0.031 C 
ATOM     46  C   UNL A   1      44.629  25.621  26.267  1.00  0.00     0.029 A 
ATOM     47  C   UNL A   1      44.720  26.926  26.916  1.00  0.00     0.049 A 
ATOM     48  H   UNL A   1      43.293  27.830  28.137  1.00  0.00     0.167 HD
ATOM     49  C   UNL A   1      39.980  29.927  30.105  1.00  0.00     0.034 A 
ATOM     50  C   UNL A   1      45.774  27.763  26.840  1.00  0.00     0.034 A 
ATOM     51  C   UNL A   1      41.109  30.809  30.225  1.00  0.00     0.049 A 
ATOM     52  C   UNL A   1      45.723  29.078  27.573  1.00  0.00     0.074 A 
ATOM     53  C   UNL A   1      41.188  32.020  30.891  1.00  0.00     0.029 A 
ATOM     54  N   UNL A   1      42.359  30.570  29.677  1.00  0.00    -0.354 N 
ATOM     55  N   UNL A   1      44.747  29.586  28.285  1.00  0.00    -0.248 NA
ATOM     56  C   UNL A   1      46.928  29.919  27.523  1.00  0.00     0.031 C 
ATOM     57  C   UNL A   1      42.488  32.514  30.744  1.00  0.00     0.029 A 
ATOM     58  C   UNL A   1      43.219  31.607  29.993  1.00  0.00     0.049 A 
ATOM     59  H   UNL A   1      42.600  29.781  29.141  1.00  0.00     0.167 HD
ATOM     60  C   UNL A   1      45.230  30.784  28.798  1.00  0.00     0.074 A 
ATOM     61  C   UNL A   1      46.592  30.922  28.324  1.00  0.00     0.031 C 
ATOM     62  C   UNL A   1      44.597  31.694  29.579  1.00  0.00     0.034 A 
BRANCH  49  63
ATOM     63  C   UNL A   1      38.674  30.351  30.719  1.00  0.00     0.023 A 
ATOM     64  C   UNL A   1      38.401  30.020  32.062  1.00  0.00     0.012 A 
ATOM     65  C   UNL A   1      37.734  31.106  29.990  1.00  0.00     0.148 A 
ATOM     66  C   UNL A   1      37.199  30.400  32.658  1.00  0.00     0.002 A 
ATOM     67  C   UNL A   1      36.555  31.516  30.603  1.00  0.00     0.091 A 
ATOM     68  F   UNL A   1      37.996  31.391  28.705  1.00  0.00    -0.205 F 
ATOM     69  C   UNL A   1      36.281  31.156  31.933  1.00  0.00     0.022 A 
BRANCH  67  70
ATOM     70  S   UNL A   1      35.356  32.555  29.760  1.00  0.00     0.127 S 
ATOM     71  O   UNL A   1      36.174  33.705  29.378  1.00  0.00    -0.237 OA
ATOM     72  O   UNL A   1      34.935  31.710  28.641  1.00  0.00    -0.237 OA
ATOM     73  O   UNL A   1      34.310  32.816  30.739  1.00  0.00    -0.744 OA
ENDBRANCH  67  70
ENDBRANCH  49  63
BRANCH  50  74
ATOM     74  C   UNL A   1      46.998  27.339  26.104  1.00  0.00     0.023 A 
ATOM     75  C   UNL A   1      47.930  26.509  26.754  1.00  0.00     0.012 A 
ATOM     76  C   UNL A   1      47.215  27.697  24.759  1.00  0.00     0.148 A 
ATOM     77  C   UNL A   1      49.068  26.055  26.085  1.00  0.00     0.002 A 
ATOM     78  C   UNL A   1      48.326  27.203  24.083  1.00  0.00     0.091 A 
ATOM     79  F   UNL A   1      46.321  28.498  24.162  1.00  0.00    -0.205 F 
ATOM     80  C   UNL A   1      49.259  26.393  24.748  1.00  0.00     0.022 A 
BRANCH  78  81
ATOM     81  S   UNL A   1      48.598  27.482  22.329  1.00  0.00     0.127 S 
ATOM     82  O   UNL A   1      47.436  28.293  21.972  1.00  0.00    -0.237 OA
ATOM     83  O   UNL A   1      49.872  28.202  22.331  1.00  0.00    -0.237 OA
ATOM     84  O   UNL A   1      48.655  26.158  21.725  1.00  0.00    -0.744 OA
ENDBRANCH  78  81
ENDBRANCH  50  74
BRANCH  62  85
ATOM     85  C   UNL A   1      45.369  32.908  30.021  1.00  0.00     0.023 A 
ATOM     86  C   UNL A   1      46.177  32.836  31.172  1.00  0.00     0.012 A 
ATOM     87  C   UNL A   1      45.388  34.073  29.229  1.00  0.00     0.148 A 
ATOM     88  C   UNL A   1      46.985  33.913  31.536  1.00  0.00     0.002 A 
ATOM     89  C   UNL A   1      46.225  35.127  29.577  1.00  0.00     0.091 A 
ATOM     90  F   UNL A   1      44.596  34.126  28.149  1.00  0.00    -0.205 F 
ATOM     91  C   UNL A   1      47.019  35.051  30.732  1.00  0.00     0.022 A 
BRANCH  89  92
ATOM     92  S   UNL A   1      46.402  36.592  28.552  1.00  0.00     0.127 S 
ATOM     93  O   UNL A   1      47.424  37.344  29.279  1.00  0.00    -0.237 OA
ATOM     94  O   UNL A   1      46.849  36.031  27.277  1.00  0.00    -0.237 OA
ATOM     95  O   UNL A   1      45.083  37.211  28.507  1.00  0.00    -0.744 OA
ENDBRANCH  89  92
ENDBRANCH  62  85
ENDBRANCH  36  37
ENDBRANCH  28  31
ENDBRANCH  26  27
ENDBRANCH  25  26
ENDBRANCH   1  25
TORSDOF 18
ENDMDL
MODEL 2
REMARK VINA RESULT:     -11.3      5.065      9.975
REMARK SMILES Cc1[nH]ncc1S(=O)(=O)N1CC[C@@H](C(=O)NCCCCCCNC(=O)c2ccc(-c3c4nc(c(-c5cccc(S(=O)(=O)[O-])c5F)c5ccc([nH]5)c(-c5cccc(S(=O)(=O)[O-])c5F)c5nc(c(-c6cccc(S(=O)(=O)[O-])c6F)c6ccc3[nH]6)C=C5)C=C4)cc2)[C@@H]1C
REMARK SMILES IDX 20 1 19 2 18 3 17 4 16 5 14 6 15 7 13 9 10 10 11 11 89 12
REMARK SMILES IDX 12 13 90 14 7 15 8 16 9 17 6 18 1 19 2 20 3 21 4 22 5 24
REMARK SMILES IDX 21 25 22 26 23 27 24 28 25 30 26 31 27 32 88 33 28 34 87 35
REMARK SMILES IDX 29 36 30 37 31 38 81 39 32 40 86 41 80 42 82 43 33 44 85 45
REMARK SMILES IDX 79 46 78 47 34 49 66 50 46 51 65 52 47 53 50 54 64 55 83 56
REMARK SMILES IDX 48 57 49 58 63 60 84 61 51 62 35 63 36 64 44 65 37 66 39 67
REMARK SMILES IDX 45 68 38 69 40 70 41 71 42 72 43 73 67 74 68 75 76 76 69 77
REMARK SMILES IDX 71 78 77 79 70 80 72 81 73 82 74 83 75 84 52 85 53 86 61 87
REMARK SMILES IDX 54 88 56 89 62 90 55 91 57 92 58 93 59 94 60 95
REMARK H PARENT 16 8 3 23 23 29 82 48 50 59
REMARK Flexibility Score: inf
ROOT
ATOM      1  C   UNL A   1      31.015  29.368  24.473  1.00  0.00     0.002 C 
ENDROOT
BRANCH   1   2
ATOM      2  C   UNL A   1      30.297  28.641  23.325  1.00  0.00     0.002 C 
BRANCH   2   3
ATOM      3  C   UNL A   1      30.311  27.107  23.375  1.00  0.00     0.021 C 
BRANCH   3   4
ATOM      4  C   UNL A   1      31.036  26.439  22.208  1.00  0.00     0.116 C 
BRANCH   4   5
ATOM      5  N   UNL A   1      32.383  25.989  22.516  1.00  0.00    -0.356 N 
ATOM      6  C   UNL A   1      32.917  24.756  22.711  1.00  0.00     0.224 C 
ATOM      7  O   UNL A   1      34.142  24.674  22.534  1.00  0.00    -0.275 OA
ATOM      8  H   UNL A   1      33.036  26.722  22.599  1.00  0.00     0.163 HD
BRANCH   6   9
ATOM      9  C   UNL A   1      32.165  23.488  23.128  1.00  0.00     0.098 C 
ATOM     10  N   UNL A   1      33.055  21.955  24.641  1.00  0.00    -0.194 NA
ATOM     11  C   UNL A   1      31.878  22.439  25.340  1.00  0.00     0.104 C 
ATOM     12  C   UNL A   1      32.919  22.161  23.193  1.00  0.00     0.082 C 
ATOM     13  C   UNL A   1      31.450  23.636  24.490  1.00  0.00     0.032 C 
ATOM     14  C   UNL A   1      32.102  21.028  22.564  1.00  0.00     0.026 C 
BRANCH  10  15
ATOM     15  S   UNL A   1      34.250  21.071  25.376  1.00  0.00     0.246 S 
ATOM     16  O   UNL A   1      34.393  19.832  24.632  1.00  0.00    -0.207 OA
ATOM     17  O   UNL A   1      34.031  21.112  26.796  1.00  0.00    -0.207 OA
BRANCH  15  18
ATOM     18  C   UNL A   1      35.794  21.821  25.169  1.00  0.00     0.123 A 
ATOM     19  C   UNL A   1      37.684  19.971  24.918  1.00  0.00     0.067 C 
ATOM     20  C   UNL A   1      37.078  21.315  25.005  1.00  0.00     0.052 A 
ATOM     21  N   UNL A   1      37.879  22.425  24.906  1.00  0.00    -0.281 N 
ATOM     22  N   UNL A   1      37.233  23.582  25.072  1.00  0.00    -0.183 NA
ATOM     23  H   UNL A   1      38.847  22.373  24.728  1.00  0.00     0.190 HD
ATOM     24  C   UNL A   1      35.951  23.220  25.166  1.00  0.00     0.157 A 
ENDBRANCH  15  18
ENDBRANCH  10  15
ENDBRANCH   6   9
ENDBRANCH   4   5
ENDBRANCH   3   4
ENDBRANCH   2   3
ENDBRANCH   1   2
BRANCH   1  25
ATOM     25  C   UNL A   1      31.994  28.529  25.301  1.00  0.00     0.021 C 
BRANCH  25  26
ATOM     26  C   UNL A   1      33.103  29.304  26.006  1.00  0.00     0.116 C 
BRANCH  26  27
ATOM     27  N   UNL A   1      32.712  30.670  26.330  1.00  0.00    -0.352 N 
ATOM     28  C   UNL A   1      33.292  31.574  27.187  1.00  0.00     0.251 C 
ATOM     29  H   UNL A   1      31.909  30.995  25.861  1.00  0.00     0.163 HD
ATOM     30  O   UNL A   1      32.710  32.630  27.430  1.00  0.00    -0.269 OA
BRANCH  28  31
ATOM     31  C   UNL A   1      34.598  31.290  27.829  1.00  0.00     0.039 A 
ATOM     32  C   UNL A   1      35.550  32.314  27.910  1.00  0.00     0.014 A 
ATOM     33  C   UNL A   1      34.909  30.017  28.309  1.00  0.00     0.014 A 
ATOM     34  C   UNL A   1      36.789  32.075  28.518  1.00  0.00     0.010 A 
ATOM     35  C   UNL A   1      36.117  29.797  28.968  1.00  0.00     0.010 A 
ATOM     36  C   UNL A   1      37.072  30.819  29.072  1.00  0.00    -0.014 A 
BRANCH  36  37
ATOM     37  C   UNL A   1      38.364  30.523  29.745  1.00  0.00     0.031 A 
ATOM     38  C   UNL A   1      39.328  29.558  29.109  1.00  0.00     0.074 A 
ATOM     39  C   UNL A   1      38.611  31.007  30.978  1.00  0.00     0.049 A 
ATOM     40  N   UNL A   1      40.412  29.021  29.606  1.00  0.00    -0.248 NA
ATOM     41  C   UNL A   1      39.011  29.113  27.742  1.00  0.00     0.031 C 
ATOM     42  C   UNL A   1      37.728  31.900  31.728  1.00  0.00     0.029 A 
ATOM     43  N   UNL A   1      39.659  30.776  31.835  1.00  0.00    -0.354 N 
ATOM     44  C   UNL A   1      40.867  28.127  28.644  1.00  0.00     0.074 A 
ATOM     45  C   UNL A   1      39.938  28.188  27.537  1.00  0.00     0.031 C 
ATOM     46  C   UNL A   1      38.260  32.126  32.941  1.00  0.00     0.029 A 
ATOM     47  C   UNL A   1      39.503  31.371  33.066  1.00  0.00     0.049 A 
ATOM     48  H   UNL A   1      40.445  30.236  31.593  1.00  0.00     0.167 HD
ATOM     49  C   UNL A   1      41.969  27.341  28.670  1.00  0.00     0.034 A 
ATOM     50  C   UNL A   1      40.266  31.303  34.176  1.00  0.00     0.034 A 
ATOM     51  C   UNL A   1      42.931  27.341  29.738  1.00  0.00     0.049 A 
ATOM     52  C   UNL A   1      41.531  30.486  34.150  1.00  0.00     0.074 A 
ATOM     53  C   UNL A   1      44.132  26.657  29.814  1.00  0.00     0.029 A 
ATOM     54  N   UNL A   1      42.808  28.067  30.912  1.00  0.00    -0.354 N 
ATOM     55  N   UNL A   1      42.020  29.757  33.177  1.00  0.00    -0.248 NA
ATOM     56  C   UNL A   1      42.367  30.509  35.360  1.00  0.00     0.031 C 
ATOM     57  C   UNL A   1      44.735  26.970  31.036  1.00  0.00     0.029 A 
ATOM     58  C   UNL A   1      43.913  27.854  31.717  1.00  0.00     0.049 A 
ATOM     59  H   UNL A   1      42.047  28.648  31.140  1.00  0.00     0.167 HD
ATOM     60  C   UNL A   1      43.236  29.266  33.639  1.00  0.00     0.074 A 
ATOM     61  C   UNL A   1      43.415  29.789  34.978  1.00  0.00     0.031 C 
ATOM     62  C   UNL A   1      44.115  28.444  33.016  1.00  0.00     0.034 A 
BRANCH  49  63
ATOM     63  C   UNL A   1      42.225  26.461  27.478  1.00  0.00     0.023 A 
ATOM     64  C   UNL A   1      42.836  27.008  26.332  1.00  0.00     0.012 A 
ATOM     65  C   UNL A   1      41.901  25.090  27.498  1.00  0.00     0.148 A 
ATOM     66  C   UNL A   1      43.087  26.216  25.211  1.00  0.00     0.002 A 
ATOM     67  C   UNL A   1      42.190  24.297  26.392  1.00  0.00     0.091 A 
ATOM     68  F   UNL A   1      41.295  24.589  28.585  1.00  0.00    -0.205 F 
ATOM     69  C   UNL A   1      42.773  24.860  25.245  1.00  0.00     0.022 A 
BRANCH  67  70
ATOM     70  S   UNL A   1      41.885  22.526  26.386  1.00  0.00     0.127 S 
ATOM     71  O   UNL A   1      42.565  22.102  27.609  1.00  0.00    -0.237 OA
ATOM     72  O   UNL A   1      40.424  22.456  26.448  1.00  0.00    -0.237 OA
ATOM     73  O   UNL A   1      42.454  22.037  25.138  1.00  0.00    -0.744 OA
ENDBRANCH  67  70
ENDBRANCH  49  63
BRANCH  50  74
ATOM     74  C   UNL A   1      39.889  32.101  35.376  1.00  0.00     0.023 A 
ATOM     75  C   UNL A   1      40.388  33.410  35.509  1.00  0.00     0.012 A 
ATOM     76  C   UNL A   1      39.000  31.601  36.349  1.00  0.00     0.148 A 
ATOM     77  C   UNL A   1      40.025  34.204  36.597  1.00  0.00     0.002 A 
ATOM     78  C   UNL A   1      38.604  32.414  37.406  1.00  0.00     0.091 A 
ATOM     79  F   UNL A   1      38.546  30.348  36.211  1.00  0.00    -0.205 F 
ATOM     80  C   UNL A   1      39.125  33.711  37.538  1.00  0.00     0.022 A 
BRANCH  78  81
ATOM     81  S   UNL A   1      37.359  31.914  38.601  1.00  0.00     0.127 S 
ATOM     82  O   UNL A   1      36.256  32.815  38.278  1.00  0.00    -0.237 OA
ATOM     83  O   UNL A   1      37.135  30.514  38.237  1.00  0.00    -0.237 OA
ATOM     84  O   UNL A   1      37.971  32.105  39.909  1.00  0.00    -0.744 OA
ENDBRANCH  78  81
ENDBRANCH  50  74
BRANCH  62  85
ATOM     85  C   UNL A   1      45.384  28.083  33.741  1.00  0.00     0.023 A 
ATOM     86  C   UNL A   1      46.509  28.922  33.633  1.00  0.00     0.012 A 
ATOM     87  C   UNL A   1      45.418  26.984  34.623  1.00  0.00     0.148 A 
ATOM     88  C   UNL A   1      47.656  28.666  34.383  1.00  0.00     0.002 A 
ATOM     89  C   UNL A   1      46.551  26.758  35.395  1.00  0.00     0.091 A 
ATOM     90  F   UNL A   1      44.343  26.188  34.695  1.00  0.00    -0.205 F 
ATOM     91  C   UNL A   1      47.673  27.594  35.273  1.00  0.00     0.022 A 
BRANCH  89  92
ATOM     92  S   UNL A   1      46.626  25.457  36.633  1.00  0.00     0.127 S 
ATOM     93  O   UNL A   1      46.593  24.253  35.804  1.00  0.00    -0.237 OA
ATOM     94  O   UNL A   1      47.913  25.715  37.281  1.00  0.00    -0.237 OA
ATOM     95  O   UNL A   1      45.468  25.657  37.494  1.00  0.00    -0.744 OA
ENDBRANCH  89  92
ENDBRANCH  62  85
ENDBRANCH  36  37
ENDBRANCH  28  31
ENDBRANCH  26  27
ENDBRANCH  25  26
ENDBRANCH   1  25
TORSDOF 18
ENDMDL
MODEL 3
REMARK VINA RESULT:     -11.2      5.580     10.694
REMARK SMILES Cc1[nH]ncc1S(=O)(=O)N1CC[C@@H](C(=O)NCCCCCCNC(=O)c2ccc(-c3c4nc(c(-c5cccc(S(=O)(=O)[O-])c5F)c5ccc([nH]5)c(-c5cccc(S(=O)(=O)[O-])c5F)c5nc(c(-c6cccc(S(=O)(=O)[O-])c6F)c6ccc3[nH]6)C=C5)C=C4)cc2)[C@@H]1C
REMARK SMILES IDX 20 1 19 2 18 3 17 4 16 5 14 6 15 7 13 9 10 10 11 11 89 12
REMARK SMILES IDX 12 13 90 14 7 15 8 16 9 17 6 18 1 19 2 20 3 21 4 22 5 24
REMARK SMILES IDX 21 25 22 26 23 27 24 28 25 30 26 31 27 32 88 33 28 34 87 35
REMARK SMILES IDX 29 36 30 37 31 38 81 39 32 40 86 41 80 42 82 43 33 44 85 45
REMARK SMILES IDX 79 46 78 47 34 49 66 50 46 51 65 52 47 53 50 54 64 55 83 56
REMARK SMILES IDX 48 57 49 58 63 60 84 61 51 62 35 63 36 64 44 65 37 66 39 67
REMARK SMILES IDX 45 68 38 69 40 70 41 71 42 72 43 73 67 74 68 75 76 76 69 77
REMARK SMILES IDX 71 78 77 79 70 80 72 81 73 82 74 83 75 84 52 85 53 86 61 87
REMARK SMILES IDX 54 88 56 89 62 90 55 91 57 92 58 93 59 94 60 95
REMARK H PARENT 16 8 3 23 23 29 82 48 50 59
REMARK Flexibility Score: inf
ROOT
ATOM      1  C   UNL A   1      31.748  29.868  26.352  1.00  0.00     0.002 C 
ENDROOT
BRANCH   1   2
ATOM      2  C   UNL A   1      32.077  29.361  24.939  1.00  0.00     0.002 C 
BRANCH   2   3
ATOM      3  C   UNL A   1      33.389  28.580  24.782  1.00  0.00     0.021 C 
BRANCH   3   4
ATOM      4  C   UNL A   1      33.214  27.116  24.380  1.00  0.00     0.116 C 
BRANCH   4   5
ATOM      5  N   UNL A   1      33.598  26.820  23.010  1.00  0.00    -0.356 N 
ATOM      6  C   UNL A   1      33.112  25.948  22.089  1.00  0.00     0.224 C 
ATOM      7  O   UNL A   1      33.365  26.229  20.907  1.00  0.00    -0.275 OA
ATOM      8  H   UNL A   1      34.357  27.356  22.686  1.00  0.00     0.163 HD
BRANCH   6   9
ATOM      9  C   UNL A   1      32.307  24.675  22.368  1.00  0.00     0.098 C 
ATOM     10  N   UNL A   1      32.397  23.570  24.418  1.00  0.00    -0.194 NA
ATOM     11  C   UNL A   1      31.009  23.991  24.350  1.00  0.00     0.104 C 
ATOM     12  C   UNL A   1      32.986  23.502  23.074  1.00  0.00     0.082 C 
ATOM     13  C   UNL A   1      31.006  24.950  23.158  1.00  0.00     0.032 C 
ATOM     14  C   UNL A   1      32.634  22.172  22.401  1.00  0.00     0.026 C 
BRANCH  10  15
ATOM     15  S   UNL A   1      33.110  23.008  25.807  1.00  0.00     0.246 S 
ATOM     16  O   UNL A   1      32.068  22.399  26.613  1.00  0.00    -0.207 OA
ATOM     17  O   UNL A   1      33.991  24.029  26.305  1.00  0.00    -0.207 OA
BRANCH  15  18
ATOM     18  C   UNL A   1      34.161  21.678  25.470  1.00  0.00     0.123 A 
ATOM     19  C   UNL A   1      32.737  19.482  25.010  1.00  0.00     0.067 C 
ATOM     20  C   UNL A   1      33.929  20.339  25.178  1.00  0.00     0.052 A 
ATOM     21  N   UNL A   1      35.180  19.794  25.024  1.00  0.00    -0.281 N 
ATOM     22  N   UNL A   1      36.180  20.645  25.270  1.00  0.00    -0.183 NA
ATOM     23  H   UNL A   1      35.327  18.859  24.755  1.00  0.00     0.190 HD
ATOM     24  C   UNL A   1      35.563  21.811  25.477  1.00  0.00     0.157 A 
ENDBRANCH  15  18
ENDBRANCH  10  15
ENDBRANCH   6   9
ENDBRANCH   4   5
ENDBRANCH   3   4
ENDBRANCH   2   3
ENDBRANCH   1   2
BRANCH   1  25
ATOM     25  C   UNL A   1      31.673  31.388  26.527  1.00  0.00     0.021 C 
BRANCH  25  26
ATOM     26  C   UNL A   1      32.915  32.053  27.114  1.00  0.00     0.116 C 
BRANCH  26  27
ATOM     27  N   UNL A   1      32.680  33.437  27.500  1.00  0.00    -0.352 N 
ATOM     28  C   UNL A   1      33.300  34.205  28.456  1.00  0.00     0.251 C 
ATOM     29  H   UNL A   1      31.966  33.894  26.997  1.00  0.00     0.163 HD
ATOM     30  O   UNL A   1      32.842  35.313  28.727  1.00  0.00    -0.269 OA
BRANCH  28  31
ATOM     31  C   UNL A   1      34.502  33.711  29.170  1.00  0.00     0.039 A 
ATOM     32  C   UNL A   1      34.346  32.738  30.166  1.00  0.00     0.014 A 
ATOM     33  C   UNL A   1      35.770  34.229  28.902  1.00  0.00     0.014 A 
ATOM     34  C   UNL A   1      35.464  32.248  30.851  1.00  0.00     0.010 A 
ATOM     35  C   UNL A   1      36.888  33.697  29.541  1.00  0.00     0.010 A 
ATOM     36  C   UNL A   1      36.748  32.709  30.528  1.00  0.00    -0.014 A 
BRANCH  36  37
ATOM     37  C   UNL A   1      37.967  32.205  31.212  1.00  0.00     0.031 A 
ATOM     38  C   UNL A   1      38.757  31.084  30.591  1.00  0.00     0.074 A 
ATOM     39  C   UNL A   1      38.286  32.653  32.442  1.00  0.00     0.049 A 
ATOM     40  N   UNL A   1      39.731  30.377  31.101  1.00  0.00    -0.248 NA
ATOM     41  C   UNL A   1      38.375  30.685  29.227  1.00  0.00     0.031 C 
ATOM     42  C   UNL A   1      37.564  33.690  33.178  1.00  0.00     0.029 A 
ATOM     43  N   UNL A   1      39.276  32.256  33.309  1.00  0.00    -0.354 N 
ATOM     44  C   UNL A   1      40.033  29.409  30.150  1.00  0.00     0.074 A 
ATOM     45  C   UNL A   1      39.133  29.615  29.036  1.00  0.00     0.031 C 
ATOM     46  C   UNL A   1      38.120  33.835  34.392  1.00  0.00     0.029 A 
ATOM     47  C   UNL A   1      39.217  32.882  34.532  1.00  0.00     0.049 A 
ATOM     48  H   UNL A   1      39.960  31.588  33.076  1.00  0.00     0.167 HD
ATOM     49  C   UNL A   1      40.986  28.447  30.191  1.00  0.00     0.034 A 
ATOM     50  C   UNL A   1      39.952  32.697  35.648  1.00  0.00     0.034 A 
ATOM     51  C   UNL A   1      41.928  28.295  31.265  1.00  0.00     0.049 A 
ATOM     52  C   UNL A   1      41.060  31.677  35.638  1.00  0.00     0.074 A 
ATOM     53  C   UNL A   1      42.995  27.418  31.355  1.00  0.00     0.029 A 
ATOM     54  N   UNL A   1      41.925  29.044  32.431  1.00  0.00    -0.354 N 
ATOM     55  N   UNL A   1      41.423  30.866  34.675  1.00  0.00    -0.248 NA
ATOM     56  C   UNL A   1      41.882  31.571  36.853  1.00  0.00     0.031 C 
ATOM     57  C   UNL A   1      43.637  27.637  32.578  1.00  0.00     0.029 A 
ATOM     58  C   UNL A   1      42.973  28.655  33.246  1.00  0.00     0.049 A 
ATOM     59  H   UNL A   1      41.272  29.748  32.649  1.00  0.00     0.167 HD
ATOM     60  C   UNL A   1      42.536  30.181  35.150  1.00  0.00     0.074 A 
ATOM     61  C   UNL A   1      42.794  30.680  36.485  1.00  0.00     0.031 C 
ATOM     62  C   UNL A   1      43.266  29.215  34.540  1.00  0.00     0.034 A 
BRANCH  49  63
ATOM     63  C   UNL A   1      41.094  27.524  29.008  1.00  0.00     0.023 A 
ATOM     64  C   UNL A   1      40.234  26.411  28.918  1.00  0.00     0.012 A 
ATOM     65  C   UNL A   1      42.012  27.772  27.970  1.00  0.00     0.148 A 
ATOM     66  C   UNL A   1      40.311  25.538  27.833  1.00  0.00     0.002 A 
ATOM     67  C   UNL A   1      42.057  26.919  26.871  1.00  0.00     0.091 A 
ATOM     68  F   UNL A   1      42.843  28.820  28.082  1.00  0.00    -0.205 F 
ATOM     69  C   UNL A   1      41.215  25.797  26.806  1.00  0.00     0.022 A 
BRANCH  67  70
ATOM     70  S   UNL A   1      43.141  27.227  25.471  1.00  0.00     0.127 S 
ATOM     71  O   UNL A   1      44.333  27.760  26.129  1.00  0.00    -0.237 OA
ATOM     72  O   UNL A   1      43.309  25.889  24.901  1.00  0.00    -0.237 OA
ATOM     73  O   UNL A   1      42.417  28.156  24.615  1.00  0.00    -0.744 OA
ENDBRANCH  67  70
ENDBRANCH  49  63
BRANCH  50  74
ATOM     74  C   UNL A   1      39.710  33.560  36.838  1.00  0.00     0.023 A 
ATOM     75  C   UNL A   1      40.120  34.906  36.800  1.00  0.00     0.012 A 
ATOM     76  C   UNL A   1      39.028  33.080  37.975  1.00  0.00     0.148 A 
ATOM     77  C   UNL A   1      39.873  35.757  37.877  1.00  0.00     0.002 A 
ATOM     78  C   UNL A   1      38.744  33.945  39.026  1.00  0.00     0.091 A 
ATOM     79  F   UNL A   1      38.657  31.792  37.997  1.00  0.00    -0.205 F 
ATOM     80  C   UNL A   1      39.176  35.280  38.984  1.00  0.00     0.022 A 
BRANCH  78  81
ATOM     81  S   UNL A   1      37.748  33.459  40.440  1.00  0.00     0.127 S 
ATOM     82  O   UNL A   1      37.662  34.710  41.190  1.00  0.00    -0.237 OA
ATOM     83  O   UNL A   1      36.499  33.039  39.802  1.00  0.00    -0.237 OA
ATOM     84  O   UNL A   1      38.484  32.383  41.088  1.00  0.00    -0.744 OA
ENDBRANCH  78  81
ENDBRANCH  50  74
BRANCH  62  85
ATOM     85  C   UNL A   1      44.451  28.652  35.277  1.00  0.00     0.023 A 
ATOM     86  C   UNL A   1      45.724  29.225  35.089  1.00  0.00     0.012 A 
ATOM     87  C   UNL A   1      44.281  27.641  36.244  1.00  0.00     0.148 A 
ATOM     88  C   UNL A   1      46.813  28.792  35.843  1.00  0.00     0.002 A 
ATOM     89  C   UNL A   1      45.363  27.241  37.018  1.00  0.00     0.091 A 
ATOM     90  F   UNL A   1      43.065  27.096  36.393  1.00  0.00    -0.205 F 
ATOM     91  C   UNL A   1      46.630  27.810  36.816  1.00  0.00     0.022 A 
BRANCH  89  92
ATOM     92  S   UNL A   1      45.201  26.051  38.356  1.00  0.00     0.127 S 
ATOM     93  O   UNL A   1      44.347  26.774  39.297  1.00  0.00    -0.237 OA
ATOM     94  O   UNL A   1      44.553  24.919  37.691  1.00  0.00    -0.237 OA
ATOM     95  O   UNL A   1      46.556  25.782  38.818  1.00  0.00    -0.744 OA
ENDBRANCH  89  92
ENDBRANCH  62  85
ENDBRANCH  36  37
ENDBRANCH  28  31
ENDBRANCH  26  27
ENDBRANCH  25  26
ENDBRANCH   1  25
TORSDOF 18
ENDMDL
