MODEL 1
REMARK VINA RESULT:     -12.1      0.000      0.000
REMARK SMILES CC(=O)OCC1=C(C(=O)NCCCCCCNC(=O)c2ccc(-c3c4nc(c(-c5cccc(S(=O)(=O)[O-])c5F)c5ccc([nH]5)c(-c5cccc(S(=O)(=O)[O-])c5F)c5nc(c(-c6cccc(S(=O)(=O)[O-])c6F)c6ccc3[nH]6)C=C5)C=C4)cc2)N2C(=O)[C@H](NC(=O)c3c(C)nn(C(F)F)c3C)[C@@H]2SC1
REMARK SMILES IDX 13 1 12 2 11 3 10 4 8 5 9 6 7 8 6 9 102 10 83 11 101 12
REMARK SMILES IDX 84 13 100 14 85 15 86 16 5 17 4 18 2 19 1 20 3 21 87 22
REMARK SMILES IDX 88 23 89 25 90 26 91 27 98 28 92 29 93 30 94 31 99 32 95 33
REMARK SMILES IDX 96 34 97 35 14 36 15 37 16 38 17 39 18 40 19 42 20 43 21 44
REMARK SMILES IDX 82 45 22 46 81 47 23 48 24 49 25 50 75 51 26 52 80 53 74 54
REMARK SMILES IDX 76 55 27 56 79 57 73 58 72 59 28 61 60 62 40 63 59 64 41 65
REMARK SMILES IDX 44 66 58 67 77 68 42 69 43 70 57 72 78 73 45 74 29 75 30 76
REMARK SMILES IDX 38 77 31 78 33 79 39 80 32 81 34 82 35 83 36 84 37 85 61 86
REMARK SMILES IDX 62 87 70 88 63 89 65 90 71 91 64 92 66 93 67 94 68 95 69 96
REMARK SMILES IDX 46 97 47 98 55 99 48 100 50 101 56 102 49 103 51 104 52 105
REMARK SMILES IDX 53 106 54 107
REMARK H PARENT 10 7 87 24 17 41 76 60 44 71
REMARK Flexibility Score: inf
ROOT
ATOM      1  C   UNL A   1      32.105  29.936  27.195  1.00  0.00     0.002 C 
ENDROOT
BRANCH   1   2
ATOM      2  C   UNL A   1      32.618  28.623  26.598  1.00  0.00     0.021 C 
BRANCH   2   3
ATOM      3  C   UNL A   1      34.060  28.705  26.068  1.00  0.00     0.116 C 
BRANCH   3   4
ATOM      4  N   UNL A   1      34.020  29.036  24.661  1.00  0.00    -0.351 N 
ATOM      5  C   UNL A   1      33.384  28.568  23.570  1.00  0.00     0.268 C 
ATOM      6  O   UNL A   1      33.872  28.935  22.489  1.00  0.00    -0.268 OA
ATOM      7  H   UNL A   1      34.609  29.796  24.446  1.00  0.00     0.163 HD
BRANCH   5   8
ATOM      8  C   UNL A   1      32.150  27.680  23.496  1.00  0.00     0.114 C 
ATOM      9  C   UNL A   1      30.838  27.987  23.290  1.00  0.00     0.007 C 
ATOM     10  C   UNL A   1      29.696  26.986  23.452  1.00  0.00     0.108 C 
ATOM     11  N   UNL A   1      32.445  26.402  23.894  1.00  0.00    -0.290 N 
ATOM     12  S   UNL A   1      30.133  25.248  23.645  1.00  0.00    -0.129 SA
ATOM     13  C   UNL A   1      33.497  25.563  23.883  1.00  0.00     0.253 C 
ATOM     14  C   UNL A   1      31.564  25.594  24.687  1.00  0.00     0.181 C 
ATOM     15  O   UNL A   1      34.588  25.604  23.345  1.00  0.00    -0.272 OA
ATOM     16  C   UNL A   1      32.690  24.513  24.716  1.00  0.00     0.206 C 
BRANCH   9  17
ATOM     17  C   UNL A   1      30.335  29.357  22.884  1.00  0.00     0.267 C 
BRANCH  17  18
ATOM     18  O   UNL A   1      29.273  29.876  23.711  1.00  0.00    -0.461 OA
BRANCH  18  19
ATOM     19  C   UNL A   1      28.193  30.371  23.029  1.00  0.00     0.302 C 
ATOM     20  C   UNL A   1      28.433  30.380  21.552  1.00  0.00     0.139 C 
ATOM     21  O   UNL A   1      27.161  30.762  23.557  1.00  0.00    -0.253 OA
ENDBRANCH  18  19
ENDBRANCH  17  18
ENDBRANCH   9  17
BRANCH  16  22
ATOM     22  N   UNL A   1      32.377  23.227  24.042  1.00  0.00    -0.337 N 
ATOM     23  C   UNL A   1      33.076  22.046  24.060  1.00  0.00     0.255 C 
ATOM     24  H   UNL A   1      31.552  23.222  23.506  1.00  0.00     0.164 HD
ATOM     25  O   UNL A   1      32.648  21.086  23.426  1.00  0.00    -0.269 OA
BRANCH  23  26
ATOM     26  C   UNL A   1      34.346  21.996  24.761  1.00  0.00     0.083 A 
ATOM     27  C   UNL A   1      34.520  21.796  26.157  1.00  0.00     0.073 A 
ATOM     28  C   UNL A   1      35.630  22.247  24.289  1.00  0.00     0.054 A 
ATOM     29  C   UNL A   1      33.480  21.627  27.205  1.00  0.00     0.069 C 
ATOM     30  N   UNL A   1      35.810  21.759  26.503  1.00  0.00    -0.172 NA
ATOM     31  N   UNL A   1      36.478  21.995  25.350  1.00  0.00    -0.208 N 
ATOM     32  C   UNL A   1      36.118  22.743  22.978  1.00  0.00     0.067 C 
BRANCH  31  33
ATOM     33  C   UNL A   1      37.943  21.969  25.335  1.00  0.00     0.465 C 
ATOM     34  F   UNL A   1      38.474  22.418  26.504  1.00  0.00    -0.184 F 
ATOM     35  F   UNL A   1      38.431  20.715  25.128  1.00  0.00    -0.184 F 
ENDBRANCH  31  33
ENDBRANCH  23  26
ENDBRANCH  16  22
ENDBRANCH   5   8
ENDBRANCH   3   4
ENDBRANCH   2   3
ENDBRANCH   1   2
BRANCH   1  36
ATOM     36  C   UNL A   1      31.367  30.825  26.190  1.00  0.00     0.002 C 
BRANCH  36  37
ATOM     37  C   UNL A   1      31.411  32.327  26.495  1.00  0.00     0.021 C 
BRANCH  37  38
ATOM     38  C   UNL A   1      32.714  32.818  27.124  1.00  0.00     0.116 C 
BRANCH  38  39
ATOM     39  N   UNL A   1      32.571  34.153  27.686  1.00  0.00    -0.352 N 
ATOM     40  C   UNL A   1      33.184  34.708  28.782  1.00  0.00     0.251 C 
ATOM     41  H   UNL A   1      31.943  34.745  27.212  1.00  0.00     0.163 HD
ATOM     42  O   UNL A   1      32.751  35.752  29.263  1.00  0.00    -0.269 OA
BRANCH  40  43
ATOM     43  C   UNL A   1      34.364  34.050  29.382  1.00  0.00     0.039 A 
ATOM     44  C   UNL A   1      35.643  34.489  29.029  1.00  0.00     0.014 A 
ATOM     45  C   UNL A   1      34.207  32.982  30.270  1.00  0.00     0.014 A 
ATOM     46  C   UNL A   1      36.764  33.894  29.611  1.00  0.00     0.010 A 
ATOM     47  C   UNL A   1      35.322  32.434  30.897  1.00  0.00     0.010 A 
ATOM     48  C   UNL A   1      36.611  32.880  30.571  1.00  0.00    -0.014 A 
BRANCH  48  49
ATOM     49  C   UNL A   1      37.783  32.287  31.265  1.00  0.00     0.031 A 
ATOM     50  C   UNL A   1      38.529  31.136  30.646  1.00  0.00     0.074 A 
ATOM     51  C   UNL A   1      38.109  32.717  32.499  1.00  0.00     0.049 A 
ATOM     52  N   UNL A   1      39.518  30.436  31.138  1.00  0.00    -0.248 NA
ATOM     53  C   UNL A   1      38.088  30.695  29.312  1.00  0.00     0.031 C 
ATOM     54  C   UNL A   1      37.412  33.772  33.238  1.00  0.00     0.029 A 
ATOM     55  N   UNL A   1      39.088  32.299  33.364  1.00  0.00    -0.354 N 
ATOM     56  C   UNL A   1      39.794  29.453  30.195  1.00  0.00     0.074 A 
ATOM     57  C   UNL A   1      38.848  29.628  29.115  1.00  0.00     0.031 C 
ATOM     58  C   UNL A   1      37.981  33.915  34.445  1.00  0.00     0.029 A 
ATOM     59  C   UNL A   1      39.063  32.944  34.578  1.00  0.00     0.049 A 
ATOM     60  H   UNL A   1      39.747  31.602  33.138  1.00  0.00     0.167 HD
ATOM     61  C   UNL A   1      40.765  28.508  30.213  1.00  0.00     0.034 A 
ATOM     62  C   UNL A   1      39.819  32.768  35.680  1.00  0.00     0.034 A 
ATOM     63  C   UNL A   1      41.732  28.368  31.267  1.00  0.00     0.049 A 
ATOM     64  C   UNL A   1      40.915  31.738  35.658  1.00  0.00     0.074 A 
ATOM     65  C   UNL A   1      42.815  27.508  31.332  1.00  0.00     0.029 A 
ATOM     66  N   UNL A   1      41.733  29.102  32.444  1.00  0.00    -0.354 N 
ATOM     67  N   UNL A   1      41.265  30.927  34.690  1.00  0.00    -0.248 NA
ATOM     68  C   UNL A   1      41.742  31.621  36.869  1.00  0.00     0.031 C 
ATOM     69  C   UNL A   1      43.458  27.707  32.560  1.00  0.00     0.029 A 
ATOM     70  C   UNL A   1      42.787  28.704  33.249  1.00  0.00     0.049 A 
ATOM     71  H   UNL A   1      41.080  29.800  32.674  1.00  0.00     0.167 HD
ATOM     72  C   UNL A   1      42.369  30.225  35.161  1.00  0.00     0.074 A 
ATOM     73  C   UNL A   1      42.644  30.725  36.492  1.00  0.00     0.031 C 
ATOM     74  C   UNL A   1      43.078  29.242  34.553  1.00  0.00     0.034 A 
BRANCH  61  75
ATOM     75  C   UNL A   1      40.864  27.585  29.028  1.00  0.00     0.023 A 
ATOM     76  C   UNL A   1      40.010  26.465  28.948  1.00  0.00     0.012 A 
ATOM     77  C   UNL A   1      41.752  27.852  27.968  1.00  0.00     0.148 A 
ATOM     78  C   UNL A   1      40.061  25.609  27.849  1.00  0.00     0.002 A 
ATOM     79  C   UNL A   1      41.768  27.018  26.856  1.00  0.00     0.091 A 
ATOM     80  F   UNL A   1      42.573  28.907  28.071  1.00  0.00    -0.205 F 
ATOM     81  C   UNL A   1      40.931  25.890  26.799  1.00  0.00     0.022 A 
BRANCH  79  82
ATOM     82  S   UNL A   1      42.800  27.336  25.420  1.00  0.00     0.127 S 
ATOM     83  O   UNL A   1      42.667  26.083  24.678  1.00  0.00    -0.237 OA
ATOM     84  O   UNL A   1      42.130  28.482  24.805  1.00  0.00    -0.237 OA
ATOM     85  O   UNL A   1      44.131  27.617  25.938  1.00  0.00    -0.744 OA
ENDBRANCH  79  82
ENDBRANCH  61  75
BRANCH  62  86
ATOM     86  C   UNL A   1      39.600  33.630  36.875  1.00  0.00     0.023 A 
ATOM     87  C   UNL A   1      40.023  34.972  36.846  1.00  0.00     0.012 A 
ATOM     88  C   UNL A   1      38.945  33.139  38.021  1.00  0.00     0.148 A 
ATOM     89  C   UNL A   1      39.823  35.805  37.947  1.00  0.00     0.002 A 
ATOM     90  C   UNL A   1      38.699  33.989  39.094  1.00  0.00     0.091 A 
ATOM     91  F   UNL A   1      38.563  31.855  38.035  1.00  0.00    -0.205 F 
ATOM     92  C   UNL A   1      39.152  35.317  39.066  1.00  0.00     0.022 A 
BRANCH  90  93
ATOM     93  S   UNL A   1      37.726  33.482  40.515  1.00  0.00     0.127 S 
ATOM     94  O   UNL A   1      38.585  32.469  41.120  1.00  0.00    -0.237 OA
ATOM     95  O   UNL A   1      37.619  34.732  41.270  1.00  0.00    -0.237 OA
ATOM     96  O   UNL A   1      36.462  33.001  39.972  1.00  0.00    -0.744 OA
ENDBRANCH  90  93
ENDBRANCH  62  86
BRANCH  74  97
ATOM     97  C   UNL A   1      44.236  28.650  35.312  1.00  0.00     0.023 A 
ATOM     98  C   UNL A   1      45.529  29.180  35.136  1.00  0.00     0.012 A 
ATOM     99  C   UNL A   1      44.033  27.618  36.251  1.00  0.00     0.148 A 
ATOM    100  C   UNL A   1      46.609  28.673  35.858  1.00  0.00     0.002 A 
ATOM    101  C   UNL A   1      45.105  27.150  37.001  1.00  0.00     0.091 A 
ATOM    102  F   UNL A   1      42.798  27.114  36.390  1.00  0.00    -0.205 F 
ATOM    103  C   UNL A   1      46.395  27.668  36.798  1.00  0.00     0.022 A 
BRANCH 101 104
ATOM    104  S   UNL A   1      44.907  25.925  38.300  1.00  0.00     0.127 S 
ATOM    105  O   UNL A   1      46.288  25.728  38.736  1.00  0.00    -0.237 OA
ATOM    106  O   UNL A   1      44.057  26.626  39.263  1.00  0.00    -0.237 OA
ATOM    107  O   UNL A   1      44.279  24.771  37.669  1.00  0.00    -0.744 OA
ENDBRANCH 101 104
ENDBRANCH  74  97
ENDBRANCH  48  49
ENDBRANCH  40  43
ENDBRANCH  38  39
ENDBRANCH  37  38
ENDBRANCH  36  37
ENDBRANCH   1  36
TORSDOF 22
ENDMDL
MODEL 2
REMARK VINA RESULT:     -11.1      1.979      7.474
REMARK SMILES CC(=O)OCC1=C(C(=O)NCCCCCCNC(=O)c2ccc(-c3c4nc(c(-c5cccc(S(=O)(=O)[O-])c5F)c5ccc([nH]5)c(-c5cccc(S(=O)(=O)[O-])c5F)c5nc(c(-c6cccc(S(=O)(=O)[O-])c6F)c6ccc3[nH]6)C=C5)C=C4)cc2)N2C(=O)[C@H](NC(=O)c3c(C)nn(C(F)F)c3C)[C@@H]2SC1
REMARK SMILES IDX 13 1 12 2 11 3 10 4 8 5 9 6 7 8 6 9 102 10 83 11 101 12
REMARK SMILES IDX 84 13 100 14 85 15 86 16 5 17 4 18 2 19 1 20 3 21 87 22
REMARK SMILES IDX 88 23 89 25 90 26 91 27 98 28 92 29 93 30 94 31 99 32 95 33
REMARK SMILES IDX 96 34 97 35 14 36 15 37 16 38 17 39 18 40 19 42 20 43 21 44
REMARK SMILES IDX 82 45 22 46 81 47 23 48 24 49 25 50 75 51 26 52 80 53 74 54
REMARK SMILES IDX 76 55 27 56 79 57 73 58 72 59 28 61 60 62 40 63 59 64 41 65
REMARK SMILES IDX 44 66 58 67 77 68 42 69 43 70 57 72 78 73 45 74 29 75 30 76
REMARK SMILES IDX 38 77 31 78 33 79 39 80 32 81 34 82 35 83 36 84 37 85 61 86
REMARK SMILES IDX 62 87 70 88 63 89 65 90 71 91 64 92 66 93 67 94 68 95 69 96
REMARK SMILES IDX 46 97 47 98 55 99 48 100 50 101 56 102 49 103 51 104 52 105
REMARK SMILES IDX 53 106 54 107
REMARK H PARENT 10 7 87 24 17 41 76 60 44 71
REMARK Flexibility Score: inf
ROOT
ATOM      1  C   UNL A   1      33.449  28.979  25.555  1.00  0.00     0.002 C 
ENDROOT
BRANCH   1   2
ATOM      2  C   UNL A   1      33.997  28.184  24.367  1.00  0.00     0.021 C 
BRANCH   2   3
ATOM      3  C   UNL A   1      33.880  28.919  23.021  1.00  0.00     0.116 C 
BRANCH   3   4
ATOM      4  N   UNL A   1      33.516  27.964  21.999  1.00  0.00    -0.351 N 
ATOM      5  C   UNL A   1      32.744  26.863  21.929  1.00  0.00     0.268 C 
ATOM      6  O   UNL A   1      32.952  26.147  20.936  1.00  0.00    -0.268 OA
ATOM      7  H   UNL A   1      33.942  28.170  21.136  1.00  0.00     0.163 HD
BRANCH   5   8
ATOM      8  C   UNL A   1      31.651  26.405  22.884  1.00  0.00     0.114 C 
ATOM      9  C   UNL A   1      30.476  26.993  23.248  1.00  0.00     0.007 C 
ATOM     10  C   UNL A   1      29.589  26.487  24.384  1.00  0.00     0.108 C 
ATOM     11  N   UNL A   1      32.058  25.311  23.603  1.00  0.00    -0.290 N 
ATOM     12  S   UNL A   1      29.972  24.871  25.084  1.00  0.00    -0.129 SA
ATOM     13  C   UNL A   1      32.870  24.250  23.444  1.00  0.00     0.253 C 
ATOM     14  C   UNL A   1      31.756  25.115  24.992  1.00  0.00     0.181 C 
ATOM     15  O   UNL A   1      33.453  23.785  22.482  1.00  0.00    -0.272 OA
ATOM     16  C   UNL A   1      32.640  23.829  24.934  1.00  0.00     0.206 C 
BRANCH   9  17
ATOM     17  C   UNL A   1      29.898  28.227  22.586  1.00  0.00     0.267 C 
BRANCH  17  18
ATOM     18  O   UNL A   1      28.490  28.434  22.829  1.00  0.00    -0.461 OA
BRANCH  18  19
ATOM     19  C   UNL A   1      28.057  29.723  22.670  1.00  0.00     0.302 C 
ATOM     20  C   UNL A   1      28.736  30.394  21.518  1.00  0.00     0.139 C 
ATOM     21  O   UNL A   1      27.221  30.265  23.381  1.00  0.00    -0.253 OA
ENDBRANCH  18  19
ENDBRANCH  17  18
ENDBRANCH   9  17
BRANCH  16  22
ATOM     22  N   UNL A   1      31.935  22.543  25.161  1.00  0.00    -0.337 N 
ATOM     23  C   UNL A   1      32.458  21.295  25.390  1.00  0.00     0.255 C 
ATOM     24  H   UNL A   1      30.952  22.592  25.143  1.00  0.00     0.164 HD
ATOM     25  O   UNL A   1      31.698  20.345  25.552  1.00  0.00    -0.269 OA
BRANCH  23  26
ATOM     26  C   UNL A   1      33.900  21.124  25.350  1.00  0.00     0.083 A 
ATOM     27  C   UNL A   1      34.591  20.001  24.820  1.00  0.00     0.073 A 
ATOM     28  C   UNL A   1      34.902  21.913  25.905  1.00  0.00     0.054 A 
ATOM     29  C   UNL A   1      34.026  18.760  24.229  1.00  0.00     0.069 C 
ATOM     30  N   UNL A   1      35.917  20.150  24.889  1.00  0.00    -0.172 NA
ATOM     31  N   UNL A   1      36.095  21.335  25.515  1.00  0.00    -0.208 N 
ATOM     32  C   UNL A   1      34.842  23.100  26.794  1.00  0.00     0.067 C 
BRANCH  31  33
ATOM     33  C   UNL A   1      37.448  21.861  25.715  1.00  0.00     0.465 C 
ATOM     34  F   UNL A   1      38.402  20.994  25.284  1.00  0.00    -0.184 F 
ATOM     35  F   UNL A   1      37.643  23.035  25.052  1.00  0.00    -0.184 F 
ENDBRANCH  31  33
ENDBRANCH  23  26
ENDBRANCH  16  22
ENDBRANCH   5   8
ENDBRANCH   3   4
ENDBRANCH   2   3
ENDBRANCH   1   2
BRANCH   1  36
ATOM     36  C   UNL A   1      32.073  29.600  25.301  1.00  0.00     0.002 C 
BRANCH  36  37
ATOM     37  C   UNL A   1      31.738  30.817  26.171  1.00  0.00     0.021 C 
BRANCH  37  38
ATOM     38  C   UNL A   1      32.804  31.184  27.202  1.00  0.00     0.116 C 
BRANCH  38  39
ATOM     39  N   UNL A   1      33.098  32.610  27.189  1.00  0.00    -0.352 N 
ATOM     40  C   UNL A   1      34.104  33.298  27.821  1.00  0.00     0.251 C 
ATOM     41  H   UNL A   1      32.486  33.161  26.650  1.00  0.00     0.163 HD
ATOM     42  O   UNL A   1      34.046  34.522  27.911  1.00  0.00    -0.269 OA
BRANCH  40  43
ATOM     43  C   UNL A   1      35.256  32.568  28.389  1.00  0.00     0.039 A 
ATOM     44  C   UNL A   1      36.509  33.186  28.418  1.00  0.00     0.014 A 
ATOM     45  C   UNL A   1      35.104  31.263  28.867  1.00  0.00     0.014 A 
ATOM     46  C   UNL A   1      37.599  32.516  28.979  1.00  0.00     0.010 A 
ATOM     47  C   UNL A   1      36.176  30.623  29.484  1.00  0.00     0.010 A 
ATOM     48  C   UNL A   1      37.434  31.240  29.542  1.00  0.00    -0.014 A 
BRANCH  48  49
ATOM     49  C   UNL A   1      38.557  30.539  30.216  1.00  0.00     0.031 A 
ATOM     50  C   UNL A   1      38.953  30.913  31.618  1.00  0.00     0.074 A 
ATOM     51  C   UNL A   1      39.285  29.639  29.526  1.00  0.00     0.049 A 
ATOM     52  N   UNL A   1      39.955  30.476  32.335  1.00  0.00    -0.248 NA
ATOM     53  C   UNL A   1      38.135  31.936  32.292  1.00  0.00     0.031 C 
ATOM     54  C   UNL A   1      39.048  29.250  28.134  1.00  0.00     0.029 A 
ATOM     55  N   UNL A   1      40.390  28.913  29.890  1.00  0.00    -0.354 N 
ATOM     56  C   UNL A   1      39.911  31.189  33.527  1.00  0.00     0.074 A 
ATOM     57  C   UNL A   1      38.801  32.111  33.425  1.00  0.00     0.031 C 
ATOM     58  C   UNL A   1      39.981  28.361  27.761  1.00  0.00     0.029 A 
ATOM     59  C   UNL A   1      40.900  28.139  28.874  1.00  0.00     0.049 A 
ATOM     60  H   UNL A   1      40.782  28.943  30.793  1.00  0.00     0.167 HD
ATOM     61  C   UNL A   1      40.703  31.068  34.619  1.00  0.00     0.034 A 
ATOM     62  C   UNL A   1      41.989  27.347  28.837  1.00  0.00     0.034 A 
ATOM     63  C   UNL A   1      41.776  30.118  34.734  1.00  0.00     0.049 A 
ATOM     64  C   UNL A   1      42.830  27.202  30.077  1.00  0.00     0.074 A 
ATOM     65  C   UNL A   1      42.573  29.849  35.833  1.00  0.00     0.029 A 
ATOM     66  N   UNL A   1      42.207  29.283  33.714  1.00  0.00    -0.354 N 
ATOM     67  N   UNL A   1      42.672  27.765  31.250  1.00  0.00    -0.248 NA
ATOM     68  C   UNL A   1      43.978  26.287  29.998  1.00  0.00     0.031 C 
ATOM     69  C   UNL A   1      43.502  28.867  35.470  1.00  0.00     0.029 A 
ATOM     70  C   UNL A   1      43.269  28.509  34.152  1.00  0.00     0.049 A 
ATOM     71  H   UNL A   1      41.817  29.247  32.812  1.00  0.00     0.167 HD
ATOM     72  C   UNL A   1      43.682  27.252  32.056  1.00  0.00     0.074 A 
ATOM     73  C   UNL A   1      44.429  26.314  31.244  1.00  0.00     0.031 C 
ATOM     74  C   UNL A   1      43.975  27.546  33.347  1.00  0.00     0.034 A 
BRANCH  61  75
ATOM     75  C   UNL A   1      40.404  31.951  35.802  1.00  0.00     0.023 A 
ATOM     76  C   UNL A   1      41.255  33.040  36.087  1.00  0.00     0.012 A 
ATOM     77  C   UNL A   1      39.256  31.747  36.592  1.00  0.00     0.148 A 
ATOM     78  C   UNL A   1      40.987  33.889  37.159  1.00  0.00     0.002 A 
ATOM     79  C   UNL A   1      38.972  32.623  37.633  1.00  0.00     0.091 A 
ATOM     80  F   UNL A   1      38.471  30.694  36.320  1.00  0.00    -0.205 F 
ATOM     81  C   UNL A   1      39.842  33.689  37.925  1.00  0.00     0.022 A 
BRANCH  79  82
ATOM     82  S   UNL A   1      37.484  32.493  38.630  1.00  0.00     0.127 S 
ATOM     83  O   UNL A   1      37.527  31.091  39.043  1.00  0.00    -0.237 OA
ATOM     84  O   UNL A   1      37.746  33.453  39.703  1.00  0.00    -0.237 OA
ATOM     85  O   UNL A   1      36.380  32.853  37.751  1.00  0.00    -0.744 OA
ENDBRANCH  79  82
ENDBRANCH  61  75
BRANCH  62  86
ATOM     86  C   UNL A   1      42.311  26.585  27.598  1.00  0.00     0.023 A 
ATOM     87  C   UNL A   1      42.929  27.246  26.521  1.00  0.00     0.012 A 
ATOM     88  C   UNL A   1      42.043  25.206  27.497  1.00  0.00     0.148 A 
ATOM     89  C   UNL A   1      43.250  26.555  25.352  1.00  0.00     0.002 A 
ATOM     90  C   UNL A   1      42.416  24.512  26.352  1.00  0.00     0.091 A 
ATOM     91  F   UNL A   1      41.442  24.598  28.529  1.00  0.00    -0.205 F 
ATOM     92  C   UNL A   1      43.004  25.187  25.272  1.00  0.00     0.022 A 
BRANCH  90  93
ATOM     93  S   UNL A   1      42.259  22.728  26.219  1.00  0.00     0.127 S 
ATOM     94  O   UNL A   1      43.084  22.271  27.334  1.00  0.00    -0.237 OA
ATOM     95  O   UNL A   1      40.818  22.537  26.399  1.00  0.00    -0.237 OA
ATOM     96  O   UNL A   1      42.745  22.390  24.888  1.00  0.00    -0.744 OA
ENDBRANCH  90  93
ENDBRANCH  62  86
BRANCH  74  97
ATOM     97  C   UNL A   1      45.144  26.833  33.975  1.00  0.00     0.023 A 
ATOM     98  C   UNL A   1      46.427  27.411  33.913  1.00  0.00     0.012 A 
ATOM     99  C   UNL A   1      44.960  25.629  34.684  1.00  0.00     0.148 A 
ATOM    100  C   UNL A   1      47.516  26.788  34.522  1.00  0.00     0.002 A 
ATOM    101  C   UNL A   1      46.041  25.038  35.328  1.00  0.00     0.091 A 
ATOM    102  F   UNL A   1      43.735  25.085  34.714  1.00  0.00    -0.205 F 
ATOM    103  C   UNL A   1      47.321  25.610  35.239  1.00  0.00     0.022 A 
BRANCH 101 104
ATOM    104  S   UNL A   1      45.866  23.572  36.351  1.00  0.00     0.127 S 
ATOM    105  O   UNL A   1      45.019  24.065  37.435  1.00  0.00    -0.237 OA
ATOM    106  O   UNL A   1      45.209  22.634  35.441  1.00  0.00    -0.237 OA
ATOM    107  O   UNL A   1      47.218  23.190  36.737  1.00  0.00    -0.744 OA
ENDBRANCH 101 104
ENDBRANCH  74  97
ENDBRANCH  48  49
ENDBRANCH  40  43
ENDBRANCH  38  39
ENDBRANCH  37  38
ENDBRANCH  36  37
ENDBRANCH   1  36
TORSDOF 22
ENDMDL
MODEL 3
REMARK VINA RESULT:     -10.7      1.921      2.403
REMARK SMILES CC(=O)OCC1=C(C(=O)NCCCCCCNC(=O)c2ccc(-c3c4nc(c(-c5cccc(S(=O)(=O)[O-])c5F)c5ccc([nH]5)c(-c5cccc(S(=O)(=O)[O-])c5F)c5nc(c(-c6cccc(S(=O)(=O)[O-])c6F)c6ccc3[nH]6)C=C5)C=C4)cc2)N2C(=O)[C@H](NC(=O)c3c(C)nn(C(F)F)c3C)[C@@H]2SC1
REMARK SMILES IDX 13 1 12 2 11 3 10 4 8 5 9 6 7 8 6 9 102 10 83 11 101 12
REMARK SMILES IDX 84 13 100 14 85 15 86 16 5 17 4 18 2 19 1 20 3 21 87 22
REMARK SMILES IDX 88 23 89 25 90 26 91 27 98 28 92 29 93 30 94 31 99 32 95 33
REMARK SMILES IDX 96 34 97 35 14 36 15 37 16 38 17 39 18 40 19 42 20 43 21 44
REMARK SMILES IDX 82 45 22 46 81 47 23 48 24 49 25 50 75 51 26 52 80 53 74 54
REMARK SMILES IDX 76 55 27 56 79 57 73 58 72 59 28 61 60 62 40 63 59 64 41 65
REMARK SMILES IDX 44 66 58 67 77 68 42 69 43 70 57 72 78 73 45 74 29 75 30 76
REMARK SMILES IDX 38 77 31 78 33 79 39 80 32 81 34 82 35 83 36 84 37 85 61 86
REMARK SMILES IDX 62 87 70 88 63 89 65 90 71 91 64 92 66 93 67 94 68 95 69 96
REMARK SMILES IDX 46 97 47 98 55 99 48 100 50 101 56 102 49 103 51 104 52 105
REMARK SMILES IDX 53 106 54 107
REMARK H PARENT 10 7 87 24 17 41 76 60 44 71
REMARK Flexibility Score: inf
ROOT
ATOM      1  C   UNL A   1      33.191  28.643  25.040  1.00  0.00     0.002 C 
ENDROOT
BRANCH   1   2
ATOM      2  C   UNL A   1      33.435  28.987  23.568  1.00  0.00     0.021 C 
BRANCH   2   3
ATOM      3  C   UNL A   1      34.164  27.882  22.786  1.00  0.00     0.116 C 
BRANCH   3   4
ATOM      4  N   UNL A   1      33.252  27.318  21.816  1.00  0.00    -0.351 N 
ATOM      5  C   UNL A   1      32.250  26.418  21.834  1.00  0.00     0.268 C 
ATOM      6  O   UNL A   1      31.928  25.981  20.718  1.00  0.00    -0.268 OA
ATOM      7  H   UNL A   1      33.403  27.683  20.914  1.00  0.00     0.163 HD
BRANCH   5   8
ATOM      8  C   UNL A   1      31.460  25.896  23.026  1.00  0.00     0.114 C 
ATOM      9  C   UNL A   1      30.450  26.462  23.746  1.00  0.00     0.007 C 
ATOM     10  C   UNL A   1      29.908  25.878  25.050  1.00  0.00     0.108 C 
ATOM     11  N   UNL A   1      32.028  24.753  23.524  1.00  0.00    -0.290 N 
ATOM     12  S   UNL A   1      30.435  24.215  25.502  1.00  0.00    -0.129 SA
ATOM     13  C   UNL A   1      32.737  23.703  23.070  1.00  0.00     0.253 C 
ATOM     14  C   UNL A   1      32.126  24.459  24.925  1.00  0.00     0.181 C 
ATOM     15  O   UNL A   1      33.014  23.306  21.953  1.00  0.00    -0.272 OA
ATOM     16  C   UNL A   1      32.927  23.177  24.532  1.00  0.00     0.206 C 
BRANCH   9  17
ATOM     17  C   UNL A   1      29.738  27.741  23.361  1.00  0.00     0.267 C 
BRANCH  17  18
ATOM     18  O   UNL A   1      28.298  27.669  23.425  1.00  0.00    -0.461 OA
BRANCH  18  19
ATOM     19  C   UNL A   1      27.646  28.848  23.180  1.00  0.00     0.302 C 
ATOM     20  C   UNL A   1      28.607  29.980  22.991  1.00  0.00     0.139 C 
ATOM     21  O   UNL A   1      26.429  28.968  23.126  1.00  0.00    -0.253 OA
ENDBRANCH  18  19
ENDBRANCH  17  18
ENDBRANCH   9  17
BRANCH  16  22
ATOM     22  N   UNL A   1      32.284  21.880  24.861  1.00  0.00    -0.337 N 
ATOM     23  C   UNL A   1      32.865  20.690  25.220  1.00  0.00     0.255 C 
ATOM     24  H   UNL A   1      31.301  21.873  24.815  1.00  0.00     0.164 HD
ATOM     25  O   UNL A   1      32.151  19.719  25.452  1.00  0.00    -0.269 OA
BRANCH  23  26
ATOM     26  C   UNL A   1      34.314  20.596  25.232  1.00  0.00     0.083 A 
ATOM     27  C   UNL A   1      35.081  19.488  24.779  1.00  0.00     0.073 A 
ATOM     28  C   UNL A   1      35.255  21.464  25.777  1.00  0.00     0.054 A 
ATOM     29  C   UNL A   1      34.602  18.191  24.234  1.00  0.00     0.069 C 
ATOM     30  N   UNL A   1      36.395  19.712  24.881  1.00  0.00    -0.172 NA
ATOM     31  N   UNL A   1      36.489  20.934  25.452  1.00  0.00    -0.208 N 
ATOM     32  C   UNL A   1      35.103  22.687  26.604  1.00  0.00     0.067 C 
BRANCH  31  33
ATOM     33  C   UNL A   1      37.805  21.542  25.666  1.00  0.00     0.465 C 
ATOM     34  F   UNL A   1      38.811  20.634  25.557  1.00  0.00    -0.184 F 
ATOM     35  F   UNL A   1      38.061  22.536  24.771  1.00  0.00    -0.184 F 
ENDBRANCH  31  33
ENDBRANCH  23  26
ENDBRANCH  16  22
ENDBRANCH   5   8
ENDBRANCH   3   4
ENDBRANCH   2   3
ENDBRANCH   1   2
BRANCH   1  36
ATOM     36  C   UNL A   1      31.865  29.176  25.589  1.00  0.00     0.002 C 
BRANCH  36  37
ATOM     37  C   UNL A   1      31.853  30.673  25.920  1.00  0.00     0.021 C 
BRANCH  37  38
ATOM     38  C   UNL A   1      32.727  31.076  27.106  1.00  0.00     0.116 C 
BRANCH  38  39
ATOM     39  N   UNL A   1      32.804  32.523  27.251  1.00  0.00    -0.352 N 
ATOM     40  C   UNL A   1      33.655  33.277  28.021  1.00  0.00     0.251 C 
ATOM     41  H   UNL A   1      32.151  33.034  26.721  1.00  0.00     0.163 HD
ATOM     42  O   UNL A   1      33.408  34.464  28.221  1.00  0.00    -0.269 OA
BRANCH  40  43
ATOM     43  C   UNL A   1      34.866  32.663  28.604  1.00  0.00     0.039 A 
ATOM     44  C   UNL A   1      36.106  32.893  28.001  1.00  0.00     0.014 A 
ATOM     45  C   UNL A   1      34.773  31.839  29.729  1.00  0.00     0.014 A 
ATOM     46  C   UNL A   1      37.260  32.341  28.561  1.00  0.00     0.010 A 
ATOM     47  C   UNL A   1      35.931  31.344  30.322  1.00  0.00     0.010 A 
ATOM     48  C   UNL A   1      37.185  31.586  29.742  1.00  0.00    -0.014 A 
BRANCH  48  49
ATOM     49  C   UNL A   1      38.406  31.056  30.402  1.00  0.00     0.031 A 
ATOM     50  C   UNL A   1      39.241  30.005  29.723  1.00  0.00     0.074 A 
ATOM     51  C   UNL A   1      38.702  31.447  31.657  1.00  0.00     0.049 A 
ATOM     52  N   UNL A   1      40.286  29.364  30.176  1.00  0.00    -0.248 NA
ATOM     53  C   UNL A   1      38.830  29.598  28.369  1.00  0.00     0.031 C 
ATOM     54  C   UNL A   1      37.924  32.401  32.451  1.00  0.00     0.029 A 
ATOM     55  N   UNL A   1      39.717  31.066  32.498  1.00  0.00    -0.354 N 
ATOM     56  C   UNL A   1      40.638  28.457  29.183  1.00  0.00     0.074 A 
ATOM     57  C   UNL A   1      39.675  28.609  28.115  1.00  0.00     0.031 C 
ATOM     58  C   UNL A   1      38.487  32.527  33.662  1.00  0.00     0.029 A 
ATOM     59  C   UNL A   1      39.646  31.643  33.744  1.00  0.00     0.049 A 
ATOM     60  H   UNL A   1      40.429  30.439  32.234  1.00  0.00     0.167 HD
ATOM     61  C   UNL A   1      41.683  27.596  29.151  1.00  0.00     0.034 A 
ATOM     62  C   UNL A   1      40.419  31.473  34.834  1.00  0.00     0.034 A 
ATOM     63  C   UNL A   1      42.665  27.482  30.195  1.00  0.00     0.049 A 
ATOM     64  C   UNL A   1      41.596  30.540  34.757  1.00  0.00     0.074 A 
ATOM     65  C   UNL A   1      43.815  26.712  30.214  1.00  0.00     0.029 A 
ATOM     66  N   UNL A   1      42.611  28.151  31.409  1.00  0.00    -0.354 N 
ATOM     67  N   UNL A   1      42.007  29.813  33.747  1.00  0.00    -0.248 NA
ATOM     68  C   UNL A   1      42.437  30.429  35.959  1.00  0.00     0.031 C 
ATOM     69  C   UNL A   1      44.446  26.899  31.450  1.00  0.00     0.029 A 
ATOM     70  C   UNL A   1      43.699  27.801  32.191  1.00  0.00     0.049 A 
ATOM     71  H   UNL A   1      41.904  28.780  31.676  1.00  0.00     0.167 HD
ATOM     72  C   UNL A   1      43.167  29.180  34.180  1.00  0.00     0.074 A 
ATOM     73  C   UNL A   1      43.407  29.632  35.535  1.00  0.00     0.031 C 
ATOM     74  C   UNL A   1      43.952  28.293  33.521  1.00  0.00     0.034 A 
BRANCH  61  75
ATOM     75  C   UNL A   1      41.852  26.747  27.919  1.00  0.00     0.023 A 
ATOM     76  C   UNL A   1      42.263  27.349  26.712  1.00  0.00     0.012 A 
ATOM     77  C   UNL A   1      41.666  25.351  27.965  1.00  0.00     0.148 A 
ATOM     78  C   UNL A   1      42.453  26.583  25.563  1.00  0.00     0.002 A 
ATOM     79  C   UNL A   1      41.899  24.588  26.827  1.00  0.00     0.091 A 
ATOM     80  F   UNL A   1      41.253  24.799  29.115  1.00  0.00    -0.205 F 
ATOM     81  C   UNL A   1      42.282  25.203  25.623  1.00  0.00     0.022 A 
BRANCH  79  82
ATOM     82  S   UNL A   1      41.777  22.796  26.821  1.00  0.00     0.127 S 
ATOM     83  O   UNL A   1      42.887  22.421  27.696  1.00  0.00    -0.237 OA
ATOM     84  O   UNL A   1      40.449  22.573  27.393  1.00  0.00    -0.237 OA
ATOM     85  O   UNL A   1      41.913  22.390  25.429  1.00  0.00    -0.744 OA
ENDBRANCH  79  82
ENDBRANCH  61  75
BRANCH  62  86
ATOM     86  C   UNL A   1      40.136  32.251  36.073  1.00  0.00     0.023 A 
ATOM     87  C   UNL A   1      40.932  33.370  36.383  1.00  0.00     0.012 A 
ATOM     88  C   UNL A   1      39.065  31.912  36.922  1.00  0.00     0.148 A 
ATOM     89  C   UNL A   1      40.685  34.123  37.532  1.00  0.00     0.002 A 
ATOM     90  C   UNL A   1      38.789  32.698  38.035  1.00  0.00     0.091 A 
ATOM     91  F   UNL A   1      38.328  30.835  36.616  1.00  0.00    -0.205 F 
ATOM     92  C   UNL A   1      39.607  33.793  38.351  1.00  0.00     0.022 A 
BRANCH  90  93
ATOM     93  S   UNL A   1      37.344  32.426  39.066  1.00  0.00     0.127 S 
ATOM     94  O   UNL A   1      37.551  33.401  40.133  1.00  0.00    -0.237 OA
ATOM     95  O   UNL A   1      36.251  32.742  38.144  1.00  0.00    -0.237 OA
ATOM     96  O   UNL A   1      37.405  31.026  39.463  1.00  0.00    -0.744 OA
ENDBRANCH  90  93
ENDBRANCH  62  86
BRANCH  74  97
ATOM     97  C   UNL A   1      45.159  27.759  34.246  1.00  0.00     0.023 A 
ATOM     98  C   UNL A   1      46.384  28.449  34.162  1.00  0.00     0.012 A 
ATOM     99  C   UNL A   1      45.063  26.618  35.067  1.00  0.00     0.148 A 
ATOM    100  C   UNL A   1      47.504  27.995  34.858  1.00  0.00     0.002 A 
ATOM    101  C   UNL A   1      46.170  26.198  35.795  1.00  0.00     0.091 A 
ATOM    102  F   UNL A   1      43.893  25.964  35.119  1.00  0.00    -0.205 F 
ATOM    103  C   UNL A   1      47.393  26.879  35.683  1.00  0.00     0.022 A 
BRANCH 101 104
ATOM    104  S   UNL A   1      46.095  24.828  36.954  1.00  0.00     0.127 S 
ATOM    105  O   UNL A   1      45.115  25.312  37.924  1.00  0.00    -0.237 OA
ATOM    106  O   UNL A   1      45.627  23.730  36.109  1.00  0.00    -0.237 OA
ATOM    107  O   UNL A   1      47.451  24.661  37.464  1.00  0.00    -0.744 OA
ENDBRANCH 101 104
ENDBRANCH  74  97
ENDBRANCH  48  49
ENDBRANCH  40  43
ENDBRANCH  38  39
ENDBRANCH  37  38
ENDBRANCH  36  37
ENDBRANCH   1  36
TORSDOF 22
ENDMDL
