MODEL 1
REMARK VINA RESULT:     -11.2      0.000      0.000
REMARK SMILES C[NH+]1CC[NH+](CC[C@H]2CCC[C@@]2([NH3+])C(=O)NCCCCCCNC(=O)c2ccc(-c3c4nc(c(-c5cccc(S(=O)(=O)[O-])c5F)c5ccc([nH]5)c(-c5cccc(S(=O)(=O)[O-])c5F)c5nc(c(-c6cccc(S(=O)(=O)[O-])c6F)c6ccc3[nH]6)C=C5)C=C4)cc2)CC1
REMARK SMILES IDX 19 1 18 2 17 3 16 4 14 5 15 6 12 8 8 9 9 10 10 11 11 12 7 13
REMARK SMILES IDX 6 14 5 15 1 16 2 17 3 18 90 19 4 21 89 22 13 24 20 28 21 29
REMARK SMILES IDX 22 30 23 31 24 32 25 34 26 35 27 36 88 37 28 38 87 39 29 40
REMARK SMILES IDX 30 41 31 42 81 43 32 44 86 45 80 46 82 47 33 48 85 49 79 50
REMARK SMILES IDX 78 51 34 53 66 54 46 55 65 56 47 57 50 58 64 59 83 60 48 61
REMARK SMILES IDX 49 62 63 64 84 65 51 66 35 67 36 68 44 69 37 70 39 71 45 72
REMARK SMILES IDX 38 73 40 74 41 75 42 76 43 77 67 78 68 79 76 80 69 81 71 82
REMARK SMILES IDX 77 83 70 84 72 85 73 86 74 87 75 88 52 89 53 90 61 91 54 92
REMARK SMILES IDX 56 93 62 94 55 95 57 96 58 97 59 98 60 99
REMARK H PARENT 16 7 2 20 5 23 13 25 13 26 13 27 23 33 82 52 50 63
REMARK Flexibility Score: inf
ROOT
ATOM      1  C   UNL A   1      33.985  28.176  25.202  1.00  0.00     0.002 C 
ENDROOT
BRANCH   1   2
ATOM      2  C   UNL A   1      33.637  26.768  25.684  1.00  0.00     0.021 C 
BRANCH   2   3
ATOM      3  C   UNL A   1      34.166  25.594  24.842  1.00  0.00     0.116 C 
BRANCH   3   4
ATOM      4  N   UNL A   1      33.565  25.504  23.526  1.00  0.00    -0.351 N 
ATOM      5  C   UNL A   1      32.443  24.905  23.041  1.00  0.00     0.281 C 
ATOM      6  O   UNL A   1      32.240  25.122  21.834  1.00  0.00    -0.268 OA
ATOM      7  H   UNL A   1      34.078  25.980  22.833  1.00  0.00     0.163 HD
BRANCH   5   8
ATOM      8  C   UNL A   1      31.449  23.989  23.868  1.00  0.00     0.177 C 
ATOM      9  C   UNL A   1      31.784  22.482  24.196  1.00  0.00     0.066 C 
ATOM     10  C   UNL A   1      31.341  22.302  25.674  1.00  0.00     0.011 C 
ATOM     11  C   UNL A   1      30.494  23.519  26.030  1.00  0.00     0.008 C 
ATOM     12  C   UNL A   1      31.121  24.638  25.219  1.00  0.00     0.079 C 
BRANCH   9  13
ATOM     13  C   UNL A   1      33.234  22.055  23.975  1.00  0.00     0.072 C 
BRANCH  13  14
ATOM     14  C   UNL A   1      33.735  20.665  24.389  1.00  0.00     0.263 C 
BRANCH  14  15
ATOM     15  N   UNL A   1      34.742  20.542  25.447  1.00  0.00    -0.326 N 
ATOM     16  C   UNL A   1      37.602  23.770  25.841  1.00  0.00     0.333 C 
ATOM     17  N   UNL A   1      36.915  22.499  26.085  1.00  0.00    -0.328 N 
ATOM     18  C   UNL A   1      36.928  21.675  24.866  1.00  0.00     0.324 C 
ATOM     19  C   UNL A   1      35.528  22.739  26.523  1.00  0.00     0.324 C 
ATOM     20  H   UNL A   1      37.407  22.001  26.827  1.00  0.00     0.348 HD
ATOM     21  C   UNL A   1      36.122  20.371  25.005  1.00  0.00     0.324 C 
ATOM     22  C   UNL A   1      34.661  21.453  26.602  1.00  0.00     0.324 C 
ATOM     23  H   UNL A   1      34.429  19.645  25.816  1.00  0.00     0.348 HD
ENDBRANCH  14  15
ENDBRANCH  13  14
ENDBRANCH   9  13
BRANCH   8  24
ATOM     24  N   UNL A   1      30.144  23.976  23.125  1.00  0.00    -0.345 N 
ATOM     25  H   UNL A   1      30.217  24.570  22.299  1.00  0.00     0.345 HD
ATOM     26  H   UNL A   1      29.404  24.328  23.732  1.00  0.00     0.345 HD
ATOM     27  H   UNL A   1      29.925  23.022  22.840  1.00  0.00     0.345 HD
ENDBRANCH   8  24
ENDBRANCH   5   8
ENDBRANCH   3   4
ENDBRANCH   2   3
ENDBRANCH   1   2
BRANCH   1  28
ATOM     28  C   UNL A   1      32.863  28.901  24.464  1.00  0.00     0.002 C 
BRANCH  28  29
ATOM     29  C   UNL A   1      31.806  29.525  25.374  1.00  0.00     0.021 C 
BRANCH  29  30
ATOM     30  C   UNL A   1      32.339  30.040  26.706  1.00  0.00     0.116 C 
BRANCH  30  31
ATOM     31  N   UNL A   1      32.289  31.488  26.790  1.00  0.00    -0.352 N 
ATOM     32  C   UNL A   1      33.156  32.324  27.451  1.00  0.00     0.251 C 
ATOM     33  H   UNL A   1      31.543  31.925  26.317  1.00  0.00     0.163 HD
ATOM     34  O   UNL A   1      32.881  33.508  27.623  1.00  0.00    -0.269 OA
BRANCH  32  35
ATOM     35  C   UNL A   1      34.417  31.760  27.970  1.00  0.00     0.039 A 
ATOM     36  C   UNL A   1      35.510  32.601  28.178  1.00  0.00     0.014 A 
ATOM     37  C   UNL A   1      34.481  30.407  28.319  1.00  0.00     0.014 A 
ATOM     38  C   UNL A   1      36.655  32.096  28.794  1.00  0.00     0.010 A 
ATOM     39  C   UNL A   1      35.588  29.929  29.008  1.00  0.00     0.010 A 
ATOM     40  C   UNL A   1      36.691  30.764  29.245  1.00  0.00    -0.014 A 
BRANCH  40  41
ATOM     41  C   UNL A   1      37.869  30.215  29.962  1.00  0.00     0.031 A 
ATOM     42  C   UNL A   1      38.167  30.667  31.366  1.00  0.00     0.074 A 
ATOM     43  C   UNL A   1      38.721  29.390  29.322  1.00  0.00     0.049 A 
ATOM     44  N   UNL A   1      39.190  30.379  32.127  1.00  0.00    -0.248 NA
ATOM     45  C   UNL A   1      37.201  31.591  31.983  1.00  0.00     0.031 C 
ATOM     46  C   UNL A   1      38.577  28.927  27.940  1.00  0.00     0.029 A 
ATOM     47  N   UNL A   1      39.896  28.816  29.741  1.00  0.00    -0.354 N 
ATOM     48  C   UNL A   1      39.012  31.114  33.293  1.00  0.00     0.074 A 
ATOM     49  C   UNL A   1      37.807  31.894  33.121  1.00  0.00     0.031 C 
ATOM     50  C   UNL A   1      39.614  28.131  27.631  1.00  0.00     0.029 A 
ATOM     51  C   UNL A   1      40.517  28.059  28.776  1.00  0.00     0.049 A 
ATOM     52  H   UNL A   1      40.259  28.934  30.649  1.00  0.00     0.167 HD
ATOM     53  C   UNL A   1      39.766  31.120  34.418  1.00  0.00     0.034 A 
ATOM     54  C   UNL A   1      41.686  27.389  28.806  1.00  0.00     0.034 A 
ATOM     55  C   UNL A   1      40.946  30.318  34.596  1.00  0.00     0.049 A 
ATOM     56  C   UNL A   1      42.503  27.406  30.070  1.00  0.00     0.074 A 
ATOM     57  C   UNL A   1      41.738  30.190  35.723  1.00  0.00     0.029 A 
ATOM     58  N   UNL A   1      41.509  29.513  33.617  1.00  0.00    -0.354 N 
ATOM     59  N   UNL A   1      42.247  27.996  31.213  1.00  0.00    -0.248 NA
ATOM     60  C   UNL A   1      43.758  26.638  30.059  1.00  0.00     0.031 C 
ATOM     61  C   UNL A   1      42.799  29.333  35.413  1.00  0.00     0.029 A 
ATOM     62  C   UNL A   1      42.647  28.896  34.107  1.00  0.00     0.049 A 
ATOM     63  H   UNL A   1      41.152  29.398  32.707  1.00  0.00     0.167 HD
ATOM     64  C   UNL A   1      43.280  27.632  32.070  1.00  0.00     0.074 A 
ATOM     65  C   UNL A   1      44.160  26.763  31.317  1.00  0.00     0.031 C 
ATOM     66  C   UNL A   1      43.484  27.990  33.362  1.00  0.00     0.034 A 
BRANCH  53  67
ATOM     67  C   UNL A   1      39.310  31.999  35.555  1.00  0.00     0.023 A 
ATOM     68  C   UNL A   1      38.376  31.505  36.490  1.00  0.00     0.012 A 
ATOM     69  C   UNL A   1      39.823  33.300  35.717  1.00  0.00     0.148 A 
ATOM     70  C   UNL A   1      37.920  32.309  37.535  1.00  0.00     0.002 A 
ATOM     71  C   UNL A   1      39.403  34.077  36.790  1.00  0.00     0.091 A 
ATOM     72  F   UNL A   1      40.694  33.763  34.809  1.00  0.00    -0.205 F 
ATOM     73  C   UNL A   1      38.440  33.590  37.690  1.00  0.00     0.022 A 
BRANCH  71  74
ATOM     74  S   UNL A   1      40.076  35.709  37.124  1.00  0.00     0.127 S 
ATOM     75  O   UNL A   1      39.653  36.451  35.937  1.00  0.00    -0.237 OA
ATOM     76  O   UNL A   1      39.380  36.082  38.357  1.00  0.00    -0.237 OA
ATOM     77  O   UNL A   1      41.513  35.526  37.271  1.00  0.00    -0.744 OA
ENDBRANCH  71  74
ENDBRANCH  53  67
BRANCH  54  78
ATOM     78  C   UNL A   1      42.119  26.587  27.628  1.00  0.00     0.023 A 
ATOM     79  C   UNL A   1      42.836  27.220  26.592  1.00  0.00     0.012 A 
ATOM     80  C   UNL A   1      41.850  25.208  27.532  1.00  0.00     0.148 A 
ATOM     81  C   UNL A   1      43.247  26.502  25.468  1.00  0.00     0.002 A 
ATOM     82  C   UNL A   1      42.309  24.487  26.435  1.00  0.00     0.091 A 
ATOM     83  F   UNL A   1      41.161  24.626  28.523  1.00  0.00    -0.205 F 
ATOM     84  C   UNL A   1      42.991  25.136  25.394  1.00  0.00     0.022 A 
BRANCH  82  85
ATOM     85  S   UNL A   1      42.138  22.704  26.311  1.00  0.00     0.127 S 
ATOM     86  O   UNL A   1      42.924  22.248  27.455  1.00  0.00    -0.237 OA
ATOM     87  O   UNL A   1      40.692  22.532  26.446  1.00  0.00    -0.237 OA
ATOM     88  O   UNL A   1      42.667  22.347  25.001  1.00  0.00    -0.744 OA
ENDBRANCH  82  85
ENDBRANCH  54  78
BRANCH  66  89
ATOM     89  C   UNL A   1      44.676  27.403  34.072  1.00  0.00     0.023 A 
ATOM     90  C   UNL A   1      45.901  28.097  34.090  1.00  0.00     0.012 A 
ATOM     91  C   UNL A   1      44.551  26.199  34.793  1.00  0.00     0.148 A 
ATOM     92  C   UNL A   1      46.995  27.583  34.787  1.00  0.00     0.002 A 
ATOM     93  C   UNL A   1      45.628  25.721  35.530  1.00  0.00     0.091 A 
ATOM     94  F   UNL A   1      43.381  25.546  34.749  1.00  0.00    -0.205 F 
ATOM     95  C   UNL A   1      46.854  26.405  35.517  1.00  0.00     0.022 A 
BRANCH  93  96
ATOM     96  S   UNL A   1      45.509  24.268  36.580  1.00  0.00     0.127 S 
ATOM     97  O   UNL A   1      44.422  24.642  37.482  1.00  0.00    -0.237 OA
ATOM     98  O   UNL A   1      45.171  23.220  35.617  1.00  0.00    -0.237 OA
ATOM     99  O   UNL A   1      46.815  24.116  37.207  1.00  0.00    -0.744 OA
ENDBRANCH  93  96
ENDBRANCH  66  89
ENDBRANCH  40  41
ENDBRANCH  32  35
ENDBRANCH  30  31
ENDBRANCH  29  30
ENDBRANCH  28  29
ENDBRANCH   1  28
TORSDOF 20
ENDMDL
MODEL 2
REMARK VINA RESULT:     -11.2      1.933      7.879
REMARK SMILES C[NH+]1CC[NH+](CC[C@H]2CCC[C@@]2([NH3+])C(=O)NCCCCCCNC(=O)c2ccc(-c3c4nc(c(-c5cccc(S(=O)(=O)[O-])c5F)c5ccc([nH]5)c(-c5cccc(S(=O)(=O)[O-])c5F)c5nc(c(-c6cccc(S(=O)(=O)[O-])c6F)c6ccc3[nH]6)C=C5)C=C4)cc2)CC1
REMARK SMILES IDX 19 1 18 2 17 3 16 4 14 5 15 6 12 8 8 9 9 10 10 11 11 12 7 13
REMARK SMILES IDX 6 14 5 15 1 16 2 17 3 18 90 19 4 21 89 22 13 24 20 28 21 29
REMARK SMILES IDX 22 30 23 31 24 32 25 34 26 35 27 36 88 37 28 38 87 39 29 40
REMARK SMILES IDX 30 41 31 42 81 43 32 44 86 45 80 46 82 47 33 48 85 49 79 50
REMARK SMILES IDX 78 51 34 53 66 54 46 55 65 56 47 57 50 58 64 59 83 60 48 61
REMARK SMILES IDX 49 62 63 64 84 65 51 66 35 67 36 68 44 69 37 70 39 71 45 72
REMARK SMILES IDX 38 73 40 74 41 75 42 76 43 77 67 78 68 79 76 80 69 81 71 82
REMARK SMILES IDX 77 83 70 84 72 85 73 86 74 87 75 88 52 89 53 90 61 91 54 92
REMARK SMILES IDX 56 93 62 94 55 95 57 96 58 97 59 98 60 99
REMARK H PARENT 16 7 2 20 5 23 13 25 13 26 13 27 23 33 82 52 50 63
REMARK Flexibility Score: inf
ROOT
ATOM      1  C   UNL A   1      32.287  29.897  26.595  1.00  0.00     0.002 C 
ENDROOT
BRANCH   1   2
ATOM      2  C   UNL A   1      31.721  28.563  27.080  1.00  0.00     0.021 C 
BRANCH   2   3
ATOM      3  C   UNL A   1      32.426  27.287  26.588  1.00  0.00     0.116 C 
BRANCH   3   4
ATOM      4  N   UNL A   1      31.760  26.062  26.987  1.00  0.00    -0.351 N 
ATOM      5  C   UNL A   1      31.509  24.879  26.363  1.00  0.00     0.281 C 
ATOM      6  O   UNL A   1      30.952  24.037  27.086  1.00  0.00    -0.268 OA
ATOM      7  H   UNL A   1      31.414  26.092  27.908  1.00  0.00     0.163 HD
BRANCH   5   8
ATOM      8  C   UNL A   1      31.849  24.537  24.853  1.00  0.00     0.177 C 
ATOM      9  C   UNL A   1      33.326  24.592  24.298  1.00  0.00     0.066 C 
ATOM     10  C   UNL A   1      33.448  23.331  23.401  1.00  0.00     0.011 C 
ATOM     11  C   UNL A   1      32.033  22.805  23.187  1.00  0.00     0.008 C 
ATOM     12  C   UNL A   1      31.328  23.140  24.489  1.00  0.00     0.079 C 
BRANCH   9  13
ATOM     13  C   UNL A   1      34.433  24.659  25.350  1.00  0.00     0.072 C 
BRANCH  13  14
ATOM     14  C   UNL A   1      35.677  23.765  25.265  1.00  0.00     0.263 C 
BRANCH  14  15
ATOM     15  N   UNL A   1      35.776  22.578  26.119  1.00  0.00    -0.326 N 
ATOM     16  C   UNL A   1      32.953  19.375  25.396  1.00  0.00     0.333 C 
ATOM     17  N   UNL A   1      34.046  20.138  26.004  1.00  0.00    -0.328 N 
ATOM     18  C   UNL A   1      33.549  21.436  26.487  1.00  0.00     0.324 C 
ATOM     19  C   UNL A   1      35.136  20.340  25.031  1.00  0.00     0.324 C 
ATOM     20  H   UNL A   1      34.413  19.608  26.794  1.00  0.00     0.348 HD
ATOM     21  C   UNL A   1      34.662  22.348  27.033  1.00  0.00     0.324 C 
ATOM     22  C   UNL A   1      36.241  21.316  25.517  1.00  0.00     0.324 C 
ATOM     23  H   UNL A   1      36.568  22.892  26.680  1.00  0.00     0.348 HD
ENDBRANCH  14  15
ENDBRANCH  13  14
ENDBRANCH   9  13
BRANCH   8  24
ATOM     24  N   UNL A   1      31.046  25.477  23.999  1.00  0.00    -0.345 N 
ATOM     25  H   UNL A   1      31.496  25.577  23.089  1.00  0.00     0.345 HD
ATOM     26  H   UNL A   1      30.994  26.388  24.454  1.00  0.00     0.345 HD
ATOM     27  H   UNL A   1      30.105  25.104  23.875  1.00  0.00     0.345 HD
ENDBRANCH   8  24
ENDBRANCH   5   8
ENDBRANCH   3   4
ENDBRANCH   2   3
ENDBRANCH   1   2
BRANCH   1  28
ATOM     28  C   UNL A   1      31.272  30.826  25.936  1.00  0.00     0.002 C 
BRANCH  28  29
ATOM     29  C   UNL A   1      31.253  32.246  26.501  1.00  0.00     0.021 C 
BRANCH  29  30
ATOM     30  C   UNL A   1      32.585  32.720  27.071  1.00  0.00     0.116 C 
BRANCH  30  31
ATOM     31  N   UNL A   1      32.490  34.051  27.643  1.00  0.00    -0.352 N 
ATOM     32  C   UNL A   1      33.235  34.582  28.668  1.00  0.00     0.251 C 
ATOM     33  H   UNL A   1      31.810  34.645  27.249  1.00  0.00     0.163 HD
ATOM     34  O   UNL A   1      32.912  35.641  29.199  1.00  0.00    -0.269 OA
BRANCH  32  35
ATOM     35  C   UNL A   1      34.422  33.838  29.133  1.00  0.00     0.039 A 
ATOM     36  C   UNL A   1      35.694  34.291  28.784  1.00  0.00     0.014 A 
ATOM     37  C   UNL A   1      34.263  32.734  29.978  1.00  0.00     0.014 A 
ATOM     38  C   UNL A   1      36.816  33.669  29.334  1.00  0.00     0.010 A 
ATOM     39  C   UNL A   1      35.377  32.174  30.588  1.00  0.00     0.010 A 
ATOM     40  C   UNL A   1      36.666  32.627  30.267  1.00  0.00    -0.014 A 
BRANCH  40  41
ATOM     41  C   UNL A   1      37.837  31.989  30.918  1.00  0.00     0.031 A 
ATOM     42  C   UNL A   1      38.599  30.911  30.194  1.00  0.00     0.074 A 
ATOM     43  C   UNL A   1      38.155  32.304  32.189  1.00  0.00     0.049 A 
ATOM     44  N   UNL A   1      39.587  30.170  30.620  1.00  0.00    -0.248 NA
ATOM     45  C   UNL A   1      38.169  30.605  28.820  1.00  0.00     0.031 C 
ATOM     46  C   UNL A   1      37.456  33.288  33.019  1.00  0.00     0.029 A 
ATOM     47  N   UNL A   1      39.133  31.810  33.016  1.00  0.00    -0.354 N 
ATOM     48  C   UNL A   1      39.871  29.286  29.586  1.00  0.00     0.074 A 
ATOM     49  C   UNL A   1      38.922  29.556  28.529  1.00  0.00     0.031 C 
ATOM     50  C   UNL A   1      38.035  33.334  34.230  1.00  0.00     0.029 A 
ATOM     51  C   UNL A   1      39.119  32.357  34.278  1.00  0.00     0.049 A 
ATOM     52  H   UNL A   1      39.785  31.129  32.732  1.00  0.00     0.167 HD
ATOM     53  C   UNL A   1      40.850  28.355  29.508  1.00  0.00     0.034 A 
ATOM     54  C   UNL A   1      39.886  32.094  35.354  1.00  0.00     0.034 A 
ATOM     55  C   UNL A   1      41.812  28.113  30.549  1.00  0.00     0.049 A 
ATOM     56  C   UNL A   1      40.972  31.059  35.241  1.00  0.00     0.074 A 
ATOM     57  C   UNL A   1      42.892  27.248  30.541  1.00  0.00     0.029 A 
ATOM     58  N   UNL A   1      41.805  28.733  31.790  1.00  0.00    -0.354 N 
ATOM     59  N   UNL A   1      41.316  30.331  34.205  1.00  0.00    -0.248 NA
ATOM     60  C   UNL A   1      41.798  30.829  36.436  1.00  0.00     0.031 C 
ATOM     61  C   UNL A   1      43.516  27.321  31.790  1.00  0.00     0.029 A 
ATOM     62  C   UNL A   1      42.851  28.260  32.562  1.00  0.00     0.049 A 
ATOM     63  H   UNL A   1      41.151  29.409  32.079  1.00  0.00     0.167 HD
ATOM     64  C   UNL A   1      42.425  29.594  34.607  1.00  0.00     0.074 A 
ATOM     65  C   UNL A   1      42.701  29.971  35.979  1.00  0.00     0.031 C 
ATOM     66  C   UNL A   1      43.145  28.684  33.907  1.00  0.00     0.034 A 
BRANCH  53  67
ATOM     67  C   UNL A   1      40.947  27.554  28.234  1.00  0.00     0.023 A 
ATOM     68  C   UNL A   1      41.503  28.141  27.078  1.00  0.00     0.012 A 
ATOM     69  C   UNL A   1      40.515  26.214  28.184  1.00  0.00     0.148 A 
ATOM     70  C   UNL A   1      41.579  27.429  25.882  1.00  0.00     0.002 A 
ATOM     71  C   UNL A   1      40.641  25.494  27.002  1.00  0.00     0.091 A 
ATOM     72  F   UNL A   1      39.969  25.676  29.284  1.00  0.00    -0.205 F 
ATOM     73  C   UNL A   1      41.157  26.103  25.847  1.00  0.00     0.022 A 
BRANCH  71  74
ATOM     74  S   UNL A   1      40.204  23.756  26.879  1.00  0.00     0.127 S 
ATOM     75  O   UNL A   1      38.771  23.832  26.592  1.00  0.00    -0.237 OA
ATOM     76  O   UNL A   1      41.027  23.310  25.754  1.00  0.00    -0.237 OA
ATOM     77  O   UNL A   1      40.556  23.163  28.161  1.00  0.00    -0.744 OA
ENDBRANCH  71  74
ENDBRANCH  53  67
BRANCH  54  78
ATOM     78  C   UNL A   1      39.704  32.874  36.611  1.00  0.00     0.023 A 
ATOM     79  C   UNL A   1      40.423  34.074  36.784  1.00  0.00     0.012 A 
ATOM     80  C   UNL A   1      38.816  32.455  37.619  1.00  0.00     0.148 A 
ATOM     81  C   UNL A   1      40.285  34.824  37.954  1.00  0.00     0.002 A 
ATOM     82  C   UNL A   1      38.643  33.234  38.758  1.00  0.00     0.091 A 
ATOM     83  F   UNL A   1      38.147  31.307  37.438  1.00  0.00    -0.205 F 
ATOM     84  C   UNL A   1      39.389  34.409  38.935  1.00  0.00     0.022 A 
BRANCH  82  85
ATOM     85  S   UNL A   1      37.422  32.847  40.017  1.00  0.00     0.127 S 
ATOM     86  O   UNL A   1      37.921  31.575  40.535  1.00  0.00    -0.237 OA
ATOM     87  O   UNL A   1      37.562  33.983  40.929  1.00  0.00    -0.237 OA
ATOM     88  O   UNL A   1      36.143  32.786  39.323  1.00  0.00    -0.744 OA
ENDBRANCH  82  85
ENDBRANCH  54  78
BRANCH  66  89
ATOM     89  C   UNL A   1      44.341  28.065  34.584  1.00  0.00     0.023 A 
ATOM     90  C   UNL A   1      45.603  28.685  34.497  1.00  0.00     0.012 A 
ATOM     91  C   UNL A   1      44.190  26.910  35.377  1.00  0.00     0.148 A 
ATOM     92  C   UNL A   1      46.704  28.145  35.162  1.00  0.00     0.002 A 
ATOM     93  C   UNL A   1      45.279  26.409  36.080  1.00  0.00     0.091 A 
ATOM     94  F   UNL A   1      42.985  26.326  35.432  1.00  0.00    -0.205 F 
ATOM     95  C   UNL A   1      46.539  27.017  35.963  1.00  0.00     0.022 A 
BRANCH  93  96
ATOM     96  S   UNL A   1      45.140  25.023  37.214  1.00  0.00     0.127 S 
ATOM     97  O   UNL A   1      44.153  25.520  38.171  1.00  0.00    -0.237 OA
ATOM     98  O   UNL A   1      44.657  23.956  36.338  1.00  0.00    -0.237 OA
ATOM     99  O   UNL A   1      46.475  24.806  37.752  1.00  0.00    -0.744 OA
ENDBRANCH  93  96
ENDBRANCH  66  89
ENDBRANCH  40  41
ENDBRANCH  32  35
ENDBRANCH  30  31
ENDBRANCH  29  30
ENDBRANCH  28  29
ENDBRANCH   1  28
TORSDOF 20
ENDMDL
MODEL 3
REMARK VINA RESULT:     -11.2      4.860     10.433
REMARK SMILES C[NH+]1CC[NH+](CC[C@H]2CCC[C@@]2([NH3+])C(=O)NCCCCCCNC(=O)c2ccc(-c3c4nc(c(-c5cccc(S(=O)(=O)[O-])c5F)c5ccc([nH]5)c(-c5cccc(S(=O)(=O)[O-])c5F)c5nc(c(-c6cccc(S(=O)(=O)[O-])c6F)c6ccc3[nH]6)C=C5)C=C4)cc2)CC1
REMARK SMILES IDX 19 1 18 2 17 3 16 4 14 5 15 6 12 8 8 9 9 10 10 11 11 12 7 13
REMARK SMILES IDX 6 14 5 15 1 16 2 17 3 18 90 19 4 21 89 22 13 24 20 28 21 29
REMARK SMILES IDX 22 30 23 31 24 32 25 34 26 35 27 36 88 37 28 38 87 39 29 40
REMARK SMILES IDX 30 41 31 42 81 43 32 44 86 45 80 46 82 47 33 48 85 49 79 50
REMARK SMILES IDX 78 51 34 53 66 54 46 55 65 56 47 57 50 58 64 59 83 60 48 61
REMARK SMILES IDX 49 62 63 64 84 65 51 66 35 67 36 68 44 69 37 70 39 71 45 72
REMARK SMILES IDX 38 73 40 74 41 75 42 76 43 77 67 78 68 79 76 80 69 81 71 82
REMARK SMILES IDX 77 83 70 84 72 85 73 86 74 87 75 88 52 89 53 90 61 91 54 92
REMARK SMILES IDX 56 93 62 94 55 95 57 96 58 97 59 98 60 99
REMARK H PARENT 16 7 2 20 5 23 13 25 13 26 13 27 23 33 82 52 50 63
REMARK Flexibility Score: inf
ROOT
ATOM      1  C   UNL A   1      34.726  23.768  23.965  1.00  0.00     0.002 C 
ENDROOT
BRANCH   1   2
ATOM      2  C   UNL A   1      33.584  23.614  22.961  1.00  0.00     0.021 C 
BRANCH   2   3
ATOM      3  C   UNL A   1      32.652  24.825  22.777  1.00  0.00     0.116 C 
BRANCH   3   4
ATOM      4  N   UNL A   1      33.269  25.935  22.078  1.00  0.00    -0.351 N 
ATOM      5  C   UNL A   1      33.528  27.230  22.407  1.00  0.00     0.281 C 
ATOM      6  O   UNL A   1      34.146  27.857  21.531  1.00  0.00    -0.268 OA
ATOM      7  H   UNL A   1      33.567  25.701  21.169  1.00  0.00     0.163 HD
BRANCH   5   8
ATOM      8  C   UNL A   1      33.098  27.947  23.753  1.00  0.00     0.177 C 
ATOM      9  C   UNL A   1      31.706  28.677  23.900  1.00  0.00     0.066 C 
ATOM     10  C   UNL A   1      31.207  28.274  25.315  1.00  0.00     0.011 C 
ATOM     11  C   UNL A   1      32.397  27.655  26.040  1.00  0.00     0.008 C 
ATOM     12  C   UNL A   1      33.172  26.967  24.930  1.00  0.00     0.079 C 
BRANCH   9  13
ATOM     13  C   UNL A   1      30.673  28.372  22.817  1.00  0.00     0.072 C 
BRANCH  13  14
ATOM     14  C   UNL A   1      29.175  28.283  23.138  1.00  0.00     0.263 C 
BRANCH  14  15
ATOM     15  N   UNL A   1      28.235  29.186  22.467  1.00  0.00    -0.326 N 
ATOM     16  C   UNL A   1      28.826  33.438  23.036  1.00  0.00     0.333 C 
ATOM     17  N   UNL A   1      28.237  32.178  22.578  1.00  0.00    -0.328 N 
ATOM     18  C   UNL A   1      27.865  31.345  23.733  1.00  0.00     0.324 C 
ATOM     19  C   UNL A   1      29.184  31.451  21.711  1.00  0.00     0.324 C 
ATOM     20  H   UNL A   1      27.400  32.388  22.036  1.00  0.00     0.348 HD
ATOM     21  C   UNL A   1      27.346  29.952  23.335  1.00  0.00     0.324 C 
ATOM     22  C   UNL A   1      28.731  30.011  21.351  1.00  0.00     0.324 C 
ATOM     23  H   UNL A   1      27.671  28.468  22.013  1.00  0.00     0.348 HD
ENDBRANCH  14  15
ENDBRANCH  13  14
ENDBRANCH   9  13
BRANCH   8  24
ATOM     24  N   UNL A   1      34.146  28.981  24.052  1.00  0.00    -0.345 N 
ATOM     25  H   UNL A   1      33.878  29.869  23.629  1.00  0.00     0.345 HD
ATOM     26  H   UNL A   1      35.041  28.678  23.667  1.00  0.00     0.345 HD
ATOM     27  H   UNL A   1      34.231  29.097  25.061  1.00  0.00     0.345 HD
ENDBRANCH   8  24
ENDBRANCH   5   8
ENDBRANCH   3   4
ENDBRANCH   2   3
ENDBRANCH   1   2
BRANCH   1  28
ATOM     28  C   UNL A   1      36.097  23.336  23.453  1.00  0.00     0.002 C 
BRANCH  28  29
ATOM     29  C   UNL A   1      36.548  21.958  23.938  1.00  0.00     0.021 C 
BRANCH  29  30
ATOM     30  C   UNL A   1      36.937  21.900  25.411  1.00  0.00     0.116 C 
BRANCH  30  31
ATOM     31  N   UNL A   1      37.901  20.847  25.678  1.00  0.00    -0.352 N 
ATOM     32  C   UNL A   1      39.195  20.982  26.118  1.00  0.00     0.251 C 
ATOM     33  H   UNL A   1      37.590  19.925  25.526  1.00  0.00     0.163 HD
ATOM     34  O   UNL A   1      39.970  20.030  26.098  1.00  0.00    -0.269 OA
BRANCH  32  35
ATOM     35  C   UNL A   1      39.641  22.306  26.593  1.00  0.00     0.039 A 
ATOM     36  C   UNL A   1      40.643  22.386  27.561  1.00  0.00     0.014 A 
ATOM     37  C   UNL A   1      39.110  23.466  26.018  1.00  0.00     0.014 A 
ATOM     38  C   UNL A   1      41.158  23.634  27.911  1.00  0.00     0.010 A 
ATOM     39  C   UNL A   1      39.684  24.698  26.307  1.00  0.00     0.010 A 
ATOM     40  C   UNL A   1      40.707  24.798  27.263  1.00  0.00    -0.014 A 
BRANCH  40  41
ATOM     41  C   UNL A   1      41.280  26.132  27.567  1.00  0.00     0.031 A 
ATOM     42  C   UNL A   1      42.692  26.451  27.153  1.00  0.00     0.074 A 
ATOM     43  C   UNL A   1      40.573  27.018  28.295  1.00  0.00     0.049 A 
ATOM     44  N   UNL A   1      43.405  27.517  27.402  1.00  0.00    -0.248 NA
ATOM     45  C   UNL A   1      43.406  25.417  26.385  1.00  0.00     0.031 C 
ATOM     46  C   UNL A   1      39.218  26.805  28.808  1.00  0.00     0.029 A 
ATOM     47  N   UNL A   1      40.907  28.268  28.755  1.00  0.00    -0.354 N 
ATOM     48  C   UNL A   1      44.660  27.268  26.858  1.00  0.00     0.074 A 
ATOM     49  C   UNL A   1      44.623  25.933  26.305  1.00  0.00     0.031 C 
ATOM     50  C   UNL A   1      38.832  27.890  29.499  1.00  0.00     0.029 A 
ATOM     51  C   UNL A   1      39.925  28.859  29.514  1.00  0.00     0.049 A 
ATOM     52  H   UNL A   1      41.769  28.701  28.558  1.00  0.00     0.167 HD
ATOM     53  C   UNL A   1      45.737  28.086  26.797  1.00  0.00     0.034 A 
ATOM     54  C   UNL A   1      39.908  30.044  30.157  1.00  0.00     0.034 A 
ATOM     55  C   UNL A   1      45.758  29.425  27.320  1.00  0.00     0.049 A 
ATOM     56  C   UNL A   1      41.116  30.937  30.070  1.00  0.00     0.074 A 
ATOM     57  C   UNL A   1      46.771  30.364  27.243  1.00  0.00     0.029 A 
ATOM     58  N   UNL A   1      44.720  30.013  28.028  1.00  0.00    -0.354 N 
ATOM     59  N   UNL A   1      42.244  30.742  29.430  1.00  0.00    -0.248 NA
ATOM     60  C   UNL A   1      41.037  32.230  30.767  1.00  0.00     0.031 C 
ATOM     61  C   UNL A   1      46.357  31.508  27.933  1.00  0.00     0.029 A 
ATOM     62  C   UNL A   1      45.071  31.297  28.406  1.00  0.00     0.049 A 
ATOM     63  H   UNL A   1      43.859  29.580  28.231  1.00  0.00     0.167 HD
ATOM     64  C   UNL A   1      42.989  31.903  29.607  1.00  0.00     0.074 A 
ATOM     65  C   UNL A   1      42.179  32.800  30.406  1.00  0.00     0.031 C 
ATOM     66  C   UNL A   1      44.233  32.198  29.155  1.00  0.00     0.034 A 
BRANCH  53  67
ATOM     67  C   UNL A   1      46.970  27.560  26.107  1.00  0.00     0.023 A 
ATOM     68  C   UNL A   1      47.157  27.798  24.729  1.00  0.00     0.012 A 
ATOM     69  C   UNL A   1      47.958  26.855  26.822  1.00  0.00     0.148 A 
ATOM     70  C   UNL A   1      48.276  27.299  24.064  1.00  0.00     0.002 A 
ATOM     71  C   UNL A   1      49.095  26.405  26.163  1.00  0.00     0.091 A 
ATOM     72  F   UNL A   1      47.757  26.618  28.126  1.00  0.00    -0.205 F 
ATOM     73  C   UNL A   1      49.249  26.611  24.782  1.00  0.00     0.022 A 
BRANCH  71  74
ATOM     74  S   UNL A   1      50.445  25.583  27.018  1.00  0.00     0.127 S 
ATOM     75  O   UNL A   1      51.379  25.331  25.920  1.00  0.00    -0.237 OA
ATOM     76  O   UNL A   1      50.882  26.610  27.964  1.00  0.00    -0.237 OA
ATOM     77  O   UNL A   1      49.866  24.398  27.633  1.00  0.00    -0.744 OA
ENDBRANCH  71  74
ENDBRANCH  53  67
BRANCH  54  78
ATOM     78  C   UNL A   1      38.682  30.486  30.879  1.00  0.00     0.023 A 
ATOM     79  C   UNL A   1      38.565  30.222  32.258  1.00  0.00     0.012 A 
ATOM     80  C   UNL A   1      37.647  31.179  30.223  1.00  0.00     0.148 A 
ATOM     81  C   UNL A   1      37.425  30.611  32.964  1.00  0.00     0.002 A 
ATOM     82  C   UNL A   1      36.539  31.612  30.943  1.00  0.00     0.091 A 
ATOM     83  F   UNL A   1      37.774  31.413  28.909  1.00  0.00    -0.205 F 
ATOM     84  C   UNL A   1      36.418  31.313  32.309  1.00  0.00     0.022 A 
BRANCH  82  85
ATOM     85  S   UNL A   1      35.251  32.629  30.214  1.00  0.00     0.127 S 
ATOM     86  O   UNL A   1      36.008  33.794  29.765  1.00  0.00    -0.237 OA
ATOM     87  O   UNL A   1      34.755  31.764  29.144  1.00  0.00    -0.237 OA
ATOM     88  O   UNL A   1      34.291  32.876  31.282  1.00  0.00    -0.744 OA
ENDBRANCH  82  85
ENDBRANCH  54  78
BRANCH  66  89
ATOM     89  C   UNL A   1      44.784  33.567  29.460  1.00  0.00     0.023 A 
ATOM     90  C   UNL A   1      45.504  33.791  30.649  1.00  0.00     0.012 A 
ATOM     91  C   UNL A   1      44.655  34.610  28.521  1.00  0.00     0.148 A 
ATOM     92  C   UNL A   1      46.059  35.043  30.915  1.00  0.00     0.002 A 
ATOM     93  C   UNL A   1      45.257  35.838  28.768  1.00  0.00     0.091 A 
ATOM     94  F   UNL A   1      43.951  34.381  27.404  1.00  0.00    -0.205 F 
ATOM     95  C   UNL A   1      45.948  36.060  29.970  1.00  0.00     0.022 A 
BRANCH  93  96
ATOM     96  S   UNL A   1      45.253  37.173  27.565  1.00  0.00     0.127 S 
ATOM     97  O   UNL A   1      43.830  37.288  27.254  1.00  0.00    -0.237 OA
ATOM     98  O   UNL A   1      45.801  38.286  28.340  1.00  0.00    -0.237 OA
ATOM     99  O   UNL A   1      46.098  36.727  26.465  1.00  0.00    -0.744 OA
ENDBRANCH  93  96
ENDBRANCH  66  89
ENDBRANCH  40  41
ENDBRANCH  32  35
ENDBRANCH  30  31
ENDBRANCH  29  30
ENDBRANCH  28  29
ENDBRANCH   1  28
TORSDOF 20
ENDMDL
