MODEL 1
REMARK VINA RESULT:     -11.4      0.000      0.000
REMARK SMILES CCC1C[NH+]([C@H]2COC[C@@]2(C)C(=O)NCCCCCCNC(=O)c2ccc(-c3c4nc(c(-c5cccc(S(=O)(=O)[O-])c5F)c5ccc([nH]5)c(-c5cccc(S(=O)(=O)[O-])c5F)c5nc(c(-c6cccc(S(=O)(=O)[O-])c6F)c6ccc3[nH]6)C=C5)C=C4)cc2)C1
REMARK SMILES IDX 18 1 17 2 16 3 15 4 14 5 12 6 13 7 10 9 6 10 7 11 8 12 9 13
REMARK SMILES IDX 11 14 5 15 3 16 4 17 87 18 2 20 1 21 19 22 20 23 21 24 22 25
REMARK SMILES IDX 23 27 24 28 25 29 86 30 26 31 85 32 27 33 28 34 29 35 79 36
REMARK SMILES IDX 30 37 84 38 78 39 80 40 31 41 83 42 77 43 76 44 32 46 64 47
REMARK SMILES IDX 44 48 63 49 45 50 48 51 62 52 81 53 46 54 47 55 61 57 82 58
REMARK SMILES IDX 49 59 33 60 34 61 42 62 35 63 37 64 43 65 36 66 38 67 39 68
REMARK SMILES IDX 40 69 41 70 65 71 66 72 74 73 67 74 69 75 75 76 68 77 70 78
REMARK SMILES IDX 71 79 72 80 73 81 50 82 51 83 59 84 52 85 54 86 60 87 53 88
REMARK SMILES IDX 55 89 56 90 57 91 58 92
REMARK H PARENT 14 8 5 19 21 26 80 45 48 56
REMARK Flexibility Score: inf
ROOT
ATOM      1  C   UNL A   1      31.734  30.431  26.021  1.00  0.00     0.002 C 
ENDROOT
BRANCH   1   2
ATOM      2  C   UNL A   1      32.348  29.389  26.964  1.00  0.00     0.002 C 
BRANCH   2   3
ATOM      3  C   UNL A   1      31.473  28.211  27.392  1.00  0.00     0.021 C 
BRANCH   3   4
ATOM      4  C   UNL A   1      31.085  27.221  26.304  1.00  0.00     0.116 C 
BRANCH   4   5
ATOM      5  N   UNL A   1      30.942  25.839  26.700  1.00  0.00    -0.355 N 
ATOM      6  C   UNL A   1      31.855  24.830  26.547  1.00  0.00     0.234 C 
ATOM      7  O   UNL A   1      31.684  23.841  27.276  1.00  0.00    -0.274 OA
ATOM      8  H   UNL A   1      30.089  25.594  27.128  1.00  0.00     0.163 HD
BRANCH   6   9
ATOM      9  C   UNL A   1      32.906  24.765  25.415  1.00  0.00     0.123 C 
ATOM     10  C   UNL A   1      33.580  23.453  24.968  1.00  0.00     0.228 C 
ATOM     11  C   UNL A   1      33.992  23.768  23.523  1.00  0.00     0.226 C 
ATOM     12  O   UNL A   1      33.059  24.726  23.010  1.00  0.00    -0.374 OA
ATOM     13  C   UNL A   1      32.227  25.169  24.097  1.00  0.00     0.183 C 
ATOM     14  C   UNL A   1      33.979  25.820  25.784  1.00  0.00     0.031 C 
BRANCH  10  15
ATOM     15  N   UNL A   1      32.749  22.272  25.178  1.00  0.00    -0.329 N 
ATOM     16  C   UNL A   1      32.414  20.234  25.042  1.00  0.00     0.099 C 
ATOM     17  C   UNL A   1      33.489  21.119  25.735  1.00  0.00     0.271 C 
ATOM     18  C   UNL A   1      32.335  21.430  24.037  1.00  0.00     0.271 C 
ATOM     19  H   UNL A   1      32.015  22.773  25.678  1.00  0.00     0.348 HD
BRANCH  16  20
ATOM     20  C   UNL A   1      32.859  18.873  24.546  1.00  0.00     0.012 C 
ATOM     21  C   UNL A   1      32.647  17.830  25.633  1.00  0.00     0.004 C 
ENDBRANCH  16  20
ENDBRANCH  10  15
ENDBRANCH   6   9
ENDBRANCH   4   5
ENDBRANCH   3   4
ENDBRANCH   2   3
ENDBRANCH   1   2
BRANCH   1  22
ATOM     22  C   UNL A   1      31.513  31.845  26.567  1.00  0.00     0.021 C 
BRANCH  22  23
ATOM     23  C   UNL A   1      32.697  32.509  27.264  1.00  0.00     0.116 C 
BRANCH  23  24
ATOM     24  N   UNL A   1      32.442  33.889  27.644  1.00  0.00    -0.352 N 
ATOM     25  C   UNL A   1      33.056  34.674  28.586  1.00  0.00     0.251 C 
ATOM     26  H   UNL A   1      31.715  34.328  27.147  1.00  0.00     0.163 HD
ATOM     27  O   UNL A   1      32.604  35.796  28.821  1.00  0.00    -0.269 OA
BRANCH  25  28
ATOM     28  C   UNL A   1      34.231  34.186  29.342  1.00  0.00     0.039 A 
ATOM     29  C   UNL A   1      34.014  33.458  30.516  1.00  0.00     0.014 A 
ATOM     30  C   UNL A   1      35.539  34.455  28.926  1.00  0.00     0.014 A 
ATOM     31  C   UNL A   1      35.099  32.949  31.235  1.00  0.00     0.010 A 
ATOM     32  C   UNL A   1      36.618  33.886  29.606  1.00  0.00     0.010 A 
ATOM     33  C   UNL A   1      36.411  33.128  30.767  1.00  0.00    -0.014 A 
BRANCH  33  34
ATOM     34  C   UNL A   1      37.564  32.500  31.468  1.00  0.00     0.031 A 
ATOM     35  C   UNL A   1      38.321  31.360  30.840  1.00  0.00     0.074 A 
ATOM     36  C   UNL A   1      37.888  32.916  32.710  1.00  0.00     0.049 A 
ATOM     37  N   UNL A   1      39.336  30.685  31.315  1.00  0.00    -0.248 NA
ATOM     38  C   UNL A   1      37.868  30.902  29.516  1.00  0.00     0.031 C 
ATOM     39  C   UNL A   1      37.186  33.960  33.461  1.00  0.00     0.029 A 
ATOM     40  N   UNL A   1      38.876  32.499  33.568  1.00  0.00    -0.354 N 
ATOM     41  C   UNL A   1      39.621  29.706  30.372  1.00  0.00     0.074 A 
ATOM     42  C   UNL A   1      38.655  29.856  29.306  1.00  0.00     0.031 C 
ATOM     43  C   UNL A   1      37.770  34.108  34.661  1.00  0.00     0.029 A 
ATOM     44  C   UNL A   1      38.865  33.151  34.781  1.00  0.00     0.049 A 
ATOM     45  H   UNL A   1      39.530  31.801  33.339  1.00  0.00     0.167 HD
ATOM     46  C   UNL A   1      40.611  28.781  30.379  1.00  0.00     0.034 A 
ATOM     47  C   UNL A   1      39.642  32.991  35.870  1.00  0.00     0.034 A 
ATOM     48  C   UNL A   1      41.596  28.658  31.422  1.00  0.00     0.049 A 
ATOM     49  C   UNL A   1      40.751  31.975  35.835  1.00  0.00     0.074 A 
ATOM     50  C   UNL A   1      42.693  27.816  31.471  1.00  0.00     0.029 A 
ATOM     51  N   UNL A   1      41.595  29.382  32.603  1.00  0.00    -0.354 N 
ATOM     52  N   UNL A   1      41.109  31.175  34.861  1.00  0.00    -0.248 NA
ATOM     53  C   UNL A   1      41.589  31.865  37.040  1.00  0.00     0.031 C 
ATOM     54  C   UNL A   1      43.335  28.006  32.699  1.00  0.00     0.029 A 
ATOM     55  C   UNL A   1      42.661  28.994  33.397  1.00  0.00     0.049 A 
ATOM     56  H   UNL A   1      40.934  30.072  32.843  1.00  0.00     0.167 HD
ATOM     57  C   UNL A   1      42.233  30.496  35.318  1.00  0.00     0.074 A 
ATOM     58  C   UNL A   1      42.512  30.998  36.647  1.00  0.00     0.031 C 
ATOM     59  C   UNL A   1      42.959  29.533  34.699  1.00  0.00     0.034 A 
BRANCH  46  60
ATOM     60  C   UNL A   1      40.715  27.844  29.203  1.00  0.00     0.023 A 
ATOM     61  C   UNL A   1      39.858  26.727  29.120  1.00  0.00     0.012 A 
ATOM     62  C   UNL A   1      41.598  28.116  28.138  1.00  0.00     0.148 A 
ATOM     63  C   UNL A   1      39.897  25.881  28.013  1.00  0.00     0.002 A 
ATOM     64  C   UNL A   1      41.598  27.295  27.017  1.00  0.00     0.091 A 
ATOM     65  F   UNL A   1      42.416  29.172  28.242  1.00  0.00    -0.205 F 
ATOM     66  C   UNL A   1      40.757  26.172  26.957  1.00  0.00     0.022 A 
BRANCH  64  67
ATOM     67  S   UNL A   1      42.608  27.629  25.569  1.00  0.00     0.127 S 
ATOM     68  O   UNL A   1      41.997  28.857  25.060  1.00  0.00    -0.237 OA
ATOM     69  O   UNL A   1      43.935  27.807  26.156  1.00  0.00    -0.237 OA
ATOM     70  O   UNL A   1      42.472  26.464  24.705  1.00  0.00    -0.744 OA
ENDBRANCH  64  67
ENDBRANCH  46  60
BRANCH  47  71
ATOM     71  C   UNL A   1      39.433  33.846  37.075  1.00  0.00     0.023 A 
ATOM     72  C   UNL A   1      39.894  35.176  37.070  1.00  0.00     0.012 A 
ATOM     73  C   UNL A   1      38.784  33.349  38.222  1.00  0.00     0.148 A 
ATOM     74  C   UNL A   1      39.754  35.984  38.200  1.00  0.00     0.002 A 
ATOM     75  C   UNL A   1      38.594  34.177  39.322  1.00  0.00     0.091 A 
ATOM     76  F   UNL A   1      38.364  32.077  38.214  1.00  0.00    -0.205 F 
ATOM     77  C   UNL A   1      39.096  35.487  39.321  1.00  0.00     0.022 A 
BRANCH  75  78
ATOM     78  S   UNL A   1      37.643  33.662  40.756  1.00  0.00     0.127 S 
ATOM     79  O   UNL A   1      36.427  33.143  40.139  1.00  0.00    -0.237 OA
ATOM     80  O   UNL A   1      38.517  32.647  41.349  1.00  0.00    -0.237 OA
ATOM     81  O   UNL A   1      37.481  34.859  41.570  1.00  0.00    -0.744 OA
ENDBRANCH  75  78
ENDBRANCH  47  71
BRANCH  59  82
ATOM     82  C   UNL A   1      44.155  28.982  35.432  1.00  0.00     0.023 A 
ATOM     83  C   UNL A   1      45.439  29.504  35.180  1.00  0.00     0.012 A 
ATOM     84  C   UNL A   1      43.995  27.986  36.416  1.00  0.00     0.148 A 
ATOM     85  C   UNL A   1      46.551  29.014  35.864  1.00  0.00     0.002 A 
ATOM     86  C   UNL A   1      45.100  27.541  37.132  1.00  0.00     0.091 A 
ATOM     87  F   UNL A   1      42.769  27.488  36.631  1.00  0.00    -0.205 F 
ATOM     88  C   UNL A   1      46.380  28.042  36.847  1.00  0.00     0.022 A 
BRANCH  86  89
ATOM     89  S   UNL A   1      44.963  26.365  38.483  1.00  0.00     0.127 S 
ATOM     90  O   UNL A   1      43.567  26.530  38.881  1.00  0.00    -0.237 OA
ATOM     91  O   UNL A   1      45.262  25.095  37.821  1.00  0.00    -0.237 OA
ATOM     92  O   UNL A   1      45.948  26.775  39.475  1.00  0.00    -0.744 OA
ENDBRANCH  86  89
ENDBRANCH  59  82
ENDBRANCH  33  34
ENDBRANCH  25  28
ENDBRANCH  23  24
ENDBRANCH  22  23
ENDBRANCH   1  22
TORSDOF 18
ENDMDL
MODEL 2
REMARK VINA RESULT:     -11.2      1.357      8.292
REMARK SMILES CCC1C[NH+]([C@H]2COC[C@@]2(C)C(=O)NCCCCCCNC(=O)c2ccc(-c3c4nc(c(-c5cccc(S(=O)(=O)[O-])c5F)c5ccc([nH]5)c(-c5cccc(S(=O)(=O)[O-])c5F)c5nc(c(-c6cccc(S(=O)(=O)[O-])c6F)c6ccc3[nH]6)C=C5)C=C4)cc2)C1
REMARK SMILES IDX 18 1 17 2 16 3 15 4 14 5 12 6 13 7 10 9 6 10 7 11 8 12 9 13
REMARK SMILES IDX 11 14 5 15 3 16 4 17 87 18 2 20 1 21 19 22 20 23 21 24 22 25
REMARK SMILES IDX 23 27 24 28 25 29 86 30 26 31 85 32 27 33 28 34 29 35 79 36
REMARK SMILES IDX 30 37 84 38 78 39 80 40 31 41 83 42 77 43 76 44 32 46 64 47
REMARK SMILES IDX 44 48 63 49 45 50 48 51 62 52 81 53 46 54 47 55 61 57 82 58
REMARK SMILES IDX 49 59 33 60 34 61 42 62 35 63 37 64 43 65 36 66 38 67 39 68
REMARK SMILES IDX 40 69 41 70 65 71 66 72 74 73 67 74 69 75 75 76 68 77 70 78
REMARK SMILES IDX 71 79 72 80 73 81 50 82 51 83 59 84 52 85 54 86 60 87 53 88
REMARK SMILES IDX 55 89 56 90 57 91 58 92
REMARK H PARENT 14 8 5 19 21 26 80 45 48 56
REMARK Flexibility Score: inf
ROOT
ATOM      1  C   UNL A   1      31.706  30.778  26.287  1.00  0.00     0.002 C 
ENDROOT
BRANCH   1   2
ATOM      2  C   UNL A   1      32.496  29.824  27.191  1.00  0.00     0.002 C 
BRANCH   2   3
ATOM      3  C   UNL A   1      31.839  28.497  27.576  1.00  0.00     0.021 C 
BRANCH   3   4
ATOM      4  C   UNL A   1      31.689  27.466  26.468  1.00  0.00     0.116 C 
BRANCH   4   5
ATOM      5  N   UNL A   1      30.734  26.405  26.690  1.00  0.00    -0.355 N 
ATOM      6  C   UNL A   1      30.692  25.180  26.078  1.00  0.00     0.234 C 
ATOM      7  O   UNL A   1      30.040  24.308  26.671  1.00  0.00    -0.274 OA
ATOM      8  H   UNL A   1      30.032  26.582  27.357  1.00  0.00     0.163 HD
BRANCH   6   9
ATOM      9  C   UNL A   1      31.205  24.900  24.646  1.00  0.00     0.123 C 
ATOM     10  C   UNL A   1      30.681  25.649  23.405  1.00  0.00     0.228 C 
ATOM     11  C   UNL A   1      31.850  25.514  22.419  1.00  0.00     0.226 C 
ATOM     12  O   UNL A   1      33.053  25.423  23.190  1.00  0.00    -0.374 OA
ATOM     13  C   UNL A   1      32.690  25.291  24.576  1.00  0.00     0.183 C 
ATOM     14  C   UNL A   1      31.066  23.370  24.446  1.00  0.00     0.031 C 
BRANCH  10  15
ATOM     15  N   UNL A   1      30.212  27.000  23.696  1.00  0.00    -0.329 N 
ATOM     16  C   UNL A   1      29.052  28.658  23.262  1.00  0.00     0.099 C 
ATOM     17  C   UNL A   1      28.749  27.162  23.558  1.00  0.00     0.271 C 
ATOM     18  C   UNL A   1      30.406  28.092  22.720  1.00  0.00     0.271 C 
ATOM     19  H   UNL A   1      30.712  27.073  24.582  1.00  0.00     0.348 HD
BRANCH  16  20
ATOM     20  C   UNL A   1      28.114  29.376  22.314  1.00  0.00     0.012 C 
ATOM     21  C   UNL A   1      27.729  30.730  22.892  1.00  0.00     0.004 C 
ENDBRANCH  16  20
ENDBRANCH  10  15
ENDBRANCH   6   9
ENDBRANCH   4   5
ENDBRANCH   3   4
ENDBRANCH   2   3
ENDBRANCH   1   2
BRANCH   1  22
ATOM     22  C   UNL A   1      31.516  32.220  26.765  1.00  0.00     0.021 C 
BRANCH  22  23
ATOM     23  C   UNL A   1      32.751  32.939  27.299  1.00  0.00     0.116 C 
BRANCH  23  24
ATOM     24  N   UNL A   1      32.462  34.255  27.845  1.00  0.00    -0.352 N 
ATOM     25  C   UNL A   1      33.053  34.932  28.881  1.00  0.00     0.251 C 
ATOM     26  H   UNL A   1      31.726  34.735  27.402  1.00  0.00     0.163 HD
ATOM     27  O   UNL A   1      32.573  36.006  29.249  1.00  0.00    -0.269 OA
BRANCH  25  28
ATOM     28  C   UNL A   1      34.238  34.383  29.578  1.00  0.00     0.039 A 
ATOM     29  C   UNL A   1      34.045  33.696  30.781  1.00  0.00     0.014 A 
ATOM     30  C   UNL A   1      35.533  34.554  29.079  1.00  0.00     0.014 A 
ATOM     31  C   UNL A   1      35.135  33.132  31.447  1.00  0.00     0.010 A 
ATOM     32  C   UNL A   1      36.611  33.929  29.708  1.00  0.00     0.010 A 
ATOM     33  C   UNL A   1      36.426  33.212  30.899  1.00  0.00    -0.014 A 
BRANCH  33  34
ATOM     34  C   UNL A   1      37.574  32.523  31.547  1.00  0.00     0.031 A 
ATOM     35  C   UNL A   1      38.123  33.007  32.863  1.00  0.00     0.074 A 
ATOM     36  C   UNL A   1      38.170  31.493  30.911  1.00  0.00     0.049 A 
ATOM     37  N   UNL A   1      39.126  32.537  33.559  1.00  0.00    -0.248 NA
ATOM     38  C   UNL A   1      37.476  34.183  33.468  1.00  0.00     0.031 C 
ATOM     39  C   UNL A   1      37.784  30.975  29.595  1.00  0.00     0.029 A 
ATOM     40  N   UNL A   1      39.240  30.710  31.273  1.00  0.00    -0.354 N 
ATOM     41  C   UNL A   1      39.254  33.375  34.660  1.00  0.00     0.074 A 
ATOM     42  C   UNL A   1      38.242  34.400  34.528  1.00  0.00     0.031 C 
ATOM     43  C   UNL A   1      38.596  29.958  29.267  1.00  0.00     0.029 A 
ATOM     44  C   UNL A   1      39.580  29.770  30.327  1.00  0.00     0.049 A 
ATOM     45  H   UNL A   1      39.717  30.812  32.127  1.00  0.00     0.167 HD
ATOM     46  C   UNL A   1      40.120  33.287  35.699  1.00  0.00     0.034 A 
ATOM     47  C   UNL A   1      40.578  28.864  30.310  1.00  0.00     0.034 A 
ATOM     48  C   UNL A   1      41.101  32.245  35.849  1.00  0.00     0.049 A 
ATOM     49  C   UNL A   1      41.503  28.773  31.493  1.00  0.00     0.074 A 
ATOM     50  C   UNL A   1      41.956  32.017  36.913  1.00  0.00     0.029 A 
ATOM     51  N   UNL A   1      41.371  31.268  34.904  1.00  0.00    -0.354 N 
ATOM     52  N   UNL A   1      41.497  29.468  32.603  1.00  0.00    -0.248 NA
ATOM     53  C   UNL A   1      42.555  27.744  31.436  1.00  0.00     0.031 C 
ATOM     54  C   UNL A   1      42.768  30.924  36.596  1.00  0.00     0.029 A 
ATOM     55  C   UNL A   1      42.392  30.447  35.351  1.00  0.00     0.049 A 
ATOM     56  H   UNL A   1      40.905  31.171  34.042  1.00  0.00     0.167 HD
ATOM     57  C   UNL A   1      42.513  28.939  33.391  1.00  0.00     0.074 A 
ATOM     58  C   UNL A   1      43.097  27.847  32.641  1.00  0.00     0.031 C 
ATOM     59  C   UNL A   1      42.935  29.332  34.618  1.00  0.00     0.034 A 
BRANCH  46  60
ATOM     60  C   UNL A   1      40.026  34.324  36.789  1.00  0.00     0.023 A 
ATOM     61  C   UNL A   1      40.366  35.664  36.512  1.00  0.00     0.012 A 
ATOM     62  C   UNL A   1      39.518  33.990  38.062  1.00  0.00     0.148 A 
ATOM     63  C   UNL A   1      40.231  36.649  37.489  1.00  0.00     0.002 A 
ATOM     64  C   UNL A   1      39.342  34.985  39.016  1.00  0.00     0.091 A 
ATOM     65  F   UNL A   1      39.217  32.709  38.312  1.00  0.00    -0.205 F 
ATOM     66  C   UNL A   1      39.708  36.313  38.736  1.00  0.00     0.022 A 
BRANCH  64  67
ATOM     67  S   UNL A   1      38.600  34.672  40.621  1.00  0.00     0.127 S 
ATOM     68  O   UNL A   1      39.685  33.980  41.317  1.00  0.00    -0.237 OA
ATOM     69  O   UNL A   1      38.333  36.026  41.105  1.00  0.00    -0.237 OA
ATOM     70  O   UNL A   1      37.413  33.867  40.368  1.00  0.00    -0.744 OA
ENDBRANCH  64  67
ENDBRANCH  46  60
BRANCH  47  71
ATOM     71  C   UNL A   1      40.729  27.933  29.154  1.00  0.00     0.023 A 
ATOM     72  C   UNL A   1      39.987  26.736  29.127  1.00  0.00     0.012 A 
ATOM     73  C   UNL A   1      41.601  28.224  28.088  1.00  0.00     0.148 A 
ATOM     74  C   UNL A   1      40.143  25.825  28.081  1.00  0.00     0.002 A 
ATOM     75  C   UNL A   1      41.707  27.341  27.020  1.00  0.00     0.091 A 
ATOM     76  F   UNL A   1      42.308  29.361  28.138  1.00  0.00    -0.205 F 
ATOM     77  C   UNL A   1      40.996  26.132  27.024  1.00  0.00     0.022 A 
BRANCH  75  78
ATOM     78  S   UNL A   1      42.679  27.717  25.557  1.00  0.00     0.127 S 
ATOM     79  O   UNL A   1      44.036  27.734  26.096  1.00  0.00    -0.237 OA
ATOM     80  O   UNL A   1      42.373  26.579  24.690  1.00  0.00    -0.237 OA
ATOM     81  O   UNL A   1      42.174  28.994  25.069  1.00  0.00    -0.744 OA
ENDBRANCH  75  78
ENDBRANCH  47  71
BRANCH  59  82
ATOM     82  C   UNL A   1      44.058  28.552  35.252  1.00  0.00     0.023 A 
ATOM     83  C   UNL A   1      45.397  28.887  34.967  1.00  0.00     0.012 A 
ATOM     84  C   UNL A   1      43.785  27.526  36.177  1.00  0.00     0.148 A 
ATOM     85  C   UNL A   1      46.446  28.184  35.560  1.00  0.00     0.002 A 
ATOM     86  C   UNL A   1      44.835  26.867  36.806  1.00  0.00     0.091 A 
ATOM     87  F   UNL A   1      42.506  27.209  36.424  1.00  0.00    -0.205 F 
ATOM     88  C   UNL A   1      46.164  27.183  36.487  1.00  0.00     0.022 A 
BRANCH  86  89
ATOM     89  S   UNL A   1      44.571  25.634  38.085  1.00  0.00     0.127 S 
ATOM     90  O   UNL A   1      44.082  26.453  39.192  1.00  0.00    -0.237 OA
ATOM     91  O   UNL A   1      43.561  24.766  37.476  1.00  0.00    -0.237 OA
ATOM     92  O   UNL A   1      45.863  24.996  38.303  1.00  0.00    -0.744 OA
ENDBRANCH  86  89
ENDBRANCH  59  82
ENDBRANCH  33  34
ENDBRANCH  25  28
ENDBRANCH  23  24
ENDBRANCH  22  23
ENDBRANCH   1  22
TORSDOF 18
ENDMDL
MODEL 3
REMARK VINA RESULT:     -11.2      2.287      3.270
REMARK SMILES CCC1C[NH+]([C@H]2COC[C@@]2(C)C(=O)NCCCCCCNC(=O)c2ccc(-c3c4nc(c(-c5cccc(S(=O)(=O)[O-])c5F)c5ccc([nH]5)c(-c5cccc(S(=O)(=O)[O-])c5F)c5nc(c(-c6cccc(S(=O)(=O)[O-])c6F)c6ccc3[nH]6)C=C5)C=C4)cc2)C1
REMARK SMILES IDX 18 1 17 2 16 3 15 4 14 5 12 6 13 7 10 9 6 10 7 11 8 12 9 13
REMARK SMILES IDX 11 14 5 15 3 16 4 17 87 18 2 20 1 21 19 22 20 23 21 24 22 25
REMARK SMILES IDX 23 27 24 28 25 29 86 30 26 31 85 32 27 33 28 34 29 35 79 36
REMARK SMILES IDX 30 37 84 38 78 39 80 40 31 41 83 42 77 43 76 44 32 46 64 47
REMARK SMILES IDX 44 48 63 49 45 50 48 51 62 52 81 53 46 54 47 55 61 57 82 58
REMARK SMILES IDX 49 59 33 60 34 61 42 62 35 63 37 64 43 65 36 66 38 67 39 68
REMARK SMILES IDX 40 69 41 70 65 71 66 72 74 73 67 74 69 75 75 76 68 77 70 78
REMARK SMILES IDX 71 79 72 80 73 81 50 82 51 83 59 84 52 85 54 86 60 87 53 88
REMARK SMILES IDX 55 89 56 90 57 91 58 92
REMARK H PARENT 14 8 5 19 21 26 80 45 48 56
REMARK Flexibility Score: inf
ROOT
ATOM      1  C   UNL A   1      32.138  29.104  23.343  1.00  0.00     0.002 C 
ENDROOT
BRANCH   1   2
ATOM      2  C   UNL A   1      30.614  28.993  23.481  1.00  0.00     0.002 C 
BRANCH   2   3
ATOM      3  C   UNL A   1      29.980  27.613  23.304  1.00  0.00     0.021 C 
BRANCH   3   4
ATOM      4  C   UNL A   1      30.828  26.418  23.711  1.00  0.00     0.116 C 
BRANCH   4   5
ATOM      5  N   UNL A   1      30.719  25.977  25.082  1.00  0.00    -0.355 N 
ATOM      6  C   UNL A   1      31.265  24.852  25.642  1.00  0.00     0.234 C 
ATOM      7  O   UNL A   1      31.363  24.864  26.878  1.00  0.00    -0.274 OA
ATOM      8  H   UNL A   1      30.192  26.550  25.684  1.00  0.00     0.163 HD
BRANCH   6   9
ATOM      9  C   UNL A   1      31.548  23.541  24.871  1.00  0.00     0.123 C 
ATOM     10  C   UNL A   1      32.969  23.079  24.493  1.00  0.00     0.228 C 
ATOM     11  C   UNL A   1      32.797  21.560  24.355  1.00  0.00     0.226 C 
ATOM     12  O   UNL A   1      31.737  21.166  25.234  1.00  0.00    -0.374 OA
ATOM     13  C   UNL A   1      31.116  22.357  25.750  1.00  0.00     0.183 C 
ATOM     14  C   UNL A   1      30.650  23.599  23.609  1.00  0.00     0.031 C 
BRANCH  10  15
ATOM     15  N   UNL A   1      33.998  23.548  25.417  1.00  0.00    -0.329 N 
ATOM     16  C   UNL A   1      35.978  23.816  25.952  1.00  0.00     0.099 C 
ATOM     17  C   UNL A   1      35.101  24.276  24.754  1.00  0.00     0.271 C 
ATOM     18  C   UNL A   1      34.985  22.608  25.986  1.00  0.00     0.271 C 
ATOM     19  H   UNL A   1      33.338  23.980  26.064  1.00  0.00     0.348 HD
BRANCH  16  20
ATOM     20  C   UNL A   1      37.446  23.563  25.673  1.00  0.00     0.012 C 
ATOM     21  C   UNL A   1      38.304  24.443  26.571  1.00  0.00     0.004 C 
ENDBRANCH  16  20
ENDBRANCH  10  15
ENDBRANCH   6   9
ENDBRANCH   4   5
ENDBRANCH   3   4
ENDBRANCH   2   3
ENDBRANCH   1   2
BRANCH   1  22
ATOM     22  C   UNL A   1      32.966  29.192  24.628  1.00  0.00     0.021 C 
BRANCH  22  23
ATOM     23  C   UNL A   1      32.200  29.411  25.929  1.00  0.00     0.116 C 
BRANCH  23  24
ATOM     24  N   UNL A   1      31.962  30.813  26.229  1.00  0.00    -0.352 N 
ATOM     25  C   UNL A   1      32.678  31.684  27.009  1.00  0.00     0.251 C 
ATOM     26  H   UNL A   1      31.161  31.197  25.806  1.00  0.00     0.163 HD
ATOM     27  O   UNL A   1      32.231  32.815  27.214  1.00  0.00    -0.269 OA
BRANCH  25  28
ATOM     28  C   UNL A   1      33.961  31.282  27.629  1.00  0.00     0.039 A 
ATOM     29  C   UNL A   1      34.935  32.263  27.841  1.00  0.00     0.014 A 
ATOM     30  C   UNL A   1      34.226  29.956  27.981  1.00  0.00     0.014 A 
ATOM     31  C   UNL A   1      36.142  31.927  28.459  1.00  0.00     0.010 A 
ATOM     32  C   UNL A   1      35.402  29.636  28.662  1.00  0.00     0.010 A 
ATOM     33  C   UNL A   1      36.374  30.617  28.908  1.00  0.00    -0.014 A 
BRANCH  33  34
ATOM     34  C   UNL A   1      37.611  30.275  29.661  1.00  0.00     0.031 A 
ATOM     35  C   UNL A   1      38.637  29.340  29.077  1.00  0.00     0.074 A 
ATOM     36  C   UNL A   1      37.779  30.760  30.909  1.00  0.00     0.049 A 
ATOM     37  N   UNL A   1      39.761  28.922  29.600  1.00  0.00    -0.248 NA
ATOM     38  C   UNL A   1      38.357  28.785  27.742  1.00  0.00     0.031 C 
ATOM     39  C   UNL A   1      36.824  31.614  31.619  1.00  0.00     0.029 A 
ATOM     40  N   UNL A   1      38.801  30.587  31.810  1.00  0.00    -0.354 N 
ATOM     41  C   UNL A   1      40.304  28.032  28.681  1.00  0.00     0.074 A 
ATOM     42  C   UNL A   1      39.374  27.950  27.576  1.00  0.00     0.031 C 
ATOM     43  C   UNL A   1      37.308  31.898  32.838  1.00  0.00     0.029 A 
ATOM     44  C   UNL A   1      38.589  31.222  33.013  1.00  0.00     0.049 A 
ATOM     45  H   UNL A   1      39.608  30.059  31.615  1.00  0.00     0.167 HD
ATOM     46  C   UNL A   1      41.480  27.363  28.739  1.00  0.00     0.034 A 
ATOM     47  C   UNL A   1      39.337  31.251  34.134  1.00  0.00     0.034 A 
ATOM     48  C   UNL A   1      42.423  27.475  29.821  1.00  0.00     0.049 A 
ATOM     49  C   UNL A   1      40.652  30.521  34.155  1.00  0.00     0.074 A 
ATOM     50  C   UNL A   1      43.683  26.912  29.924  1.00  0.00     0.029 A 
ATOM     51  N   UNL A   1      42.206  28.183  30.992  1.00  0.00    -0.354 N 
ATOM     52  N   UNL A   1      41.226  29.823  33.205  1.00  0.00    -0.248 NA
ATOM     53  C   UNL A   1      41.443  30.612  35.392  1.00  0.00     0.031 C 
ATOM     54  C   UNL A   1      44.213  27.250  31.173  1.00  0.00     0.029 A 
ATOM     55  C   UNL A   1      43.300  28.057  31.832  1.00  0.00     0.049 A 
ATOM     56  H   UNL A   1      41.394  28.702  31.197  1.00  0.00     0.167 HD
ATOM     57  C   UNL A   1      42.457  29.425  33.715  1.00  0.00     0.074 A 
ATOM     58  C   UNL A   1      42.557  29.983  35.047  1.00  0.00     0.031 C 
ATOM     59  C   UNL A   1      43.411  28.655  33.137  1.00  0.00     0.034 A 
BRANCH  46  60
ATOM     60  C   UNL A   1      41.846  26.471  27.580  1.00  0.00     0.023 A 
ATOM     61  C   UNL A   1      42.444  27.028  26.430  1.00  0.00     0.012 A 
ATOM     62  C   UNL A   1      41.679  25.074  27.662  1.00  0.00     0.148 A 
ATOM     63  C   UNL A   1      42.843  26.214  25.371  1.00  0.00     0.002 A 
ATOM     64  C   UNL A   1      42.122  24.265  26.623  1.00  0.00     0.091 A 
ATOM     65  F   UNL A   1      41.094  24.565  28.755  1.00  0.00    -0.205 F 
ATOM     66  C   UNL A   1      42.694  24.833  25.472  1.00  0.00     0.022 A 
BRANCH  64  67
ATOM     67  S   UNL A   1      42.052  22.471  26.690  1.00  0.00     0.127 S 
ATOM     68  O   UNL A   1      42.498  22.108  25.345  1.00  0.00    -0.237 OA
ATOM     69  O   UNL A   1      43.010  22.167  27.752  1.00  0.00    -0.237 OA
ATOM     70  O   UNL A   1      40.669  22.132  26.998  1.00  0.00    -0.744 OA
ENDBRANCH  64  67
ENDBRANCH  46  60
BRANCH  47  71
ATOM     71  C   UNL A   1      38.886  32.038  35.319  1.00  0.00     0.023 A 
ATOM     72  C   UNL A   1      39.054  33.436  35.327  1.00  0.00     0.012 A 
ATOM     73  C   UNL A   1      38.298  31.411  36.433  1.00  0.00     0.148 A 
ATOM     74  C   UNL A   1      38.684  34.192  36.441  1.00  0.00     0.002 A 
ATOM     75  C   UNL A   1      37.876  32.176  37.515  1.00  0.00     0.091 A 
ATOM     76  F   UNL A   1      38.158  30.078  36.413  1.00  0.00    -0.205 F 
ATOM     77  C   UNL A   1      38.087  33.563  37.530  1.00  0.00     0.022 A 
BRANCH  75  78
ATOM     78  S   UNL A   1      36.981  31.465  38.901  1.00  0.00     0.127 S 
ATOM     79  O   UNL A   1      36.803  30.084  38.465  1.00  0.00    -0.237 OA
ATOM     80  O   UNL A   1      37.930  31.650  40.000  1.00  0.00    -0.237 OA
ATOM     81  O   UNL A   1      35.762  32.254  39.025  1.00  0.00    -0.744 OA
ENDBRANCH  75  78
ENDBRANCH  47  71
BRANCH  59  82
ATOM     82  C   UNL A   1      44.671  28.399  33.923  1.00  0.00     0.023 A 
ATOM     83  C   UNL A   1      45.755  29.295  33.830  1.00  0.00     0.012 A 
ATOM     84  C   UNL A   1      44.757  27.300  34.801  1.00  0.00     0.148 A 
ATOM     85  C   UNL A   1      46.920  29.078  34.565  1.00  0.00     0.002 A 
ATOM     86  C   UNL A   1      45.900  27.121  35.571  1.00  0.00     0.091 A 
ATOM     87  F   UNL A   1      43.724  26.449  34.865  1.00  0.00    -0.205 F 
ATOM     88  C   UNL A   1      46.987  27.999  35.443  1.00  0.00     0.022 A 
BRANCH  86  89
ATOM     89  S   UNL A   1      46.039  25.820  36.801  1.00  0.00     0.127 S 
ATOM     90  O   UNL A   1      44.738  25.895  37.463  1.00  0.00    -0.237 OA
ATOM     91  O   UNL A   1      46.234  24.629  35.972  1.00  0.00    -0.237 OA
ATOM     92  O   UNL A   1      47.183  26.171  37.632  1.00  0.00    -0.744 OA
ENDBRANCH  86  89
ENDBRANCH  59  82
ENDBRANCH  33  34
ENDBRANCH  25  28
ENDBRANCH  23  24
ENDBRANCH  22  23
ENDBRANCH   1  22
TORSDOF 18
ENDMDL
