MODEL 1
REMARK VINA RESULT:     -11.4      0.000      0.000
REMARK SMILES Cc1ccc(S(=O)(=O)n2cc(C(=O)C(=O)NCC(=O)NCC(=O)NCCCCCCNC(=O)c3ccc(-c4c5nc(c(-c6cccc(S(=O)(=O)[O-])c6F)c6ccc([nH]6)c(-c6cccc(S(=O)(=O)[O-])c6F)c6nc(c(-c7cccc(S(=O)(=O)[O-])c7F)c7ccc4[nH]7)C=C6)C=C5)cc3)c3ccccc32)cc1
REMARK SMILES IDX 25 1 24 2 22 3 23 4 21 6 20 7 18 8 19 9 17 11 16 12 14 13
REMARK SMILES IDX 15 14 12 16 13 17 11 18 9 19 10 20 102 21 97 22 101 23 98 24
REMARK SMILES IDX 100 25 99 26 6 27 7 28 8 29 5 30 1 31 2 32 3 33 104 34 4 35
REMARK SMILES IDX 103 36 26 37 27 38 28 39 29 40 30 41 31 42 32 43 33 45 34 46
REMARK SMILES IDX 35 47 96 48 36 49 95 50 37 51 38 52 39 53 89 54 40 55 94 56
REMARK SMILES IDX 88 57 90 58 41 59 93 60 87 61 86 62 42 64 74 65 54 66 73 67
REMARK SMILES IDX 55 68 58 69 72 70 91 71 56 72 57 73 71 75 92 76 59 77 43 78
REMARK SMILES IDX 44 79 52 80 45 81 47 82 53 83 46 84 48 85 49 86 50 87 51 88
REMARK SMILES IDX 75 89 76 90 84 91 77 92 79 93 85 94 78 95 80 96 81 97 82 98
REMARK SMILES IDX 83 99 60 100 61 101 69 102 62 103 64 104 70 105 63 106
REMARK SMILES IDX 65 107 66 108 67 109 68 110
REMARK H PARENT 24 5 20 10 16 15 31 44 90 63 58 74
REMARK Flexibility Score: inf
ROOT
ATOM      1  C   UNL A   1      33.562  29.434  26.870  1.00  0.00     0.116 C 
ENDROOT
BRANCH   1   2
ATOM      2  N   UNL A   1      32.744  30.594  26.611  1.00  0.00    -0.355 N 
ATOM      3  C   UNL A   1      31.645  30.700  25.809  1.00  0.00     0.239 C 
ATOM      4  O   UNL A   1      30.932  31.700  25.941  1.00  0.00    -0.273 OA
ATOM      5  H   UNL A   1      33.014  31.419  27.076  1.00  0.00     0.163 HD
BRANCH   3   6
ATOM      6  C   UNL A   1      31.198  29.536  24.907  1.00  0.00     0.216 C 
BRANCH   6   7
ATOM      7  N   UNL A   1      30.714  29.912  23.590  1.00  0.00    -0.346 N 
ATOM      8  C   UNL A   1      30.412  29.159  22.496  1.00  0.00     0.239 C 
ATOM      9  O   UNL A   1      29.972  29.750  21.507  1.00  0.00    -0.273 OA
ATOM     10  H   UNL A   1      30.581  30.880  23.466  1.00  0.00     0.164 HD
BRANCH   8  11
ATOM     11  C   UNL A   1      30.527  27.624  22.494  1.00  0.00     0.216 C 
BRANCH  11  12
ATOM     12  N   UNL A   1      31.601  27.053  21.677  1.00  0.00    -0.340 N 
ATOM     13  C   UNL A   1      32.890  26.666  21.985  1.00  0.00     0.292 C 
ATOM     14  O   UNL A   1      33.613  26.243  21.089  1.00  0.00    -0.265 OA
ATOM     15  H   UNL A   1      31.359  26.921  20.732  1.00  0.00     0.164 HD
BRANCH  13  16
ATOM     16  C   UNL A   1      33.418  26.764  23.431  1.00  0.00     0.252 C 
ATOM     17  O   UNL A   1      33.907  27.834  23.784  1.00  0.00    -0.283 OA
BRANCH  16  18
ATOM     18  C   UNL A   1      33.361  25.650  24.388  1.00  0.00     0.054 A 
ATOM     19  N   UNL A   1      33.831  23.877  25.664  1.00  0.00    -0.240 N 
ATOM     20  C   UNL A   1      34.357  24.760  24.751  1.00  0.00     0.117 A 
ATOM     21  C   UNL A   1      32.507  24.158  25.928  1.00  0.00     0.065 A 
ATOM     22  C   UNL A   1      32.188  25.267  25.134  1.00  0.00     0.012 A 
ATOM     23  C   UNL A   1      31.547  23.539  26.750  1.00  0.00     0.028 A 
ATOM     24  C   UNL A   1      30.869  25.770  25.182  1.00  0.00     0.011 A 
ATOM     25  C   UNL A   1      30.244  24.047  26.752  1.00  0.00     0.002 A 
ATOM     26  C   UNL A   1      29.908  25.152  25.982  1.00  0.00     0.001 A 
BRANCH  19  27
ATOM     27  S   UNL A   1      34.677  22.538  26.296  1.00  0.00     0.268 S 
ATOM     28  O   UNL A   1      34.233  22.418  27.668  1.00  0.00    -0.201 OA
ATOM     29  O   UNL A   1      36.074  22.750  25.953  1.00  0.00    -0.201 OA
BRANCH  27  30
ATOM     30  C   UNL A   1      34.136  21.086  25.428  1.00  0.00     0.088 A 
ATOM     31  C   UNL A   1      32.701  17.802  23.045  1.00  0.00     0.044 C 
ATOM     32  C   UNL A   1      33.200  18.936  23.892  1.00  0.00    -0.051 A 
ATOM     33  C   UNL A   1      32.376  20.041  24.136  1.00  0.00     0.005 A 
ATOM     34  C   UNL A   1      34.483  18.906  24.450  1.00  0.00     0.005 A 
ATOM     35  C   UNL A   1      32.842  21.116  24.895  1.00  0.00     0.022 A 
ATOM     36  C   UNL A   1      34.950  19.971  25.228  1.00  0.00     0.022 A 
ENDBRANCH  27  30
ENDBRANCH  19  27
ENDBRANCH  16  18
ENDBRANCH  13  16
ENDBRANCH  11  12
ENDBRANCH   8  11
ENDBRANCH   6   7
ENDBRANCH   3   6
ENDBRANCH   1   2
BRANCH   1  37
ATOM     37  C   UNL A   1      34.674  29.680  27.877  1.00  0.00     0.021 C 
BRANCH  37  38
ATOM     38  C   UNL A   1      36.084  29.503  27.314  1.00  0.00     0.002 C 
BRANCH  38  39
ATOM     39  C   UNL A   1      37.199  29.301  28.353  1.00  0.00     0.002 C 
BRANCH  39  40
ATOM     40  C   UNL A   1      38.479  30.111  28.141  1.00  0.00     0.021 C 
BRANCH  40  41
ATOM     41  C   UNL A   1      39.592  29.344  27.459  1.00  0.00     0.116 C 
BRANCH  41  42
ATOM     42  N   UNL A   1      39.267  27.953  27.240  1.00  0.00    -0.352 N 
ATOM     43  C   UNL A   1      39.797  26.829  27.842  1.00  0.00     0.251 C 
ATOM     44  H   UNL A   1      38.570  27.783  26.565  1.00  0.00     0.163 HD
ATOM     45  O   UNL A   1      39.683  25.753  27.263  1.00  0.00    -0.269 OA
BRANCH  43  46
ATOM     46  C   UNL A   1      40.299  26.902  29.243  1.00  0.00     0.039 A 
ATOM     47  C   UNL A   1      39.319  27.097  30.226  1.00  0.00     0.014 A 
ATOM     48  C   UNL A   1      41.624  27.208  29.524  1.00  0.00     0.014 A 
ATOM     49  C   UNL A   1      39.596  27.923  31.305  1.00  0.00     0.010 A 
ATOM     50  C   UNL A   1      41.879  28.119  30.512  1.00  0.00     0.010 A 
ATOM     51  C   UNL A   1      40.833  28.544  31.332  1.00  0.00    -0.014 A 
BRANCH  51  52
ATOM     52  C   UNL A   1      41.209  29.609  32.229  1.00  0.00     0.031 A 
ATOM     53  C   UNL A   1      41.861  29.223  33.489  1.00  0.00     0.074 A 
ATOM     54  C   UNL A   1      41.217  30.862  31.721  1.00  0.00     0.049 A 
ATOM     55  N   UNL A   1      41.997  29.994  34.504  1.00  0.00    -0.248 NA
ATOM     56  C   UNL A   1      42.403  27.881  33.698  1.00  0.00     0.031 C 
ATOM     57  C   UNL A   1      41.990  32.002  32.191  1.00  0.00     0.029 A 
ATOM     58  N   UNL A   1      40.411  31.404  30.708  1.00  0.00    -0.354 N 
ATOM     59  C   UNL A   1      42.905  29.384  35.348  1.00  0.00     0.074 A 
ATOM     60  C   UNL A   1      43.021  28.030  34.873  1.00  0.00     0.031 C 
ATOM     61  C   UNL A   1      41.449  33.128  31.690  1.00  0.00     0.029 A 
ATOM     62  C   UNL A   1      40.192  32.745  31.067  1.00  0.00     0.049 A 
ATOM     63  H   UNL A   1      40.069  30.939  29.910  1.00  0.00     0.167 HD
ATOM     64  C   UNL A   1      43.604  30.163  36.221  1.00  0.00     0.034 A 
ATOM     65  C   UNL A   1      38.964  33.242  31.418  1.00  0.00     0.034 A 
ATOM     66  C   UNL A   1      43.179  31.565  36.076  1.00  0.00     0.049 A 
ATOM     67  C   UNL A   1      38.939  33.764  32.848  1.00  0.00     0.074 A 
ATOM     68  C   UNL A   1      43.701  32.614  35.335  1.00  0.00     0.029 A 
ATOM     69  N   UNL A   1      41.890  31.937  36.435  1.00  0.00    -0.354 N 
ATOM     70  N   UNL A   1      39.873  33.522  33.727  1.00  0.00    -0.248 NA
ATOM     71  C   UNL A   1      37.867  34.585  33.404  1.00  0.00     0.031 C 
ATOM     72  C   UNL A   1      42.683  33.592  35.189  1.00  0.00     0.029 A 
ATOM     73  C   UNL A   1      41.555  33.156  35.865  1.00  0.00     0.049 A 
ATOM     74  H   UNL A   1      41.296  31.407  37.014  1.00  0.00     0.167 HD
ATOM     75  C   UNL A   1      39.511  34.016  34.952  1.00  0.00     0.074 A 
ATOM     76  C   UNL A   1      38.279  34.737  34.676  1.00  0.00     0.031 C 
ATOM     77  C   UNL A   1      40.234  33.741  36.085  1.00  0.00     0.034 A 
BRANCH  64  78
ATOM     78  C   UNL A   1      44.887  29.772  36.941  1.00  0.00     0.023 A 
ATOM     79  C   UNL A   1      45.893  29.167  36.150  1.00  0.00     0.012 A 
ATOM     80  C   UNL A   1      45.185  29.900  38.319  1.00  0.00     0.148 A 
ATOM     81  C   UNL A   1      47.070  28.640  36.687  1.00  0.00     0.002 A 
ATOM     82  C   UNL A   1      46.344  29.333  38.868  1.00  0.00     0.091 A 
ATOM     83  F   UNL A   1      44.396  30.632  39.108  1.00  0.00    -0.205 F 
ATOM     84  C   UNL A   1      47.284  28.697  38.053  1.00  0.00     0.022 A 
BRANCH  82  85
ATOM     85  S   UNL A   1      46.690  29.326  40.639  1.00  0.00     0.127 S 
ATOM     86  O   UNL A   1      47.883  28.479  40.717  1.00  0.00    -0.237 OA
ATOM     87  O   UNL A   1      46.933  30.740  40.918  1.00  0.00    -0.237 OA
ATOM     88  O   UNL A   1      45.513  28.754  41.282  1.00  0.00    -0.744 OA
ENDBRANCH  82  85
ENDBRANCH  64  78
BRANCH  65  89
ATOM     89  C   UNL A   1      37.826  32.543  30.744  1.00  0.00     0.023 A 
ATOM     90  C   UNL A   1      37.223  31.476  31.453  1.00  0.00     0.012 A 
ATOM     91  C   UNL A   1      37.095  33.179  29.726  1.00  0.00     0.148 A 
ATOM     92  C   UNL A   1      35.863  31.202  31.303  1.00  0.00     0.002 A 
ATOM     93  C   UNL A   1      35.738  32.896  29.580  1.00  0.00     0.091 A 
ATOM     94  F   UNL A   1      37.708  34.100  28.973  1.00  0.00    -0.205 F 
ATOM     95  C   UNL A   1      35.108  31.952  30.407  1.00  0.00     0.022 A 
BRANCH  93  96
ATOM     96  S   UNL A   1      34.721  33.826  28.425  1.00  0.00     0.127 S 
ATOM     97  O   UNL A   1      33.548  32.967  28.308  1.00  0.00    -0.237 OA
ATOM     98  O   UNL A   1      34.491  35.082  29.138  1.00  0.00    -0.237 OA
ATOM     99  O   UNL A   1      35.548  33.961  27.234  1.00  0.00    -0.744 OA
ENDBRANCH  93  96
ENDBRANCH  65  89
BRANCH  77 100
ATOM    100  C   UNL A   1      39.777  34.003  37.512  1.00  0.00     0.023 A 
ATOM    101  C   UNL A   1      40.085  35.193  38.195  1.00  0.00     0.012 A 
ATOM    102  C   UNL A   1      38.891  33.109  38.174  1.00  0.00     0.148 A 
ATOM    103  C   UNL A   1      39.618  35.451  39.489  1.00  0.00     0.002 A 
ATOM    104  C   UNL A   1      38.322  33.433  39.402  1.00  0.00     0.091 A 
ATOM    105  F   UNL A   1      38.607  31.917  37.633  1.00  0.00    -0.205 F 
ATOM    106  C   UNL A   1      38.717  34.583  40.084  1.00  0.00     0.022 A 
BRANCH 104 107
ATOM    107  S   UNL A   1      36.954  32.480  40.079  1.00  0.00     0.127 S 
ATOM    108  O   UNL A   1      36.572  33.282  41.239  1.00  0.00    -0.237 OA
ATOM    109  O   UNL A   1      35.987  32.500  38.980  1.00  0.00    -0.237 OA
ATOM    110  O   UNL A   1      37.506  31.162  40.361  1.00  0.00    -0.744 OA
ENDBRANCH 104 107
ENDBRANCH  77 100
ENDBRANCH  51  52
ENDBRANCH  43  46
ENDBRANCH  41  42
ENDBRANCH  40  41
ENDBRANCH  39  40
ENDBRANCH  38  39
ENDBRANCH  37  38
ENDBRANCH   1  37
TORSDOF 23
ENDMDL
MODEL 2
REMARK VINA RESULT:     -11.1      4.607      7.957
REMARK SMILES Cc1ccc(S(=O)(=O)n2cc(C(=O)C(=O)NCC(=O)NCC(=O)NCCCCCCNC(=O)c3ccc(-c4c5nc(c(-c6cccc(S(=O)(=O)[O-])c6F)c6ccc([nH]6)c(-c6cccc(S(=O)(=O)[O-])c6F)c6nc(c(-c7cccc(S(=O)(=O)[O-])c7F)c7ccc4[nH]7)C=C6)C=C5)cc3)c3ccccc32)cc1
REMARK SMILES IDX 25 1 24 2 22 3 23 4 21 6 20 7 18 8 19 9 17 11 16 12 14 13
REMARK SMILES IDX 15 14 12 16 13 17 11 18 9 19 10 20 102 21 97 22 101 23 98 24
REMARK SMILES IDX 100 25 99 26 6 27 7 28 8 29 5 30 1 31 2 32 3 33 104 34 4 35
REMARK SMILES IDX 103 36 26 37 27 38 28 39 29 40 30 41 31 42 32 43 33 45 34 46
REMARK SMILES IDX 35 47 96 48 36 49 95 50 37 51 38 52 39 53 89 54 40 55 94 56
REMARK SMILES IDX 88 57 90 58 41 59 93 60 87 61 86 62 42 64 74 65 54 66 73 67
REMARK SMILES IDX 55 68 58 69 72 70 91 71 56 72 57 73 71 75 92 76 59 77 43 78
REMARK SMILES IDX 44 79 52 80 45 81 47 82 53 83 46 84 48 85 49 86 50 87 51 88
REMARK SMILES IDX 75 89 76 90 84 91 77 92 79 93 85 94 78 95 80 96 81 97 82 98
REMARK SMILES IDX 83 99 60 100 61 101 69 102 62 103 64 104 70 105 63 106
REMARK SMILES IDX 65 107 66 108 67 109 68 110
REMARK H PARENT 24 5 20 10 16 15 31 44 90 63 58 74
REMARK Flexibility Score: inf
ROOT
ATOM      1  C   UNL A   1      39.551  26.341  28.663  1.00  0.00     0.116 C 
ENDROOT
BRANCH   1   2
ATOM      2  N   UNL A   1      40.986  26.359  28.515  1.00  0.00    -0.355 N 
ATOM      3  C   UNL A   1      41.741  25.917  27.469  1.00  0.00     0.239 C 
ATOM      4  O   UNL A   1      42.922  26.274  27.422  1.00  0.00    -0.273 OA
ATOM      5  H   UNL A   1      41.487  26.743  29.271  1.00  0.00     0.163 HD
BRANCH   3   6
ATOM      6  C   UNL A   1      41.107  25.159  26.289  1.00  0.00     0.216 C 
BRANCH   6   7
ATOM      7  N   UNL A   1      41.747  23.905  25.930  1.00  0.00    -0.346 N 
ATOM      8  C   UNL A   1      41.341  22.614  26.086  1.00  0.00     0.239 C 
ATOM      9  O   UNL A   1      42.080  21.732  25.641  1.00  0.00    -0.273 OA
ATOM     10  H   UNL A   1      42.626  24.006  25.499  1.00  0.00     0.164 HD
BRANCH   8  11
ATOM     11  C   UNL A   1      39.986  22.245  26.714  1.00  0.00     0.216 C 
BRANCH  11  12
ATOM     12  N   UNL A   1      39.038  21.540  25.848  1.00  0.00    -0.340 N 
ATOM     13  C   UNL A   1      37.787  21.884  25.375  1.00  0.00     0.292 C 
ATOM     14  O   UNL A   1      37.174  21.080  24.680  1.00  0.00    -0.265 OA
ATOM     15  H   UNL A   1      39.350  20.656  25.548  1.00  0.00     0.164 HD
BRANCH  13  16
ATOM     16  C   UNL A   1      37.165  23.254  25.714  1.00  0.00     0.252 C 
ATOM     17  O   UNL A   1      37.863  24.056  26.328  1.00  0.00    -0.283 OA
BRANCH  16  18
ATOM     18  C   UNL A   1      35.795  23.633  25.338  1.00  0.00     0.054 A 
ATOM     19  N   UNL A   1      33.994  24.489  24.330  1.00  0.00    -0.240 N 
ATOM     20  C   UNL A   1      35.362  24.375  24.253  1.00  0.00     0.117 A 
ATOM     21  C   UNL A   1      33.498  23.835  25.439  1.00  0.00     0.065 A 
ATOM     22  C   UNL A   1      34.613  23.292  26.090  1.00  0.00     0.012 A 
ATOM     23  C   UNL A   1      32.198  23.691  25.958  1.00  0.00     0.028 A 
ATOM     24  C   UNL A   1      34.406  22.576  27.290  1.00  0.00     0.011 A 
ATOM     25  C   UNL A   1      32.034  22.998  27.162  1.00  0.00     0.002 A 
ATOM     26  C   UNL A   1      33.122  22.442  27.819  1.00  0.00     0.001 A 
BRANCH  19  27
ATOM     27  S   UNL A   1      33.050  25.418  23.256  1.00  0.00     0.268 S 
ATOM     28  O   UNL A   1      31.856  24.635  23.021  1.00  0.00    -0.201 OA
ATOM     29  O   UNL A   1      33.942  25.809  22.177  1.00  0.00    -0.201 OA
BRANCH  27  30
ATOM     30  C   UNL A   1      32.559  26.903  24.099  1.00  0.00     0.088 A 
ATOM     31  C   UNL A   1      31.742  30.609  26.128  1.00  0.00     0.044 C 
ATOM     32  C   UNL A   1      32.011  29.309  25.428  1.00  0.00    -0.051 A 
ATOM     33  C   UNL A   1      33.062  28.490  25.857  1.00  0.00     0.005 A 
ATOM     34  C   UNL A   1      31.220  28.896  24.349  1.00  0.00     0.005 A 
ATOM     35  C   UNL A   1      33.341  27.294  25.193  1.00  0.00     0.022 A 
ATOM     36  C   UNL A   1      31.483  27.691  23.690  1.00  0.00     0.022 A 
ENDBRANCH  27  30
ENDBRANCH  19  27
ENDBRANCH  16  18
ENDBRANCH  13  16
ENDBRANCH  11  12
ENDBRANCH   8  11
ENDBRANCH   6   7
ENDBRANCH   3   6
ENDBRANCH   1   2
BRANCH   1  37
ATOM     37  C   UNL A   1      38.952  27.697  29.001  1.00  0.00     0.021 C 
BRANCH  37  38
ATOM     38  C   UNL A   1      39.308  28.807  28.014  1.00  0.00     0.002 C 
BRANCH  38  39
ATOM     39  C   UNL A   1      38.120  29.508  27.337  1.00  0.00     0.002 C 
BRANCH  39  40
ATOM     40  C   UNL A   1      36.762  29.358  28.023  1.00  0.00     0.021 C 
BRANCH  40  41
ATOM     41  C   UNL A   1      35.769  30.449  27.678  1.00  0.00     0.116 C 
BRANCH  41  42
ATOM     42  N   UNL A   1      35.239  31.119  28.845  1.00  0.00    -0.352 N 
ATOM     43  C   UNL A   1      35.879  31.458  30.020  1.00  0.00     0.251 C 
ATOM     44  H   UNL A   1      34.287  31.367  28.794  1.00  0.00     0.163 HD
ATOM     45  O   UNL A   1      35.192  31.659  31.017  1.00  0.00    -0.269 OA
BRANCH  43  46
ATOM     46  C   UNL A   1      37.336  31.772  30.011  1.00  0.00     0.039 A 
ATOM     47  C   UNL A   1      38.142  30.923  30.780  1.00  0.00     0.014 A 
ATOM     48  C   UNL A   1      37.802  33.033  29.660  1.00  0.00     0.014 A 
ATOM     49  C   UNL A   1      39.206  31.460  31.491  1.00  0.00     0.010 A 
ATOM     50  C   UNL A   1      38.768  33.602  30.443  1.00  0.00     0.010 A 
ATOM     51  C   UNL A   1      39.392  32.829  31.424  1.00  0.00    -0.014 A 
BRANCH  51  52
ATOM     52  C   UNL A   1      40.280  33.590  32.269  1.00  0.00     0.031 A 
ATOM     53  C   UNL A   1      39.683  34.257  33.435  1.00  0.00     0.074 A 
ATOM     54  C   UNL A   1      41.606  33.381  32.108  1.00  0.00     0.049 A 
ATOM     55  N   UNL A   1      40.251  35.185  34.113  1.00  0.00    -0.248 NA
ATOM     56  C   UNL A   1      38.344  33.920  33.917  1.00  0.00     0.031 C 
ATOM     57  C   UNL A   1      42.660  33.594  33.088  1.00  0.00     0.029 A 
ATOM     58  N   UNL A   1      42.303  33.028  30.944  1.00  0.00    -0.354 N 
ATOM     59  C   UNL A   1      39.522  35.332  35.277  1.00  0.00     0.074 A 
ATOM     60  C   UNL A   1      38.287  34.629  35.047  1.00  0.00     0.031 C 
ATOM     61  C   UNL A   1      43.842  33.645  32.448  1.00  0.00     0.029 A 
ATOM     62  C   UNL A   1      43.545  33.682  31.024  1.00  0.00     0.049 A 
ATOM     63  H   UNL A   1      41.988  32.442  30.217  1.00  0.00     0.167 HD
ATOM     64  C   UNL A   1      40.144  35.858  36.370  1.00  0.00     0.034 A 
ATOM     65  C   UNL A   1      43.927  34.686  30.173  1.00  0.00     0.034 A 
ATOM     66  C   UNL A   1      41.533  36.201  36.026  1.00  0.00     0.049 A 
ATOM     67  C   UNL A   1      44.167  36.001  30.903  1.00  0.00     0.074 A 
ATOM     68  C   UNL A   1      42.720  35.501  36.178  1.00  0.00     0.029 A 
ATOM     69  N   UNL A   1      41.789  37.220  35.118  1.00  0.00    -0.354 N 
ATOM     70  N   UNL A   1      43.793  36.230  32.131  1.00  0.00    -0.248 NA
ATOM     71  C   UNL A   1      44.834  37.158  30.310  1.00  0.00     0.031 C 
ATOM     72  C   UNL A   1      43.674  36.065  35.293  1.00  0.00     0.029 A 
ATOM     73  C   UNL A   1      43.083  37.126  34.627  1.00  0.00     0.049 A 
ATOM     74  H   UNL A   1      41.141  37.914  34.858  1.00  0.00     0.167 HD
ATOM     75  C   UNL A   1      44.035  37.537  32.465  1.00  0.00     0.074 A 
ATOM     76  C   UNL A   1      44.755  38.053  31.312  1.00  0.00     0.031 C 
ATOM     77  C   UNL A   1      43.573  38.082  33.636  1.00  0.00     0.034 A 
BRANCH  64  78
ATOM     78  C   UNL A   1      39.664  35.751  37.811  1.00  0.00     0.023 A 
ATOM     79  C   UNL A   1      39.618  36.958  38.549  1.00  0.00     0.012 A 
ATOM     80  C   UNL A   1      39.295  34.583  38.520  1.00  0.00     0.148 A 
ATOM     81  C   UNL A   1      39.322  37.004  39.914  1.00  0.00     0.002 A 
ATOM     82  C   UNL A   1      39.041  34.619  39.899  1.00  0.00     0.091 A 
ATOM     83  F   UNL A   1      39.111  33.434  37.867  1.00  0.00    -0.205 F 
ATOM     84  C   UNL A   1      39.060  35.829  40.598  1.00  0.00     0.022 A 
BRANCH  82  85
ATOM     85  S   UNL A   1      38.728  33.138  40.880  1.00  0.00     0.127 S 
ATOM     86  O   UNL A   1      38.609  33.683  42.234  1.00  0.00    -0.237 OA
ATOM     87  O   UNL A   1      37.474  32.645  40.314  1.00  0.00    -0.237 OA
ATOM     88  O   UNL A   1      39.885  32.271  40.688  1.00  0.00    -0.744 OA
ENDBRANCH  82  85
ENDBRANCH  64  78
BRANCH  65  89
ATOM     89  C   UNL A   1      43.332  34.563  28.807  1.00  0.00     0.023 A 
ATOM     90  C   UNL A   1      42.282  35.457  28.486  1.00  0.00     0.012 A 
ATOM     91  C   UNL A   1      44.055  33.963  27.761  1.00  0.00     0.148 A 
ATOM     92  C   UNL A   1      42.106  35.905  27.176  1.00  0.00     0.002 A 
ATOM     93  C   UNL A   1      43.869  34.413  26.455  1.00  0.00     0.091 A 
ATOM     94  F   UNL A   1      44.961  33.024  28.061  1.00  0.00    -0.205 F 
ATOM     95  C   UNL A   1      42.939  35.425  26.170  1.00  0.00     0.022 A 
BRANCH  93  96
ATOM     96  S   UNL A   1      44.909  33.814  25.116  1.00  0.00     0.127 S 
ATOM     97  O   UNL A   1      44.356  34.529  23.971  1.00  0.00    -0.237 OA
ATOM     98  O   UNL A   1      46.243  34.251  25.525  1.00  0.00    -0.237 OA
ATOM     99  O   UNL A   1      44.726  32.369  25.129  1.00  0.00    -0.744 OA
ENDBRANCH  93  96
ENDBRANCH  65  89
BRANCH  77 100
ATOM    100  C   UNL A   1      43.545  39.565  33.972  1.00  0.00     0.023 A 
ATOM    101  C   UNL A   1      42.649  40.459  33.360  1.00  0.00     0.012 A 
ATOM    102  C   UNL A   1      44.335  40.092  35.031  1.00  0.00     0.148 A 
ATOM    103  C   UNL A   1      42.592  41.813  33.712  1.00  0.00     0.002 A 
ATOM    104  C   UNL A   1      44.177  41.404  35.467  1.00  0.00     0.091 A 
ATOM    105  F   UNL A   1      45.272  39.333  35.616  1.00  0.00    -0.205 F 
ATOM    106  C   UNL A   1      43.338  42.281  34.781  1.00  0.00     0.022 A 
BRANCH 104 107
ATOM    107  S   UNL A   1      44.914  41.973  37.007  1.00  0.00     0.127 S 
ATOM    108  O   UNL A   1      45.236  43.363  36.692  1.00  0.00    -0.237 OA
ATOM    109  O   UNL A   1      43.814  41.804  37.958  1.00  0.00    -0.237 OA
ATOM    110  O   UNL A   1      46.045  41.087  37.242  1.00  0.00    -0.744 OA
ENDBRANCH 104 107
ENDBRANCH  77 100
ENDBRANCH  51  52
ENDBRANCH  43  46
ENDBRANCH  41  42
ENDBRANCH  40  41
ENDBRANCH  39  40
ENDBRANCH  38  39
ENDBRANCH  37  38
ENDBRANCH   1  37
TORSDOF 23
ENDMDL
MODEL 3
REMARK VINA RESULT:     -10.9      2.088      3.038
REMARK SMILES Cc1ccc(S(=O)(=O)n2cc(C(=O)C(=O)NCC(=O)NCC(=O)NCCCCCCNC(=O)c3ccc(-c4c5nc(c(-c6cccc(S(=O)(=O)[O-])c6F)c6ccc([nH]6)c(-c6cccc(S(=O)(=O)[O-])c6F)c6nc(c(-c7cccc(S(=O)(=O)[O-])c7F)c7ccc4[nH]7)C=C6)C=C5)cc3)c3ccccc32)cc1
REMARK SMILES IDX 25 1 24 2 22 3 23 4 21 6 20 7 18 8 19 9 17 11 16 12 14 13
REMARK SMILES IDX 15 14 12 16 13 17 11 18 9 19 10 20 102 21 97 22 101 23 98 24
REMARK SMILES IDX 100 25 99 26 6 27 7 28 8 29 5 30 1 31 2 32 3 33 104 34 4 35
REMARK SMILES IDX 103 36 26 37 27 38 28 39 29 40 30 41 31 42 32 43 33 45 34 46
REMARK SMILES IDX 35 47 96 48 36 49 95 50 37 51 38 52 39 53 89 54 40 55 94 56
REMARK SMILES IDX 88 57 90 58 41 59 93 60 87 61 86 62 42 64 74 65 54 66 73 67
REMARK SMILES IDX 55 68 58 69 72 70 91 71 56 72 57 73 71 75 92 76 59 77 43 78
REMARK SMILES IDX 44 79 52 80 45 81 47 82 53 83 46 84 48 85 49 86 50 87 51 88
REMARK SMILES IDX 75 89 76 90 84 91 77 92 79 93 85 94 78 95 80 96 81 97 82 98
REMARK SMILES IDX 83 99 60 100 61 101 69 102 62 103 64 104 70 105 63 106
REMARK SMILES IDX 65 107 66 108 67 109 68 110
REMARK H PARENT 24 5 20 10 16 15 31 44 90 63 58 74
REMARK Flexibility Score: inf
ROOT
ATOM      1  C   UNL A   1      33.966  28.966  26.558  1.00  0.00     0.116 C 
ENDROOT
BRANCH   1   2
ATOM      2  N   UNL A   1      33.208  30.190  26.462  1.00  0.00    -0.355 N 
ATOM      3  C   UNL A   1      32.006  30.403  25.853  1.00  0.00     0.239 C 
ATOM      4  O   UNL A   1      31.403  31.446  26.121  1.00  0.00    -0.273 OA
ATOM      5  H   UNL A   1      33.613  30.977  26.894  1.00  0.00     0.163 HD
BRANCH   3   6
ATOM      6  C   UNL A   1      31.331  29.305  25.011  1.00  0.00     0.216 C 
BRANCH   6   7
ATOM      7  N   UNL A   1      30.864  29.718  23.698  1.00  0.00    -0.346 N 
ATOM      8  C   UNL A   1      30.514  28.991  22.600  1.00  0.00     0.239 C 
ATOM      9  O   UNL A   1      30.105  29.614  21.618  1.00  0.00    -0.273 OA
ATOM     10  H   UNL A   1      30.786  30.693  23.582  1.00  0.00     0.164 HD
BRANCH   8  11
ATOM     11  C   UNL A   1      30.541  27.453  22.587  1.00  0.00     0.216 C 
BRANCH  11  12
ATOM     12  N   UNL A   1      31.469  26.826  21.642  1.00  0.00    -0.340 N 
ATOM     13  C   UNL A   1      32.752  26.337  21.794  1.00  0.00     0.292 C 
ATOM     14  O   UNL A   1      33.334  25.886  20.814  1.00  0.00    -0.265 OA
ATOM     15  H   UNL A   1      31.113  26.738  20.729  1.00  0.00     0.164 HD
BRANCH  13  16
ATOM     16  C   UNL A   1      33.446  26.358  23.171  1.00  0.00     0.252 C 
ATOM     17  O   UNL A   1      33.948  27.418  23.537  1.00  0.00    -0.283 OA
BRANCH  16  18
ATOM     18  C   UNL A   1      33.529  25.182  24.050  1.00  0.00     0.054 A 
ATOM     19  N   UNL A   1      34.172  23.324  25.110  1.00  0.00    -0.240 N 
ATOM     20  C   UNL A   1      34.553  24.261  24.179  1.00  0.00     0.117 A 
ATOM     21  C   UNL A   1      32.918  23.599  25.615  1.00  0.00     0.065 A 
ATOM     22  C   UNL A   1      32.492  24.762  24.960  1.00  0.00     0.012 A 
ATOM     23  C   UNL A   1      32.099  22.935  26.547  1.00  0.00     0.028 A 
ATOM     24  C   UNL A   1      31.211  25.273  25.265  1.00  0.00     0.011 A 
ATOM     25  C   UNL A   1      30.826  23.455  26.804  1.00  0.00     0.002 A 
ATOM     26  C   UNL A   1      30.387  24.612  26.176  1.00  0.00     0.001 A 
BRANCH  19  27
ATOM     27  S   UNL A   1      35.085  21.938  25.501  1.00  0.00     0.268 S 
ATOM     28  O   UNL A   1      35.081  21.127  24.302  1.00  0.00    -0.201 OA
ATOM     29  O   UNL A   1      34.553  21.451  26.763  1.00  0.00    -0.201 OA
BRANCH  27  30
ATOM     30  C   UNL A   1      36.760  22.448  25.796  1.00  0.00     0.088 A 
ATOM     31  C   UNL A   1      40.697  23.834  26.848  1.00  0.00     0.044 C 
ATOM     32  C   UNL A   1      39.329  23.351  26.463  1.00  0.00    -0.051 A 
ATOM     33  C   UNL A   1      38.231  24.214  26.555  1.00  0.00     0.005 A 
ATOM     34  C   UNL A   1      39.131  22.043  26.004  1.00  0.00     0.005 A 
ATOM     35  C   UNL A   1      36.951  23.765  26.230  1.00  0.00     0.022 A 
ATOM     36  C   UNL A   1      37.853  21.592  25.660  1.00  0.00     0.022 A 
ENDBRANCH  27  30
ENDBRANCH  19  27
ENDBRANCH  16  18
ENDBRANCH  13  16
ENDBRANCH  11  12
ENDBRANCH   8  11
ENDBRANCH   6   7
ENDBRANCH   3   6
ENDBRANCH   1   2
BRANCH   1  37
ATOM     37  C   UNL A   1      34.967  28.952  27.702  1.00  0.00     0.021 C 
BRANCH  37  38
ATOM     38  C   UNL A   1      36.204  29.817  27.466  1.00  0.00     0.002 C 
BRANCH  38  39
ATOM     39  C   UNL A   1      37.465  29.410  28.246  1.00  0.00     0.002 C 
BRANCH  39  40
ATOM     40  C   UNL A   1      38.481  30.519  28.520  1.00  0.00     0.021 C 
BRANCH  40  41
ATOM     41  C   UNL A   1      39.637  30.097  29.404  1.00  0.00     0.116 C 
BRANCH  41  42
ATOM     42  N   UNL A   1      40.566  29.216  28.735  1.00  0.00    -0.352 N 
ATOM     43  C   UNL A   1      41.919  29.048  28.953  1.00  0.00     0.251 C 
ATOM     44  H   UNL A   1      40.180  28.656  28.022  1.00  0.00     0.163 HD
ATOM     45  O   UNL A   1      42.595  28.561  28.052  1.00  0.00    -0.269 OA
BRANCH  43  46
ATOM     46  C   UNL A   1      42.485  29.259  30.316  1.00  0.00     0.039 A 
ATOM     47  C   UNL A   1      41.884  28.515  31.340  1.00  0.00     0.014 A 
ATOM     48  C   UNL A   1      43.214  30.399  30.629  1.00  0.00     0.014 A 
ATOM     49  C   UNL A   1      41.698  29.102  32.583  1.00  0.00     0.010 A 
ATOM     50  C   UNL A   1      42.934  31.037  31.806  1.00  0.00     0.010 A 
ATOM     51  C   UNL A   1      42.092  30.420  32.732  1.00  0.00    -0.014 A 
BRANCH  51  52
ATOM     52  C   UNL A   1      41.765  31.263  33.856  1.00  0.00     0.031 A 
ATOM     53  C   UNL A   1      42.330  30.887  35.160  1.00  0.00     0.074 A 
ATOM     54  C   UNL A   1      41.236  32.476  33.577  1.00  0.00     0.049 A 
ATOM     55  N   UNL A   1      41.923  31.341  36.288  1.00  0.00    -0.248 NA
ATOM     56  C   UNL A   1      43.420  29.920  35.280  1.00  0.00     0.031 C 
ATOM     57  C   UNL A   1      41.277  33.670  34.406  1.00  0.00     0.029 A 
ATOM     58  N   UNL A   1      40.428  32.852  32.495  1.00  0.00    -0.354 N 
ATOM     59  C   UNL A   1      42.878  30.996  37.225  1.00  0.00     0.074 A 
ATOM     60  C   UNL A   1      43.708  30.010  36.582  1.00  0.00     0.031 C 
ATOM     61  C   UNL A   1      40.337  34.530  33.974  1.00  0.00     0.029 A 
ATOM     62  C   UNL A   1      39.532  33.812  32.998  1.00  0.00     0.049 A 
ATOM     63  H   UNL A   1      40.476  32.513  31.571  1.00  0.00     0.167 HD
ATOM     64  C   UNL A   1      42.972  31.742  38.361  1.00  0.00     0.034 A 
ATOM     65  C   UNL A   1      38.182  33.605  33.101  1.00  0.00     0.034 A 
ATOM     66  C   UNL A   1      41.945  32.796  38.342  1.00  0.00     0.049 A 
ATOM     67  C   UNL A   1      37.696  33.665  34.544  1.00  0.00     0.074 A 
ATOM     68  C   UNL A   1      41.991  34.121  37.939  1.00  0.00     0.029 A 
ATOM     69  N   UNL A   1      40.601  32.453  38.417  1.00  0.00    -0.354 N 
ATOM     70  N   UNL A   1      38.489  33.637  35.579  1.00  0.00    -0.248 NA
ATOM     71  C   UNL A   1      36.292  33.750  34.935  1.00  0.00     0.031 C 
ATOM     72  C   UNL A   1      40.660  34.550  37.699  1.00  0.00     0.029 A 
ATOM     73  C   UNL A   1      39.802  33.501  37.986  1.00  0.00     0.049 A 
ATOM     74  H   UNL A   1      40.263  31.583  38.732  1.00  0.00     0.167 HD
ATOM     75  C   UNL A   1      37.758  33.579  36.736  1.00  0.00     0.074 A 
ATOM     76  C   UNL A   1      36.386  33.728  36.276  1.00  0.00     0.031 C 
ATOM     77  C   UNL A   1      38.348  33.363  37.955  1.00  0.00     0.034 A 
BRANCH  64  78
ATOM     78  C   UNL A   1      44.162  31.782  39.310  1.00  0.00     0.023 A 
ATOM     79  C   UNL A   1      45.397  32.190  38.753  1.00  0.00     0.012 A 
ATOM     80  C   UNL A   1      44.196  31.421  40.679  1.00  0.00     0.148 A 
ATOM     81  C   UNL A   1      46.601  32.156  39.463  1.00  0.00     0.002 A 
ATOM     82  C   UNL A   1      45.407  31.343  41.381  1.00  0.00     0.091 A 
ATOM     83  F   UNL A   1      43.057  31.218  41.344  1.00  0.00    -0.205 F 
ATOM     84  C   UNL A   1      46.611  31.705  40.771  1.00  0.00     0.022 A 
BRANCH  82  85
ATOM     85  S   UNL A   1      45.523  30.732  43.074  1.00  0.00     0.127 S 
ATOM     86  O   UNL A   1      44.818  31.772  43.827  1.00  0.00    -0.237 OA
ATOM     87  O   UNL A   1      44.815  29.455  42.997  1.00  0.00    -0.237 OA
ATOM     88  O   UNL A   1      46.946  30.641  43.378  1.00  0.00    -0.744 OA
ENDBRANCH  82  85
ENDBRANCH  64  78
BRANCH  65  89
ATOM     89  C   UNL A   1      37.642  32.681  32.056  1.00  0.00     0.023 A 
ATOM     90  C   UNL A   1      37.338  31.360  32.468  1.00  0.00     0.012 A 
ATOM     91  C   UNL A   1      37.027  33.189  30.899  1.00  0.00     0.148 A 
ATOM     92  C   UNL A   1      36.293  30.653  31.872  1.00  0.00     0.002 A 
ATOM     93  C   UNL A   1      35.987  32.474  30.308  1.00  0.00     0.091 A 
ATOM     94  F   UNL A   1      37.409  34.387  30.440  1.00  0.00    -0.205 F 
ATOM     95  C   UNL A   1      35.580  31.235  30.828  1.00  0.00     0.022 A 
BRANCH  93  96
ATOM     96  S   UNL A   1      35.044  33.174  28.946  1.00  0.00     0.127 S 
ATOM     97  O   UNL A   1      36.063  33.283  27.907  1.00  0.00    -0.237 OA
ATOM     98  O   UNL A   1      34.026  32.153  28.701  1.00  0.00    -0.237 OA
ATOM     99  O   UNL A   1      34.517  34.426  29.471  1.00  0.00    -0.744 OA
ENDBRANCH  93  96
ENDBRANCH  65  89
BRANCH  77 100
ATOM    100  C   UNL A   1      37.618  33.010  39.242  1.00  0.00     0.023 A 
ATOM    101  C   UNL A   1      36.777  31.888  39.348  1.00  0.00     0.012 A 
ATOM    102  C   UNL A   1      37.866  33.726  40.446  1.00  0.00     0.148 A 
ATOM    103  C   UNL A   1      36.149  31.539  40.549  1.00  0.00     0.002 A 
ATOM    104  C   UNL A   1      37.348  33.294  41.663  1.00  0.00     0.091 A 
ATOM    105  F   UNL A   1      38.590  34.853  40.424  1.00  0.00    -0.205 F 
ATOM    106  C   UNL A   1      36.453  32.226  41.713  1.00  0.00     0.022 A 
BRANCH 104 107
ATOM    107  S   UNL A   1      37.926  33.981  43.222  1.00  0.00     0.127 S 
ATOM    108  O   UNL A   1      37.431  35.354  43.150  1.00  0.00    -0.237 OA
ATOM    109  O   UNL A   1      37.244  33.138  44.206  1.00  0.00    -0.237 OA
ATOM    110  O   UNL A   1      39.373  33.817  43.201  1.00  0.00    -0.744 OA
ENDBRANCH 104 107
ENDBRANCH  77 100
ENDBRANCH  51  52
ENDBRANCH  43  46
ENDBRANCH  41  42
ENDBRANCH  40  41
ENDBRANCH  39  40
ENDBRANCH  38  39
ENDBRANCH  37  38
ENDBRANCH   1  37
TORSDOF 23
ENDMDL
