MODEL 1
REMARK VINA RESULT:     -11.5      0.000      0.000
REMARK SMILES CC(C)N1C(=O)C[C@@H](Sc2csc(C(=O)NCCCCCCNC(=O)c3ccc(-c4c5nc(c(-c6cccc(S(=O)(=O)[O-])c6F)c6ccc([nH]6)c(-c6cccc(S(=O)(=O)[O-])c6F)c6nc(c(-c7cccc(S(=O)(=O)[O-])c7F)c7ccc4[nH]7)C=C6)C=C5)cc3)c2)C1=O
REMARK SMILES IDX 19 1 18 2 17 3 16 4 14 5 15 6 13 8 10 9 11 10 89 11 12 12
REMARK SMILES IDX 9 13 8 14 4 15 5 16 90 17 6 18 7 19 91 20 2 21 1 22 3 23
REMARK SMILES IDX 20 24 21 25 22 26 23 27 24 28 25 30 26 31 27 32 88 33 28 34
REMARK SMILES IDX 87 35 29 36 30 37 31 38 81 39 32 40 86 41 80 42 82 43 33 44
REMARK SMILES IDX 85 45 79 46 78 47 34 49 66 50 46 51 65 52 47 53 50 54 64 55
REMARK SMILES IDX 83 56 48 57 49 58 63 60 84 61 51 62 35 63 36 64 44 65 37 66
REMARK SMILES IDX 39 67 45 68 38 69 40 70 41 71 42 72 43 73 67 74 68 75 76 76
REMARK SMILES IDX 69 77 71 78 77 79 70 80 72 81 73 82 74 83 75 84 52 85 53 86
REMARK SMILES IDX 61 87 54 88 56 89 62 90 55 91 57 92 58 93 59 94 60 95
REMARK H PARENT 16 7 23 29 82 48 50 59
REMARK Flexibility Score: inf
ROOT
ATOM      1  C   UNL A   1      32.266  29.952  25.194  1.00  0.00     0.002 C 
ENDROOT
BRANCH   1   2
ATOM      2  C   UNL A   1      33.204  28.737  25.195  1.00  0.00     0.021 C 
BRANCH   2   3
ATOM      3  C   UNL A   1      33.213  27.999  26.534  1.00  0.00     0.116 C 
BRANCH   3   4
ATOM      4  N   UNL A   1      31.939  27.350  26.755  1.00  0.00    -0.351 N 
ATOM      5  C   UNL A   1      31.312  26.312  26.113  1.00  0.00     0.261 C 
ATOM      6  O   UNL A   1      30.203  26.018  26.571  1.00  0.00    -0.268 OA
ATOM      7  H   UNL A   1      31.425  27.724  27.506  1.00  0.00     0.163 HD
BRANCH   5   8
ATOM      8  C   UNL A   1      31.929  25.606  24.995  1.00  0.00     0.093 A 
ATOM      9  C   UNL A   1      33.211  24.217  23.585  1.00  0.00     0.020 A 
ATOM     10  C   UNL A   1      32.328  24.768  22.695  1.00  0.00     0.080 A 
ATOM     11  C   UNL A   1      33.035  24.780  24.886  1.00  0.00     0.040 A 
ATOM     12  S   UNL A   1      31.209  25.818  23.443  1.00  0.00    -0.137 S 
BRANCH   9  13
ATOM     13  S   UNL A   1      34.486  23.038  23.325  1.00  0.00    -0.111 SA
BRANCH  13  14
ATOM     14  C   UNL A   1      34.463  21.854  24.690  1.00  0.00     0.150 C 
ATOM     15  N   UNL A   1      34.201  19.532  24.661  1.00  0.00    -0.279 N 
ATOM     16  C   UNL A   1      35.537  19.744  24.866  1.00  0.00     0.231 C 
ATOM     17  C   UNL A   1      33.508  20.705  24.504  1.00  0.00     0.243 C 
ATOM     18  O   UNL A   1      36.410  18.890  24.918  1.00  0.00    -0.274 OA
ATOM     19  C   UNL A   1      35.812  21.214  24.957  1.00  0.00     0.125 C 
ATOM     20  O   UNL A   1      32.314  20.807  24.253  1.00  0.00    -0.273 OA
BRANCH  15  21
ATOM     21  C   UNL A   1      33.638  18.193  24.459  1.00  0.00     0.087 C 
ATOM     22  C   UNL A   1      32.681  17.772  25.571  1.00  0.00     0.031 C 
ATOM     23  C   UNL A   1      32.966  18.076  23.089  1.00  0.00     0.031 C 
ENDBRANCH  15  21
ENDBRANCH  13  14
ENDBRANCH   9  13
ENDBRANCH   5   8
ENDBRANCH   3   4
ENDBRANCH   2   3
ENDBRANCH   1   2
BRANCH   1  24
ATOM     24  C   UNL A   1      31.762  30.369  26.582  1.00  0.00     0.002 C 
BRANCH  24  25
ATOM     25  C   UNL A   1      31.590  31.879  26.769  1.00  0.00     0.021 C 
BRANCH  25  26
ATOM     26  C   UNL A   1      32.764  32.544  27.477  1.00  0.00     0.116 C 
BRANCH  26  27
ATOM     27  N   UNL A   1      32.533  33.972  27.658  1.00  0.00    -0.352 N 
ATOM     28  C   UNL A   1      33.074  34.816  28.594  1.00  0.00     0.251 C 
ATOM     29  H   UNL A   1      31.905  34.385  27.023  1.00  0.00     0.163 HD
ATOM     30  O   UNL A   1      32.595  35.929  28.781  1.00  0.00    -0.269 OA
BRANCH  28  31
ATOM     31  C   UNL A   1      34.237  34.359  29.378  1.00  0.00     0.039 A 
ATOM     32  C   UNL A   1      34.031  33.677  30.580  1.00  0.00     0.014 A 
ATOM     33  C   UNL A   1      35.531  34.585  28.901  1.00  0.00     0.014 A 
ATOM     34  C   UNL A   1      35.129  33.167  31.275  1.00  0.00     0.010 A 
ATOM     35  C   UNL A   1      36.613  34.009  29.554  1.00  0.00     0.010 A 
ATOM     36  C   UNL A   1      36.425  33.300  30.750  1.00  0.00    -0.014 A 
BRANCH  36  37
ATOM     37  C   UNL A   1      37.605  32.705  31.425  1.00  0.00     0.031 A 
ATOM     38  C   UNL A   1      38.325  31.546  30.791  1.00  0.00     0.074 A 
ATOM     39  C   UNL A   1      37.960  33.136  32.651  1.00  0.00     0.049 A 
ATOM     40  N   UNL A   1      39.302  30.822  31.270  1.00  0.00    -0.248 NA
ATOM     41  C   UNL A   1      37.865  31.125  29.457  1.00  0.00     0.031 C 
ATOM     42  C   UNL A   1      37.296  34.207  33.398  1.00  0.00     0.029 A 
ATOM     43  N   UNL A   1      38.947  32.704  33.502  1.00  0.00    -0.354 N 
ATOM     44  C   UNL A   1      39.546  29.839  30.318  1.00  0.00     0.074 A 
ATOM     45  C   UNL A   1      38.594  30.039  29.249  1.00  0.00     0.031 C 
ATOM     46  C   UNL A   1      37.892  34.346  34.593  1.00  0.00     0.029 A 
ATOM     47  C   UNL A   1      38.951  33.351  34.715  1.00  0.00     0.049 A 
ATOM     48  H   UNL A   1      39.590  31.996  33.264  1.00  0.00     0.167 HD
ATOM     49  C   UNL A   1      40.495  28.874  30.322  1.00  0.00     0.034 A 
ATOM     50  C   UNL A   1      39.710  33.151  35.812  1.00  0.00     0.034 A 
ATOM     51  C   UNL A   1      41.462  28.704  31.371  1.00  0.00     0.049 A 
ATOM     52  C   UNL A   1      40.768  32.081  35.781  1.00  0.00     0.074 A 
ATOM     53  C   UNL A   1      42.518  27.811  31.429  1.00  0.00     0.029 A 
ATOM     54  N   UNL A   1      41.487  29.431  32.551  1.00  0.00    -0.354 N 
ATOM     55  N   UNL A   1      41.081  31.257  34.812  1.00  0.00    -0.248 NA
ATOM     56  C   UNL A   1      41.600  31.935  36.985  1.00  0.00     0.031 C 
ATOM     57  C   UNL A   1      43.158  27.974  32.661  1.00  0.00     0.029 A 
ATOM     58  C   UNL A   1      42.530  28.998  33.351  1.00  0.00     0.049 A 
ATOM     59  H   UNL A   1      40.856  30.150  32.784  1.00  0.00     0.167 HD
ATOM     60  C   UNL A   1      42.171  30.524  35.269  1.00  0.00     0.074 A 
ATOM     61  C   UNL A   1      42.473  31.013  36.599  1.00  0.00     0.031 C 
ATOM     62  C   UNL A   1      42.852  29.531  34.649  1.00  0.00     0.034 A 
BRANCH  49  63
ATOM     63  C   UNL A   1      40.560  27.948  29.134  1.00  0.00     0.023 A 
ATOM     64  C   UNL A   1      39.679  26.851  29.054  1.00  0.00     0.012 A 
ATOM     65  C   UNL A   1      41.450  28.198  28.072  1.00  0.00     0.148 A 
ATOM     66  C   UNL A   1      39.708  25.994  27.954  1.00  0.00     0.002 A 
ATOM     67  C   UNL A   1      41.439  27.369  26.957  1.00  0.00     0.091 A 
ATOM     68  F   UNL A   1      42.294  29.235  28.175  1.00  0.00    -0.205 F 
ATOM     69  C   UNL A   1      40.580  26.260  26.902  1.00  0.00     0.022 A 
BRANCH  67  70
ATOM     70  S   UNL A   1      42.463  27.673  25.513  1.00  0.00     0.127 S 
ATOM     71  O   UNL A   1      43.797  27.746  26.108  1.00  0.00    -0.237 OA
ATOM     72  O   UNL A   1      42.219  26.477  24.707  1.00  0.00    -0.237 OA
ATOM     73  O   UNL A   1      41.974  28.914  24.926  1.00  0.00    -0.744 OA
ENDBRANCH  67  70
ENDBRANCH  49  63
BRANCH  50  74
ATOM     74  C   UNL A   1      39.526  34.011  37.014  1.00  0.00     0.023 A 
ATOM     75  C   UNL A   1      39.973  35.346  36.986  1.00  0.00     0.012 A 
ATOM     76  C   UNL A   1      38.900  33.521  38.176  1.00  0.00     0.148 A 
ATOM     77  C   UNL A   1      39.835  36.166  38.106  1.00  0.00     0.002 A 
ATOM     78  C   UNL A   1      38.714  34.360  39.269  1.00  0.00     0.091 A 
ATOM     79  F   UNL A   1      38.489  32.244  38.186  1.00  0.00    -0.205 F 
ATOM     80  C   UNL A   1      39.197  35.677  39.243  1.00  0.00     0.022 A 
BRANCH  78  81
ATOM     81  S   UNL A   1      37.791  33.856  40.725  1.00  0.00     0.127 S 
ATOM     82  O   UNL A   1      37.616  35.128  41.421  1.00  0.00    -0.237 OA
ATOM     83  O   UNL A   1      36.573  33.304  40.132  1.00  0.00    -0.237 OA
ATOM     84  O   UNL A   1      38.627  32.875  41.401  1.00  0.00    -0.744 OA
ENDBRANCH  78  81
ENDBRANCH  50  74
BRANCH  62  85
ATOM     85  C   UNL A   1      44.033  28.933  35.369  1.00  0.00     0.023 A 
ATOM     86  C   UNL A   1      45.314  29.498  35.219  1.00  0.00     0.012 A 
ATOM     87  C   UNL A   1      43.848  27.863  36.268  1.00  0.00     0.148 A 
ATOM     88  C   UNL A   1      46.399  28.989  35.933  1.00  0.00     0.002 A 
ATOM     89  C   UNL A   1      44.922  27.396  37.015  1.00  0.00     0.091 A 
ATOM     90  F   UNL A   1      42.623  27.330  36.383  1.00  0.00    -0.205 F 
ATOM     91  C   UNL A   1      46.201  27.950  36.839  1.00  0.00     0.022 A 
BRANCH  89  92
ATOM     92  S   UNL A   1      44.743  26.133  38.279  1.00  0.00     0.127 S 
ATOM     93  O   UNL A   1      45.936  26.357  39.093  1.00  0.00    -0.237 OA
ATOM     94  O   UNL A   1      43.485  26.517  38.921  1.00  0.00    -0.237 OA
ATOM     95  O   UNL A   1      44.700  24.859  37.575  1.00  0.00    -0.744 OA
ENDBRANCH  89  92
ENDBRANCH  62  85
ENDBRANCH  36  37
ENDBRANCH  28  31
ENDBRANCH  26  27
ENDBRANCH  25  26
ENDBRANCH  24  25
ENDBRANCH   1  24
TORSDOF 19
ENDMDL
MODEL 2
REMARK VINA RESULT:     -11.1      1.527      7.561
REMARK SMILES CC(C)N1C(=O)C[C@@H](Sc2csc(C(=O)NCCCCCCNC(=O)c3ccc(-c4c5nc(c(-c6cccc(S(=O)(=O)[O-])c6F)c6ccc([nH]6)c(-c6cccc(S(=O)(=O)[O-])c6F)c6nc(c(-c7cccc(S(=O)(=O)[O-])c7F)c7ccc4[nH]7)C=C6)C=C5)cc3)c2)C1=O
REMARK SMILES IDX 19 1 18 2 17 3 16 4 14 5 15 6 13 8 10 9 11 10 89 11 12 12
REMARK SMILES IDX 9 13 8 14 4 15 5 16 90 17 6 18 7 19 91 20 2 21 1 22 3 23
REMARK SMILES IDX 20 24 21 25 22 26 23 27 24 28 25 30 26 31 27 32 88 33 28 34
REMARK SMILES IDX 87 35 29 36 30 37 31 38 81 39 32 40 86 41 80 42 82 43 33 44
REMARK SMILES IDX 85 45 79 46 78 47 34 49 66 50 46 51 65 52 47 53 50 54 64 55
REMARK SMILES IDX 83 56 48 57 49 58 63 60 84 61 51 62 35 63 36 64 44 65 37 66
REMARK SMILES IDX 39 67 45 68 38 69 40 70 41 71 42 72 43 73 67 74 68 75 76 76
REMARK SMILES IDX 69 77 71 78 77 79 70 80 72 81 73 82 74 83 75 84 52 85 53 86
REMARK SMILES IDX 61 87 54 88 56 89 62 90 55 91 57 92 58 93 59 94 60 95
REMARK H PARENT 16 7 23 29 82 48 50 59
REMARK Flexibility Score: inf
ROOT
ATOM      1  C   UNL A   1      31.759  29.812  25.414  1.00  0.00     0.002 C 
ENDROOT
BRANCH   1   2
ATOM      2  C   UNL A   1      32.484  28.459  25.395  1.00  0.00     0.021 C 
BRANCH   2   3
ATOM      3  C   UNL A   1      32.443  27.749  26.748  1.00  0.00     0.116 C 
BRANCH   3   4
ATOM      4  N   UNL A   1      31.242  26.948  26.856  1.00  0.00    -0.351 N 
ATOM      5  C   UNL A   1      30.777  25.887  26.123  1.00  0.00     0.261 C 
ATOM      6  O   UNL A   1      29.685  25.443  26.496  1.00  0.00    -0.268 OA
ATOM      7  H   UNL A   1      30.647  27.218  27.593  1.00  0.00     0.163 HD
BRANCH   5   8
ATOM      8  C   UNL A   1      31.532  25.321  25.011  1.00  0.00     0.093 A 
ATOM      9  C   UNL A   1      33.007  24.129  23.610  1.00  0.00     0.020 A 
ATOM     10  C   UNL A   1      32.195  24.742  22.692  1.00  0.00     0.080 A 
ATOM     11  C   UNL A   1      32.677  24.547  24.935  1.00  0.00     0.040 A 
ATOM     12  S   UNL A   1      30.963  25.671  23.422  1.00  0.00    -0.137 S 
BRANCH   9  13
ATOM     13  S   UNL A   1      34.351  23.025  23.367  1.00  0.00    -0.111 SA
BRANCH  13  14
ATOM     14  C   UNL A   1      34.366  21.828  24.720  1.00  0.00     0.150 C 
ATOM     15  N   UNL A   1      34.137  19.503  24.673  1.00  0.00    -0.279 N 
ATOM     16  C   UNL A   1      35.473  19.733  24.860  1.00  0.00     0.231 C 
ATOM     17  C   UNL A   1      33.424  20.667  24.537  1.00  0.00     0.243 C 
ATOM     18  O   UNL A   1      36.359  18.891  24.891  1.00  0.00    -0.274 OA
ATOM     19  C   UNL A   1      35.727  21.206  24.962  1.00  0.00     0.125 C 
ATOM     20  O   UNL A   1      32.226  20.754  24.304  1.00  0.00    -0.273 OA
BRANCH  15  21
ATOM     21  C   UNL A   1      33.591  18.158  24.465  1.00  0.00     0.087 C 
ATOM     22  C   UNL A   1      32.632  17.725  25.572  1.00  0.00     0.031 C 
ATOM     23  C   UNL A   1      32.928  18.035  23.092  1.00  0.00     0.031 C 
ENDBRANCH  15  21
ENDBRANCH  13  14
ENDBRANCH   9  13
ENDBRANCH   5   8
ENDBRANCH   3   4
ENDBRANCH   2   3
ENDBRANCH   1   2
BRANCH   1  24
ATOM     24  C   UNL A   1      31.627  30.445  26.805  1.00  0.00     0.002 C 
BRANCH  24  25
ATOM     25  C   UNL A   1      31.656  31.976  26.812  1.00  0.00     0.021 C 
BRANCH  25  26
ATOM     26  C   UNL A   1      32.979  32.559  27.296  1.00  0.00     0.116 C 
BRANCH  26  27
ATOM     27  N   UNL A   1      32.850  33.976  27.610  1.00  0.00    -0.352 N 
ATOM     28  C   UNL A   1      33.406  34.678  28.649  1.00  0.00     0.251 C 
ATOM     29  H   UNL A   1      32.289  34.499  26.993  1.00  0.00     0.163 HD
ATOM     30  O   UNL A   1      33.004  35.803  28.927  1.00  0.00    -0.269 OA
BRANCH  28  31
ATOM     31  C   UNL A   1      34.489  34.053  29.432  1.00  0.00     0.039 A 
ATOM     32  C   UNL A   1      34.170  33.145  30.444  1.00  0.00     0.014 A 
ATOM     33  C   UNL A   1      35.822  34.351  29.138  1.00  0.00     0.014 A 
ATOM     34  C   UNL A   1      35.197  32.488  31.124  1.00  0.00     0.010 A 
ATOM     35  C   UNL A   1      36.838  33.638  29.761  1.00  0.00     0.010 A 
ATOM     36  C   UNL A   1      36.537  32.704  30.764  1.00  0.00    -0.014 A 
BRANCH  36  37
ATOM     37  C   UNL A   1      37.648  31.966  31.414  1.00  0.00     0.031 A 
ATOM     38  C   UNL A   1      38.193  32.440  32.733  1.00  0.00     0.074 A 
ATOM     39  C   UNL A   1      38.233  30.938  30.768  1.00  0.00     0.049 A 
ATOM     40  N   UNL A   1      39.225  32.001  33.405  1.00  0.00    -0.248 NA
ATOM     41  C   UNL A   1      37.507  33.580  33.366  1.00  0.00     0.031 C 
ATOM     42  C   UNL A   1      37.838  30.428  29.452  1.00  0.00     0.029 A 
ATOM     43  N   UNL A   1      39.308  30.157  31.115  1.00  0.00    -0.354 N 
ATOM     44  C   UNL A   1      39.336  32.831  34.514  1.00  0.00     0.074 A 
ATOM     45  C   UNL A   1      38.288  33.821  34.409  1.00  0.00     0.031 C 
ATOM     46  C   UNL A   1      38.658  29.424  29.104  1.00  0.00     0.029 A 
ATOM     47  C   UNL A   1      39.661  29.244  30.149  1.00  0.00     0.049 A 
ATOM     48  H   UNL A   1      39.781  30.244  31.975  1.00  0.00     0.167 HD
ATOM     49  C   UNL A   1      40.215  32.759  35.540  1.00  0.00     0.034 A 
ATOM     50  C   UNL A   1      40.689  28.374  30.100  1.00  0.00     0.034 A 
ATOM     51  C   UNL A   1      41.232  31.750  35.657  1.00  0.00     0.049 A 
ATOM     52  C   UNL A   1      41.642  28.305  31.263  1.00  0.00     0.074 A 
ATOM     53  C   UNL A   1      42.118  31.540  36.699  1.00  0.00     0.029 A 
ATOM     54  N   UNL A   1      41.509  30.791  34.696  1.00  0.00    -0.354 N 
ATOM     55  N   UNL A   1      41.642  29.002  32.373  1.00  0.00    -0.248 NA
ATOM     56  C   UNL A   1      42.718  27.307  31.182  1.00  0.00     0.031 C 
ATOM     57  C   UNL A   1      42.954  30.475  36.351  1.00  0.00     0.029 A 
ATOM     58  C   UNL A   1      42.561  29.994  35.112  1.00  0.00     0.049 A 
ATOM     59  H   UNL A   1      41.028  30.690  33.843  1.00  0.00     0.167 HD
ATOM     60  C   UNL A   1      42.687  28.500  33.140  1.00  0.00     0.074 A 
ATOM     61  C   UNL A   1      43.290  27.429  32.373  1.00  0.00     0.031 C 
ATOM     62  C   UNL A   1      43.115  28.896  34.363  1.00  0.00     0.034 A 
BRANCH  49  63
ATOM     63  C   UNL A   1      40.093  33.779  36.643  1.00  0.00     0.023 A 
ATOM     64  C   UNL A   1      39.006  33.714  37.538  1.00  0.00     0.012 A 
ATOM     65  C   UNL A   1      41.082  34.764  36.829  1.00  0.00     0.148 A 
ATOM     66  C   UNL A   1      38.885  34.635  38.578  1.00  0.00     0.002 A 
ATOM     67  C   UNL A   1      40.981  35.647  37.896  1.00  0.00     0.091 A 
ATOM     68  F   UNL A   1      42.098  34.823  35.955  1.00  0.00    -0.205 F 
ATOM     69  C   UNL A   1      39.877  35.593  38.763  1.00  0.00     0.022 A 
BRANCH  67  70
ATOM     70  S   UNL A   1      42.248  36.864  38.272  1.00  0.00     0.127 S 
ATOM     71  O   UNL A   1      41.516  37.795  39.130  1.00  0.00    -0.237 OA
ATOM     72  O   UNL A   1      43.253  36.057  38.964  1.00  0.00    -0.237 OA
ATOM     73  O   UNL A   1      42.678  37.406  36.990  1.00  0.00    -0.744 OA
ENDBRANCH  67  70
ENDBRANCH  49  63
BRANCH  50  74
ATOM     74  C   UNL A   1      40.846  27.467  28.929  1.00  0.00     0.023 A 
ATOM     75  C   UNL A   1      40.044  26.312  28.835  1.00  0.00     0.012 A 
ATOM     76  C   UNL A   1      41.769  27.747  27.904  1.00  0.00     0.148 A 
ATOM     77  C   UNL A   1      40.187  25.434  27.760  1.00  0.00     0.002 A 
ATOM     78  C   UNL A   1      41.866  26.898  26.807  1.00  0.00     0.091 A 
ATOM     79  F   UNL A   1      42.528  28.847  28.015  1.00  0.00    -0.205 F 
ATOM     80  C   UNL A   1      41.090  25.731  26.742  1.00  0.00     0.022 A 
BRANCH  78  81
ATOM     81  S   UNL A   1      42.906  27.267  25.391  1.00  0.00     0.127 S 
ATOM     82  O   UNL A   1      44.170  27.619  26.033  1.00  0.00    -0.237 OA
ATOM     83  O   UNL A   1      42.910  25.988  24.680  1.00  0.00    -0.237 OA
ATOM     84  O   UNL A   1      42.236  28.347  24.680  1.00  0.00    -0.744 OA
ENDBRANCH  78  81
ENDBRANCH  50  74
BRANCH  62  85
ATOM     85  C   UNL A   1      44.259  28.140  34.987  1.00  0.00     0.023 A 
ATOM     86  C   UNL A   1      45.579  28.375  34.560  1.00  0.00     0.012 A 
ATOM     87  C   UNL A   1      44.024  27.262  36.066  1.00  0.00     0.148 A 
ATOM     88  C   UNL A   1      46.649  27.726  35.178  1.00  0.00     0.002 A 
ATOM     89  C   UNL A   1      45.097  26.661  36.710  1.00  0.00     0.091 A 
ATOM     90  F   UNL A   1      42.758  27.041  36.445  1.00  0.00    -0.205 F 
ATOM     91  C   UNL A   1      46.409  26.882  36.260  1.00  0.00     0.022 A 
BRANCH  89  92
ATOM     92  S   UNL A   1      44.895  25.640  38.174  1.00  0.00     0.127 S 
ATOM     93  O   UNL A   1      44.163  26.541  39.065  1.00  0.00    -0.237 OA
ATOM     94  O   UNL A   1      44.108  24.519  37.661  1.00  0.00    -0.237 OA
ATOM     95  O   UNL A   1      46.238  25.289  38.612  1.00  0.00    -0.744 OA
ENDBRANCH  89  92
ENDBRANCH  62  85
ENDBRANCH  36  37
ENDBRANCH  28  31
ENDBRANCH  26  27
ENDBRANCH  25  26
ENDBRANCH  24  25
ENDBRANCH   1  24
TORSDOF 19
ENDMDL
MODEL 3
REMARK VINA RESULT:     -10.5      1.715      2.334
REMARK SMILES CC(C)N1C(=O)C[C@@H](Sc2csc(C(=O)NCCCCCCNC(=O)c3ccc(-c4c5nc(c(-c6cccc(S(=O)(=O)[O-])c6F)c6ccc([nH]6)c(-c6cccc(S(=O)(=O)[O-])c6F)c6nc(c(-c7cccc(S(=O)(=O)[O-])c7F)c7ccc4[nH]7)C=C6)C=C5)cc3)c2)C1=O
REMARK SMILES IDX 19 1 18 2 17 3 16 4 14 5 15 6 13 8 10 9 11 10 89 11 12 12
REMARK SMILES IDX 9 13 8 14 4 15 5 16 90 17 6 18 7 19 91 20 2 21 1 22 3 23
REMARK SMILES IDX 20 24 21 25 22 26 23 27 24 28 25 30 26 31 27 32 88 33 28 34
REMARK SMILES IDX 87 35 29 36 30 37 31 38 81 39 32 40 86 41 80 42 82 43 33 44
REMARK SMILES IDX 85 45 79 46 78 47 34 49 66 50 46 51 65 52 47 53 50 54 64 55
REMARK SMILES IDX 83 56 48 57 49 58 63 60 84 61 51 62 35 63 36 64 44 65 37 66
REMARK SMILES IDX 39 67 45 68 38 69 40 70 41 71 42 72 43 73 67 74 68 75 76 76
REMARK SMILES IDX 69 77 71 78 77 79 70 80 72 81 73 82 74 83 75 84 52 85 53 86
REMARK SMILES IDX 61 87 54 88 56 89 62 90 55 91 57 92 58 93 59 94 60 95
REMARK H PARENT 16 7 23 29 82 48 50 59
REMARK Flexibility Score: inf
ROOT
ATOM      1  C   UNL A   1      32.466  29.209  25.241  1.00  0.00     0.002 C 
ENDROOT
BRANCH   1   2
ATOM      2  C   UNL A   1      32.483  27.682  25.086  1.00  0.00     0.021 C 
BRANCH   2   3
ATOM      3  C   UNL A   1      32.311  26.952  26.419  1.00  0.00     0.116 C 
BRANCH   3   4
ATOM      4  N   UNL A   1      30.932  26.550  26.594  1.00  0.00    -0.351 N 
ATOM      5  C   UNL A   1      30.182  25.561  26.011  1.00  0.00     0.261 C 
ATOM      6  O   UNL A   1      29.010  25.508  26.399  1.00  0.00    -0.268 OA
ATOM      7  H   UNL A   1      30.440  27.088  27.256  1.00  0.00     0.163 HD
BRANCH   5   8
ATOM      8  C   UNL A   1      30.742  24.639  25.030  1.00  0.00     0.093 A 
ATOM      9  C   UNL A   1      31.628  22.792  23.861  1.00  0.00     0.020 A 
ATOM     10  C   UNL A   1      31.473  23.704  22.852  1.00  0.00     0.080 A 
ATOM     11  C   UNL A   1      31.296  23.373  25.124  1.00  0.00     0.040 A 
ATOM     12  S   UNL A   1      30.791  25.172  23.392  1.00  0.00    -0.137 S 
BRANCH   9  13
ATOM     13  S   UNL A   1      32.209  21.135  23.805  1.00  0.00    -0.111 SA
BRANCH  13  14
ATOM     14  C   UNL A   1      33.843  21.071  24.574  1.00  0.00     0.150 C 
ATOM     15  N   UNL A   1      35.212  22.802  25.341  1.00  0.00    -0.279 N 
ATOM     16  C   UNL A   1      34.660  22.250  26.465  1.00  0.00     0.231 C 
ATOM     17  C   UNL A   1      34.757  22.205  24.193  1.00  0.00     0.243 C 
ATOM     18  O   UNL A   1      34.787  22.655  27.611  1.00  0.00    -0.274 OA
ATOM     19  C   UNL A   1      33.798  21.084  26.090  1.00  0.00     0.125 C 
ATOM     20  O   UNL A   1      35.041  22.535  23.049  1.00  0.00    -0.273 OA
BRANCH  15  21
ATOM     21  C   UNL A   1      36.049  24.006  25.383  1.00  0.00     0.087 C 
ATOM     22  C   UNL A   1      35.421  25.143  26.186  1.00  0.00     0.031 C 
ATOM     23  C   UNL A   1      37.453  23.687  25.899  1.00  0.00     0.031 C 
ENDBRANCH  15  21
ENDBRANCH  13  14
ENDBRANCH   9  13
ENDBRANCH   5   8
ENDBRANCH   3   4
ENDBRANCH   2   3
ENDBRANCH   1   2
BRANCH   1  24
ATOM     24  C   UNL A   1      32.082  29.704  26.641  1.00  0.00     0.002 C 
BRANCH  24  25
ATOM     25  C   UNL A   1      31.880  31.218  26.747  1.00  0.00     0.021 C 
BRANCH  25  26
ATOM     26  C   UNL A   1      33.108  31.963  27.258  1.00  0.00     0.116 C 
BRANCH  26  27
ATOM     27  N   UNL A   1      32.813  33.370  27.493  1.00  0.00    -0.352 N 
ATOM     28  C   UNL A   1      33.291  34.193  28.483  1.00  0.00     0.251 C 
ATOM     29  H   UNL A   1      32.189  33.787  26.857  1.00  0.00     0.163 HD
ATOM     30  O   UNL A   1      32.761  35.276  28.702  1.00  0.00    -0.269 OA
BRANCH  28  31
ATOM     31  C   UNL A   1      34.448  33.747  29.282  1.00  0.00     0.039 A 
ATOM     32  C   UNL A   1      34.244  32.895  30.370  1.00  0.00     0.014 A 
ATOM     33  C   UNL A   1      35.737  34.156  28.930  1.00  0.00     0.014 A 
ATOM     34  C   UNL A   1      35.347  32.404  31.071  1.00  0.00     0.010 A 
ATOM     35  C   UNL A   1      36.833  33.603  29.579  1.00  0.00     0.010 A 
ATOM     36  C   UNL A   1      36.650  32.727  30.660  1.00  0.00    -0.014 A 
BRANCH  36  37
ATOM     37  C   UNL A   1      37.844  32.162  31.335  1.00  0.00     0.031 A 
ATOM     38  C   UNL A   1      38.584  31.011  30.711  1.00  0.00     0.074 A 
ATOM     39  C   UNL A   1      38.196  32.612  32.556  1.00  0.00     0.049 A 
ATOM     40  N   UNL A   1      39.577  30.310  31.193  1.00  0.00    -0.248 NA
ATOM     41  C   UNL A   1      38.127  30.568  29.382  1.00  0.00     0.031 C 
ATOM     42  C   UNL A   1      37.515  33.678  33.295  1.00  0.00     0.029 A 
ATOM     43  N   UNL A   1      39.194  32.208  33.407  1.00  0.00    -0.354 N 
ATOM     44  C   UNL A   1      39.836  29.323  30.250  1.00  0.00     0.074 A 
ATOM     45  C   UNL A   1      38.875  29.493  29.182  1.00  0.00     0.031 C 
ATOM     46  C   UNL A   1      38.113  33.841  34.485  1.00  0.00     0.029 A 
ATOM     47  C   UNL A   1      39.192  32.867  34.613  1.00  0.00     0.049 A 
ATOM     48  H   UNL A   1      39.850  31.510  33.173  1.00  0.00     0.167 HD
ATOM     49  C   UNL A   1      40.803  28.376  30.259  1.00  0.00     0.034 A 
ATOM     50  C   UNL A   1      39.958  32.693  35.708  1.00  0.00     0.034 A 
ATOM     51  C   UNL A   1      41.778  28.235  31.305  1.00  0.00     0.049 A 
ATOM     52  C   UNL A   1      41.038  31.644  35.684  1.00  0.00     0.074 A 
ATOM     53  C   UNL A   1      42.851  27.363  31.368  1.00  0.00     0.029 A 
ATOM     54  N   UNL A   1      41.794  28.975  32.478  1.00  0.00    -0.354 N 
ATOM     55  N   UNL A   1      41.362  30.816  34.722  1.00  0.00    -0.248 NA
ATOM     56  C   UNL A   1      41.877  31.526  36.886  1.00  0.00     0.031 C 
ATOM     57  C   UNL A   1      43.493  27.552  32.595  1.00  0.00     0.029 A 
ATOM     58  C   UNL A   1      42.848  28.570  33.278  1.00  0.00     0.049 A 
ATOM     59  H   UNL A   1      41.150  29.684  32.706  1.00  0.00     0.167 HD
ATOM     60  C   UNL A   1      42.468  30.109  35.182  1.00  0.00     0.074 A 
ATOM     61  C   UNL A   1      42.766  30.617  36.505  1.00  0.00     0.031 C 
ATOM     62  C   UNL A   1      43.166  29.123  34.569  1.00  0.00     0.034 A 
BRANCH  49  63
ATOM     63  C   UNL A   1      40.881  27.440  29.081  1.00  0.00     0.023 A 
ATOM     64  C   UNL A   1      40.031  26.316  29.023  1.00  0.00     0.012 A 
ATOM     65  C   UNL A   1      41.751  27.704  28.005  1.00  0.00     0.148 A 
ATOM     66  C   UNL A   1      40.073  25.449  27.932  1.00  0.00     0.002 A 
ATOM     67  C   UNL A   1      41.751  26.863  26.899  1.00  0.00     0.091 A 
ATOM     68  F   UNL A   1      42.566  28.765  28.087  1.00  0.00    -0.205 F 
ATOM     69  C   UNL A   1      40.924  25.729  26.866  1.00  0.00     0.022 A 
BRANCH  67  70
ATOM     70  S   UNL A   1      42.749  27.180  25.439  1.00  0.00     0.127 S 
ATOM     71  O   UNL A   1      42.134  28.402  24.923  1.00  0.00    -0.237 OA
ATOM     72  O   UNL A   1      44.082  27.363  26.013  1.00  0.00    -0.237 OA
ATOM     73  O   UNL A   1      42.606  26.005  24.590  1.00  0.00    -0.744 OA
ENDBRANCH  67  70
ENDBRANCH  49  63
BRANCH  50  74
ATOM     74  C   UNL A   1      39.763  33.561  36.903  1.00  0.00     0.023 A 
ATOM     75  C   UNL A   1      38.722  33.273  37.807  1.00  0.00     0.012 A 
ATOM     76  C   UNL A   1      40.608  34.658  37.157  1.00  0.00     0.148 A 
ATOM     77  C   UNL A   1      38.502  34.084  38.920  1.00  0.00     0.002 A 
ATOM     78  C   UNL A   1      40.420  35.428  38.299  1.00  0.00     0.091 A 
ATOM     79  F   UNL A   1      41.589  34.921  36.281  1.00  0.00    -0.205 F 
ATOM     80  C   UNL A   1      39.356  35.155  39.172  1.00  0.00     0.022 A 
BRANCH  78  81
ATOM     81  S   UNL A   1      41.546  36.745  38.771  1.00  0.00     0.127 S 
ATOM     82  O   UNL A   1      40.640  37.700  39.403  1.00  0.00    -0.237 OA
ATOM     83  O   UNL A   1      42.451  36.052  39.688  1.00  0.00    -0.237 OA
ATOM     84  O   UNL A   1      42.171  37.190  37.534  1.00  0.00    -0.744 OA
ENDBRANCH  78  81
ENDBRANCH  50  74
BRANCH  62  85
ATOM     85  C   UNL A   1      44.361  28.555  35.289  1.00  0.00     0.023 A 
ATOM     86  C   UNL A   1      45.643  29.093  35.067  1.00  0.00     0.012 A 
ATOM     87  C   UNL A   1      44.190  27.545  36.259  1.00  0.00     0.148 A 
ATOM     88  C   UNL A   1      46.743  28.615  35.779  1.00  0.00     0.002 A 
ATOM     89  C   UNL A   1      45.281  27.112  37.001  1.00  0.00     0.091 A 
ATOM     90  F   UNL A   1      42.964  27.037  36.443  1.00  0.00    -0.205 F 
ATOM     91  C   UNL A   1      46.561  27.637  36.754  1.00  0.00     0.022 A 
BRANCH  89  92
ATOM     92  S   UNL A   1      45.126  25.932  38.346  1.00  0.00     0.127 S 
ATOM     93  O   UNL A   1      44.065  26.537  39.150  1.00  0.00    -0.237 OA
ATOM     94  O   UNL A   1      44.736  24.711  37.641  1.00  0.00    -0.237 OA
ATOM     95  O   UNL A   1      46.433  25.872  38.985  1.00  0.00    -0.744 OA
ENDBRANCH  89  92
ENDBRANCH  62  85
ENDBRANCH  36  37
ENDBRANCH  28  31
ENDBRANCH  26  27
ENDBRANCH  25  26
ENDBRANCH  24  25
ENDBRANCH   1  24
TORSDOF 19
ENDMDL
