MODEL 1
REMARK VINA RESULT:     -10.4      0.000      0.000
REMARK SMILES C[C@@H](C(=O)NCCCCCCNC(=O)c1ccc(-c2c3nc(c(-c4cccc(S(=O)(=O)[O-])c4F)c4ccc([nH]4)c(-c4cccc(S(=O)(=O)[O-])c4F)c4nc(c(-c5cccc(S(=O)(=O)[O-])c5F)c5ccc2[nH]5)C=C4)C=C3)cc1)c1ccc2c3cc(Cl)ccc3n(C(=O)c3ccc(Cl)cc3)c2c1
REMARK SMILES IDX 8 1 7 2 6 3 5 4 3 5 4 6 2 8 1 9 78 10 79 11 100 12 80 13
REMARK SMILES IDX 99 14 81 15 89 16 82 17 88 18 83 19 87 20 84 21 86 22 85 23
REMARK SMILES IDX 90 24 91 25 92 26 93 27 98 28 94 29 97 30 95 31 96 32 9 33
REMARK SMILES IDX 10 34 11 35 12 36 13 37 14 39 15 40 16 41 77 42 17 43 76 44
REMARK SMILES IDX 18 45 19 46 20 47 70 48 21 49 75 50 69 51 71 52 22 53 74 54
REMARK SMILES IDX 68 55 67 56 23 58 55 59 35 60 54 61 36 62 39 63 53 64 72 65
REMARK SMILES IDX 37 66 38 67 52 69 73 70 40 71 24 72 25 73 33 74 26 75 28 76
REMARK SMILES IDX 34 77 27 78 29 79 30 80 31 81 32 82 56 83 57 84 65 85 58 86
REMARK SMILES IDX 60 87 66 88 59 89 61 90 62 91 63 92 64 93 41 94 42 95 50 96
REMARK SMILES IDX 43 97 45 98 51 99 44 100 46 101 47 102 48 103 49 104
REMARK H PARENT 5 7 12 38 71 57 39 68
REMARK Flexibility Score: inf
ROOT
ATOM      1  C   UNL A   1      37.136  23.836  26.467  1.00  0.00     0.002 C 
ENDROOT
BRANCH   1   2
ATOM      2  C   UNL A   1      36.210  24.052  25.263  1.00  0.00     0.021 C 
BRANCH   2   3
ATOM      3  C   UNL A   1      34.818  24.558  25.653  1.00  0.00     0.116 C 
BRANCH   3   4
ATOM      4  N   UNL A   1      34.372  25.534  24.682  1.00  0.00    -0.356 N 
ATOM      5  C   UNL A   1      33.316  26.395  24.762  1.00  0.00     0.227 C 
ATOM      6  O   UNL A   1      32.933  26.911  23.711  1.00  0.00    -0.274 OA
ATOM      7  H   UNL A   1      34.900  25.582  23.853  1.00  0.00     0.163 HD
BRANCH   5   8
ATOM      8  C   UNL A   1      32.709  26.713  26.139  1.00  0.00     0.105 C 
ATOM      9  C   UNL A   1      31.230  26.324  26.256  1.00  0.00     0.023 C 
BRANCH   8  10
ATOM     10  C   UNL A   1      32.926  28.178  26.507  1.00  0.00    -0.034 A 
ATOM     11  C   UNL A   1      31.944  29.143  26.281  1.00  0.00     0.005 A 
ATOM     12  C   UNL A   1      34.167  28.566  27.043  1.00  0.00     0.032 A 
ATOM     13  C   UNL A   1      32.128  30.459  26.694  1.00  0.00     0.011 A 
ATOM     14  C   UNL A   1      34.388  29.922  27.362  1.00  0.00     0.057 A 
ATOM     15  C   UNL A   1      33.356  30.845  27.263  1.00  0.00     0.008 A 
ATOM     16  N   UNL A   1      35.544  30.592  27.805  1.00  0.00    -0.276 N 
ATOM     17  C   UNL A   1      33.831  32.072  27.779  1.00  0.00     0.009 A 
ATOM     18  C   UNL A   1      35.210  31.945  27.994  1.00  0.00     0.057 A 
ATOM     19  C   UNL A   1      33.182  33.306  27.992  1.00  0.00     0.031 A 
ATOM     20  C   UNL A   1      35.980  33.098  28.249  1.00  0.00     0.029 A 
ATOM     21  C   UNL A   1      33.938  34.421  28.323  1.00  0.00     0.041 A 
ATOM     22  C   UNL A   1      35.321  34.329  28.414  1.00  0.00     0.023 A 
ATOM     23  Cl  UNL A   1      33.149  35.932  28.566  1.00  0.00    -0.084 Cl
BRANCH  16  24
ATOM     24  C   UNL A   1      36.808  29.946  27.924  1.00  0.00     0.262 C 
ATOM     25  O   UNL A   1      37.521  29.983  26.918  1.00  0.00    -0.268 OA
BRANCH  24  26
ATOM     26  C   UNL A   1      37.398  29.190  29.069  1.00  0.00     0.040 A 
ATOM     27  C   UNL A   1      36.920  29.521  30.357  1.00  0.00     0.015 A 
ATOM     28  C   UNL A   1      38.477  28.308  28.970  1.00  0.00     0.015 A 
ATOM     29  C   UNL A   1      37.491  28.983  31.511  1.00  0.00     0.021 A 
ATOM     30  C   UNL A   1      39.030  27.740  30.131  1.00  0.00     0.021 A 
ATOM     31  C   UNL A   1      38.543  28.086  31.392  1.00  0.00     0.041 A 
ATOM     32  Cl  UNL A   1      39.260  27.425  32.809  1.00  0.00    -0.084 Cl
ENDBRANCH  24  26
ENDBRANCH  16  24
ENDBRANCH   8  10
ENDBRANCH   5   8
ENDBRANCH   3   4
ENDBRANCH   2   3
ENDBRANCH   1   2
BRANCH   1  33
ATOM     33  C   UNL A   1      38.630  23.920  26.141  1.00  0.00     0.002 C 
BRANCH  33  34
ATOM     34  C   UNL A   1      39.451  24.721  27.152  1.00  0.00     0.021 C 
BRANCH  34  35
ATOM     35  C   UNL A   1      40.155  25.935  26.556  1.00  0.00     0.116 C 
BRANCH  35  36
ATOM     36  N   UNL A   1      41.461  25.586  26.019  1.00  0.00    -0.352 N 
ATOM     37  C   UNL A   1      42.634  26.297  26.072  1.00  0.00     0.251 C 
ATOM     38  H   UNL A   1      41.509  24.720  25.552  1.00  0.00     0.163 HD
ATOM     39  O   UNL A   1      43.586  25.972  25.375  1.00  0.00    -0.269 OA
BRANCH  37  40
ATOM     40  C   UNL A   1      42.727  27.468  26.971  1.00  0.00     0.039 A 
ATOM     41  C   UNL A   1      43.326  27.315  28.222  1.00  0.00     0.014 A 
ATOM     42  C   UNL A   1      42.236  28.713  26.567  1.00  0.00     0.014 A 
ATOM     43  C   UNL A   1      43.481  28.429  29.050  1.00  0.00     0.010 A 
ATOM     44  C   UNL A   1      42.462  29.833  27.359  1.00  0.00     0.010 A 
ATOM     45  C   UNL A   1      43.081  29.703  28.612  1.00  0.00    -0.014 A 
BRANCH  45  46
ATOM     46  C   UNL A   1      43.312  30.911  29.442  1.00  0.00     0.031 A 
ATOM     47  C   UNL A   1      42.266  31.368  30.423  1.00  0.00     0.074 A 
ATOM     48  C   UNL A   1      44.426  31.645  29.252  1.00  0.00     0.049 A 
ATOM     49  N   UNL A   1      42.263  32.428  31.188  1.00  0.00    -0.248 NA
ATOM     50  C   UNL A   1      41.054  30.540  30.541  1.00  0.00     0.031 C 
ATOM     51  C   UNL A   1      45.480  31.346  28.278  1.00  0.00     0.029 A 
ATOM     52  N   UNL A   1      44.847  32.807  29.848  1.00  0.00    -0.354 N 
ATOM     53  C   UNL A   1      41.042  32.415  31.851  1.00  0.00     0.074 A 
ATOM     54  C   UNL A   1      40.314  31.260  31.372  1.00  0.00     0.031 C 
ATOM     55  C   UNL A   1      46.426  32.295  28.349  1.00  0.00     0.029 A 
ATOM     56  C   UNL A   1      46.032  33.289  29.342  1.00  0.00     0.049 A 
ATOM     57  H   UNL A   1      44.348  33.254  30.569  1.00  0.00     0.167 HD
ATOM     58  C   UNL A   1      40.579  33.269  32.794  1.00  0.00     0.034 A 
ATOM     59  C   UNL A   1      46.717  34.412  29.633  1.00  0.00     0.034 A 
ATOM     60  C   UNL A   1      41.319  34.398  33.290  1.00  0.00     0.049 A 
ATOM     61  C   UNL A   1      46.188  35.335  30.697  1.00  0.00     0.074 A 
ATOM     62  C   UNL A   1      40.972  35.275  34.303  1.00  0.00     0.029 A 
ATOM     63  N   UNL A   1      42.548  34.815  32.805  1.00  0.00    -0.354 N 
ATOM     64  N   UNL A   1      45.102  35.223  31.422  1.00  0.00    -0.248 NA
ATOM     65  C   UNL A   1      46.996  36.524  31.009  1.00  0.00     0.031 C 
ATOM     66  C   UNL A   1      41.975  36.244  34.404  1.00  0.00     0.029 A 
ATOM     67  C   UNL A   1      42.967  35.947  33.484  1.00  0.00     0.049 A 
ATOM     68  H   UNL A   1      43.049  34.372  32.082  1.00  0.00     0.167 HD
ATOM     69  C   UNL A   1      45.114  36.301  32.300  1.00  0.00     0.074 A 
ATOM     70  C   UNL A   1      46.327  37.045  32.028  1.00  0.00     0.031 C 
ATOM     71  C   UNL A   1      44.199  36.651  33.237  1.00  0.00     0.034 A 
BRANCH  58  72
ATOM     72  C   UNL A   1      39.220  32.992  33.384  1.00  0.00     0.023 A 
ATOM     73  C   UNL A   1      39.108  32.164  34.521  1.00  0.00     0.012 A 
ATOM     74  C   UNL A   1      38.063  33.594  32.854  1.00  0.00     0.148 A 
ATOM     75  C   UNL A   1      37.863  31.910  35.096  1.00  0.00     0.002 A 
ATOM     76  C   UNL A   1      36.832  33.375  33.461  1.00  0.00     0.091 A 
ATOM     77  F   UNL A   1      38.186  34.363  31.762  1.00  0.00    -0.205 F 
ATOM     78  C   UNL A   1      36.728  32.524  34.573  1.00  0.00     0.022 A 
BRANCH  76  79
ATOM     79  S   UNL A   1      35.323  34.184  32.916  1.00  0.00     0.127 S 
ATOM     80  O   UNL A   1      34.383  33.790  33.965  1.00  0.00    -0.237 OA
ATOM     81  O   UNL A   1      35.706  35.595  32.939  1.00  0.00    -0.237 OA
ATOM     82  O   UNL A   1      35.036  33.652  31.592  1.00  0.00    -0.744 OA
ENDBRANCH  76  79
ENDBRANCH  58  72
BRANCH  59  83
ATOM     83  C   UNL A   1      48.005  34.701  28.942  1.00  0.00     0.023 A 
ATOM     84  C   UNL A   1      49.217  34.312  29.544  1.00  0.00     0.012 A 
ATOM     85  C   UNL A   1      48.035  35.336  27.686  1.00  0.00     0.148 A 
ATOM     86  C   UNL A   1      50.438  34.583  28.925  1.00  0.00     0.002 A 
ATOM     87  C   UNL A   1      49.250  35.551  27.048  1.00  0.00     0.091 A 
ATOM     88  F   UNL A   1      46.870  35.704  27.133  1.00  0.00    -0.205 F 
ATOM     89  C   UNL A   1      50.454  35.194  27.674  1.00  0.00     0.022 A 
BRANCH  87  90
ATOM     90  S   UNL A   1      49.361  36.210  25.380  1.00  0.00     0.127 S 
ATOM     91  O   UNL A   1      50.801  36.410  25.232  1.00  0.00    -0.237 OA
ATOM     92  O   UNL A   1      48.805  35.115  24.586  1.00  0.00    -0.237 OA
ATOM     93  O   UNL A   1      48.553  37.422  25.381  1.00  0.00    -0.744 OA
ENDBRANCH  87  90
ENDBRANCH  59  83
BRANCH  71  94
ATOM     94  C   UNL A   1      44.486  37.869  34.077  1.00  0.00     0.023 A 
ATOM     95  C   UNL A   1      45.334  37.770  35.197  1.00  0.00     0.012 A 
ATOM     96  C   UNL A   1      43.974  39.128  33.705  1.00  0.00     0.148 A 
ATOM     97  C   UNL A   1      45.641  38.900  35.955  1.00  0.00     0.002 A 
ATOM     98  C   UNL A   1      44.327  40.257  34.433  1.00  0.00     0.091 A 
ATOM     99  F   UNL A   1      43.157  39.199  32.645  1.00  0.00    -0.205 F 
ATOM    100  C   UNL A   1      45.149  40.143  35.566  1.00  0.00     0.022 A 
BRANCH  98 101
ATOM    101  S   UNL A   1      43.824  41.913  33.951  1.00  0.00     0.127 S 
ATOM    102  O   UNL A   1      44.469  42.731  34.976  1.00  0.00    -0.237 OA
ATOM    103  O   UNL A   1      44.409  42.036  32.615  1.00  0.00    -0.237 OA
ATOM    104  O   UNL A   1      42.368  41.916  33.976  1.00  0.00    -0.744 OA
ENDBRANCH  98 101
ENDBRANCH  71  94
ENDBRANCH  45  46
ENDBRANCH  37  40
ENDBRANCH  35  36
ENDBRANCH  34  35
ENDBRANCH  33  34
ENDBRANCH   1  33
TORSDOF 19
ENDMDL
MODEL 2
REMARK VINA RESULT:     -10.1      4.744      9.990
REMARK SMILES C[C@@H](C(=O)NCCCCCCNC(=O)c1ccc(-c2c3nc(c(-c4cccc(S(=O)(=O)[O-])c4F)c4ccc([nH]4)c(-c4cccc(S(=O)(=O)[O-])c4F)c4nc(c(-c5cccc(S(=O)(=O)[O-])c5F)c5ccc2[nH]5)C=C4)C=C3)cc1)c1ccc2c3cc(Cl)ccc3n(C(=O)c3ccc(Cl)cc3)c2c1
REMARK SMILES IDX 8 1 7 2 6 3 5 4 3 5 4 6 2 8 1 9 78 10 79 11 100 12 80 13
REMARK SMILES IDX 99 14 81 15 89 16 82 17 88 18 83 19 87 20 84 21 86 22 85 23
REMARK SMILES IDX 90 24 91 25 92 26 93 27 98 28 94 29 97 30 95 31 96 32 9 33
REMARK SMILES IDX 10 34 11 35 12 36 13 37 14 39 15 40 16 41 77 42 17 43 76 44
REMARK SMILES IDX 18 45 19 46 20 47 70 48 21 49 75 50 69 51 71 52 22 53 74 54
REMARK SMILES IDX 68 55 67 56 23 58 55 59 35 60 54 61 36 62 39 63 53 64 72 65
REMARK SMILES IDX 37 66 38 67 52 69 73 70 40 71 24 72 25 73 33 74 26 75 28 76
REMARK SMILES IDX 34 77 27 78 29 79 30 80 31 81 32 82 56 83 57 84 65 85 58 86
REMARK SMILES IDX 60 87 66 88 59 89 61 90 62 91 63 92 64 93 41 94 42 95 50 96
REMARK SMILES IDX 43 97 45 98 51 99 44 100 46 101 47 102 48 103 49 104
REMARK H PARENT 5 7 12 38 71 57 39 68
REMARK Flexibility Score: inf
ROOT
ATOM      1  C   UNL A   1      38.273  31.182  35.025  1.00  0.00     0.002 C 
ENDROOT
BRANCH   1   2
ATOM      2  C   UNL A   1      37.610  32.087  33.978  1.00  0.00     0.021 C 
BRANCH   2   3
ATOM      3  C   UNL A   1      37.581  31.471  32.576  1.00  0.00     0.116 C 
BRANCH   3   4
ATOM      4  N   UNL A   1      38.797  30.716  32.357  1.00  0.00    -0.356 N 
ATOM      5  C   UNL A   1      39.439  30.457  31.181  1.00  0.00     0.227 C 
ATOM      6  O   UNL A   1      40.270  29.547  31.185  1.00  0.00    -0.274 OA
ATOM      7  H   UNL A   1      39.216  30.340  33.164  1.00  0.00     0.163 HD
BRANCH   5   8
ATOM      8  C   UNL A   1      39.138  31.331  29.952  1.00  0.00     0.105 C 
ATOM      9  C   UNL A   1      39.067  32.829  30.273  1.00  0.00     0.023 C 
BRANCH   8  10
ATOM     10  C   UNL A   1      37.874  30.857  29.241  1.00  0.00    -0.034 A 
ATOM     11  C   UNL A   1      37.799  29.600  28.639  1.00  0.00     0.005 A 
ATOM     12  C   UNL A   1      36.777  31.733  29.151  1.00  0.00     0.032 A 
ATOM     13  C   UNL A   1      36.614  29.153  28.064  1.00  0.00     0.011 A 
ATOM     14  C   UNL A   1      35.613  31.316  28.473  1.00  0.00     0.057 A 
ATOM     15  C   UNL A   1      35.501  30.014  28.003  1.00  0.00     0.008 A 
ATOM     16  N   UNL A   1      34.431  32.009  28.150  1.00  0.00    -0.276 N 
ATOM     17  C   UNL A   1      34.189  29.852  27.505  1.00  0.00     0.009 A 
ATOM     18  C   UNL A   1      33.577  31.113  27.484  1.00  0.00     0.057 A 
ATOM     19  C   UNL A   1      33.520  28.720  26.993  1.00  0.00     0.031 A 
ATOM     20  C   UNL A   1      32.365  31.281  26.783  1.00  0.00     0.029 A 
ATOM     21  C   UNL A   1      32.288  28.882  26.377  1.00  0.00     0.041 A 
ATOM     22  C   UNL A   1      31.733  30.149  26.240  1.00  0.00     0.023 A 
ATOM     23  Cl  UNL A   1      31.480  27.504  25.735  1.00  0.00    -0.084 Cl
BRANCH  16  24
ATOM     24  C   UNL A   1      34.260  33.398  28.413  1.00  0.00     0.262 C 
ATOM     25  O   UNL A   1      34.341  34.139  27.430  1.00  0.00    -0.268 OA
BRANCH  24  26
ATOM     26  C   UNL A   1      34.034  34.112  29.705  1.00  0.00     0.040 A 
ATOM     27  C   UNL A   1      33.251  35.288  29.647  1.00  0.00     0.015 A 
ATOM     28  C   UNL A   1      34.657  33.791  30.913  1.00  0.00     0.015 A 
ATOM     29  C   UNL A   1      33.085  36.112  30.761  1.00  0.00     0.021 A 
ATOM     30  C   UNL A   1      34.462  34.603  32.044  1.00  0.00     0.021 A 
ATOM     31  C   UNL A   1      33.687  35.761  31.960  1.00  0.00     0.041 A 
ATOM     32  Cl  UNL A   1      33.497  36.776  33.336  1.00  0.00    -0.084 Cl
ENDBRANCH  24  26
ENDBRANCH  16  24
ENDBRANCH   8  10
ENDBRANCH   5   8
ENDBRANCH   3   4
ENDBRANCH   2   3
ENDBRANCH   1   2
BRANCH   1  33
ATOM     33  C   UNL A   1      38.982  31.935  36.154  1.00  0.00     0.002 C 
BRANCH  33  34
ATOM     34  C   UNL A   1      38.334  33.270  36.525  1.00  0.00     0.021 C 
BRANCH  34  35
ATOM     35  C   UNL A   1      39.134  34.089  37.531  1.00  0.00     0.116 C 
BRANCH  35  36
ATOM     36  N   UNL A   1      39.317  35.460  37.080  1.00  0.00    -0.352 N 
ATOM     37  C   UNL A   1      40.144  35.942  36.096  1.00  0.00     0.251 C 
ATOM     38  H   UNL A   1      38.773  36.135  37.547  1.00  0.00     0.163 HD
ATOM     39  O   UNL A   1      40.349  37.144  35.995  1.00  0.00    -0.269 OA
BRANCH  37  40
ATOM     40  C   UNL A   1      40.792  34.990  35.169  1.00  0.00     0.039 A 
ATOM     41  C   UNL A   1      42.017  34.424  35.526  1.00  0.00     0.014 A 
ATOM     42  C   UNL A   1      40.181  34.650  33.958  1.00  0.00     0.014 A 
ATOM     43  C   UNL A   1      42.604  33.472  34.690  1.00  0.00     0.010 A 
ATOM     44  C   UNL A   1      40.728  33.646  33.167  1.00  0.00     0.010 A 
ATOM     45  C   UNL A   1      41.949  33.051  33.521  1.00  0.00    -0.014 A 
BRANCH  45  46
ATOM     46  C   UNL A   1      42.515  31.981  32.662  1.00  0.00     0.031 A 
ATOM     47  C   UNL A   1      42.693  30.588  33.202  1.00  0.00     0.074 A 
ATOM     48  C   UNL A   1      42.948  32.284  31.422  1.00  0.00     0.049 A 
ATOM     49  N   UNL A   1      43.224  29.542  32.625  1.00  0.00    -0.248 NA
ATOM     50  C   UNL A   1      42.238  30.345  34.582  1.00  0.00     0.031 C 
ATOM     51  C   UNL A   1      42.899  33.616  30.811  1.00  0.00     0.029 A 
ATOM     52  N   UNL A   1      43.541  31.502  30.463  1.00  0.00    -0.354 N 
ATOM     53  C   UNL A   1      43.198  28.530  33.575  1.00  0.00     0.074 A 
ATOM     54  C   UNL A   1      42.633  29.096  34.781  1.00  0.00     0.031 C 
ATOM     55  C   UNL A   1      43.432  33.555  29.580  1.00  0.00     0.029 A 
ATOM     56  C   UNL A   1      43.895  32.194  29.328  1.00  0.00     0.049 A 
ATOM     57  H   UNL A   1      43.698  30.537  30.576  1.00  0.00     0.167 HD
ATOM     58  C   UNL A   1      43.585  27.237  33.450  1.00  0.00     0.034 A 
ATOM     59  C   UNL A   1      44.534  31.783  28.215  1.00  0.00     0.034 A 
ATOM     60  C   UNL A   1      44.118  26.671  32.240  1.00  0.00     0.049 A 
ATOM     61  C   UNL A   1      44.937  30.339  28.094  1.00  0.00     0.074 A 
ATOM     62  C   UNL A   1      44.461  25.355  31.986  1.00  0.00     0.029 A 
ATOM     63  N   UNL A   1      44.396  27.386  31.086  1.00  0.00    -0.354 N 
ATOM     64  N   UNL A   1      44.766  29.360  28.949  1.00  0.00    -0.248 NA
ATOM     65  C   UNL A   1      45.591  29.933  26.841  1.00  0.00     0.031 C 
ATOM     66  C   UNL A   1      44.982  25.282  30.690  1.00  0.00     0.029 A 
ATOM     67  C   UNL A   1      44.923  26.544  30.122  1.00  0.00     0.049 A 
ATOM     68  H   UNL A   1      44.242  28.352  30.970  1.00  0.00     0.167 HD
ATOM     69  C   UNL A   1      45.255  28.218  28.326  1.00  0.00     0.074 A 
ATOM     70  C   UNL A   1      45.711  28.623  27.012  1.00  0.00     0.031 C 
ATOM     71  C   UNL A   1      45.330  26.951  28.801  1.00  0.00     0.034 A 
BRANCH  58  72
ATOM     72  C   UNL A   1      43.407  26.334  34.642  1.00  0.00     0.023 A 
ATOM     73  C   UNL A   1      42.196  25.629  34.811  1.00  0.00     0.012 A 
ATOM     74  C   UNL A   1      44.453  26.134  35.563  1.00  0.00     0.148 A 
ATOM     75  C   UNL A   1      42.016  24.772  35.896  1.00  0.00     0.002 A 
ATOM     76  C   UNL A   1      44.284  25.241  36.615  1.00  0.00     0.091 A 
ATOM     77  F   UNL A   1      45.590  26.825  35.398  1.00  0.00    -0.205 F 
ATOM     78  C   UNL A   1      43.063  24.570  36.791  1.00  0.00     0.022 A 
BRANCH  76  79
ATOM     79  S   UNL A   1      45.599  24.847  37.774  1.00  0.00     0.127 S 
ATOM     80  O   UNL A   1      44.922  23.924  38.685  1.00  0.00    -0.237 OA
ATOM     81  O   UNL A   1      46.597  24.223  36.905  1.00  0.00    -0.237 OA
ATOM     82  O   UNL A   1      46.010  26.113  38.364  1.00  0.00    -0.744 OA
ENDBRANCH  76  79
ENDBRANCH  58  72
BRANCH  59  83
ATOM     83  C   UNL A   1      44.788  32.743  27.103  1.00  0.00     0.023 A 
ATOM     84  C   UNL A   1      43.794  32.951  26.127  1.00  0.00     0.012 A 
ATOM     85  C   UNL A   1      45.994  33.465  27.021  1.00  0.00     0.148 A 
ATOM     86  C   UNL A   1      44.012  33.833  25.067  1.00  0.00     0.002 A 
ATOM     87  C   UNL A   1      46.181  34.385  25.996  1.00  0.00     0.091 A 
ATOM     88  F   UNL A   1      46.929  33.247  27.956  1.00  0.00    -0.205 F 
ATOM     89  C   UNL A   1      45.200  34.556  25.007  1.00  0.00     0.022 A 
BRANCH  87  90
ATOM     90  S   UNL A   1      47.622  35.454  25.912  1.00  0.00     0.127 S 
ATOM     91  O   UNL A   1      48.425  34.795  24.885  1.00  0.00    -0.237 OA
ATOM     92  O   UNL A   1      47.027  36.728  25.507  1.00  0.00    -0.237 OA
ATOM     93  O   UNL A   1      48.190  35.457  27.253  1.00  0.00    -0.744 OA
ENDBRANCH  87  90
ENDBRANCH  59  83
BRANCH  71  94
ATOM     94  C   UNL A   1      45.886  25.890  27.886  1.00  0.00     0.023 A 
ATOM     95  C   UNL A   1      47.277  25.681  27.812  1.00  0.00     0.012 A 
ATOM     96  C   UNL A   1      45.019  25.049  27.159  1.00  0.00     0.148 A 
ATOM     97  C   UNL A   1      47.799  24.673  27.002  1.00  0.00     0.002 A 
ATOM     98  C   UNL A   1      45.544  24.014  26.396  1.00  0.00     0.091 A 
ATOM     99  F   UNL A   1      43.700  25.275  27.231  1.00  0.00    -0.205 F 
ATOM    100  C   UNL A   1      46.934  23.832  26.305  1.00  0.00     0.022 A 
BRANCH  98 101
ATOM    101  S   UNL A   1      44.506  22.820  25.545  1.00  0.00     0.127 S 
ATOM    102  O   UNL A   1      45.489  21.833  25.102  1.00  0.00    -0.237 OA
ATOM    103  O   UNL A   1      43.621  22.362  26.617  1.00  0.00    -0.237 OA
ATOM    104  O   UNL A   1      43.837  23.554  24.479  1.00  0.00    -0.744 OA
ENDBRANCH  98 101
ENDBRANCH  71  94
ENDBRANCH  45  46
ENDBRANCH  37  40
ENDBRANCH  35  36
ENDBRANCH  34  35
ENDBRANCH  33  34
ENDBRANCH   1  33
TORSDOF 19
ENDMDL
MODEL 3
REMARK VINA RESULT:      -9.5      3.980      7.846
REMARK SMILES C[C@@H](C(=O)NCCCCCCNC(=O)c1ccc(-c2c3nc(c(-c4cccc(S(=O)(=O)[O-])c4F)c4ccc([nH]4)c(-c4cccc(S(=O)(=O)[O-])c4F)c4nc(c(-c5cccc(S(=O)(=O)[O-])c5F)c5ccc2[nH]5)C=C4)C=C3)cc1)c1ccc2c3cc(Cl)ccc3n(C(=O)c3ccc(Cl)cc3)c2c1
REMARK SMILES IDX 8 1 7 2 6 3 5 4 3 5 4 6 2 8 1 9 78 10 79 11 100 12 80 13
REMARK SMILES IDX 99 14 81 15 89 16 82 17 88 18 83 19 87 20 84 21 86 22 85 23
REMARK SMILES IDX 90 24 91 25 92 26 93 27 98 28 94 29 97 30 95 31 96 32 9 33
REMARK SMILES IDX 10 34 11 35 12 36 13 37 14 39 15 40 16 41 77 42 17 43 76 44
REMARK SMILES IDX 18 45 19 46 20 47 70 48 21 49 75 50 69 51 71 52 22 53 74 54
REMARK SMILES IDX 68 55 67 56 23 58 55 59 35 60 54 61 36 62 39 63 53 64 72 65
REMARK SMILES IDX 37 66 38 67 52 69 73 70 40 71 24 72 25 73 33 74 26 75 28 76
REMARK SMILES IDX 34 77 27 78 29 79 30 80 31 81 32 82 56 83 57 84 65 85 58 86
REMARK SMILES IDX 60 87 66 88 59 89 61 90 62 91 63 92 64 93 41 94 42 95 50 96
REMARK SMILES IDX 43 97 45 98 51 99 44 100 46 101 47 102 48 103 49 104
REMARK H PARENT 5 7 12 38 71 57 39 68
REMARK Flexibility Score: inf
ROOT
ATOM      1  C   UNL A   1      43.774  31.996  27.499  1.00  0.00     0.002 C 
ENDROOT
BRANCH   1   2
ATOM      2  C   UNL A   1      43.990  30.598  28.092  1.00  0.00     0.021 C 
BRANCH   2   3
ATOM      3  C   UNL A   1      42.687  29.906  28.504  1.00  0.00     0.116 C 
BRANCH   3   4
ATOM      4  N   UNL A   1      41.882  29.656  27.328  1.00  0.00    -0.356 N 
ATOM      5  C   UNL A   1      40.665  29.047  27.242  1.00  0.00     0.227 C 
ATOM      6  O   UNL A   1      40.308  28.662  26.127  1.00  0.00    -0.274 OA
ATOM      7  H   UNL A   1      42.265  29.966  26.476  1.00  0.00     0.163 HD
BRANCH   5   8
ATOM      8  C   UNL A   1      39.795  28.923  28.505  1.00  0.00     0.105 C 
ATOM      9  C   UNL A   1      39.164  27.536  28.676  1.00  0.00     0.023 C 
BRANCH   8  10
ATOM     10  C   UNL A   1      38.737  30.022  28.549  1.00  0.00    -0.034 A 
ATOM     11  C   UNL A   1      38.964  31.231  29.207  1.00  0.00     0.005 A 
ATOM     12  C   UNL A   1      37.487  29.784  27.950  1.00  0.00     0.032 A 
ATOM     13  C   UNL A   1      38.019  32.252  29.171  1.00  0.00     0.011 A 
ATOM     14  C   UNL A   1      36.492  30.782  28.008  1.00  0.00     0.057 A 
ATOM     15  C   UNL A   1      36.779  32.031  28.542  1.00  0.00     0.008 A 
ATOM     16  N   UNL A   1      35.148  30.773  27.593  1.00  0.00    -0.276 N 
ATOM     17  C   UNL A   1      35.648  32.853  28.335  1.00  0.00     0.009 A 
ATOM     18  C   UNL A   1      34.606  32.042  27.865  1.00  0.00     0.057 A 
ATOM     19  C   UNL A   1      35.430  34.221  28.602  1.00  0.00     0.031 A 
ATOM     20  C   UNL A   1      33.293  32.555  27.832  1.00  0.00     0.029 A 
ATOM     21  C   UNL A   1      34.148  34.737  28.489  1.00  0.00     0.041 A 
ATOM     22  C   UNL A   1      33.086  33.909  28.145  1.00  0.00     0.023 A 
ATOM     23  Cl  UNL A   1      33.876  36.402  28.832  1.00  0.00    -0.084 Cl
BRANCH  16  24
ATOM     24  C   UNL A   1      34.509  29.607  27.082  1.00  0.00     0.262 C 
ATOM     25  O   UNL A   1      34.762  28.557  27.678  1.00  0.00    -0.268 OA
BRANCH  24  26
ATOM     26  C   UNL A   1      33.604  29.443  25.905  1.00  0.00     0.040 A 
ATOM     27  C   UNL A   1      32.324  30.034  26.006  1.00  0.00     0.015 A 
ATOM     28  C   UNL A   1      33.873  28.633  24.800  1.00  0.00     0.015 A 
ATOM     29  C   UNL A   1      31.346  29.833  25.032  1.00  0.00     0.021 A 
ATOM     30  C   UNL A   1      32.899  28.458  23.801  1.00  0.00     0.021 A 
ATOM     31  C   UNL A   1      31.641  29.049  23.926  1.00  0.00     0.041 A 
ATOM     32  Cl  UNL A   1      30.438  28.787  22.725  1.00  0.00    -0.084 Cl
ENDBRANCH  24  26
ENDBRANCH  16  24
ENDBRANCH   8  10
ENDBRANCH   5   8
ENDBRANCH   3   4
ENDBRANCH   2   3
ENDBRANCH   1   2
BRANCH   1  33
ATOM     33  C   UNL A   1      44.714  32.345  26.342  1.00  0.00     0.002 C 
BRANCH  33  34
ATOM     34  C   UNL A   1      44.039  33.082  25.184  1.00  0.00     0.021 C 
BRANCH  34  35
ATOM     35  C   UNL A   1      43.862  34.578  25.422  1.00  0.00     0.116 C 
BRANCH  35  36
ATOM     36  N   UNL A   1      45.143  35.261  25.511  1.00  0.00    -0.352 N 
ATOM     37  C   UNL A   1      45.681  35.951  26.569  1.00  0.00     0.251 C 
ATOM     38  H   UNL A   1      45.700  35.224  24.700  1.00  0.00     0.163 HD
ATOM     39  O   UNL A   1      46.666  36.660  26.408  1.00  0.00    -0.269 OA
BRANCH  37  40
ATOM     40  C   UNL A   1      45.049  35.837  27.901  1.00  0.00     0.039 A 
ATOM     41  C   UNL A   1      45.538  34.893  28.804  1.00  0.00     0.014 A 
ATOM     42  C   UNL A   1      43.984  36.672  28.254  1.00  0.00     0.014 A 
ATOM     43  C   UNL A   1      44.994  34.825  30.089  1.00  0.00     0.010 A 
ATOM     44  C   UNL A   1      43.498  36.655  29.557  1.00  0.00     0.010 A 
ATOM     45  C   UNL A   1      43.992  35.727  30.486  1.00  0.00    -0.014 A 
BRANCH  45  46
ATOM     46  C   UNL A   1      43.458  35.725  31.871  1.00  0.00     0.031 A 
ATOM     47  C   UNL A   1      42.179  35.000  32.189  1.00  0.00     0.074 A 
ATOM     48  C   UNL A   1      44.081  36.446  32.824  1.00  0.00     0.049 A 
ATOM     49  N   UNL A   1      41.528  34.936  33.321  1.00  0.00    -0.248 NA
ATOM     50  C   UNL A   1      41.531  34.273  31.085  1.00  0.00     0.031 C 
ATOM     51  C   UNL A   1      45.289  37.251  32.622  1.00  0.00     0.029 A 
ATOM     52  N   UNL A   1      43.771  36.642  34.147  1.00  0.00    -0.354 N 
ATOM     53  C   UNL A   1      40.383  34.195  33.061  1.00  0.00     0.074 A 
ATOM     54  C   UNL A   1      40.408  33.860  31.653  1.00  0.00     0.031 C 
ATOM     55  C   UNL A   1      45.618  37.847  33.779  1.00  0.00     0.029 A 
ATOM     56  C   UNL A   1      44.628  37.500  34.794  1.00  0.00     0.049 A 
ATOM     57  H   UNL A   1      43.005  36.209  34.590  1.00  0.00     0.167 HD
ATOM     58  C   UNL A   1      39.411  33.803  33.919  1.00  0.00     0.034 A 
ATOM     59  C   UNL A   1      44.613  37.967  36.058  1.00  0.00     0.034 A 
ATOM     60  C   UNL A   1      39.406  34.112  35.324  1.00  0.00     0.049 A 
ATOM     61  C   UNL A   1      43.532  37.502  36.995  1.00  0.00     0.074 A 
ATOM     62  C   UNL A   1      38.512  33.693  36.293  1.00  0.00     0.029 A 
ATOM     63  N   UNL A   1      40.331  34.925  35.959  1.00  0.00    -0.354 N 
ATOM     64  N   UNL A   1      42.540  36.677  36.767  1.00  0.00    -0.248 NA
ATOM     65  C   UNL A   1      43.587  38.006  38.376  1.00  0.00     0.031 C 
ATOM     66  C   UNL A   1      38.875  34.283  37.507  1.00  0.00     0.029 A 
ATOM     67  C   UNL A   1      40.021  35.035  37.304  1.00  0.00     0.049 A 
ATOM     68  H   UNL A   1      41.097  35.361  35.518  1.00  0.00     0.167 HD
ATOM     69  C   UNL A   1      41.876  36.532  37.979  1.00  0.00     0.074 A 
ATOM     70  C   UNL A   1      42.591  37.341  38.945  1.00  0.00     0.031 C 
ATOM     71  C   UNL A   1      40.768  35.805  38.265  1.00  0.00     0.034 A 
BRANCH  58  72
ATOM     72  C   UNL A   1      38.290  32.959  33.370  1.00  0.00     0.023 A 
ATOM     73  C   UNL A   1      37.075  33.571  32.993  1.00  0.00     0.012 A 
ATOM     74  C   UNL A   1      38.454  31.575  33.173  1.00  0.00     0.148 A 
ATOM     75  C   UNL A   1      36.031  32.813  32.465  1.00  0.00     0.002 A 
ATOM     76  C   UNL A   1      37.426  30.833  32.601  1.00  0.00     0.091 A 
ATOM     77  F   UNL A   1      39.607  31.007  33.554  1.00  0.00    -0.205 F 
ATOM     78  C   UNL A   1      36.211  31.448  32.258  1.00  0.00     0.022 A 
BRANCH  76  79
ATOM     79  S   UNL A   1      37.587  29.086  32.217  1.00  0.00     0.127 S 
ATOM     80  O   UNL A   1      36.645  28.940  31.108  1.00  0.00    -0.237 OA
ATOM     81  O   UNL A   1      38.996  28.984  31.836  1.00  0.00    -0.237 OA
ATOM     82  O   UNL A   1      37.232  28.371  33.434  1.00  0.00    -0.744 OA
ENDBRANCH  76  79
ENDBRANCH  58  72
BRANCH  59  83
ATOM     83  C   UNL A   1      45.686  38.890  36.525  1.00  0.00     0.023 A 
ATOM     84  C   UNL A   1      46.893  38.357  37.017  1.00  0.00     0.012 A 
ATOM     85  C   UNL A   1      45.526  40.288  36.464  1.00  0.00     0.148 A 
ATOM     86  C   UNL A   1      47.908  39.199  37.474  1.00  0.00     0.002 A 
ATOM     87  C   UNL A   1      46.562  41.121  36.866  1.00  0.00     0.091 A 
ATOM     88  F   UNL A   1      44.366  40.774  35.999  1.00  0.00    -0.205 F 
ATOM     89  C   UNL A   1      47.746  40.580  37.390  1.00  0.00     0.022 A 
BRANCH  87  90
ATOM     90  S   UNL A   1      46.496  42.905  36.673  1.00  0.00     0.127 S 
ATOM     91  O   UNL A   1      47.498  43.349  37.639  1.00  0.00    -0.237 OA
ATOM     92  O   UNL A   1      46.875  43.071  35.270  1.00  0.00    -0.237 OA
ATOM     93  O   UNL A   1      45.121  43.283  36.972  1.00  0.00    -0.744 OA
ENDBRANCH  87  90
ENDBRANCH  59  83
BRANCH  71  94
ATOM     94  C   UNL A   1      40.276  35.808  39.689  1.00  0.00     0.023 A 
ATOM     95  C   UNL A   1      39.301  36.739  40.097  1.00  0.00     0.012 A 
ATOM     96  C   UNL A   1      40.727  34.834  40.602  1.00  0.00     0.148 A 
ATOM     97  C   UNL A   1      38.806  36.722  41.401  1.00  0.00     0.002 A 
ATOM     98  C   UNL A   1      40.191  34.789  41.883  1.00  0.00     0.091 A 
ATOM     99  F   UNL A   1      41.667  33.967  40.200  1.00  0.00    -0.205 F 
ATOM    100  C   UNL A   1      39.241  35.741  42.289  1.00  0.00     0.022 A 
BRANCH  98 101
ATOM    101  S   UNL A   1      40.615  33.503  43.063  1.00  0.00     0.127 S 
ATOM    102  O   UNL A   1      39.788  33.867  44.212  1.00  0.00    -0.237 OA
ATOM    103  O   UNL A   1      40.188  32.290  42.363  1.00  0.00    -0.237 OA
ATOM    104  O   UNL A   1      42.053  33.606  43.273  1.00  0.00    -0.744 OA
ENDBRANCH  98 101
ENDBRANCH  71  94
ENDBRANCH  45  46
ENDBRANCH  37  40
ENDBRANCH  35  36
ENDBRANCH  34  35
ENDBRANCH  33  34
ENDBRANCH   1  33
TORSDOF 19
ENDMDL
