MODEL 1
REMARK VINA RESULT:     -10.7      0.000      0.000
REMARK SMILES COc1c(Cl)cc(C(=O)NCCCCCCNC(=O)c2ccc(-c3c4nc(c(-c5cccc(S(=O)(=O)[O-])c5F)c5ccc([nH]5)c(-c5cccc(S(=O)(=O)[O-])c5F)c5nc(c(-c6cccc(S(=O)(=O)[O-])c6F)c6ccc3[nH]6)C=C5)C=C4)cc2)cc1NC(=O)C(C)(C)Oc1ccc(Br)cc1
REMARK SMILES IDX 13 1 12 2 11 3 10 4 8 5 9 6 7 8 3 9 4 10 84 11 5 12 6 13
REMARK SMILES IDX 83 14 2 15 1 16 85 17 86 18 87 20 88 21 89 22 90 23 91 24
REMARK SMILES IDX 92 25 93 26 98 27 94 28 97 29 95 30 96 31 14 32 15 33 16 34
REMARK SMILES IDX 17 35 18 36 19 38 20 39 21 40 82 41 22 42 81 43 23 44 24 45
REMARK SMILES IDX 25 46 75 47 26 48 80 49 74 50 76 51 27 52 79 53 73 54 72 55
REMARK SMILES IDX 28 57 60 58 40 59 59 60 41 61 44 62 58 63 77 64 42 65 43 66
REMARK SMILES IDX 57 68 78 69 45 70 29 71 30 72 38 73 31 74 33 75 39 76 32 77
REMARK SMILES IDX 34 78 35 79 36 80 37 81 61 82 62 83 70 84 63 85 65 86 71 87
REMARK SMILES IDX 64 88 66 89 67 90 68 91 69 92 46 93 47 94 55 95 48 96 50 97
REMARK SMILES IDX 56 98 49 99 51 100 52 101 53 102 54 103
REMARK H PARENT 10 7 85 19 17 37 76 56 44 67
REMARK Flexibility Score: inf
ROOT
ATOM      1  C   UNL A   1      40.184  22.736  26.356  1.00  0.00     0.002 C 
ENDROOT
BRANCH   1   2
ATOM      2  C   UNL A   1      39.119  23.831  26.525  1.00  0.00     0.021 C 
BRANCH   2   3
ATOM      3  C   UNL A   1      37.686  23.391  26.201  1.00  0.00     0.116 C 
BRANCH   3   4
ATOM      4  N   UNL A   1      37.466  23.238  24.771  1.00  0.00    -0.352 N 
ATOM      5  C   UNL A   1      36.431  23.355  23.880  1.00  0.00     0.251 C 
ATOM      6  O   UNL A   1      36.732  23.118  22.705  1.00  0.00    -0.269 OA
ATOM      7  H   UNL A   1      38.297  22.975  24.312  1.00  0.00     0.163 HD
BRANCH   5   8
ATOM      8  C   UNL A   1      35.010  23.757  24.159  1.00  0.00     0.043 A 
ATOM      9  C   UNL A   1      32.289  24.279  24.800  1.00  0.00     0.160 A 
ATOM     10  C   UNL A   1      33.068  23.433  25.608  1.00  0.00     0.086 A 
ATOM     11  C   UNL A   1      32.854  24.847  23.635  1.00  0.00     0.086 A 
ATOM     12  Cl  UNL A   1      32.436  22.567  26.964  1.00  0.00    -0.080 Cl
ATOM     13  C   UNL A   1      34.406  23.183  25.286  1.00  0.00     0.038 A 
ATOM     14  C   UNL A   1      34.221  24.608  23.382  1.00  0.00     0.044 A 
BRANCH   9  15
ATOM     15  O   UNL A   1      30.940  24.477  24.985  1.00  0.00    -0.493 OA
ATOM     16  C   UNL A   1      30.619  25.363  26.056  1.00  0.00     0.278 C 
ENDBRANCH   9  15
BRANCH  11  17
ATOM     17  N   UNL A   1      31.969  25.587  22.782  1.00  0.00    -0.319 N 
ATOM     18  C   UNL A   1      31.588  26.916  22.615  1.00  0.00     0.268 C 
ATOM     19  H   UNL A   1      31.508  24.997  22.145  1.00  0.00     0.170 HD
ATOM     20  O   UNL A   1      30.758  27.142  21.730  1.00  0.00    -0.270 OA
BRANCH  18  21
ATOM     21  C   UNL A   1      32.189  28.075  23.486  1.00  0.00     0.181 C 
ATOM     22  C   UNL A   1      33.579  28.259  22.840  1.00  0.00     0.067 C 
ATOM     23  C   UNL A   1      31.051  29.117  23.476  1.00  0.00     0.067 C 
BRANCH  21  24
ATOM     24  O   UNL A   1      32.492  27.806  24.884  1.00  0.00    -0.478 OA
BRANCH  24  25
ATOM     25  C   UNL A   1      32.994  28.825  25.682  1.00  0.00     0.120 A 
ATOM     26  C   UNL A   1      34.259  28.624  26.244  1.00  0.00     0.047 A 
ATOM     27  C   UNL A   1      32.288  29.971  26.076  1.00  0.00     0.047 A 
ATOM     28  C   UNL A   1      34.792  29.533  27.177  1.00  0.00     0.019 A 
ATOM     29  C   UNL A   1      32.815  30.886  26.996  1.00  0.00     0.019 A 
ATOM     30  C   UNL A   1      34.059  30.652  27.561  1.00  0.00     0.018 A 
ATOM     31  Br  UNL A   1      34.741  31.871  28.836  1.00  0.00    -0.051 Br
ENDBRANCH  24  25
ENDBRANCH  21  24
ENDBRANCH  18  21
ENDBRANCH  11  17
ENDBRANCH   5   8
ENDBRANCH   3   4
ENDBRANCH   2   3
ENDBRANCH   1   2
BRANCH   1  32
ATOM     32  C   UNL A   1      40.641  22.011  27.630  1.00  0.00     0.002 C 
BRANCH  32  33
ATOM     33  C   UNL A   1      41.011  20.534  27.480  1.00  0.00     0.021 C 
BRANCH  33  34
ATOM     34  C   UNL A   1      40.955  19.957  26.068  1.00  0.00     0.116 C 
BRANCH  34  35
ATOM     35  N   UNL A   1      42.246  19.423  25.659  1.00  0.00    -0.352 N 
ATOM     36  C   UNL A   1      43.436  20.021  25.319  1.00  0.00     0.251 C 
ATOM     37  H   UNL A   1      42.272  18.440  25.617  1.00  0.00     0.163 HD
ATOM     38  O   UNL A   1      44.275  19.322  24.747  1.00  0.00    -0.269 OA
BRANCH  36  39
ATOM     39  C   UNL A   1      43.770  21.445  25.612  1.00  0.00     0.039 A 
ATOM     40  C   UNL A   1      44.281  21.753  26.883  1.00  0.00     0.014 A 
ATOM     41  C   UNL A   1      43.482  22.499  24.742  1.00  0.00     0.014 A 
ATOM     42  C   UNL A   1      44.511  23.084  27.268  1.00  0.00     0.010 A 
ATOM     43  C   UNL A   1      43.783  23.823  25.099  1.00  0.00     0.010 A 
ATOM     44  C   UNL A   1      44.272  24.139  26.377  1.00  0.00    -0.014 A 
BRANCH  44  45
ATOM     45  C   UNL A   1      44.466  25.566  26.779  1.00  0.00     0.031 A 
ATOM     46  C   UNL A   1      45.838  26.200  26.698  1.00  0.00     0.074 A 
ATOM     47  C   UNL A   1      43.437  26.293  27.263  1.00  0.00     0.049 A 
ATOM     48  N   UNL A   1      46.228  27.388  27.088  1.00  0.00    -0.248 NA
ATOM     49  C   UNL A   1      46.918  25.384  26.116  1.00  0.00     0.031 C 
ATOM     50  C   UNL A   1      42.064  25.813  27.432  1.00  0.00     0.029 A 
ATOM     51  N   UNL A   1      43.392  27.587  27.730  1.00  0.00    -0.354 N 
ATOM     52  C   UNL A   1      47.596  27.448  26.836  1.00  0.00     0.074 A 
ATOM     53  C   UNL A   1      47.975  26.165  26.287  1.00  0.00     0.031 C 
ATOM     54  C   UNL A   1      41.317  26.791  27.971  1.00  0.00     0.029 A 
ATOM     55  C   UNL A   1      42.160  27.957  28.222  1.00  0.00     0.049 A 
ATOM     56  H   UNL A   1      44.168  28.193  27.713  1.00  0.00     0.167 HD
ATOM     57  C   UNL A   1      48.456  28.481  27.014  1.00  0.00     0.034 A 
ATOM     58  C   UNL A   1      41.755  29.095  28.823  1.00  0.00     0.034 A 
ATOM     59  C   UNL A   1      48.082  29.776  27.513  1.00  0.00     0.049 A 
ATOM     60  C   UNL A   1      42.737  30.226  29.009  1.00  0.00     0.074 A 
ATOM     61  C   UNL A   1      48.877  30.899  27.673  1.00  0.00     0.029 A 
ATOM     62  N   UNL A   1      46.809  30.129  27.931  1.00  0.00    -0.354 N 
ATOM     63  N   UNL A   1      43.995  30.299  28.650  1.00  0.00    -0.248 NA
ATOM     64  C   UNL A   1      42.229  31.449  29.652  1.00  0.00     0.031 C 
ATOM     65  C   UNL A   1      48.091  31.923  28.209  1.00  0.00     0.029 A 
ATOM     66  C   UNL A   1      46.798  31.450  28.350  1.00  0.00     0.049 A 
ATOM     67  H   UNL A   1      46.028  29.530  27.930  1.00  0.00     0.167 HD
ATOM     68  C   UNL A   1      44.413  31.584  28.980  1.00  0.00     0.074 A 
ATOM     69  C   UNL A   1      43.269  32.264  29.547  1.00  0.00     0.031 C 
ATOM     70  C   UNL A   1      45.639  32.146  28.843  1.00  0.00     0.034 A 
BRANCH  57  71
ATOM     71  C   UNL A   1      49.896  28.280  26.608  1.00  0.00     0.023 A 
ATOM     72  C   UNL A   1      50.268  28.465  25.260  1.00  0.00     0.012 A 
ATOM     73  C   UNL A   1      50.892  28.008  27.568  1.00  0.00     0.148 A 
ATOM     74  C   UNL A   1      51.601  28.355  24.870  1.00  0.00     0.002 A 
ATOM     75  C   UNL A   1      52.225  27.945  27.178  1.00  0.00     0.091 A 
ATOM     76  F   UNL A   1      50.518  27.827  28.842  1.00  0.00    -0.205 F 
ATOM     77  C   UNL A   1      52.580  28.107  25.828  1.00  0.00     0.022 A 
BRANCH  75  78
ATOM     78  S   UNL A   1      53.572  27.711  28.344  1.00  0.00     0.127 S 
ATOM     79  O   UNL A   1      54.742  27.862  27.476  1.00  0.00    -0.237 OA
ATOM     80  O   UNL A   1      53.362  28.816  29.280  1.00  0.00    -0.237 OA
ATOM     81  O   UNL A   1      53.391  26.385  28.913  1.00  0.00    -0.744 OA
ENDBRANCH  75  78
ENDBRANCH  57  71
BRANCH  58  82
ATOM     82  C   UNL A   1      40.343  29.255  29.279  1.00  0.00     0.023 A 
ATOM     83  C   UNL A   1      39.364  29.699  28.366  1.00  0.00     0.012 A 
ATOM     84  C   UNL A   1      39.968  29.005  30.613  1.00  0.00     0.148 A 
ATOM     85  C   UNL A   1      38.056  29.946  28.786  1.00  0.00     0.002 A 
ATOM     86  C   UNL A   1      38.649  29.194  31.010  1.00  0.00     0.091 A 
ATOM     87  F   UNL A   1      40.913  28.598  31.473  1.00  0.00    -0.205 F 
ATOM     88  C   UNL A   1      37.697  29.686  30.104  1.00  0.00     0.022 A 
BRANCH  86  89
ATOM     89  S   UNL A   1      38.070  28.764  32.655  1.00  0.00     0.127 S 
ATOM     90  O   UNL A   1      36.687  29.238  32.619  1.00  0.00    -0.237 OA
ATOM     91  O   UNL A   1      38.222  27.308  32.660  1.00  0.00    -0.237 OA
ATOM     92  O   UNL A   1      38.958  29.461  33.574  1.00  0.00    -0.744 OA
ENDBRANCH  86  89
ENDBRANCH  58  82
BRANCH  70  93
ATOM     93  C   UNL A   1      45.806  33.588  29.248  1.00  0.00     0.023 A 
ATOM     94  C   UNL A   1      46.276  33.913  30.535  1.00  0.00     0.012 A 
ATOM     95  C   UNL A   1      45.560  34.623  28.322  1.00  0.00     0.148 A 
ATOM     96  C   UNL A   1      46.465  35.244  30.908  1.00  0.00     0.002 A 
ATOM     97  C   UNL A   1      45.800  35.943  28.683  1.00  0.00     0.091 A 
ATOM     98  F   UNL A   1      45.098  34.297  27.106  1.00  0.00    -0.205 F 
ATOM     99  C   UNL A   1      46.238  36.258  29.980  1.00  0.00     0.022 A 
BRANCH  97 100
ATOM    100  S   UNL A   1      45.631  37.308  27.524  1.00  0.00     0.127 S 
ATOM    101  O   UNL A   1      44.205  37.257  27.211  1.00  0.00    -0.237 OA
ATOM    102  O   UNL A   1      46.036  38.455  28.337  1.00  0.00    -0.237 OA
ATOM    103  O   UNL A   1      46.525  37.006  26.415  1.00  0.00    -0.744 OA
ENDBRANCH  97 100
ENDBRANCH  70  93
ENDBRANCH  44  45
ENDBRANCH  36  39
ENDBRANCH  34  35
ENDBRANCH  33  34
ENDBRANCH  32  33
ENDBRANCH   1  32
TORSDOF 21
ENDMDL
MODEL 2
REMARK VINA RESULT:      -9.8      1.787      2.166
REMARK SMILES COc1c(Cl)cc(C(=O)NCCCCCCNC(=O)c2ccc(-c3c4nc(c(-c5cccc(S(=O)(=O)[O-])c5F)c5ccc([nH]5)c(-c5cccc(S(=O)(=O)[O-])c5F)c5nc(c(-c6cccc(S(=O)(=O)[O-])c6F)c6ccc3[nH]6)C=C5)C=C4)cc2)cc1NC(=O)C(C)(C)Oc1ccc(Br)cc1
REMARK SMILES IDX 13 1 12 2 11 3 10 4 8 5 9 6 7 8 3 9 4 10 84 11 5 12 6 13
REMARK SMILES IDX 83 14 2 15 1 16 85 17 86 18 87 20 88 21 89 22 90 23 91 24
REMARK SMILES IDX 92 25 93 26 98 27 94 28 97 29 95 30 96 31 14 32 15 33 16 34
REMARK SMILES IDX 17 35 18 36 19 38 20 39 21 40 82 41 22 42 81 43 23 44 24 45
REMARK SMILES IDX 25 46 75 47 26 48 80 49 74 50 76 51 27 52 79 53 73 54 72 55
REMARK SMILES IDX 28 57 60 58 40 59 59 60 41 61 44 62 58 63 77 64 42 65 43 66
REMARK SMILES IDX 57 68 78 69 45 70 29 71 30 72 38 73 31 74 33 75 39 76 32 77
REMARK SMILES IDX 34 78 35 79 36 80 37 81 61 82 62 83 70 84 63 85 65 86 71 87
REMARK SMILES IDX 64 88 66 89 67 90 68 91 69 92 46 93 47 94 55 95 48 96 50 97
REMARK SMILES IDX 56 98 49 99 51 100 52 101 53 102 54 103
REMARK H PARENT 10 7 85 19 17 37 76 56 44 67
REMARK Flexibility Score: inf
ROOT
ATOM      1  C   UNL A   1      40.486  22.744  26.593  1.00  0.00     0.002 C 
ENDROOT
BRANCH   1   2
ATOM      2  C   UNL A   1      39.116  23.434  26.512  1.00  0.00     0.021 C 
BRANCH   2   3
ATOM      3  C   UNL A   1      37.973  22.540  26.014  1.00  0.00     0.116 C 
BRANCH   3   4
ATOM      4  N   UNL A   1      37.715  22.715  24.593  1.00  0.00    -0.352 N 
ATOM      5  C   UNL A   1      36.667  23.067  23.782  1.00  0.00     0.251 C 
ATOM      6  O   UNL A   1      36.931  23.084  22.575  1.00  0.00    -0.269 OA
ATOM      7  H   UNL A   1      38.523  22.529  24.062  1.00  0.00     0.163 HD
BRANCH   5   8
ATOM      8  C   UNL A   1      35.272  23.452  24.187  1.00  0.00     0.043 A 
ATOM      9  C   UNL A   1      32.612  23.940  25.063  1.00  0.00     0.160 A 
ATOM     10  C   UNL A   1      33.460  23.085  25.786  1.00  0.00     0.086 A 
ATOM     11  C   UNL A   1      33.073  24.535  23.867  1.00  0.00     0.086 A 
ATOM     12  Cl  UNL A   1      32.950  22.187  27.173  1.00  0.00    -0.080 Cl
ATOM     13  C   UNL A   1      34.769  22.851  25.349  1.00  0.00     0.038 A 
ATOM     14  C   UNL A   1      34.415  24.311  23.496  1.00  0.00     0.044 A 
BRANCH   9  15
ATOM     15  O   UNL A   1      31.281  24.123  25.364  1.00  0.00    -0.493 OA
ATOM     16  C   UNL A   1      31.048  24.867  26.560  1.00  0.00     0.278 C 
ENDBRANCH   9  15
BRANCH  11  17
ATOM     17  N   UNL A   1      32.115  25.284  23.106  1.00  0.00    -0.319 N 
ATOM     18  C   UNL A   1      31.681  26.605  23.031  1.00  0.00     0.268 C 
ATOM     19  H   UNL A   1      31.637  24.711  22.466  1.00  0.00     0.170 HD
ATOM     20  O   UNL A   1      30.793  26.845  22.208  1.00  0.00    -0.270 OA
BRANCH  18  21
ATOM     21  C   UNL A   1      32.293  27.740  23.925  1.00  0.00     0.181 C 
ATOM     22  C   UNL A   1      33.751  27.781  23.418  1.00  0.00     0.067 C 
ATOM     23  C   UNL A   1      31.259  28.875  23.770  1.00  0.00     0.067 C 
BRANCH  21  24
ATOM     24  O   UNL A   1      32.432  27.498  25.353  1.00  0.00    -0.478 OA
BRANCH  24  25
ATOM     25  C   UNL A   1      33.018  28.467  26.157  1.00  0.00     0.120 A 
ATOM     26  C   UNL A   1      32.220  29.557  26.518  1.00  0.00     0.047 A 
ATOM     27  C   UNL A   1      34.371  28.508  26.524  1.00  0.00     0.047 A 
ATOM     28  C   UNL A   1      32.762  30.655  27.212  1.00  0.00     0.019 A 
ATOM     29  C   UNL A   1      34.916  29.592  27.223  1.00  0.00     0.019 A 
ATOM     30  C   UNL A   1      34.113  30.674  27.546  1.00  0.00     0.018 A 
ATOM     31  Br  UNL A   1      34.870  32.152  28.450  1.00  0.00    -0.051 Br
ENDBRANCH  24  25
ENDBRANCH  21  24
ENDBRANCH  18  21
ENDBRANCH  11  17
ENDBRANCH   5   8
ENDBRANCH   3   4
ENDBRANCH   2   3
ENDBRANCH   1   2
BRANCH   1  32
ATOM     32  C   UNL A   1      40.731  21.827  27.800  1.00  0.00     0.002 C 
BRANCH  32  33
ATOM     33  C   UNL A   1      41.099  20.375  27.491  1.00  0.00     0.021 C 
BRANCH  33  34
ATOM     34  C   UNL A   1      40.960  19.930  26.038  1.00  0.00     0.116 C 
BRANCH  34  35
ATOM     35  N   UNL A   1      42.217  19.414  25.516  1.00  0.00    -0.352 N 
ATOM     36  C   UNL A   1      43.391  20.023  25.141  1.00  0.00     0.251 C 
ATOM     37  H   UNL A   1      42.229  18.435  25.411  1.00  0.00     0.163 HD
ATOM     38  O   UNL A   1      44.185  19.355  24.475  1.00  0.00    -0.269 OA
BRANCH  36  39
ATOM     39  C   UNL A   1      43.759  21.423  25.502  1.00  0.00     0.039 A 
ATOM     40  C   UNL A   1      44.239  21.664  26.799  1.00  0.00     0.014 A 
ATOM     41  C   UNL A   1      43.531  22.518  24.667  1.00  0.00     0.014 A 
ATOM     42  C   UNL A   1      44.497  22.970  27.244  1.00  0.00     0.010 A 
ATOM     43  C   UNL A   1      43.860  23.817  25.085  1.00  0.00     0.010 A 
ATOM     44  C   UNL A   1      44.318  24.067  26.389  1.00  0.00    -0.014 A 
BRANCH  44  45
ATOM     45  C   UNL A   1      44.544  25.470  26.855  1.00  0.00     0.031 A 
ATOM     46  C   UNL A   1      45.937  26.060  26.849  1.00  0.00     0.074 A 
ATOM     47  C   UNL A   1      43.520  26.212  27.328  1.00  0.00     0.049 A 
ATOM     48  N   UNL A   1      46.351  27.218  27.301  1.00  0.00    -0.248 NA
ATOM     49  C   UNL A   1      47.011  25.231  26.276  1.00  0.00     0.031 C 
ATOM     50  C   UNL A   1      42.128  25.773  27.427  1.00  0.00     0.029 A 
ATOM     51  N   UNL A   1      43.500  27.489  27.844  1.00  0.00    -0.354 N 
ATOM     52  C   UNL A   1      47.729  27.241  27.103  1.00  0.00     0.074 A 
ATOM     53  C   UNL A   1      48.087  25.968  26.517  1.00  0.00     0.031 C 
ATOM     54  C   UNL A   1      41.392  26.755  27.976  1.00  0.00     0.029 A 
ATOM     55  C   UNL A   1      42.262  27.882  28.304  1.00  0.00     0.049 A 
ATOM     56  H   UNL A   1      44.296  28.068  27.880  1.00  0.00     0.167 HD
ATOM     57  C   UNL A   1      48.614  28.236  27.352  1.00  0.00     0.034 A 
ATOM     58  C   UNL A   1      41.873  29.009  28.934  1.00  0.00     0.034 A 
ATOM     59  C   UNL A   1      48.264  29.523  27.889  1.00  0.00     0.049 A 
ATOM     60  C   UNL A   1      42.883  30.097  29.201  1.00  0.00     0.074 A 
ATOM     61  C   UNL A   1      49.088  30.612  28.122  1.00  0.00     0.029 A 
ATOM     62  N   UNL A   1      46.987  29.904  28.273  1.00  0.00    -0.354 N 
ATOM     63  N   UNL A   1      44.156  30.141  28.892  1.00  0.00    -0.248 NA
ATOM     64  C   UNL A   1      42.390  31.311  29.873  1.00  0.00     0.031 C 
ATOM     65  C   UNL A   1      48.316  31.641  28.668  1.00  0.00     0.029 A 
ATOM     66  C   UNL A   1      47.004  31.207  28.742  1.00  0.00     0.049 A 
ATOM     67  H   UNL A   1      46.188  29.331  28.219  1.00  0.00     0.167 HD
ATOM     68  C   UNL A   1      44.601  31.398  29.288  1.00  0.00     0.074 A 
ATOM     69  C   UNL A   1      43.460  32.095  29.838  1.00  0.00     0.031 C 
ATOM     70  C   UNL A   1      45.850  31.922  29.219  1.00  0.00     0.034 A 
BRANCH  57  71
ATOM     71  C   UNL A   1      50.061  28.003  26.993  1.00  0.00     0.023 A 
ATOM     72  C   UNL A   1      50.985  27.681  28.008  1.00  0.00     0.012 A 
ATOM     73  C   UNL A   1      50.487  28.003  25.648  1.00  0.00     0.148 A 
ATOM     74  C   UNL A   1      52.312  27.393  27.697  1.00  0.00     0.002 A 
ATOM     75  C   UNL A   1      51.801  27.671  25.342  1.00  0.00     0.091 A 
ATOM     76  F   UNL A   1      49.596  28.319  24.697  1.00  0.00    -0.205 F 
ATOM     77  C   UNL A   1      52.718  27.376  26.366  1.00  0.00     0.022 A 
BRANCH  75  78
ATOM     78  S   UNL A   1      52.406  27.539  23.655  1.00  0.00     0.127 S 
ATOM     79  O   UNL A   1      53.472  28.543  23.645  1.00  0.00    -0.237 OA
ATOM     80  O   UNL A   1      52.875  26.154  23.605  1.00  0.00    -0.237 OA
ATOM     81  O   UNL A   1      51.272  27.833  22.793  1.00  0.00    -0.744 OA
ENDBRANCH  75  78
ENDBRANCH  57  71
BRANCH  58  82
ATOM     82  C   UNL A   1      40.449  29.198  29.343  1.00  0.00     0.023 A 
ATOM     83  C   UNL A   1      39.508  29.648  28.394  1.00  0.00     0.012 A 
ATOM     84  C   UNL A   1      40.028  28.973  30.667  1.00  0.00     0.148 A 
ATOM     85  C   UNL A   1      38.192  29.923  28.770  1.00  0.00     0.002 A 
ATOM     86  C   UNL A   1      38.701  29.190  31.021  1.00  0.00     0.091 A 
ATOM     87  F   UNL A   1      40.939  28.561  31.562  1.00  0.00    -0.205 F 
ATOM     88  C   UNL A   1      37.787  29.686  30.079  1.00  0.00     0.022 A 
BRANCH  86  89
ATOM     89  S   UNL A   1      38.064  28.792  32.652  1.00  0.00     0.127 S 
ATOM     90  O   UNL A   1      38.263  27.344  32.705  1.00  0.00    -0.237 OA
ATOM     91  O   UNL A   1      38.950  29.567  33.521  1.00  0.00    -0.237 OA
ATOM     92  O   UNL A   1      36.681  29.245  32.650  1.00  0.00    -0.744 OA
ENDBRANCH  86  89
ENDBRANCH  58  82
BRANCH  70  93
ATOM     93  C   UNL A   1      46.048  33.342  29.686  1.00  0.00     0.023 A 
ATOM     94  C   UNL A   1      45.905  34.412  28.782  1.00  0.00     0.012 A 
ATOM     95  C   UNL A   1      46.310  33.617  31.045  1.00  0.00     0.148 A 
ATOM     96  C   UNL A   1      46.055  35.730  29.212  1.00  0.00     0.002 A 
ATOM     97  C   UNL A   1      46.406  34.934  31.476  1.00  0.00     0.091 A 
ATOM     98  F   UNL A   1      46.459  32.585  31.889  1.00  0.00    -0.205 F 
ATOM     99  C   UNL A   1      46.294  35.992  30.559  1.00  0.00     0.022 A 
BRANCH  97 100
ATOM    100  S   UNL A   1      46.615  35.371  33.207  1.00  0.00     0.127 S 
ATOM    101  O   UNL A   1      47.962  34.875  33.480  1.00  0.00    -0.237 OA
ATOM    102  O   UNL A   1      46.497  36.830  33.173  1.00  0.00    -0.237 OA
ATOM    103  O   UNL A   1      45.543  34.695  33.924  1.00  0.00    -0.744 OA
ENDBRANCH  97 100
ENDBRANCH  70  93
ENDBRANCH  44  45
ENDBRANCH  36  39
ENDBRANCH  34  35
ENDBRANCH  33  34
ENDBRANCH  32  33
ENDBRANCH   1  32
TORSDOF 21
ENDMDL
MODEL 3
REMARK VINA RESULT:      -9.6      3.906      8.012
REMARK SMILES COc1c(Cl)cc(C(=O)NCCCCCCNC(=O)c2ccc(-c3c4nc(c(-c5cccc(S(=O)(=O)[O-])c5F)c5ccc([nH]5)c(-c5cccc(S(=O)(=O)[O-])c5F)c5nc(c(-c6cccc(S(=O)(=O)[O-])c6F)c6ccc3[nH]6)C=C5)C=C4)cc2)cc1NC(=O)C(C)(C)Oc1ccc(Br)cc1
REMARK SMILES IDX 13 1 12 2 11 3 10 4 8 5 9 6 7 8 3 9 4 10 84 11 5 12 6 13
REMARK SMILES IDX 83 14 2 15 1 16 85 17 86 18 87 20 88 21 89 22 90 23 91 24
REMARK SMILES IDX 92 25 93 26 98 27 94 28 97 29 95 30 96 31 14 32 15 33 16 34
REMARK SMILES IDX 17 35 18 36 19 38 20 39 21 40 82 41 22 42 81 43 23 44 24 45
REMARK SMILES IDX 25 46 75 47 26 48 80 49 74 50 76 51 27 52 79 53 73 54 72 55
REMARK SMILES IDX 28 57 60 58 40 59 59 60 41 61 44 62 58 63 77 64 42 65 43 66
REMARK SMILES IDX 57 68 78 69 45 70 29 71 30 72 38 73 31 74 33 75 39 76 32 77
REMARK SMILES IDX 34 78 35 79 36 80 37 81 61 82 62 83 70 84 63 85 65 86 71 87
REMARK SMILES IDX 64 88 66 89 67 90 68 91 69 92 46 93 47 94 55 95 48 96 50 97
REMARK SMILES IDX 56 98 49 99 51 100 52 101 53 102 54 103
REMARK H PARENT 10 7 85 19 17 37 76 56 44 67
REMARK Flexibility Score: inf
ROOT
ATOM      1  C   UNL A   1      35.573  32.301  28.073  1.00  0.00     0.002 C 
ENDROOT
BRANCH   1   2
ATOM      2  C   UNL A   1      34.245  31.542  27.919  1.00  0.00     0.021 C 
BRANCH   2   3
ATOM      3  C   UNL A   1      34.383  30.101  27.409  1.00  0.00     0.116 C 
BRANCH   3   4
ATOM      4  N   UNL A   1      33.232  29.281  27.755  1.00  0.00    -0.352 N 
ATOM      5  C   UNL A   1      32.581  28.179  27.265  1.00  0.00     0.251 C 
ATOM      6  O   UNL A   1      31.602  27.821  27.929  1.00  0.00    -0.269 OA
ATOM      7  H   UNL A   1      32.797  29.612  28.575  1.00  0.00     0.163 HD
BRANCH   5   8
ATOM      8  C   UNL A   1      32.930  27.359  26.056  1.00  0.00     0.043 A 
ATOM      9  C   UNL A   1      33.555  26.027  23.623  1.00  0.00     0.160 A 
ATOM     10  C   UNL A   1      33.831  27.395  23.783  1.00  0.00     0.086 A 
ATOM     11  C   UNL A   1      32.926  25.313  24.668  1.00  0.00     0.086 A 
ATOM     12  Cl  UNL A   1      34.455  28.395  22.518  1.00  0.00    -0.080 Cl
ATOM     13  C   UNL A   1      33.522  28.043  24.985  1.00  0.00     0.038 A 
ATOM     14  C   UNL A   1      32.682  25.996  25.878  1.00  0.00     0.044 A 
BRANCH   9  15
ATOM     15  O   UNL A   1      33.720  25.353  22.434  1.00  0.00    -0.493 OA
ATOM     16  C   UNL A   1      32.686  25.587  21.479  1.00  0.00     0.278 C 
ENDBRANCH   9  15
BRANCH  11  17
ATOM     17  N   UNL A   1      32.546  23.958  24.389  1.00  0.00    -0.319 N 
ATOM     18  C   UNL A   1      33.077  22.688  24.596  1.00  0.00     0.268 C 
ATOM     19  H   UNL A   1      31.679  23.915  23.927  1.00  0.00     0.170 HD
ATOM     20  O   UNL A   1      32.407  21.738  24.181  1.00  0.00    -0.270 OA
BRANCH  18  21
ATOM     21  C   UNL A   1      34.444  22.462  25.334  1.00  0.00     0.181 C 
ATOM     22  C   UNL A   1      34.126  22.996  26.747  1.00  0.00     0.067 C 
ATOM     23  C   UNL A   1      34.768  20.994  24.984  1.00  0.00     0.067 C 
BRANCH  21  24
ATOM     24  O   UNL A   1      35.594  23.250  24.919  1.00  0.00    -0.478 OA
BRANCH  24  25
ATOM     25  C   UNL A   1      36.825  23.034  25.524  1.00  0.00     0.120 A 
ATOM     26  C   UNL A   1      37.386  24.111  26.219  1.00  0.00     0.047 A 
ATOM     27  C   UNL A   1      37.607  21.877  25.386  1.00  0.00     0.047 A 
ATOM     28  C   UNL A   1      38.690  24.034  26.745  1.00  0.00     0.019 A 
ATOM     29  C   UNL A   1      38.899  21.789  25.916  1.00  0.00     0.019 A 
ATOM     30  C   UNL A   1      39.446  22.879  26.576  1.00  0.00     0.018 A 
ATOM     31  Br  UNL A   1      41.210  22.765  27.248  1.00  0.00    -0.051 Br
ENDBRANCH  24  25
ENDBRANCH  21  24
ENDBRANCH  18  21
ENDBRANCH  11  17
ENDBRANCH   5   8
ENDBRANCH   3   4
ENDBRANCH   2   3
ENDBRANCH   1   2
BRANCH   1  32
ATOM     32  C   UNL A   1      36.234  32.265  29.459  1.00  0.00     0.002 C 
BRANCH  32  33
ATOM     33  C   UNL A   1      35.414  31.644  30.591  1.00  0.00     0.021 C 
BRANCH  33  34
ATOM     34  C   UNL A   1      36.004  31.743  31.995  1.00  0.00     0.116 C 
BRANCH  34  35
ATOM     35  N   UNL A   1      36.417  30.439  32.493  1.00  0.00    -0.352 N 
ATOM     36  C   UNL A   1      37.509  29.646  32.234  1.00  0.00     0.251 C 
ATOM     37  H   UNL A   1      35.789  30.048  33.143  1.00  0.00     0.163 HD
ATOM     38  O   UNL A   1      37.450  28.469  32.595  1.00  0.00    -0.269 OA
BRANCH  36  39
ATOM     39  C   UNL A   1      38.752  30.127  31.563  1.00  0.00     0.039 A 
ATOM     40  C   UNL A   1      39.720  30.769  32.352  1.00  0.00     0.014 A 
ATOM     41  C   UNL A   1      38.945  30.089  30.181  1.00  0.00     0.014 A 
ATOM     42  C   UNL A   1      40.860  31.347  31.771  1.00  0.00     0.010 A 
ATOM     43  C   UNL A   1      40.120  30.599  29.609  1.00  0.00     0.010 A 
ATOM     44  C   UNL A   1      41.081  31.263  30.390  1.00  0.00    -0.014 A 
BRANCH  44  45
ATOM     45  C   UNL A   1      42.265  31.909  29.743  1.00  0.00     0.031 A 
ATOM     46  C   UNL A   1      43.493  31.090  29.412  1.00  0.00     0.074 A 
ATOM     47  C   UNL A   1      42.273  33.235  29.488  1.00  0.00     0.049 A 
ATOM     48  N   UNL A   1      44.651  31.483  28.941  1.00  0.00    -0.248 NA
ATOM     49  C   UNL A   1      43.416  29.640  29.661  1.00  0.00     0.031 C 
ATOM     50  C   UNL A   1      41.178  34.162  29.779  1.00  0.00     0.029 A 
ATOM     51  N   UNL A   1      43.252  34.040  28.951  1.00  0.00    -0.354 N 
ATOM     52  C   UNL A   1      45.447  30.343  28.872  1.00  0.00     0.074 A 
ATOM     53  C   UNL A   1      44.651  29.247  29.380  1.00  0.00     0.031 C 
ATOM     54  C   UNL A   1      41.548  35.406  29.427  1.00  0.00     0.029 A 
ATOM     55  C   UNL A   1      42.917  35.376  28.920  1.00  0.00     0.049 A 
ATOM     56  H   UNL A   1      44.112  33.694  28.619  1.00  0.00     0.167 HD
ATOM     57  C   UNL A   1      46.711  30.208  28.404  1.00  0.00     0.034 A 
ATOM     58  C   UNL A   1      43.632  36.456  28.546  1.00  0.00     0.034 A 
ATOM     59  C   UNL A   1      47.495  31.280  27.852  1.00  0.00     0.049 A 
ATOM     60  C   UNL A   1      45.039  36.273  28.030  1.00  0.00     0.074 A 
ATOM     61  C   UNL A   1      48.766  31.222  27.302  1.00  0.00     0.029 A 
ATOM     62  N   UNL A   1      47.089  32.602  27.774  1.00  0.00    -0.354 N 
ATOM     63  N   UNL A   1      45.723  35.168  27.863  1.00  0.00    -0.248 NA
ATOM     64  C   UNL A   1      45.759  37.489  27.618  1.00  0.00     0.031 C 
ATOM     65  C   UNL A   1      49.136  32.512  26.913  1.00  0.00     0.029 A 
ATOM     66  C   UNL A   1      48.083  33.368  27.187  1.00  0.00     0.049 A 
ATOM     67  H   UNL A   1      46.222  32.945  28.088  1.00  0.00     0.167 HD
ATOM     68  C   UNL A   1      46.929  35.551  27.285  1.00  0.00     0.074 A 
ATOM     69  C   UNL A   1      46.875  36.985  27.109  1.00  0.00     0.031 C 
ATOM     70  C   UNL A   1      47.995  34.784  26.946  1.00  0.00     0.034 A 
BRANCH  57  71
ATOM     71  C   UNL A   1      47.323  28.828  28.407  1.00  0.00     0.023 A 
ATOM     72  C   UNL A   1      47.997  28.371  29.558  1.00  0.00     0.012 A 
ATOM     73  C   UNL A   1      47.149  27.951  27.315  1.00  0.00     0.148 A 
ATOM     74  C   UNL A   1      48.512  27.077  29.614  1.00  0.00     0.002 A 
ATOM     75  C   UNL A   1      47.625  26.648  27.397  1.00  0.00     0.091 A 
ATOM     76  F   UNL A   1      46.513  28.406  26.227  1.00  0.00    -0.205 F 
ATOM     77  C   UNL A   1      48.316  26.213  28.540  1.00  0.00     0.022 A 
BRANCH  75  78
ATOM     78  S   UNL A   1      47.356  25.429  26.104  1.00  0.00     0.127 S 
ATOM     79  O   UNL A   1      47.366  24.181  26.870  1.00  0.00    -0.237 OA
ATOM     80  O   UNL A   1      46.042  25.816  25.588  1.00  0.00    -0.237 OA
ATOM     81  O   UNL A   1      48.453  25.586  25.163  1.00  0.00    -0.744 OA
ENDBRANCH  75  78
ENDBRANCH  57  71
BRANCH  58  82
ATOM     82  C   UNL A   1      43.036  37.824  28.609  1.00  0.00     0.023 A 
ATOM     83  C   UNL A   1      42.202  38.268  27.563  1.00  0.00     0.012 A 
ATOM     84  C   UNL A   1      43.315  38.698  29.676  1.00  0.00     0.148 A 
ATOM     85  C   UNL A   1      41.705  39.572  27.550  1.00  0.00     0.002 A 
ATOM     86  C   UNL A   1      42.767  39.977  29.688  1.00  0.00     0.091 A 
ATOM     87  F   UNL A   1      44.124  38.268  30.657  1.00  0.00    -0.205 F 
ATOM     88  C   UNL A   1      41.981  40.423  28.615  1.00  0.00     0.022 A 
BRANCH  86  89
ATOM     89  S   UNL A   1      42.967  41.094  31.080  1.00  0.00     0.127 S 
ATOM     90  O   UNL A   1      42.060  42.184  30.720  1.00  0.00    -0.237 OA
ATOM     91  O   UNL A   1      42.519  40.266  32.201  1.00  0.00    -0.237 OA
ATOM     92  O   UNL A   1      44.383  41.429  31.110  1.00  0.00    -0.744 OA
ENDBRANCH  86  89
ENDBRANCH  58  82
BRANCH  70  93
ATOM     93  C   UNL A   1      49.171  35.458  26.288  1.00  0.00     0.023 A 
ATOM     94  C   UNL A   1      49.293  35.460  24.884  1.00  0.00     0.012 A 
ATOM     95  C   UNL A   1      50.124  36.152  27.063  1.00  0.00     0.148 A 
ATOM     96  C   UNL A   1      50.361  36.109  24.264  1.00  0.00     0.002 A 
ATOM     97  C   UNL A   1      51.155  36.840  26.436  1.00  0.00     0.091 A 
ATOM     98  F   UNL A   1      50.001  36.127  28.398  1.00  0.00    -0.205 F 
ATOM     99  C   UNL A   1      51.285  36.808  25.038  1.00  0.00     0.022 A 
BRANCH  97 100
ATOM    100  S   UNL A   1      52.334  37.849  27.343  1.00  0.00     0.127 S 
ATOM    101  O   UNL A   1      51.635  39.129  27.421  1.00  0.00    -0.237 OA
ATOM    102  O   UNL A   1      52.438  37.133  28.615  1.00  0.00    -0.237 OA
ATOM    103  O   UNL A   1      53.555  37.852  26.549  1.00  0.00    -0.744 OA
ENDBRANCH  97 100
ENDBRANCH  70  93
ENDBRANCH  44  45
ENDBRANCH  36  39
ENDBRANCH  34  35
ENDBRANCH  33  34
ENDBRANCH  32  33
ENDBRANCH   1  32
TORSDOF 21
ENDMDL
