MODEL 1
REMARK VINA RESULT:      -8.4      0.000      0.000
REMARK SMILES Cc1cccc(C(=O)Nc2cc(C(=O)NCCCCCCNC(=O)c3ccc(-c4c5nc(c(-c6cccc(S(=O)(=O)[O-])c6F)c6ccc([nH]6)c(-c6cccc(S(=O)(=O)[O-])c6F)c6nc(c(-c7cccc(S(=O)(=O)[O-])c7F)c7ccc4[nH]7)C=C6)C=C5)cc3)ccc2N2CC[NH+](CC(=O)NC(C)(C)C)CC2)c1
REMARK SMILES IDX 18 1 17 2 16 3 15 4 13 5 14 6 12 8 10 9 11 10 90 11 89 12
REMARK SMILES IDX 88 13 9 14 7 15 8 16 6 18 1 19 2 20 3 21 105 22 4 23 5 24
REMARK SMILES IDX 91 25 92 26 104 27 93 28 103 29 94 30 95 32 96 33 97 34
REMARK SMILES IDX 98 35 99 37 100 38 101 39 102 40 19 41 20 42 21 43 22 44
REMARK SMILES IDX 23 45 24 47 25 48 26 49 87 50 27 51 86 52 28 53 29 54 30 55
REMARK SMILES IDX 80 56 31 57 85 58 79 59 81 60 32 61 84 62 78 63 77 64 33 66
REMARK SMILES IDX 65 67 45 68 64 69 46 70 49 71 63 72 82 73 47 74 48 75 62 77
REMARK SMILES IDX 83 78 50 79 34 80 35 81 43 82 36 83 38 84 44 85 37 86 39 87
REMARK SMILES IDX 40 88 41 89 42 90 66 91 67 92 75 93 68 94 70 95 76 96 69 97
REMARK SMILES IDX 71 98 72 99 73 100 74 101 51 102 52 103 60 104 53 105 55 106
REMARK SMILES IDX 61 107 54 108 56 109 57 110 58 111 59 112
REMARK H PARENT 15 7 9 17 94 31 98 36 22 46 81 65 49 76
REMARK Flexibility Score: inf
ROOT
ATOM      1  C   UNL A   1      40.480  31.864  30.813  1.00  0.00     0.002 C 
ENDROOT
BRANCH   1   2
ATOM      2  C   UNL A   1      40.921  30.543  31.450  1.00  0.00     0.021 C 
BRANCH   2   3
ATOM      3  C   UNL A   1      41.172  29.431  30.431  1.00  0.00     0.116 C 
BRANCH   3   4
ATOM      4  N   UNL A   1      40.309  28.285  30.641  1.00  0.00    -0.352 N 
ATOM      5  C   UNL A   1      38.958  28.087  30.482  1.00  0.00     0.251 C 
ATOM      6  O   UNL A   1      38.536  26.940  30.639  1.00  0.00    -0.269 OA
ATOM      7  H   UNL A   1      40.787  27.486  30.961  1.00  0.00     0.163 HD
BRANCH   5   8
ATOM      8  C   UNL A   1      38.000  29.155  30.071  1.00  0.00     0.042 A 
ATOM      9  C   UNL A   1      36.245  30.748  30.521  1.00  0.00     0.065 A 
ATOM     10  C   UNL A   1      36.937  29.587  30.851  1.00  0.00     0.042 A 
ATOM     11  C   UNL A   1      36.392  31.371  29.258  1.00  0.00     0.061 A 
ATOM     12  C   UNL A   1      37.386  30.858  28.419  1.00  0.00     0.029 A 
ATOM     13  C   UNL A   1      38.212  29.802  28.842  1.00  0.00     0.016 A 
BRANCH   9  14
ATOM     14  N   UNL A   1      35.402  31.328  31.485  1.00  0.00    -0.320 N 
ATOM     15  C   UNL A   1      35.734  32.065  32.613  1.00  0.00     0.255 C 
ATOM     16  O   UNL A   1      34.826  32.671  33.190  1.00  0.00    -0.269 OA
ATOM     17  H   UNL A   1      34.438  31.194  31.337  1.00  0.00     0.170 HD
BRANCH  15  18
ATOM     18  C   UNL A   1      37.125  32.257  33.141  1.00  0.00     0.040 A 
ATOM     19  C   UNL A   1      39.801  30.687  35.369  1.00  0.00     0.044 C 
ATOM     20  C   UNL A   1      39.118  31.622  34.410  1.00  0.00    -0.050 A 
ATOM     21  C   UNL A   1      39.677  32.881  34.165  1.00  0.00     0.003 A 
ATOM     22  C   UNL A   1      37.874  31.293  33.833  1.00  0.00     0.017 A 
ATOM     23  C   UNL A   1      38.999  33.804  33.374  1.00  0.00     0.001 A 
ATOM     24  C   UNL A   1      37.728  33.498  32.880  1.00  0.00     0.014 A 
ENDBRANCH  15  18
ENDBRANCH   9  14
BRANCH  11  25
ATOM     25  N   UNL A   1      35.651  32.496  28.926  1.00  0.00    -0.359 N 
ATOM     26  C   UNL A   1      36.085  33.881  29.183  1.00  0.00     0.178 C 
ATOM     27  C   UNL A   1      34.200  32.353  28.982  1.00  0.00     0.178 C 
ATOM     28  C   UNL A   1      35.274  34.893  28.301  1.00  0.00     0.284 C 
ATOM     29  C   UNL A   1      33.585  33.215  27.869  1.00  0.00     0.284 C 
ATOM     30  N   UNL A   1      33.832  34.646  28.057  1.00  0.00    -0.324 N 
ATOM     31  H   UNL A   1      33.629  35.134  27.186  1.00  0.00     0.348 HD
BRANCH  30  32
ATOM     32  C   UNL A   1      32.872  35.307  28.957  1.00  0.00     0.363 C 
BRANCH  32  33
ATOM     33  C   UNL A   1      33.167  36.761  29.306  1.00  0.00     0.275 C 
ATOM     34  O   UNL A   1      33.270  37.601  28.400  1.00  0.00    -0.268 OA
ATOM     35  N   UNL A   1      33.325  37.237  30.573  1.00  0.00    -0.347 N 
ATOM     36  H   UNL A   1      33.368  38.220  30.562  1.00  0.00     0.164 HD
BRANCH  35  37
ATOM     37  C   UNL A   1      33.453  36.734  31.972  1.00  0.00     0.032 C 
ATOM     38  C   UNL A   1      34.605  35.721  32.111  1.00  0.00     0.034 C 
ATOM     39  C   UNL A   1      33.857  37.955  32.828  1.00  0.00     0.034 C 
ATOM     40  C   UNL A   1      32.171  36.155  32.576  1.00  0.00     0.034 C 
ENDBRANCH  35  37
ENDBRANCH  32  33
ENDBRANCH  30  32
ENDBRANCH  11  25
ENDBRANCH   5   8
ENDBRANCH   3   4
ENDBRANCH   2   3
ENDBRANCH   1   2
BRANCH   1  41
ATOM     41  C   UNL A   1      41.561  32.956  30.741  1.00  0.00     0.002 C 
BRANCH  41  42
ATOM     42  C   UNL A   1      42.510  32.868  29.543  1.00  0.00     0.021 C 
BRANCH  42  43
ATOM     43  C   UNL A   1      42.914  34.228  28.995  1.00  0.00     0.116 C 
BRANCH  43  44
ATOM     44  N   UNL A   1      44.166  34.173  28.257  1.00  0.00    -0.352 N 
ATOM     45  C   UNL A   1      45.438  34.552  28.631  1.00  0.00     0.251 C 
ATOM     46  H   UNL A   1      44.094  33.807  27.345  1.00  0.00     0.163 HD
ATOM     47  O   UNL A   1      46.315  34.601  27.771  1.00  0.00    -0.269 OA
BRANCH  45  48
ATOM     48  C   UNL A   1      45.760  34.726  30.066  1.00  0.00     0.039 A 
ATOM     49  C   UNL A   1      46.721  33.862  30.611  1.00  0.00     0.014 A 
ATOM     50  C   UNL A   1      44.952  35.492  30.901  1.00  0.00     0.014 A 
ATOM     51  C   UNL A   1      46.667  33.548  31.965  1.00  0.00     0.010 A 
ATOM     52  C   UNL A   1      44.841  35.124  32.224  1.00  0.00     0.010 A 
ATOM     53  C   UNL A   1      45.635  34.087  32.724  1.00  0.00    -0.014 A 
BRANCH  53  54
ATOM     54  C   UNL A   1      45.239  33.604  34.034  1.00  0.00     0.031 A 
ATOM     55  C   UNL A   1      44.465  32.359  34.146  1.00  0.00     0.074 A 
ATOM     56  C   UNL A   1      45.752  34.208  35.131  1.00  0.00     0.049 A 
ATOM     57  N   UNL A   1      43.914  31.950  35.234  1.00  0.00    -0.248 NA
ATOM     58  C   UNL A   1      44.226  31.482  33.008  1.00  0.00     0.031 C 
ATOM     59  C   UNL A   1      45.801  33.683  36.491  1.00  0.00     0.029 A 
ATOM     60  N   UNL A   1      46.152  35.541  35.279  1.00  0.00    -0.354 N 
ATOM     61  C   UNL A   1      43.510  30.649  35.033  1.00  0.00     0.074 A 
ATOM     62  C   UNL A   1      43.631  30.448  33.608  1.00  0.00     0.031 C 
ATOM     63  C   UNL A   1      45.903  34.713  37.345  1.00  0.00     0.029 A 
ATOM     64  C   UNL A   1      45.702  35.917  36.559  1.00  0.00     0.049 A 
ATOM     65  H   UNL A   1      46.643  36.095  34.629  1.00  0.00     0.167 HD
ATOM     66  C   UNL A   1      43.264  29.875  36.128  1.00  0.00     0.034 A 
ATOM     67  C   UNL A   1      44.703  36.831  36.767  1.00  0.00     0.034 A 
ATOM     68  C   UNL A   1      43.278  30.693  37.357  1.00  0.00     0.049 A 
ATOM     69  C   UNL A   1      43.531  36.297  37.592  1.00  0.00     0.074 A 
ATOM     70  C   UNL A   1      44.179  30.890  38.393  1.00  0.00     0.029 A 
ATOM     71  N   UNL A   1      42.325  31.693  37.493  1.00  0.00    -0.354 N 
ATOM     72  N   UNL A   1      43.419  35.076  38.043  1.00  0.00    -0.248 NA
ATOM     73  C   UNL A   1      42.338  37.093  37.882  1.00  0.00     0.031 C 
ATOM     74  C   UNL A   1      43.759  32.032  39.142  1.00  0.00     0.029 A 
ATOM     75  C   UNL A   1      42.590  32.513  38.579  1.00  0.00     0.049 A 
ATOM     76  H   UNL A   1      41.555  31.805  36.891  1.00  0.00     0.167 HD
ATOM     77  C   UNL A   1      42.141  34.862  38.507  1.00  0.00     0.074 A 
ATOM     78  C   UNL A   1      41.517  36.173  38.414  1.00  0.00     0.031 C 
ATOM     79  C   UNL A   1      41.675  33.616  38.851  1.00  0.00     0.034 A 
BRANCH  66  80
ATOM     80  C   UNL A   1      43.249  28.350  36.156  1.00  0.00     0.023 A 
ATOM     81  C   UNL A   1      42.048  27.709  35.771  1.00  0.00     0.012 A 
ATOM     82  C   UNL A   1      44.278  27.489  36.606  1.00  0.00     0.148 A 
ATOM     83  C   UNL A   1      41.844  26.330  35.917  1.00  0.00     0.002 A 
ATOM     84  C   UNL A   1      44.063  26.120  36.799  1.00  0.00     0.091 A 
ATOM     85  F   UNL A   1      45.509  27.957  36.794  1.00  0.00    -0.205 F 
ATOM     86  C   UNL A   1      42.842  25.538  36.462  1.00  0.00     0.022 A 
BRANCH  84  87
ATOM     87  S   UNL A   1      45.299  25.041  37.552  1.00  0.00     0.127 S 
ATOM     88  O   UNL A   1      46.536  25.511  36.926  1.00  0.00    -0.237 OA
ATOM     89  O   UNL A   1      45.178  25.363  38.972  1.00  0.00    -0.237 OA
ATOM     90  O   UNL A   1      44.931  23.676  37.192  1.00  0.00    -0.744 OA
ENDBRANCH  84  87
ENDBRANCH  66  80
BRANCH  67  91
ATOM     91  C   UNL A   1      44.576  37.841  35.668  1.00  0.00     0.023 A 
ATOM     92  C   UNL A   1      43.789  37.488  34.544  1.00  0.00     0.012 A 
ATOM     93  C   UNL A   1      44.891  39.197  35.867  1.00  0.00     0.148 A 
ATOM     94  C   UNL A   1      43.199  38.469  33.744  1.00  0.00     0.002 A 
ATOM     95  C   UNL A   1      44.320  40.168  35.047  1.00  0.00     0.091 A 
ATOM     96  F   UNL A   1      45.694  39.533  36.883  1.00  0.00    -0.205 F 
ATOM     97  C   UNL A   1      43.435  39.812  34.019  1.00  0.00     0.022 A 
BRANCH  95  98
ATOM     98  S   UNL A   1      44.601  41.918  35.354  1.00  0.00     0.127 S 
ATOM     99  O   UNL A   1      43.932  42.525  34.206  1.00  0.00    -0.237 OA
ATOM    100  O   UNL A   1      43.934  42.128  36.639  1.00  0.00    -0.237 OA
ATOM    101  O   UNL A   1      46.049  42.052  35.408  1.00  0.00    -0.744 OA
ENDBRANCH  95  98
ENDBRANCH  67  91
BRANCH  79 102
ATOM    102  C   UNL A   1      40.274  33.306  39.383  1.00  0.00     0.023 A 
ATOM    103  C   UNL A   1      39.111  33.799  38.761  1.00  0.00     0.012 A 
ATOM    104  C   UNL A   1      40.063  32.564  40.581  1.00  0.00     0.148 A 
ATOM    105  C   UNL A   1      37.825  33.452  39.197  1.00  0.00     0.002 A 
ATOM    106  C   UNL A   1      38.785  32.234  41.026  1.00  0.00     0.091 A 
ATOM    107  F   UNL A   1      41.102  32.215  41.347  1.00  0.00    -0.205 F 
ATOM    108  C   UNL A   1      37.661  32.649  40.315  1.00  0.00     0.022 A 
BRANCH 106 109
ATOM    109  S   UNL A   1      38.508  31.282  42.530  1.00  0.00     0.127 S 
ATOM    110  O   UNL A   1      39.073  32.169  43.546  1.00  0.00    -0.237 OA
ATOM    111  O   UNL A   1      37.048  31.176  42.558  1.00  0.00    -0.237 OA
ATOM    112  O   UNL A   1      39.202  30.017  42.342  1.00  0.00    -0.744 OA
ENDBRANCH 106 109
ENDBRANCH  79 102
ENDBRANCH  53  54
ENDBRANCH  45  48
ENDBRANCH  43  44
ENDBRANCH  42  43
ENDBRANCH  41  42
ENDBRANCH   1  41
TORSDOF 22
ENDMDL
MODEL 2
REMARK VINA RESULT:      -8.3      5.890     10.937
REMARK SMILES Cc1cccc(C(=O)Nc2cc(C(=O)NCCCCCCNC(=O)c3ccc(-c4c5nc(c(-c6cccc(S(=O)(=O)[O-])c6F)c6ccc([nH]6)c(-c6cccc(S(=O)(=O)[O-])c6F)c6nc(c(-c7cccc(S(=O)(=O)[O-])c7F)c7ccc4[nH]7)C=C6)C=C5)cc3)ccc2N2CC[NH+](CC(=O)NC(C)(C)C)CC2)c1
REMARK SMILES IDX 18 1 17 2 16 3 15 4 13 5 14 6 12 8 10 9 11 10 90 11 89 12
REMARK SMILES IDX 88 13 9 14 7 15 8 16 6 18 1 19 2 20 3 21 105 22 4 23 5 24
REMARK SMILES IDX 91 25 92 26 104 27 93 28 103 29 94 30 95 32 96 33 97 34
REMARK SMILES IDX 98 35 99 37 100 38 101 39 102 40 19 41 20 42 21 43 22 44
REMARK SMILES IDX 23 45 24 47 25 48 26 49 87 50 27 51 86 52 28 53 29 54 30 55
REMARK SMILES IDX 80 56 31 57 85 58 79 59 81 60 32 61 84 62 78 63 77 64 33 66
REMARK SMILES IDX 65 67 45 68 64 69 46 70 49 71 63 72 82 73 47 74 48 75 62 77
REMARK SMILES IDX 83 78 50 79 34 80 35 81 43 82 36 83 38 84 44 85 37 86 39 87
REMARK SMILES IDX 40 88 41 89 42 90 66 91 67 92 75 93 68 94 70 95 76 96 69 97
REMARK SMILES IDX 71 98 72 99 73 100 74 101 51 102 52 103 60 104 53 105 55 106
REMARK SMILES IDX 61 107 54 108 56 109 57 110 58 111 59 112
REMARK H PARENT 15 7 9 17 94 31 98 36 22 46 81 65 49 76
REMARK Flexibility Score: inf
ROOT
ATOM      1  C   UNL A   1      44.749  32.454  36.307  1.00  0.00     0.002 C 
ENDROOT
BRANCH   1   2
ATOM      2  C   UNL A   1      44.368  32.966  37.698  1.00  0.00     0.021 C 
BRANCH   2   3
ATOM      3  C   UNL A   1      42.883  33.303  37.837  1.00  0.00     0.116 C 
BRANCH   3   4
ATOM      4  N   UNL A   1      42.650  34.726  37.988  1.00  0.00    -0.352 N 
ATOM      5  C   UNL A   1      41.843  35.618  37.324  1.00  0.00     0.251 C 
ATOM      6  O   UNL A   1      41.784  36.764  37.774  1.00  0.00    -0.269 OA
ATOM      7  H   UNL A   1      43.176  35.136  38.712  1.00  0.00     0.163 HD
BRANCH   5   8
ATOM      8  C   UNL A   1      40.996  35.265  36.147  1.00  0.00     0.042 A 
ATOM      9  C   UNL A   1      40.689  34.680  33.827  1.00  0.00     0.065 A 
ATOM     10  C   UNL A   1      41.451  35.259  34.837  1.00  0.00     0.042 A 
ATOM     11  C   UNL A   1      39.329  34.336  34.022  1.00  0.00     0.061 A 
ATOM     12  C   UNL A   1      38.834  34.455  35.324  1.00  0.00     0.029 A 
ATOM     13  C   UNL A   1      39.670  34.862  36.379  1.00  0.00     0.016 A 
BRANCH   9  14
ATOM     14  N   UNL A   1      41.302  34.403  32.592  1.00  0.00    -0.320 N 
ATOM     15  C   UNL A   1      41.640  33.179  32.034  1.00  0.00     0.255 C 
ATOM     16  O   UNL A   1      41.960  33.161  30.842  1.00  0.00    -0.269 OA
ATOM     17  H   UNL A   1      41.522  35.192  32.045  1.00  0.00     0.170 HD
BRANCH  15  18
ATOM     18  C   UNL A   1      41.564  31.857  32.740  1.00  0.00     0.040 A 
ATOM     19  C   UNL A   1      40.245  28.286  32.423  1.00  0.00     0.044 C 
ATOM     20  C   UNL A   1      40.958  29.497  32.958  1.00  0.00    -0.050 A 
ATOM     21  C   UNL A   1      41.373  29.513  34.294  1.00  0.00     0.003 A 
ATOM     22  C   UNL A   1      41.125  30.653  32.168  1.00  0.00     0.017 A 
ATOM     23  C   UNL A   1      41.927  30.667  34.839  1.00  0.00     0.001 A 
ATOM     24  C   UNL A   1      42.008  31.832  34.071  1.00  0.00     0.014 A 
ENDBRANCH  15  18
ENDBRANCH   9  14
BRANCH  11  25
ATOM     25  N   UNL A   1      38.570  33.812  32.986  1.00  0.00    -0.359 N 
ATOM     26  C   UNL A   1      37.922  34.624  31.941  1.00  0.00     0.178 C 
ATOM     27  C   UNL A   1      37.821  32.596  33.285  1.00  0.00     0.178 C 
ATOM     28  C   UNL A   1      37.547  33.740  30.699  1.00  0.00     0.284 C 
ATOM     29  C   UNL A   1      37.784  31.726  32.019  1.00  0.00     0.284 C 
ATOM     30  N   UNL A   1      37.056  32.358  30.916  1.00  0.00    -0.324 N 
ATOM     31  H   UNL A   1      37.274  31.866  30.051  1.00  0.00     0.348 HD
BRANCH  30  32
ATOM     32  C   UNL A   1      35.597  32.160  30.970  1.00  0.00     0.363 C 
BRANCH  32  33
ATOM     33  C   UNL A   1      34.749  33.215  30.270  1.00  0.00     0.275 C 
ATOM     34  O   UNL A   1      34.678  33.225  29.033  1.00  0.00    -0.268 OA
ATOM     35  N   UNL A   1      34.028  34.178  30.910  1.00  0.00    -0.347 N 
ATOM     36  H   UNL A   1      33.454  34.654  30.268  1.00  0.00     0.164 HD
BRANCH  35  37
ATOM     37  C   UNL A   1      33.837  34.738  32.280  1.00  0.00     0.032 C 
ATOM     38  C   UNL A   1      32.539  35.563  32.383  1.00  0.00     0.034 C 
ATOM     39  C   UNL A   1      33.642  33.523  33.214  1.00  0.00     0.034 C 
ATOM     40  C   UNL A   1      35.016  35.550  32.823  1.00  0.00     0.034 C 
ENDBRANCH  35  37
ENDBRANCH  32  33
ENDBRANCH  30  32
ENDBRANCH  11  25
ENDBRANCH   5   8
ENDBRANCH   3   4
ENDBRANCH   2   3
ENDBRANCH   1   2
BRANCH   1  41
ATOM     41  C   UNL A   1      46.102  31.726  36.219  1.00  0.00     0.002 C 
BRANCH  41  42
ATOM     42  C   UNL A   1      46.119  30.295  36.762  1.00  0.00     0.021 C 
BRANCH  42  43
ATOM     43  C   UNL A   1      44.909  29.478  36.338  1.00  0.00     0.116 C 
BRANCH  43  44
ATOM     44  N   UNL A   1      44.479  28.554  37.376  1.00  0.00    -0.352 N 
ATOM     45  C   UNL A   1      43.915  27.300  37.274  1.00  0.00     0.251 C 
ATOM     46  H   UNL A   1      44.612  28.875  38.298  1.00  0.00     0.163 HD
ATOM     47  O   UNL A   1      43.446  26.781  38.285  1.00  0.00    -0.269 OA
BRANCH  45  48
ATOM     48  C   UNL A   1      44.033  26.542  36.007  1.00  0.00     0.039 A 
ATOM     49  C   UNL A   1      45.320  26.404  35.467  1.00  0.00     0.014 A 
ATOM     50  C   UNL A   1      42.913  26.240  35.238  1.00  0.00     0.014 A 
ATOM     51  C   UNL A   1      45.471  26.257  34.092  1.00  0.00     0.010 A 
ATOM     52  C   UNL A   1      43.056  26.178  33.869  1.00  0.00     0.010 A 
ATOM     53  C   UNL A   1      44.329  26.282  33.299  1.00  0.00    -0.014 A 
BRANCH  53  54
ATOM     54  C   UNL A   1      44.331  26.483  31.862  1.00  0.00     0.031 A 
ATOM     55  C   UNL A   1      44.446  25.322  30.966  1.00  0.00     0.074 A 
ATOM     56  C   UNL A   1      44.036  27.711  31.377  1.00  0.00     0.049 A 
ATOM     57  N   UNL A   1      44.641  25.409  29.697  1.00  0.00    -0.248 NA
ATOM     58  C   UNL A   1      44.378  23.951  31.451  1.00  0.00     0.031 C 
ATOM     59  C   UNL A   1      43.619  28.054  30.022  1.00  0.00     0.029 A 
ATOM     60  N   UNL A   1      44.266  28.956  31.975  1.00  0.00    -0.354 N 
ATOM     61  C   UNL A   1      44.434  24.159  29.158  1.00  0.00     0.074 A 
ATOM     62  C   UNL A   1      44.380  23.276  30.298  1.00  0.00     0.031 C 
ATOM     63  C   UNL A   1      43.906  29.346  29.799  1.00  0.00     0.029 A 
ATOM     64  C   UNL A   1      44.706  29.788  30.927  1.00  0.00     0.049 A 
ATOM     65  H   UNL A   1      44.146  29.197  32.922  1.00  0.00     0.167 HD
ATOM     66  C   UNL A   1      44.193  24.069  27.819  1.00  0.00     0.034 A 
ATOM     67  C   UNL A   1      45.982  30.277  30.839  1.00  0.00     0.034 A 
ATOM     68  C   UNL A   1      44.425  25.369  27.159  1.00  0.00     0.049 A 
ATOM     69  C   UNL A   1      46.699  29.919  29.536  1.00  0.00     0.074 A 
ATOM     70  C   UNL A   1      43.609  26.378  26.669  1.00  0.00     0.029 A 
ATOM     71  N   UNL A   1      45.706  25.901  27.185  1.00  0.00    -0.354 N 
ATOM     72  N   UNL A   1      46.204  29.180  28.580  1.00  0.00    -0.248 NA
ATOM     73  C   UNL A   1      48.086  30.296  29.265  1.00  0.00     0.031 C 
ATOM     74  C   UNL A   1      44.420  27.527  26.417  1.00  0.00     0.029 A 
ATOM     75  C   UNL A   1      45.730  27.209  26.726  1.00  0.00     0.049 A 
ATOM     76  H   UNL A   1      46.501  25.408  27.491  1.00  0.00     0.167 HD
ATOM     77  C   UNL A   1      47.194  28.840  27.688  1.00  0.00     0.074 A 
ATOM     78  C   UNL A   1      48.347  29.598  28.148  1.00  0.00     0.031 C 
ATOM     79  C   UNL A   1      47.012  27.907  26.695  1.00  0.00     0.034 A 
BRANCH  66  80
ATOM     80  C   UNL A   1      43.517  22.897  27.113  1.00  0.00     0.023 A 
ATOM     81  C   UNL A   1      42.160  22.651  27.427  1.00  0.00     0.012 A 
ATOM     82  C   UNL A   1      44.115  21.964  26.232  1.00  0.00     0.148 A 
ATOM     83  C   UNL A   1      41.475  21.510  26.986  1.00  0.00     0.002 A 
ATOM     84  C   UNL A   1      43.451  20.800  25.830  1.00  0.00     0.091 A 
ATOM     85  F   UNL A   1      45.312  22.209  25.709  1.00  0.00    -0.205 F 
ATOM     86  C   UNL A   1      42.131  20.566  26.212  1.00  0.00     0.022 A 
BRANCH  84  87
ATOM     87  S   UNL A   1      44.261  19.506  24.867  1.00  0.00     0.127 S 
ATOM     88  O   UNL A   1      45.535  19.353  25.572  1.00  0.00    -0.237 OA
ATOM     89  O   UNL A   1      43.345  18.378  25.018  1.00  0.00    -0.237 OA
ATOM     90  O   UNL A   1      44.391  20.022  23.508  1.00  0.00    -0.744 OA
ENDBRANCH  84  87
ENDBRANCH  66  80
BRANCH  67  91
ATOM     91  C   UNL A   1      46.661  30.424  32.167  1.00  0.00     0.023 A 
ATOM     92  C   UNL A   1      47.099  29.241  32.812  1.00  0.00     0.012 A 
ATOM     93  C   UNL A   1      47.181  31.657  32.601  1.00  0.00     0.148 A 
ATOM     94  C   UNL A   1      48.141  29.274  33.742  1.00  0.00     0.002 A 
ATOM     95  C   UNL A   1      48.202  31.683  33.548  1.00  0.00     0.091 A 
ATOM     96  F   UNL A   1      46.720  32.785  32.048  1.00  0.00    -0.205 F 
ATOM     97  C   UNL A   1      48.718  30.492  34.082  1.00  0.00     0.022 A 
BRANCH  95  98
ATOM     98  S   UNL A   1      48.976  33.232  34.031  1.00  0.00     0.127 S 
ATOM     99  O   UNL A   1      49.891  32.787  35.078  1.00  0.00    -0.237 OA
ATOM    100  O   UNL A   1      49.622  33.666  32.792  1.00  0.00    -0.237 OA
ATOM    101  O   UNL A   1      47.869  34.079  34.451  1.00  0.00    -0.744 OA
ENDBRANCH  95  98
ENDBRANCH  67  91
BRANCH  79 102
ATOM    102  C   UNL A   1      48.062  27.488  25.663  1.00  0.00     0.023 A 
ATOM    103  C   UNL A   1      47.800  27.508  24.280  1.00  0.00     0.012 A 
ATOM    104  C   UNL A   1      49.338  26.981  26.041  1.00  0.00     0.148 A 
ATOM    105  C   UNL A   1      48.782  27.202  23.328  1.00  0.00     0.002 A 
ATOM    106  C   UNL A   1      50.310  26.659  25.096  1.00  0.00     0.091 A 
ATOM    107  F   UNL A   1      49.614  26.744  27.326  1.00  0.00    -0.205 F 
ATOM    108  C   UNL A   1      50.046  26.801  23.735  1.00  0.00     0.022 A 
BRANCH 106 109
ATOM    109  S   UNL A   1      51.933  26.034  25.562  1.00  0.00     0.127 S 
ATOM    110  O   UNL A   1      52.424  27.106  26.427  1.00  0.00    -0.237 OA
ATOM    111  O   UNL A   1      51.592  24.795  26.262  1.00  0.00    -0.237 OA
ATOM    112  O   UNL A   1      52.665  25.843  24.319  1.00  0.00    -0.744 OA
ENDBRANCH 106 109
ENDBRANCH  79 102
ENDBRANCH  53  54
ENDBRANCH  45  48
ENDBRANCH  43  44
ENDBRANCH  42  43
ENDBRANCH  41  42
ENDBRANCH   1  41
TORSDOF 22
ENDMDL
MODEL 3
REMARK VINA RESULT:      -8.3      5.646     12.908
REMARK SMILES Cc1cccc(C(=O)Nc2cc(C(=O)NCCCCCCNC(=O)c3ccc(-c4c5nc(c(-c6cccc(S(=O)(=O)[O-])c6F)c6ccc([nH]6)c(-c6cccc(S(=O)(=O)[O-])c6F)c6nc(c(-c7cccc(S(=O)(=O)[O-])c7F)c7ccc4[nH]7)C=C6)C=C5)cc3)ccc2N2CC[NH+](CC(=O)NC(C)(C)C)CC2)c1
REMARK SMILES IDX 18 1 17 2 16 3 15 4 13 5 14 6 12 8 10 9 11 10 90 11 89 12
REMARK SMILES IDX 88 13 9 14 7 15 8 16 6 18 1 19 2 20 3 21 105 22 4 23 5 24
REMARK SMILES IDX 91 25 92 26 104 27 93 28 103 29 94 30 95 32 96 33 97 34
REMARK SMILES IDX 98 35 99 37 100 38 101 39 102 40 19 41 20 42 21 43 22 44
REMARK SMILES IDX 23 45 24 47 25 48 26 49 87 50 27 51 86 52 28 53 29 54 30 55
REMARK SMILES IDX 80 56 31 57 85 58 79 59 81 60 32 61 84 62 78 63 77 64 33 66
REMARK SMILES IDX 65 67 45 68 64 69 46 70 49 71 63 72 82 73 47 74 48 75 62 77
REMARK SMILES IDX 83 78 50 79 34 80 35 81 43 82 36 83 38 84 44 85 37 86 39 87
REMARK SMILES IDX 40 88 41 89 42 90 66 91 67 92 75 93 68 94 70 95 76 96 69 97
REMARK SMILES IDX 71 98 72 99 73 100 74 101 51 102 52 103 60 104 53 105 55 106
REMARK SMILES IDX 61 107 54 108 56 109 57 110 58 111 59 112
REMARK H PARENT 15 7 9 17 94 31 98 36 22 46 81 65 49 76
REMARK Flexibility Score: inf
ROOT
ATOM      1  C   UNL A   1      40.016  30.732  36.284  1.00  0.00     0.002 C 
ENDROOT
BRANCH   1   2
ATOM      2  C   UNL A   1      41.536  30.887  36.379  1.00  0.00     0.021 C 
BRANCH   2   3
ATOM      3  C   UNL A   1      42.285  29.555  36.389  1.00  0.00     0.116 C 
BRANCH   3   4
ATOM      4  N   UNL A   1      41.388  28.416  36.402  1.00  0.00    -0.352 N 
ATOM      5  C   UNL A   1      41.597  27.058  36.423  1.00  0.00     0.251 C 
ATOM      6  O   UNL A   1      40.604  26.338  36.546  1.00  0.00    -0.269 OA
ATOM      7  H   UNL A   1      40.436  28.666  36.393  1.00  0.00     0.163 HD
BRANCH   5   8
ATOM      8  C   UNL A   1      42.946  26.419  36.374  1.00  0.00     0.042 A 
ATOM      9  C   UNL A   1      44.617  24.879  37.183  1.00  0.00     0.065 A 
ATOM     10  C   UNL A   1      43.475  25.646  37.396  1.00  0.00     0.042 A 
ATOM     11  C   UNL A   1      45.437  25.064  36.043  1.00  0.00     0.061 A 
ATOM     12  C   UNL A   1      44.960  25.939  35.063  1.00  0.00     0.029 A 
ATOM     13  C   UNL A   1      43.708  26.565  35.203  1.00  0.00     0.016 A 
BRANCH   9  14
ATOM     14  N   UNL A   1      44.940  23.876  38.112  1.00  0.00    -0.320 N 
ATOM     15  C   UNL A   1      45.351  23.999  39.432  1.00  0.00     0.255 C 
ATOM     16  O   UNL A   1      45.358  22.980  40.128  1.00  0.00    -0.269 OA
ATOM     17  H   UNL A   1      44.862  22.952  37.779  1.00  0.00     0.170 HD
BRANCH  15  18
ATOM     18  C   UNL A   1      45.705  25.291  40.109  1.00  0.00     0.040 A 
ATOM     19  C   UNL A   1      44.233  28.251  42.022  1.00  0.00     0.044 C 
ATOM     20  C   UNL A   1      45.230  27.321  41.389  1.00  0.00    -0.050 A 
ATOM     21  C   UNL A   1      46.540  27.764  41.175  1.00  0.00     0.003 A 
ATOM     22  C   UNL A   1      44.843  26.051  40.914  1.00  0.00     0.017 A 
ATOM     23  C   UNL A   1      47.444  26.962  40.484  1.00  0.00     0.001 A 
ATOM     24  C   UNL A   1      47.024  25.743  39.945  1.00  0.00     0.014 A 
ENDBRANCH  15  18
ENDBRANCH   9  14
BRANCH  11  25
ATOM     25  N   UNL A   1      46.603  24.330  35.876  1.00  0.00    -0.359 N 
ATOM     26  C   UNL A   1      47.961  24.888  36.013  1.00  0.00     0.178 C 
ATOM     27  C   UNL A   1      46.548  23.242  34.906  1.00  0.00     0.178 C 
ATOM     28  C   UNL A   1      49.015  23.745  36.221  1.00  0.00     0.284 C 
ATOM     29  C   UNL A   1      47.440  22.098  35.410  1.00  0.00     0.284 C 
ATOM     30  N   UNL A   1      48.854  22.469  35.483  1.00  0.00    -0.324 N 
ATOM     31  H   UNL A   1      49.349  21.779  36.046  1.00  0.00     0.348 HD
BRANCH  30  32
ATOM     32  C   UNL A   1      49.576  22.331  34.206  1.00  0.00     0.363 C 
BRANCH  32  33
ATOM     33  C   UNL A   1      50.033  20.923  33.841  1.00  0.00     0.275 C 
ATOM     34  O   UNL A   1      49.379  20.258  33.025  1.00  0.00    -0.268 OA
ATOM     35  N   UNL A   1      51.143  20.314  34.345  1.00  0.00    -0.347 N 
ATOM     36  H   UNL A   1      51.313  19.472  33.866  1.00  0.00     0.164 HD
BRANCH  35  37
ATOM     37  C   UNL A   1      52.179  20.522  35.398  1.00  0.00     0.032 C 
ATOM     38  C   UNL A   1      51.608  20.307  36.812  1.00  0.00     0.034 C 
ATOM     39  C   UNL A   1      53.228  19.407  35.191  1.00  0.00     0.034 C 
ATOM     40  C   UNL A   1      52.916  21.863  35.330  1.00  0.00     0.034 C 
ENDBRANCH  35  37
ENDBRANCH  32  33
ENDBRANCH  30  32
ENDBRANCH  11  25
ENDBRANCH   5   8
ENDBRANCH   3   4
ENDBRANCH   2   3
ENDBRANCH   1   2
BRANCH   1  41
ATOM     41  C   UNL A   1      39.267  31.928  35.670  1.00  0.00     0.002 C 
BRANCH  41  42
ATOM     42  C   UNL A   1      39.876  33.303  35.948  1.00  0.00     0.021 C 
BRANCH  42  43
ATOM     43  C   UNL A   1      39.387  34.382  34.995  1.00  0.00     0.116 C 
BRANCH  43  44
ATOM     44  N   UNL A   1      40.092  35.640  35.179  1.00  0.00    -0.352 N 
ATOM     45  C   UNL A   1      41.427  35.944  35.014  1.00  0.00     0.251 C 
ATOM     46  H   UNL A   1      39.528  36.394  35.469  1.00  0.00     0.163 HD
ATOM     47  O   UNL A   1      41.839  37.030  35.420  1.00  0.00    -0.269 OA
BRANCH  45  48
ATOM     48  C   UNL A   1      42.291  35.048  34.211  1.00  0.00     0.039 A 
ATOM     49  C   UNL A   1      41.954  34.882  32.860  1.00  0.00     0.014 A 
ATOM     50  C   UNL A   1      43.201  34.187  34.818  1.00  0.00     0.014 A 
ATOM     51  C   UNL A   1      42.290  33.698  32.213  1.00  0.00     0.010 A 
ATOM     52  C   UNL A   1      43.466  32.980  34.211  1.00  0.00     0.010 A 
ATOM     53  C   UNL A   1      42.928  32.706  32.949  1.00  0.00    -0.014 A 
BRANCH  53  54
ATOM     54  C   UNL A   1      43.037  31.319  32.536  1.00  0.00     0.031 A 
ATOM     55  C   UNL A   1      44.305  30.825  31.976  1.00  0.00     0.074 A 
ATOM     56  C   UNL A   1      42.035  30.466  32.850  1.00  0.00     0.049 A 
ATOM     57  N   UNL A   1      44.444  29.675  31.416  1.00  0.00    -0.248 NA
ATOM     58  C   UNL A   1      45.523  31.621  31.980  1.00  0.00     0.031 C 
ATOM     59  C   UNL A   1      42.085  29.008  32.878  1.00  0.00     0.029 A 
ATOM     60  N   UNL A   1      40.673  30.751  33.008  1.00  0.00    -0.354 N 
ATOM     61  C   UNL A   1      45.793  29.452  31.254  1.00  0.00     0.074 A 
ATOM     62  C   UNL A   1      46.407  30.731  31.521  1.00  0.00     0.031 C 
ATOM     63  C   UNL A   1      40.838  28.534  32.737  1.00  0.00     0.029 A 
ATOM     64  C   UNL A   1      40.003  29.672  32.399  1.00  0.00     0.049 A 
ATOM     65  H   UNL A   1      40.272  31.535  33.449  1.00  0.00     0.167 HD
ATOM     66  C   UNL A   1      46.213  28.170  31.055  1.00  0.00     0.034 A 
ATOM     67  C   UNL A   1      39.271  29.793  31.248  1.00  0.00     0.034 A 
ATOM     68  C   UNL A   1      45.061  27.273  30.833  1.00  0.00     0.049 A 
ATOM     69  C   UNL A   1      39.725  28.866  30.119  1.00  0.00     0.074 A 
ATOM     70  C   UNL A   1      44.385  26.338  31.602  1.00  0.00     0.029 A 
ATOM     71  N   UNL A   1      44.264  27.490  29.718  1.00  0.00    -0.354 N 
ATOM     72  N   UNL A   1      40.740  28.046  30.179  1.00  0.00    -0.248 NA
ATOM     73  C   UNL A   1      39.113  28.876  28.791  1.00  0.00     0.031 C 
ATOM     74  C   UNL A   1      43.163  26.010  30.937  1.00  0.00     0.029 A 
ATOM     75  C   UNL A   1      43.110  26.724  29.753  1.00  0.00     0.049 A 
ATOM     76  H   UNL A   1      44.492  28.112  28.990  1.00  0.00     0.167 HD
ATOM     77  C   UNL A   1      41.029  27.565  28.922  1.00  0.00     0.074 A 
ATOM     78  C   UNL A   1      39.954  28.092  28.096  1.00  0.00     0.031 C 
ATOM     79  C   UNL A   1      42.166  26.844  28.646  1.00  0.00     0.034 A 
BRANCH  66  80
ATOM     80  C   UNL A   1      47.627  27.649  31.295  1.00  0.00     0.023 A 
ATOM     81  C   UNL A   1      48.093  27.639  32.630  1.00  0.00     0.012 A 
ATOM     82  C   UNL A   1      48.571  27.247  30.320  1.00  0.00     0.148 A 
ATOM     83  C   UNL A   1      49.423  27.353  32.967  1.00  0.00     0.002 A 
ATOM     84  C   UNL A   1      49.911  27.009  30.645  1.00  0.00     0.091 A 
ATOM     85  F   UNL A   1      48.186  27.021  29.067  1.00  0.00    -0.205 F 
ATOM     86  C   UNL A   1      50.342  27.068  31.970  1.00  0.00     0.022 A 
BRANCH  84  87
ATOM     87  S   UNL A   1      51.170  26.684  29.393  1.00  0.00     0.127 S 
ATOM     88  O   UNL A   1      50.678  25.449  28.779  1.00  0.00    -0.237 OA
ATOM     89  O   UNL A   1      51.077  27.865  28.537  1.00  0.00    -0.237 OA
ATOM     90  O   UNL A   1      52.434  26.532  30.105  1.00  0.00    -0.744 OA
ENDBRANCH  84  87
ENDBRANCH  66  80
BRANCH  67  91
ATOM     91  C   UNL A   1      38.701  31.164  31.041  1.00  0.00     0.023 A 
ATOM     92  C   UNL A   1      39.564  32.158  30.517  1.00  0.00     0.012 A 
ATOM     93  C   UNL A   1      37.314  31.392  31.004  1.00  0.00     0.148 A 
ATOM     94  C   UNL A   1      39.054  33.263  29.831  1.00  0.00     0.002 A 
ATOM     95  C   UNL A   1      36.814  32.510  30.340  1.00  0.00     0.091 A 
ATOM     96  F   UNL A   1      36.495  30.493  31.561  1.00  0.00    -0.205 F 
ATOM     97  C   UNL A   1      37.677  33.419  29.710  1.00  0.00     0.022 A 
BRANCH  95  98
ATOM     98  S   UNL A   1      35.043  32.765  30.164  1.00  0.00     0.127 S 
ATOM     99  O   UNL A   1      34.988  34.173  29.781  1.00  0.00    -0.237 OA
ATOM    100  O   UNL A   1      34.689  31.822  29.103  1.00  0.00    -0.237 OA
ATOM    101  O   UNL A   1      34.493  32.424  31.469  1.00  0.00    -0.744 OA
ENDBRANCH  95  98
ENDBRANCH  67  91
BRANCH  79 102
ATOM    102  C   UNL A   1      42.547  26.271  27.279  1.00  0.00     0.023 A 
ATOM    103  C   UNL A   1      42.780  27.094  26.161  1.00  0.00     0.012 A 
ATOM    104  C   UNL A   1      42.613  24.869  27.036  1.00  0.00     0.148 A 
ATOM    105  C   UNL A   1      43.206  26.579  24.929  1.00  0.00     0.002 A 
ATOM    106  C   UNL A   1      43.019  24.355  25.806  1.00  0.00     0.091 A 
ATOM    107  F   UNL A   1      42.225  24.004  27.977  1.00  0.00    -0.205 F 
ATOM    108  C   UNL A   1      43.350  25.211  24.757  1.00  0.00     0.022 A 
BRANCH 106 109
ATOM    109  S   UNL A   1      43.124  22.584  25.492  1.00  0.00     0.127 S 
ATOM    110  O   UNL A   1      44.191  22.186  26.410  1.00  0.00    -0.237 OA
ATOM    111  O   UNL A   1      41.788  22.128  25.878  1.00  0.00    -0.237 OA
ATOM    112  O   UNL A   1      43.425  22.442  24.077  1.00  0.00    -0.744 OA
ENDBRANCH 106 109
ENDBRANCH  79 102
ENDBRANCH  53  54
ENDBRANCH  45  48
ENDBRANCH  43  44
ENDBRANCH  42  43
ENDBRANCH  41  42
ENDBRANCH   1  41
TORSDOF 22
ENDMDL
