MODEL 1
REMARK VINA RESULT:     -11.1      0.000      0.000
REMARK SMILES CC[NH2+][C@]1(C(=O)NCCCCCCNC(=O)c2ccc(-c3c4nc(c(-c5cccc(S(=O)(=O)[O-])c5F)c5ccc([nH]5)c(-c5cccc(S(=O)(=O)[O-])c5F)c5nc(c(-c6cccc(S(=O)(=O)[O-])c6F)c6ccc3[nH]6)C=C5)C=C4)cc2)CCC[C@H]1CCSc1n[nH]c(=O)n1C
REMARK SMILES IDX 10 1 9 2 8 3 7 4 5 5 6 6 4 8 80 9 83 10 81 11 82 12 3 13
REMARK SMILES IDX 2 16 1 17 84 18 85 19 86 20 87 21 88 22 92 23 89 24 90 25
REMARK SMILES IDX 93 26 91 28 11 29 12 30 13 31 14 32 15 33 16 35 17 36 18 37
REMARK SMILES IDX 79 38 19 39 78 40 20 41 21 42 22 43 72 44 23 45 77 46 71 47
REMARK SMILES IDX 73 48 24 49 76 50 70 51 69 52 25 54 57 55 37 56 56 57 38 58
REMARK SMILES IDX 41 59 55 60 74 61 39 62 40 63 54 65 75 66 42 67 26 68 27 69
REMARK SMILES IDX 35 70 28 71 30 72 36 73 29 74 31 75 32 76 33 77 34 78 58 79
REMARK SMILES IDX 59 80 67 81 60 82 62 83 68 84 61 85 63 86 64 87 65 88 66 89
REMARK SMILES IDX 43 90 44 91 52 92 45 93 47 94 53 95 46 96 48 97 49 98 50 99
REMARK SMILES IDX 51 100
REMARK H PARENT 7 7 3 14 3 15 89 27 14 34 73 53 41 64
REMARK Flexibility Score: inf
ROOT
ATOM      1  C   UNL A   1      33.879  27.897  26.186  1.00  0.00     0.002 C 
ENDROOT
BRANCH   1   2
ATOM      2  C   UNL A   1      32.920  26.700  26.206  1.00  0.00     0.021 C 
BRANCH   2   3
ATOM      3  C   UNL A   1      33.503  25.417  25.616  1.00  0.00     0.116 C 
BRANCH   3   4
ATOM      4  N   UNL A   1      33.063  24.273  26.376  1.00  0.00    -0.351 N 
ATOM      5  C   UNL A   1      32.561  23.096  25.919  1.00  0.00     0.281 C 
ATOM      6  O   UNL A   1      31.703  22.595  26.641  1.00  0.00    -0.268 OA
ATOM      7  H   UNL A   1      33.134  24.355  27.355  1.00  0.00     0.163 HD
BRANCH   5   8
ATOM      8  C   UNL A   1      32.965  22.525  24.526  1.00  0.00     0.178 C 
ATOM      9  C   UNL A   1      32.288  21.154  24.310  1.00  0.00     0.079 C 
ATOM     10  C   UNL A   1      32.420  23.326  23.288  1.00  0.00     0.061 C 
ATOM     11  C   UNL A   1      32.267  20.895  22.817  1.00  0.00     0.008 C 
ATOM     12  C   UNL A   1      32.379  22.258  22.157  1.00  0.00     0.011 C 
BRANCH   8  13
ATOM     13  N   UNL A   1      34.445  22.630  24.444  1.00  0.00    -0.334 N 
ATOM     14  H   UNL A   1      34.677  22.692  23.453  1.00  0.00     0.347 HD
ATOM     15  H   UNL A   1      34.649  23.437  25.034  1.00  0.00     0.347 HD
BRANCH  13  16
ATOM     16  C   UNL A   1      35.295  21.597  25.005  1.00  0.00     0.257 C 
ATOM     17  C   UNL A   1      36.321  22.251  25.926  1.00  0.00     0.071 C 
ENDBRANCH  13  16
ENDBRANCH   8  13
BRANCH  10  18
ATOM     18  C   UNL A   1      31.051  24.047  23.339  1.00  0.00     0.022 C 
BRANCH  18  19
ATOM     19  C   UNL A   1      30.867  25.510  22.879  1.00  0.00     0.079 C 
BRANCH  19  20
ATOM     20  S   UNL A   1      29.931  26.770  23.807  1.00  0.00    -0.086 SA
BRANCH  20  21
ATOM     21  C   UNL A   1      30.050  28.225  22.898  1.00  0.00     0.191 A 
ATOM     22  N   UNL A   1      31.174  28.583  22.344  1.00  0.00    -0.146 NA
ATOM     23  N   UNL A   1      29.002  29.039  22.633  1.00  0.00    -0.273 N 
ATOM     24  N   UNL A   1      30.870  29.763  21.725  1.00  0.00    -0.226 N 
ATOM     25  C   UNL A   1      29.529  30.072  21.897  1.00  0.00     0.343 A 
ATOM     26  C   UNL A   1      27.594  28.953  22.937  1.00  0.00     0.157 C 
ATOM     27  H   UNL A   1      31.514  30.317  21.226  1.00  0.00     0.195 HD
ATOM     28  O   UNL A   1      28.955  31.056  21.468  1.00  0.00    -0.246 OA
ENDBRANCH  20  21
ENDBRANCH  19  20
ENDBRANCH  18  19
ENDBRANCH  10  18
ENDBRANCH   5   8
ENDBRANCH   3   4
ENDBRANCH   2   3
ENDBRANCH   1   2
BRANCH   1  29
ATOM     29  C   UNL A   1      33.559  28.965  25.136  1.00  0.00     0.002 C 
BRANCH  29  30
ATOM     30  C   UNL A   1      32.271  29.752  25.388  1.00  0.00     0.021 C 
BRANCH  30  31
ATOM     31  C   UNL A   1      32.137  30.302  26.799  1.00  0.00     0.116 C 
BRANCH  31  32
ATOM     32  N   UNL A   1      32.051  31.753  26.808  1.00  0.00    -0.352 N 
ATOM     33  C   UNL A   1      32.879  32.657  27.423  1.00  0.00     0.251 C 
ATOM     34  H   UNL A   1      31.297  32.138  26.306  1.00  0.00     0.163 HD
ATOM     35  O   UNL A   1      32.546  33.835  27.512  1.00  0.00    -0.269 OA
BRANCH  33  36
ATOM     36  C   UNL A   1      34.164  32.197  27.991  1.00  0.00     0.039 A 
ATOM     37  C   UNL A   1      35.198  33.120  28.158  1.00  0.00     0.014 A 
ATOM     38  C   UNL A   1      34.339  30.863  28.373  1.00  0.00     0.014 A 
ATOM     39  C   UNL A   1      36.392  32.714  28.755  1.00  0.00     0.010 A 
ATOM     40  C   UNL A   1      35.496  30.483  29.043  1.00  0.00     0.010 A 
ATOM     41  C   UNL A   1      36.540  31.401  29.232  1.00  0.00    -0.014 A 
BRANCH  41  42
ATOM     42  C   UNL A   1      37.771  30.978  29.945  1.00  0.00     0.031 A 
ATOM     43  C   UNL A   1      38.748  30.040  29.293  1.00  0.00     0.074 A 
ATOM     44  C   UNL A   1      37.966  31.373  31.218  1.00  0.00     0.049 A 
ATOM     45  N   UNL A   1      39.857  29.541  29.774  1.00  0.00    -0.248 NA
ATOM     46  C   UNL A   1      38.423  29.578  27.935  1.00  0.00     0.031 C 
ATOM     47  C   UNL A   1      37.046  32.208  31.993  1.00  0.00     0.029 A 
ATOM     48  N   UNL A   1      38.987  31.102  32.095  1.00  0.00    -0.354 N 
ATOM     49  C   UNL A   1      40.341  28.680  28.798  1.00  0.00     0.074 A 
ATOM     50  C   UNL A   1      39.386  28.696  27.712  1.00  0.00     0.031 C 
ATOM     51  C   UNL A   1      37.544  32.383  33.226  1.00  0.00     0.029 A 
ATOM     52  C   UNL A   1      38.800  31.648  33.343  1.00  0.00     0.049 A 
ATOM     53  H   UNL A   1      39.777  30.567  31.853  1.00  0.00     0.167 HD
ATOM     54  C   UNL A   1      41.489  27.960  28.792  1.00  0.00     0.034 A 
ATOM     55  C   UNL A   1      39.545  31.557  34.461  1.00  0.00     0.034 A 
ATOM     56  C   UNL A   1      42.448  27.970  29.863  1.00  0.00     0.049 A 
ATOM     57  C   UNL A   1      40.836  30.786  34.421  1.00  0.00     0.074 A 
ATOM     58  C   UNL A   1      43.691  27.361  29.912  1.00  0.00     0.029 A 
ATOM     59  N   UNL A   1      42.266  28.600  31.085  1.00  0.00    -0.354 N 
ATOM     60  N   UNL A   1      41.367  30.121  33.424  1.00  0.00    -0.248 NA
ATOM     61  C   UNL A   1      41.647  30.785  35.646  1.00  0.00     0.031 C 
ATOM     62  C   UNL A   1      44.239  27.587  31.179  1.00  0.00     0.029 A 
ATOM     63  C   UNL A   1      43.359  28.374  31.905  1.00  0.00     0.049 A 
ATOM     64  H   UNL A   1      41.475  29.129  31.334  1.00  0.00     0.167 HD
ATOM     65  C   UNL A   1      42.586  29.642  33.891  1.00  0.00     0.074 A 
ATOM     66  C   UNL A   1      42.724  30.117  35.254  1.00  0.00     0.031 C 
ATOM     67  C   UNL A   1      43.501  28.873  33.250  1.00  0.00     0.034 A 
BRANCH  54  68
ATOM     68  C   UNL A   1      41.778  27.123  27.571  1.00  0.00     0.023 A 
ATOM     69  C   UNL A   1      42.264  27.737  26.397  1.00  0.00     0.012 A 
ATOM     70  C   UNL A   1      41.594  25.728  27.593  1.00  0.00     0.148 A 
ATOM     71  C   UNL A   1      42.510  26.983  25.250  1.00  0.00     0.002 A 
ATOM     72  C   UNL A   1      41.890  24.976  26.460  1.00  0.00     0.091 A 
ATOM     73  F   UNL A   1      41.111  25.161  28.707  1.00  0.00    -0.205 F 
ATOM     74  C   UNL A   1      42.332  25.604  25.284  1.00  0.00     0.022 A 
BRANCH  72  75
ATOM     75  S   UNL A   1      41.774  23.185  26.434  1.00  0.00     0.127 S 
ATOM     76  O   UNL A   1      40.327  22.982  26.476  1.00  0.00    -0.237 OA
ATOM     77  O   UNL A   1      42.398  22.853  25.153  1.00  0.00    -0.237 OA
ATOM     78  O   UNL A   1      42.507  22.719  27.602  1.00  0.00    -0.744 OA
ENDBRANCH  72  75
ENDBRANCH  54  68
BRANCH  55  79
ATOM     79  C   UNL A   1      39.101  32.265  35.693  1.00  0.00     0.023 A 
ATOM     80  C   UNL A   1      39.312  33.652  35.814  1.00  0.00     0.012 A 
ATOM     81  C   UNL A   1      38.409  31.582  36.711  1.00  0.00     0.148 A 
ATOM     82  C   UNL A   1      38.855  34.342  36.937  1.00  0.00     0.002 A 
ATOM     83  C   UNL A   1      37.907  32.284  37.799  1.00  0.00     0.091 A 
ATOM     84  F   UNL A   1      38.225  30.261  36.575  1.00  0.00    -0.205 F 
ATOM     85  C   UNL A   1      38.143  33.663  37.922  1.00  0.00     0.022 A 
BRANCH  83  86
ATOM     86  S   UNL A   1      36.857  31.522  39.041  1.00  0.00     0.127 S 
ATOM     87  O   UNL A   1      37.744  31.484  40.200  1.00  0.00    -0.237 OA
ATOM     88  O   UNL A   1      35.759  32.484  39.135  1.00  0.00    -0.237 OA
ATOM     89  O   UNL A   1      36.477  30.224  38.499  1.00  0.00    -0.744 OA
ENDBRANCH  83  86
ENDBRANCH  55  79
BRANCH  67  90
ATOM     90  C   UNL A   1      44.755  28.506  34.005  1.00  0.00     0.023 A 
ATOM     91  C   UNL A   1      45.837  29.408  34.052  1.00  0.00     0.012 A 
ATOM     92  C   UNL A   1      44.831  27.298  34.725  1.00  0.00     0.148 A 
ATOM     93  C   UNL A   1      46.988  29.097  34.774  1.00  0.00     0.002 A 
ATOM     94  C   UNL A   1      45.960  27.018  35.486  1.00  0.00     0.091 A 
ATOM     95  F   UNL A   1      43.798  26.446  34.654  1.00  0.00    -0.205 F 
ATOM     96  C   UNL A   1      47.045  27.910  35.501  1.00  0.00     0.022 A 
BRANCH  94  97
ATOM     97  S   UNL A   1      46.082  25.562  36.530  1.00  0.00     0.127 S 
ATOM     98  O   UNL A   1      47.496  25.579  36.900  1.00  0.00    -0.237 OA
ATOM     99  O   UNL A   1      45.161  25.885  37.621  1.00  0.00    -0.237 OA
ATOM    100  O   UNL A   1      45.667  24.437  35.703  1.00  0.00    -0.744 OA
ENDBRANCH  94  97
ENDBRANCH  67  90
ENDBRANCH  41  42
ENDBRANCH  33  36
ENDBRANCH  31  32
ENDBRANCH  30  31
ENDBRANCH  29  30
ENDBRANCH   1  29
TORSDOF 22
ENDMDL
MODEL 2
REMARK VINA RESULT:     -11.0      1.088      7.452
REMARK SMILES CC[NH2+][C@]1(C(=O)NCCCCCCNC(=O)c2ccc(-c3c4nc(c(-c5cccc(S(=O)(=O)[O-])c5F)c5ccc([nH]5)c(-c5cccc(S(=O)(=O)[O-])c5F)c5nc(c(-c6cccc(S(=O)(=O)[O-])c6F)c6ccc3[nH]6)C=C5)C=C4)cc2)CCC[C@H]1CCSc1n[nH]c(=O)n1C
REMARK SMILES IDX 10 1 9 2 8 3 7 4 5 5 6 6 4 8 80 9 83 10 81 11 82 12 3 13
REMARK SMILES IDX 2 16 1 17 84 18 85 19 86 20 87 21 88 22 92 23 89 24 90 25
REMARK SMILES IDX 93 26 91 28 11 29 12 30 13 31 14 32 15 33 16 35 17 36 18 37
REMARK SMILES IDX 79 38 19 39 78 40 20 41 21 42 22 43 72 44 23 45 77 46 71 47
REMARK SMILES IDX 73 48 24 49 76 50 70 51 69 52 25 54 57 55 37 56 56 57 38 58
REMARK SMILES IDX 41 59 55 60 74 61 39 62 40 63 54 65 75 66 42 67 26 68 27 69
REMARK SMILES IDX 35 70 28 71 30 72 36 73 29 74 31 75 32 76 33 77 34 78 58 79
REMARK SMILES IDX 59 80 67 81 60 82 62 83 68 84 61 85 63 86 64 87 65 88 66 89
REMARK SMILES IDX 43 90 44 91 52 92 45 93 47 94 53 95 46 96 48 97 49 98 50 99
REMARK SMILES IDX 51 100
REMARK H PARENT 7 7 3 14 3 15 89 27 14 34 73 53 41 64
REMARK Flexibility Score: inf
ROOT
ATOM      1  C   UNL A   1      33.725  27.526  26.267  1.00  0.00     0.002 C 
ENDROOT
BRANCH   1   2
ATOM      2  C   UNL A   1      33.100  26.216  25.771  1.00  0.00     0.021 C 
BRANCH   2   3
ATOM      3  C   UNL A   1      34.027  25.005  25.858  1.00  0.00     0.116 C 
BRANCH   3   4
ATOM      4  N   UNL A   1      33.367  23.920  26.542  1.00  0.00    -0.351 N 
ATOM      5  C   UNL A   1      32.672  22.881  26.010  1.00  0.00     0.281 C 
ATOM      6  O   UNL A   1      31.719  22.506  26.689  1.00  0.00    -0.268 OA
ATOM      7  H   UNL A   1      33.429  23.933  27.525  1.00  0.00     0.163 HD
BRANCH   5   8
ATOM      8  C   UNL A   1      32.999  22.325  24.591  1.00  0.00     0.178 C 
ATOM      9  C   UNL A   1      32.394  20.913  24.435  1.00  0.00     0.079 C 
ATOM     10  C   UNL A   1      32.308  23.079  23.397  1.00  0.00     0.061 C 
ATOM     11  C   UNL A   1      32.272  20.639  22.949  1.00  0.00     0.008 C 
ATOM     12  C   UNL A   1      32.245  22.002  22.278  1.00  0.00     0.011 C 
BRANCH   8  13
ATOM     13  N   UNL A   1      34.458  22.521  24.391  1.00  0.00    -0.334 N 
ATOM     14  H   UNL A   1      34.590  22.735  23.403  1.00  0.00     0.347 HD
ATOM     15  H   UNL A   1      34.685  23.247  25.071  1.00  0.00     0.347 HD
BRANCH  13  16
ATOM     16  C   UNL A   1      35.400  21.468  24.717  1.00  0.00     0.257 C 
ATOM     17  C   UNL A   1      36.807  21.939  24.361  1.00  0.00     0.071 C 
ENDBRANCH  13  16
ENDBRANCH   8  13
BRANCH  10  18
ATOM     18  C   UNL A   1      30.905  23.715  23.555  1.00  0.00     0.022 C 
BRANCH  18  19
ATOM     19  C   UNL A   1      30.646  25.220  23.329  1.00  0.00     0.079 C 
BRANCH  19  20
ATOM     20  S   UNL A   1      29.814  26.313  24.528  1.00  0.00    -0.086 SA
BRANCH  20  21
ATOM     21  C   UNL A   1      28.859  27.404  23.605  1.00  0.00     0.191 A 
ATOM     22  N   UNL A   1      27.559  27.402  23.693  1.00  0.00    -0.146 NA
ATOM     23  N   UNL A   1      29.372  28.367  22.805  1.00  0.00    -0.273 N 
ATOM     24  N   UNL A   1      27.173  28.389  22.831  1.00  0.00    -0.226 N 
ATOM     25  C   UNL A   1      28.281  28.998  22.260  1.00  0.00     0.343 A 
ATOM     26  C   UNL A   1      30.723  28.792  22.525  1.00  0.00     0.157 C 
ATOM     27  H   UNL A   1      26.238  28.634  22.641  1.00  0.00     0.195 HD
ATOM     28  O   UNL A   1      28.267  29.908  21.451  1.00  0.00    -0.246 OA
ENDBRANCH  20  21
ENDBRANCH  19  20
ENDBRANCH  18  19
ENDBRANCH  10  18
ENDBRANCH   5   8
ENDBRANCH   3   4
ENDBRANCH   2   3
ENDBRANCH   1   2
BRANCH   1  29
ATOM     29  C   UNL A   1      33.774  28.653  25.232  1.00  0.00     0.002 C 
BRANCH  29  30
ATOM     30  C   UNL A   1      32.743  29.765  25.440  1.00  0.00     0.021 C 
BRANCH  30  31
ATOM     31  C   UNL A   1      32.635  30.262  26.874  1.00  0.00     0.116 C 
BRANCH  31  32
ATOM     32  N   UNL A   1      32.721  31.710  26.952  1.00  0.00    -0.352 N 
ATOM     33  C   UNL A   1      33.652  32.480  27.601  1.00  0.00     0.251 C 
ATOM     34  H   UNL A   1      32.017  32.205  26.475  1.00  0.00     0.163 HD
ATOM     35  O   UNL A   1      33.461  33.683  27.749  1.00  0.00    -0.269 OA
BRANCH  33  36
ATOM     36  C   UNL A   1      34.876  31.845  28.136  1.00  0.00     0.039 A 
ATOM     37  C   UNL A   1      36.043  32.604  28.233  1.00  0.00     0.014 A 
ATOM     38  C   UNL A   1      34.863  30.511  28.555  1.00  0.00     0.014 A 
ATOM     39  C   UNL A   1      37.186  32.037  28.797  1.00  0.00     0.010 A 
ATOM     40  C   UNL A   1      35.977  29.978  29.193  1.00  0.00     0.010 A 
ATOM     41  C   UNL A   1      37.154  30.730  29.312  1.00  0.00    -0.014 A 
BRANCH  41  42
ATOM     42  C   UNL A   1      38.336  30.145  29.992  1.00  0.00     0.031 A 
ATOM     43  C   UNL A   1      38.712  30.581  31.381  1.00  0.00     0.074 A 
ATOM     44  C   UNL A   1      39.123  29.280  29.323  1.00  0.00     0.049 A 
ATOM     45  N   UNL A   1      39.725  30.203  32.117  1.00  0.00    -0.248 NA
ATOM     46  C   UNL A   1      37.858  31.597  32.014  1.00  0.00     0.031 C 
ATOM     47  C   UNL A   1      38.917  28.848  27.939  1.00  0.00     0.029 A 
ATOM     48  N   UNL A   1      40.271  28.632  29.706  1.00  0.00    -0.354 N 
ATOM     49  C   UNL A   1      39.652  30.958  33.280  1.00  0.00     0.074 A 
ATOM     50  C   UNL A   1      38.517  31.843  33.136  1.00  0.00     0.031 C 
ATOM     51  C   UNL A   1      39.902  28.006  27.591  1.00  0.00     0.029 A 
ATOM     52  C   UNL A   1      40.826  27.862  28.711  1.00  0.00     0.049 A 
ATOM     53  H   UNL A   1      40.659  28.710  30.608  1.00  0.00     0.167 HD
ATOM     54  C   UNL A   1      40.441  30.904  34.381  1.00  0.00     0.034 A 
ATOM     55  C   UNL A   1      41.959  27.134  28.694  1.00  0.00     0.034 A 
ATOM     56  C   UNL A   1      41.551  30.002  34.529  1.00  0.00     0.049 A 
ATOM     57  C   UNL A   1      42.799  27.056  29.939  1.00  0.00     0.074 A 
ATOM     58  C   UNL A   1      42.348  29.793  35.641  1.00  0.00     0.029 A 
ATOM     59  N   UNL A   1      42.041  29.176  33.528  1.00  0.00    -0.354 N 
ATOM     60  N   UNL A   1      42.614  27.644  31.096  1.00  0.00    -0.248 NA
ATOM     61  C   UNL A   1      43.982  26.186  29.889  1.00  0.00     0.031 C 
ATOM     62  C   UNL A   1      43.345  28.872  35.299  1.00  0.00     0.029 A 
ATOM     63  C   UNL A   1      43.143  28.474  33.986  1.00  0.00     0.049 A 
ATOM     64  H   UNL A   1      41.660  29.099  32.624  1.00  0.00     0.167 HD
ATOM     65  C   UNL A   1      43.639  27.196  31.920  1.00  0.00     0.074 A 
ATOM     66  C   UNL A   1      44.429  26.269  31.135  1.00  0.00     0.031 C 
ATOM     67  C   UNL A   1      43.907  27.531  33.207  1.00  0.00     0.034 A 
BRANCH  54  68
ATOM     68  C   UNL A   1      40.108  31.832  35.521  1.00  0.00     0.023 A 
ATOM     69  C   UNL A   1      40.849  33.019  35.701  1.00  0.00     0.012 A 
ATOM     70  C   UNL A   1      39.045  31.546  36.399  1.00  0.00     0.148 A 
ATOM     71  C   UNL A   1      40.574  33.877  36.766  1.00  0.00     0.002 A 
ATOM     72  C   UNL A   1      38.743  32.431  37.428  1.00  0.00     0.091 A 
ATOM     73  F   UNL A   1      38.364  30.404  36.229  1.00  0.00    -0.205 F 
ATOM     74  C   UNL A   1      39.516  33.588  37.623  1.00  0.00     0.022 A 
BRANCH  72  75
ATOM     75  S   UNL A   1      37.348  32.188  38.531  1.00  0.00     0.127 S 
ATOM     76  O   UNL A   1      37.220  30.732  38.529  1.00  0.00    -0.237 OA
ATOM     77  O   UNL A   1      37.843  32.755  39.786  1.00  0.00    -0.237 OA
ATOM     78  O   UNL A   1      36.236  32.917  37.936  1.00  0.00    -0.744 OA
ENDBRANCH  72  75
ENDBRANCH  54  68
BRANCH  55  79
ATOM     79  C   UNL A   1      42.325  26.383  27.461  1.00  0.00     0.023 A 
ATOM     80  C   UNL A   1      43.034  27.032  26.434  1.00  0.00     0.012 A 
ATOM     81  C   UNL A   1      42.034  25.011  27.337  1.00  0.00     0.148 A 
ATOM     82  C   UNL A   1      43.432  26.331  25.295  1.00  0.00     0.002 A 
ATOM     83  C   UNL A   1      42.482  24.306  26.228  1.00  0.00     0.091 A 
ATOM     84  F   UNL A   1      41.353  24.416  28.327  1.00  0.00    -0.205 F 
ATOM     85  C   UNL A   1      43.168  24.968  25.198  1.00  0.00     0.022 A 
BRANCH  83  86
ATOM     86  S   UNL A   1      42.314  22.523  26.084  1.00  0.00     0.127 S 
ATOM     87  O   UNL A   1      40.864  22.360  26.048  1.00  0.00    -0.237 OA
ATOM     88  O   UNL A   1      42.996  22.262  24.815  1.00  0.00    -0.237 OA
ATOM     89  O   UNL A   1      42.980  21.965  27.252  1.00  0.00    -0.744 OA
ENDBRANCH  83  86
ENDBRANCH  55  79
BRANCH  67  90
ATOM     90  C   UNL A   1      45.094  26.877  33.867  1.00  0.00     0.023 A 
ATOM     91  C   UNL A   1      46.356  27.504  33.829  1.00  0.00     0.012 A 
ATOM     92  C   UNL A   1      44.943  25.674  34.584  1.00  0.00     0.148 A 
ATOM     93  C   UNL A   1      47.455  26.928  34.464  1.00  0.00     0.002 A 
ATOM     94  C   UNL A   1      46.030  25.132  35.259  1.00  0.00     0.091 A 
ATOM     95  F   UNL A   1      43.740  25.083  34.595  1.00  0.00    -0.205 F 
ATOM     96  C   UNL A   1      47.289  25.750  35.189  1.00  0.00     0.022 A 
BRANCH  94  97
ATOM     97  S   UNL A   1      45.891  23.673  36.298  1.00  0.00     0.127 S 
ATOM     98  O   UNL A   1      45.043  24.161  37.384  1.00  0.00    -0.237 OA
ATOM     99  O   UNL A   1      45.242  22.715  35.401  1.00  0.00    -0.237 OA
ATOM    100  O   UNL A   1      47.250  23.318  36.680  1.00  0.00    -0.744 OA
ENDBRANCH  94  97
ENDBRANCH  67  90
ENDBRANCH  41  42
ENDBRANCH  33  36
ENDBRANCH  31  32
ENDBRANCH  30  31
ENDBRANCH  29  30
ENDBRANCH   1  29
TORSDOF 22
ENDMDL
MODEL 3
REMARK VINA RESULT:     -11.0      2.537      8.578
REMARK SMILES CC[NH2+][C@]1(C(=O)NCCCCCCNC(=O)c2ccc(-c3c4nc(c(-c5cccc(S(=O)(=O)[O-])c5F)c5ccc([nH]5)c(-c5cccc(S(=O)(=O)[O-])c5F)c5nc(c(-c6cccc(S(=O)(=O)[O-])c6F)c6ccc3[nH]6)C=C5)C=C4)cc2)CCC[C@H]1CCSc1n[nH]c(=O)n1C
REMARK SMILES IDX 10 1 9 2 8 3 7 4 5 5 6 6 4 8 80 9 83 10 81 11 82 12 3 13
REMARK SMILES IDX 2 16 1 17 84 18 85 19 86 20 87 21 88 22 92 23 89 24 90 25
REMARK SMILES IDX 93 26 91 28 11 29 12 30 13 31 14 32 15 33 16 35 17 36 18 37
REMARK SMILES IDX 79 38 19 39 78 40 20 41 21 42 22 43 72 44 23 45 77 46 71 47
REMARK SMILES IDX 73 48 24 49 76 50 70 51 69 52 25 54 57 55 37 56 56 57 38 58
REMARK SMILES IDX 41 59 55 60 74 61 39 62 40 63 54 65 75 66 42 67 26 68 27 69
REMARK SMILES IDX 35 70 28 71 30 72 36 73 29 74 31 75 32 76 33 77 34 78 58 79
REMARK SMILES IDX 59 80 67 81 60 82 62 83 68 84 61 85 63 86 64 87 65 88 66 89
REMARK SMILES IDX 43 90 44 91 52 92 45 93 47 94 53 95 46 96 48 97 49 98 50 99
REMARK SMILES IDX 51 100
REMARK H PARENT 7 7 3 14 3 15 89 27 14 34 73 53 41 64
REMARK Flexibility Score: inf
ROOT
ATOM      1  C   UNL A   1      30.904  28.814  24.209  1.00  0.00     0.002 C 
ENDROOT
BRANCH   1   2
ATOM      2  C   UNL A   1      30.238  27.509  23.757  1.00  0.00     0.021 C 
BRANCH   2   3
ATOM      3  C   UNL A   1      29.852  26.572  24.901  1.00  0.00     0.116 C 
BRANCH   3   4
ATOM      4  N   UNL A   1      29.736  25.217  24.420  1.00  0.00    -0.351 N 
ATOM      5  C   UNL A   1      30.718  24.389  23.977  1.00  0.00     0.281 C 
ATOM      6  O   UNL A   1      30.375  23.633  23.072  1.00  0.00    -0.268 OA
ATOM      7  H   UNL A   1      28.825  24.843  24.409  1.00  0.00     0.163 HD
BRANCH   5   8
ATOM      8  C   UNL A   1      32.180  24.507  24.504  1.00  0.00     0.178 C 
ATOM      9  C   UNL A   1      32.167  24.674  26.039  1.00  0.00     0.079 C 
ATOM     10  C   UNL A   1      33.056  23.211  24.352  1.00  0.00     0.061 C 
ATOM     11  C   UNL A   1      33.535  24.265  26.547  1.00  0.00     0.008 C 
ATOM     12  C   UNL A   1      34.121  23.362  25.475  1.00  0.00     0.011 C 
BRANCH   8  13
ATOM     13  N   UNL A   1      32.846  25.535  23.664  1.00  0.00    -0.334 N 
ATOM     14  H   UNL A   1      32.123  26.199  23.388  1.00  0.00     0.347 HD
ATOM     15  H   UNL A   1      33.597  25.870  24.267  1.00  0.00     0.347 HD
BRANCH  13  16
ATOM     16  C   UNL A   1      33.549  25.162  22.452  1.00  0.00     0.257 C 
ATOM     17  C   UNL A   1      32.699  25.556  21.248  1.00  0.00     0.071 C 
ENDBRANCH  13  16
ENDBRANCH   8  13
BRANCH  10  18
ATOM     18  C   UNL A   1      32.425  21.800  24.452  1.00  0.00     0.022 C 
BRANCH  18  19
ATOM     19  C   UNL A   1      33.075  20.554  23.814  1.00  0.00     0.079 C 
BRANCH  19  20
ATOM     20  S   UNL A   1      32.182  19.012  23.427  1.00  0.00    -0.086 SA
BRANCH  20  21
ATOM     21  C   UNL A   1      32.824  17.807  24.474  1.00  0.00     0.191 A 
ATOM     22  N   UNL A   1      32.403  17.688  25.702  1.00  0.00    -0.146 NA
ATOM     23  N   UNL A   1      33.726  16.874  24.091  1.00  0.00    -0.273 N 
ATOM     24  N   UNL A   1      33.132  16.644  26.196  1.00  0.00    -0.226 N 
ATOM     25  C   UNL A   1      33.968  16.127  25.217  1.00  0.00     0.343 A 
ATOM     26  C   UNL A   1      34.343  16.573  22.821  1.00  0.00     0.157 C 
ATOM     27  H   UNL A   1      33.073  16.306  27.119  1.00  0.00     0.195 HD
ATOM     28  O   UNL A   1      34.742  15.197  25.347  1.00  0.00    -0.246 OA
ENDBRANCH  20  21
ENDBRANCH  19  20
ENDBRANCH  18  19
ENDBRANCH  10  18
ENDBRANCH   5   8
ENDBRANCH   3   4
ENDBRANCH   2   3
ENDBRANCH   1   2
BRANCH   1  29
ATOM     29  C   UNL A   1      32.376  28.961  23.813  1.00  0.00     0.002 C 
BRANCH  29  30
ATOM     30  C   UNL A   1      33.290  29.505  24.914  1.00  0.00     0.021 C 
BRANCH  30  31
ATOM     31  C   UNL A   1      32.580  29.818  26.221  1.00  0.00     0.116 C 
BRANCH  31  32
ATOM     32  N   UNL A   1      32.465  31.249  26.444  1.00  0.00    -0.352 N 
ATOM     33  C   UNL A   1      33.220  32.053  27.260  1.00  0.00     0.251 C 
ATOM     34  H   UNL A   1      31.749  31.702  25.944  1.00  0.00     0.163 HD
ATOM     35  O   UNL A   1      32.857  33.201  27.499  1.00  0.00    -0.269 OA
BRANCH  33  36
ATOM     36  C   UNL A   1      34.460  31.520  27.860  1.00  0.00     0.039 A 
ATOM     37  C   UNL A   1      35.563  32.365  27.994  1.00  0.00     0.014 A 
ATOM     38  C   UNL A   1      34.526  30.196  28.305  1.00  0.00     0.014 A 
ATOM     39  C   UNL A   1      36.718  31.894  28.620  1.00  0.00     0.010 A 
ATOM     40  C   UNL A   1      35.646  29.757  29.003  1.00  0.00     0.010 A 
ATOM     41  C   UNL A   1      36.759  30.597  29.158  1.00  0.00    -0.014 A 
BRANCH  41  42
ATOM     42  C   UNL A   1      37.948  30.112  29.902  1.00  0.00     0.031 A 
ATOM     43  C   UNL A   1      38.240  30.615  31.288  1.00  0.00     0.074 A 
ATOM     44  C   UNL A   1      38.815  29.280  29.292  1.00  0.00     0.049 A 
ATOM     45  N   UNL A   1      39.244  30.327  32.074  1.00  0.00    -0.248 NA
ATOM     46  C   UNL A   1      37.297  31.591  31.855  1.00  0.00     0.031 C 
ATOM     47  C   UNL A   1      38.693  28.793  27.917  1.00  0.00     0.029 A 
ATOM     48  N   UNL A   1      39.986  28.721  29.740  1.00  0.00    -0.354 N 
ATOM     49  C   UNL A   1      39.077  31.111  33.208  1.00  0.00     0.074 A 
ATOM     50  C   UNL A   1      37.894  31.915  32.992  1.00  0.00     0.031 C 
ATOM     51  C   UNL A   1      39.743  28.008  27.634  1.00  0.00     0.029 A 
ATOM     52  C   UNL A   1      40.629  27.960  28.793  1.00  0.00     0.049 A 
ATOM     53  H   UNL A   1      40.332  28.853  30.652  1.00  0.00     0.167 HD
ATOM     54  C   UNL A   1      39.824  31.144  34.338  1.00  0.00     0.034 A 
ATOM     55  C   UNL A   1      41.807  27.308  28.843  1.00  0.00     0.034 A 
ATOM     56  C   UNL A   1      40.983  30.322  34.558  1.00  0.00     0.049 A 
ATOM     57  C   UNL A   1      42.600  27.323  30.120  1.00  0.00     0.074 A 
ATOM     58  C   UNL A   1      41.747  30.201  35.706  1.00  0.00     0.029 A 
ATOM     59  N   UNL A   1      41.564  29.499  33.605  1.00  0.00    -0.354 N 
ATOM     60  N   UNL A   1      42.331  27.934  31.249  1.00  0.00    -0.248 NA
ATOM     61  C   UNL A   1      43.837  26.532  30.143  1.00  0.00     0.031 C 
ATOM     62  C   UNL A   1      42.814  29.337  35.432  1.00  0.00     0.029 A 
ATOM     63  C   UNL A   1      42.691  28.887  34.128  1.00  0.00     0.049 A 
ATOM     64  H   UNL A   1      41.226  29.370  32.690  1.00  0.00     0.167 HD
ATOM     65  C   UNL A   1      43.350  27.580  32.126  1.00  0.00     0.074 A 
ATOM     66  C   UNL A   1      44.229  26.683  31.402  1.00  0.00     0.031 C 
ATOM     67  C   UNL A   1      43.544  27.972  33.410  1.00  0.00     0.034 A 
BRANCH  54  68
ATOM     68  C   UNL A   1      39.386  32.083  35.433  1.00  0.00     0.023 A 
ATOM     69  C   UNL A   1      38.502  31.631  36.436  1.00  0.00     0.012 A 
ATOM     70  C   UNL A   1      39.868  33.405  35.487  1.00  0.00     0.148 A 
ATOM     71  C   UNL A   1      38.064  32.493  37.441  1.00  0.00     0.002 A 
ATOM     72  C   UNL A   1      39.466  34.244  36.521  1.00  0.00     0.091 A 
ATOM     73  F   UNL A   1      40.690  33.827  34.516  1.00  0.00    -0.205 F 
ATOM     74  C   UNL A   1      38.553  33.795  37.489  1.00  0.00     0.022 A 
BRANCH  72  75
ATOM     75  S   UNL A   1      40.107  35.910  36.716  1.00  0.00     0.127 S 
ATOM     76  O   UNL A   1      39.694  36.533  35.460  1.00  0.00    -0.237 OA
ATOM     77  O   UNL A   1      39.384  36.383  37.897  1.00  0.00    -0.237 OA
ATOM     78  O   UNL A   1      41.544  35.766  36.904  1.00  0.00    -0.744 OA
ENDBRANCH  72  75
ENDBRANCH  54  68
BRANCH  55  79
ATOM     79  C   UNL A   1      42.269  26.544  27.650  1.00  0.00     0.023 A 
ATOM     80  C   UNL A   1      43.127  27.158  26.719  1.00  0.00     0.012 A 
ATOM     81  C   UNL A   1      41.917  25.192  27.477  1.00  0.00     0.148 A 
ATOM     82  C   UNL A   1      43.612  26.442  25.624  1.00  0.00     0.002 A 
ATOM     83  C   UNL A   1      42.449  24.469  26.417  1.00  0.00     0.091 A 
ATOM     84  F   UNL A   1      41.094  24.631  28.374  1.00  0.00    -0.205 F 
ATOM     85  C   UNL A   1      43.285  25.097  25.480  1.00  0.00     0.022 A 
BRANCH  83  86
ATOM     86  S   UNL A   1      42.200  22.700  26.232  1.00  0.00     0.127 S 
ATOM     87  O   UNL A   1      40.743  22.606  26.186  1.00  0.00    -0.237 OA
ATOM     88  O   UNL A   1      42.876  22.435  24.962  1.00  0.00    -0.237 OA
ATOM     89  O   UNL A   1      42.832  22.085  27.391  1.00  0.00    -0.744 OA
ENDBRANCH  83  86
ENDBRANCH  55  79
BRANCH  67  90
ATOM     90  C   UNL A   1      44.744  27.418  34.135  1.00  0.00     0.023 A 
ATOM     91  C   UNL A   1      45.966  28.120  34.113  1.00  0.00     0.012 A 
ATOM     92  C   UNL A   1      44.639  26.237  34.897  1.00  0.00     0.148 A 
ATOM     93  C   UNL A   1      47.074  27.637  34.808  1.00  0.00     0.002 A 
ATOM     94  C   UNL A   1      45.733  25.790  35.629  1.00  0.00     0.091 A 
ATOM     95  F   UNL A   1      43.474  25.575  34.892  1.00  0.00    -0.205 F 
ATOM     96  C   UNL A   1      46.954  26.481  35.576  1.00  0.00     0.022 A 
BRANCH  94  97
ATOM     97  S   UNL A   1      45.644  24.368  36.722  1.00  0.00     0.127 S 
ATOM     98  O   UNL A   1      44.631  24.796  37.686  1.00  0.00    -0.237 OA
ATOM     99  O   UNL A   1      45.211  23.305  35.813  1.00  0.00    -0.237 OA
ATOM    100  O   UNL A   1      46.984  24.190  37.264  1.00  0.00    -0.744 OA
ENDBRANCH  94  97
ENDBRANCH  67  90
ENDBRANCH  41  42
ENDBRANCH  33  36
ENDBRANCH  31  32
ENDBRANCH  30  31
ENDBRANCH  29  30
ENDBRANCH   1  29
TORSDOF 22
ENDMDL
