MODEL 1
REMARK VINA RESULT:     -11.2      0.000      0.000
REMARK SMILES Cn1c(Cn2nnc3ccccc32)nnc1SCC(=O)NCCCCCCNC(=O)c1ccc(-c2c3nc(c(-c4cccc(S(=O)(=O)[O-])c4F)c4ccc([nH]4)c(-c4cccc(S(=O)(=O)[O-])c4F)c4nc(c(-c5cccc(S(=O)(=O)[O-])c5F)c5ccc2[nH]5)C=C4)C=C3)cc1
REMARK SMILES IDX 24 1 23 2 22 3 21 4 19 5 20 6 18 8 17 9 16 10 1 11 2 12 3 13
REMARK SMILES IDX 14 14 15 15 4 16 5 17 6 18 13 19 7 20 8 21 12 22 9 23 11 24
REMARK SMILES IDX 10 25 25 26 26 27 27 28 28 29 29 30 30 32 31 33 32 34 93 35
REMARK SMILES IDX 33 36 92 37 34 38 35 39 36 40 86 41 37 42 91 43 85 44 87 45
REMARK SMILES IDX 38 46 90 47 84 48 83 49 39 51 71 52 51 53 70 54 52 55 55 56
REMARK SMILES IDX 69 57 88 58 53 59 54 60 68 62 89 63 56 64 40 65 41 66 49 67
REMARK SMILES IDX 42 68 44 69 50 70 43 71 45 72 46 73 47 74 48 75 72 76 73 77
REMARK SMILES IDX 81 78 74 79 76 80 82 81 75 82 77 83 78 84 79 85 80 86 57 87
REMARK SMILES IDX 58 88 66 89 59 90 61 91 67 92 60 93 62 94 63 95 64 96 65 97
REMARK H PARENT 21 7 28 31 87 50 55 61
REMARK Flexibility Score: inf
ROOT
ATOM      1  C   UNL A   1      33.858  29.005  26.520  1.00  0.00     0.002 C 
ENDROOT
BRANCH   1   2
ATOM      2  C   UNL A   1      33.562  28.012  25.386  1.00  0.00     0.021 C 
BRANCH   2   3
ATOM      3  C   UNL A   1      33.666  28.605  23.981  1.00  0.00     0.116 C 
BRANCH   3   4
ATOM      4  N   UNL A   1      32.401  29.191  23.577  1.00  0.00    -0.355 N 
ATOM      5  C   UNL A   1      31.426  28.685  22.780  1.00  0.00     0.230 C 
ATOM      6  O   UNL A   1      30.479  29.415  22.479  1.00  0.00    -0.274 OA
ATOM      7  H   UNL A   1      32.223  30.090  23.937  1.00  0.00     0.163 HD
BRANCH   5   8
ATOM      8  C   UNL A   1      31.454  27.244  22.338  1.00  0.00     0.178 C 
BRANCH   8   9
ATOM      9  S   UNL A   1      30.822  26.023  23.488  1.00  0.00    -0.076 SA
BRANCH   9  10
ATOM     10  C   UNL A   1      32.096  24.977  23.991  1.00  0.00     0.191 A 
ATOM     11  C   UNL A   1      31.179  23.921  26.114  1.00  0.00     0.154 C 
ATOM     12  N   UNL A   1      32.179  24.203  25.118  1.00  0.00    -0.308 N 
ATOM     13  C   UNL A   1      33.491  23.765  25.177  1.00  0.00     0.155 A 
ATOM     14  N   UNL A   1      34.145  24.269  24.151  1.00  0.00    -0.132 NA
ATOM     15  N   UNL A   1      33.275  25.016  23.410  1.00  0.00    -0.123 NA
BRANCH  13  16
ATOM     16  C   UNL A   1      34.084  22.958  26.279  1.00  0.00     0.224 C 
BRANCH  16  17
ATOM     17  N   UNL A   1      34.662  21.714  25.799  1.00  0.00    -0.237 N 
ATOM     18  N   UNL A   1      36.002  21.621  25.651  1.00  0.00    -0.066 NA
ATOM     19  C   UNL A   1      34.023  20.600  25.316  1.00  0.00     0.089 A 
ATOM     20  N   UNL A   1      36.266  20.425  25.141  1.00  0.00    -0.130 NA
ATOM     21  C   UNL A   1      35.076  19.777  24.935  1.00  0.00     0.113 A 
ATOM     22  C   UNL A   1      32.682  20.219  25.198  1.00  0.00     0.030 A 
ATOM     23  C   UNL A   1      34.806  18.499  24.425  1.00  0.00     0.032 A 
ATOM     24  C   UNL A   1      32.429  18.938  24.695  1.00  0.00     0.002 A 
ATOM     25  C   UNL A   1      33.471  18.089  24.317  1.00  0.00     0.002 A 
ENDBRANCH  16  17
ENDBRANCH  13  16
ENDBRANCH   9  10
ENDBRANCH   8   9
ENDBRANCH   5   8
ENDBRANCH   3   4
ENDBRANCH   2   3
ENDBRANCH   1   2
BRANCH   1  26
ATOM     26  C   UNL A   1      32.635  29.714  27.109  1.00  0.00     0.002 C 
BRANCH  26  27
ATOM     27  C   UNL A   1      32.775  31.230  27.286  1.00  0.00     0.021 C 
BRANCH  27  28
ATOM     28  C   UNL A   1      34.191  31.707  27.614  1.00  0.00     0.116 C 
BRANCH  28  29
ATOM     29  N   UNL A   1      34.279  32.430  28.866  1.00  0.00    -0.352 N 
ATOM     30  C   UNL A   1      35.213  32.530  29.861  1.00  0.00     0.251 C 
ATOM     31  H   UNL A   1      33.478  32.976  29.043  1.00  0.00     0.163 HD
ATOM     32  O   UNL A   1      34.953  33.341  30.755  1.00  0.00    -0.269 OA
BRANCH  30  33
ATOM     33  C   UNL A   1      36.468  31.730  29.953  1.00  0.00     0.039 A 
ATOM     34  C   UNL A   1      37.762  32.232  29.821  1.00  0.00     0.014 A 
ATOM     35  C   UNL A   1      36.311  30.342  30.144  1.00  0.00     0.014 A 
ATOM     36  C   UNL A   1      38.859  31.374  29.819  1.00  0.00     0.010 A 
ATOM     37  C   UNL A   1      37.409  29.480  30.158  1.00  0.00     0.010 A 
ATOM     38  C   UNL A   1      38.685  29.995  29.961  1.00  0.00    -0.014 A 
BRANCH  38  39
ATOM     39  C   UNL A   1      39.886  29.165  29.910  1.00  0.00     0.031 A 
ATOM     40  C   UNL A   1      40.580  28.908  31.204  1.00  0.00     0.074 A 
ATOM     41  C   UNL A   1      40.384  28.612  28.788  1.00  0.00     0.049 A 
ATOM     42  N   UNL A   1      41.719  29.381  31.601  1.00  0.00    -0.248 NA
ATOM     43  C   UNL A   1      39.896  28.069  32.194  1.00  0.00     0.031 C 
ATOM     44  C   UNL A   1      39.752  28.474  27.476  1.00  0.00     0.029 A 
ATOM     45  N   UNL A   1      41.572  27.956  28.636  1.00  0.00    -0.354 N 
ATOM     46  C   UNL A   1      41.990  28.754  32.817  1.00  0.00     0.074 A 
ATOM     47  C   UNL A   1      40.790  28.044  33.186  1.00  0.00     0.031 C 
ATOM     48  C   UNL A   1      40.455  27.584  26.740  1.00  0.00     0.029 A 
ATOM     49  C   UNL A   1      41.659  27.217  27.466  1.00  0.00     0.049 A 
ATOM     50  H   UNL A   1      42.299  28.002  29.296  1.00  0.00     0.167 HD
ATOM     51  C   UNL A   1      43.236  28.721  33.365  1.00  0.00     0.034 A 
ATOM     52  C   UNL A   1      42.629  26.326  27.160  1.00  0.00     0.034 A 
ATOM     53  C   UNL A   1      44.151  29.618  32.722  1.00  0.00     0.049 A 
ATOM     54  C   UNL A   1      43.824  26.683  27.960  1.00  0.00     0.074 A 
ATOM     55  C   UNL A   1      44.247  30.982  32.539  1.00  0.00     0.029 A 
ATOM     56  N   UNL A   1      45.070  29.057  31.870  1.00  0.00    -0.354 N 
ATOM     57  N   UNL A   1      44.526  27.768  27.785  1.00  0.00    -0.248 NA
ATOM     58  C   UNL A   1      44.089  25.958  29.191  1.00  0.00     0.031 C 
ATOM     59  C   UNL A   1      44.886  31.143  31.275  1.00  0.00     0.029 A 
ATOM     60  C   UNL A   1      45.139  29.866  30.769  1.00  0.00     0.049 A 
ATOM     61  H   UNL A   1      45.583  28.231  32.022  1.00  0.00     0.167 HD
ATOM     62  C   UNL A   1      45.012  28.079  29.048  1.00  0.00     0.074 A 
ATOM     63  C   UNL A   1      44.832  26.864  29.831  1.00  0.00     0.031 C 
ATOM     64  C   UNL A   1      45.251  29.372  29.413  1.00  0.00     0.034 A 
BRANCH  51  65
ATOM     65  C   UNL A   1      43.750  27.659  34.304  1.00  0.00     0.023 A 
ATOM     66  C   UNL A   1      44.339  28.079  35.519  1.00  0.00     0.012 A 
ATOM     67  C   UNL A   1      43.930  26.311  33.930  1.00  0.00     0.148 A 
ATOM     68  C   UNL A   1      45.095  27.206  36.309  1.00  0.00     0.002 A 
ATOM     69  C   UNL A   1      44.624  25.430  34.754  1.00  0.00     0.091 A 
ATOM     70  F   UNL A   1      43.547  25.905  32.713  1.00  0.00    -0.205 F 
ATOM     71  C   UNL A   1      45.228  25.877  35.932  1.00  0.00     0.022 A 
BRANCH  69  72
ATOM     72  S   UNL A   1      44.776  23.693  34.325  1.00  0.00     0.127 S 
ATOM     73  O   UNL A   1      45.968  23.310  35.087  1.00  0.00    -0.237 OA
ATOM     74  O   UNL A   1      43.518  23.140  34.840  1.00  0.00    -0.237 OA
ATOM     75  O   UNL A   1      44.890  23.670  32.882  1.00  0.00    -0.744 OA
ENDBRANCH  69  72
ENDBRANCH  51  65
BRANCH  52  76
ATOM     76  C   UNL A   1      42.554  25.064  26.385  1.00  0.00     0.023 A 
ATOM     77  C   UNL A   1      43.587  24.759  25.473  1.00  0.00     0.012 A 
ATOM     78  C   UNL A   1      41.650  24.036  26.731  1.00  0.00     0.148 A 
ATOM     79  C   UNL A   1      43.749  23.462  24.970  1.00  0.00     0.002 A 
ATOM     80  C   UNL A   1      41.806  22.752  26.215  1.00  0.00     0.091 A 
ATOM     81  F   UNL A   1      40.701  24.281  27.643  1.00  0.00    -0.205 F 
ATOM     82  C   UNL A   1      42.864  22.457  25.347  1.00  0.00     0.022 A 
BRANCH  80  83
ATOM     83  S   UNL A   1      40.694  21.412  26.667  1.00  0.00     0.127 S 
ATOM     84  O   UNL A   1      41.376  20.241  26.112  1.00  0.00    -0.237 OA
ATOM     85  O   UNL A   1      40.698  21.490  28.124  1.00  0.00    -0.237 OA
ATOM     86  O   UNL A   1      39.428  21.724  26.013  1.00  0.00    -0.744 OA
ENDBRANCH  80  83
ENDBRANCH  52  76
BRANCH  64  87
ATOM     87  C   UNL A   1      45.293  30.424  28.337  1.00  0.00     0.023 A 
ATOM     88  C   UNL A   1      44.110  30.985  27.813  1.00  0.00     0.012 A 
ATOM     89  C   UNL A   1      46.532  31.000  28.003  1.00  0.00     0.148 A 
ATOM     90  C   UNL A   1      44.162  32.090  26.962  1.00  0.00     0.002 A 
ATOM     91  C   UNL A   1      46.575  32.125  27.188  1.00  0.00     0.091 A 
ATOM     92  F   UNL A   1      47.642  30.463  28.530  1.00  0.00    -0.205 F 
ATOM     93  C   UNL A   1      45.393  32.668  26.660  1.00  0.00     0.022 A 
BRANCH  91  94
ATOM     94  S   UNL A   1      48.105  33.004  26.855  1.00  0.00     0.127 S 
ATOM     95  O   UNL A   1      48.995  31.924  26.433  1.00  0.00    -0.237 OA
ATOM     96  O   UNL A   1      47.706  33.922  25.786  1.00  0.00    -0.237 OA
ATOM     97  O   UNL A   1      48.476  33.663  28.102  1.00  0.00    -0.744 OA
ENDBRANCH  91  94
ENDBRANCH  64  87
ENDBRANCH  38  39
ENDBRANCH  30  33
ENDBRANCH  28  29
ENDBRANCH  27  28
ENDBRANCH  26  27
ENDBRANCH   1  26
TORSDOF 20
ENDMDL
MODEL 2
REMARK VINA RESULT:     -10.7      1.955      2.435
REMARK SMILES Cn1c(Cn2nnc3ccccc32)nnc1SCC(=O)NCCCCCCNC(=O)c1ccc(-c2c3nc(c(-c4cccc(S(=O)(=O)[O-])c4F)c4ccc([nH]4)c(-c4cccc(S(=O)(=O)[O-])c4F)c4nc(c(-c5cccc(S(=O)(=O)[O-])c5F)c5ccc2[nH]5)C=C4)C=C3)cc1
REMARK SMILES IDX 24 1 23 2 22 3 21 4 19 5 20 6 18 8 17 9 16 10 1 11 2 12 3 13
REMARK SMILES IDX 14 14 15 15 4 16 5 17 6 18 13 19 7 20 8 21 12 22 9 23 11 24
REMARK SMILES IDX 10 25 25 26 26 27 27 28 28 29 29 30 30 32 31 33 32 34 93 35
REMARK SMILES IDX 33 36 92 37 34 38 35 39 36 40 86 41 37 42 91 43 85 44 87 45
REMARK SMILES IDX 38 46 90 47 84 48 83 49 39 51 71 52 51 53 70 54 52 55 55 56
REMARK SMILES IDX 69 57 88 58 53 59 54 60 68 62 89 63 56 64 40 65 41 66 49 67
REMARK SMILES IDX 42 68 44 69 50 70 43 71 45 72 46 73 47 74 48 75 72 76 73 77
REMARK SMILES IDX 81 78 74 79 76 80 82 81 75 82 77 83 78 84 79 85 80 86 57 87
REMARK SMILES IDX 58 88 66 89 59 90 61 91 67 92 60 93 62 94 63 95 64 96 65 97
REMARK H PARENT 21 7 28 31 87 50 55 61
REMARK Flexibility Score: inf
ROOT
ATOM      1  C   UNL A   1      34.316  29.379  26.861  1.00  0.00     0.002 C 
ENDROOT
BRANCH   1   2
ATOM      2  C   UNL A   1      33.561  28.395  25.956  1.00  0.00     0.021 C 
BRANCH   2   3
ATOM      3  C   UNL A   1      33.298  28.909  24.541  1.00  0.00     0.116 C 
BRANCH   3   4
ATOM      4  N   UNL A   1      31.990  29.533  24.457  1.00  0.00    -0.355 N 
ATOM      5  C   UNL A   1      30.890  29.150  23.761  1.00  0.00     0.230 C 
ATOM      6  O   UNL A   1      29.914  29.904  23.747  1.00  0.00    -0.274 OA
ATOM      7  H   UNL A   1      31.885  30.357  24.985  1.00  0.00     0.163 HD
BRANCH   5   8
ATOM      8  C   UNL A   1      30.827  27.802  23.087  1.00  0.00     0.178 C 
BRANCH   8   9
ATOM      9  S   UNL A   1      29.908  26.511  23.926  1.00  0.00    -0.076 SA
BRANCH   9  10
ATOM     10  C   UNL A   1      30.867  25.083  24.031  1.00  0.00     0.191 A 
ATOM     11  C   UNL A   1      31.358  24.893  26.518  1.00  0.00     0.154 C 
ATOM     12  N   UNL A   1      31.473  24.534  25.130  1.00  0.00    -0.308 N 
ATOM     13  C   UNL A   1      32.322  23.555  24.639  1.00  0.00     0.155 A 
ATOM     14  N   UNL A   1      32.232  23.545  23.326  1.00  0.00    -0.132 NA
ATOM     15  N   UNL A   1      31.321  24.490  22.949  1.00  0.00    -0.123 NA
BRANCH  13  16
ATOM     16  C   UNL A   1      33.261  22.738  25.457  1.00  0.00     0.224 C 
BRANCH  16  17
ATOM     17  N   UNL A   1      33.157  21.320  25.159  1.00  0.00    -0.237 N 
ATOM     18  N   UNL A   1      31.939  20.736  25.134  1.00  0.00    -0.066 NA
ATOM     19  C   UNL A   1      34.161  20.394  25.024  1.00  0.00     0.089 A 
ATOM     20  N   UNL A   1      32.120  19.441  24.910  1.00  0.00    -0.130 NA
ATOM     21  C   UNL A   1      33.467  19.207  24.831  1.00  0.00     0.113 A 
ATOM     22  C   UNL A   1      35.559  20.466  25.024  1.00  0.00     0.030 A 
ATOM     23  C   UNL A   1      34.178  18.019  24.604  1.00  0.00     0.032 A 
ATOM     24  C   UNL A   1      36.253  19.274  24.788  1.00  0.00     0.002 A 
ATOM     25  C   UNL A   1      35.578  18.070  24.579  1.00  0.00     0.002 A 
ENDBRANCH  16  17
ENDBRANCH  13  16
ENDBRANCH   9  10
ENDBRANCH   8   9
ENDBRANCH   5   8
ENDBRANCH   3   4
ENDBRANCH   2   3
ENDBRANCH   1   2
BRANCH   1  26
ATOM     26  C   UNL A   1      33.488  30.554  27.392  1.00  0.00     0.002 C 
BRANCH  26  27
ATOM     27  C   UNL A   1      34.255  31.867  27.580  1.00  0.00     0.021 C 
BRANCH  27  28
ATOM     28  C   UNL A   1      35.673  31.706  28.133  1.00  0.00     0.116 C 
BRANCH  28  29
ATOM     29  N   UNL A   1      36.012  32.690  29.141  1.00  0.00    -0.352 N 
ATOM     30  C   UNL A   1      37.041  32.848  30.029  1.00  0.00     0.251 C 
ATOM     31  H   UNL A   1      35.346  33.413  29.202  1.00  0.00     0.163 HD
ATOM     32  O   UNL A   1      37.023  33.894  30.685  1.00  0.00    -0.269 OA
BRANCH  30  33
ATOM     33  C   UNL A   1      38.132  31.861  30.274  1.00  0.00     0.039 A 
ATOM     34  C   UNL A   1      39.499  32.125  30.195  1.00  0.00     0.014 A 
ATOM     35  C   UNL A   1      37.727  30.542  30.565  1.00  0.00     0.014 A 
ATOM     36  C   UNL A   1      40.430  31.099  30.340  1.00  0.00     0.010 A 
ATOM     37  C   UNL A   1      38.656  29.514  30.726  1.00  0.00     0.010 A 
ATOM     38  C   UNL A   1      40.011  29.788  30.580  1.00  0.00    -0.014 A 
BRANCH  38  39
ATOM     39  C   UNL A   1      41.053  28.767  30.682  1.00  0.00     0.031 A 
ATOM     40  C   UNL A   1      41.661  28.560  32.026  1.00  0.00     0.074 A 
ATOM     41  C   UNL A   1      41.474  28.003  29.656  1.00  0.00     0.049 A 
ATOM     42  N   UNL A   1      42.854  28.880  32.415  1.00  0.00    -0.248 NA
ATOM     43  C   UNL A   1      40.818  27.978  33.078  1.00  0.00     0.031 C 
ATOM     44  C   UNL A   1      40.858  27.811  28.343  1.00  0.00     0.029 A 
ATOM     45  N   UNL A   1      42.533  27.142  29.636  1.00  0.00    -0.354 N 
ATOM     46  C   UNL A   1      42.984  28.373  33.708  1.00  0.00     0.074 A 
ATOM     47  C   UNL A   1      41.671  27.927  34.104  1.00  0.00     0.031 C 
ATOM     48  C   UNL A   1      41.415  26.731  27.750  1.00  0.00     0.029 A 
ATOM     49  C   UNL A   1      42.519  26.259  28.568  1.00  0.00     0.049 A 
ATOM     50  H   UNL A   1      43.242  27.147  30.319  1.00  0.00     0.167 HD
ATOM     51  C   UNL A   1      44.192  28.198  34.311  1.00  0.00     0.034 A 
ATOM     52  C   UNL A   1      43.327  25.186  28.414  1.00  0.00     0.034 A 
ATOM     53  C   UNL A   1      45.263  28.841  33.607  1.00  0.00     0.049 A 
ATOM     54  C   UNL A   1      44.548  25.433  29.218  1.00  0.00     0.074 A 
ATOM     55  C   UNL A   1      45.597  30.135  33.269  1.00  0.00     0.029 A 
ATOM     56  N   UNL A   1      46.091  28.032  32.871  1.00  0.00    -0.354 N 
ATOM     57  N   UNL A   1      45.430  26.354  28.947  1.00  0.00    -0.248 NA
ATOM     58  C   UNL A   1      44.654  24.833  30.537  1.00  0.00     0.031 C 
ATOM     59  C   UNL A   1      46.285  30.029  32.025  1.00  0.00     0.029 A 
ATOM     60  C   UNL A   1      46.325  28.673  31.686  1.00  0.00     0.049 A 
ATOM     61  H   UNL A   1      46.450  27.156  33.143  1.00  0.00     0.167 HD
ATOM     62  C   UNL A   1      45.932  26.734  30.184  1.00  0.00     0.074 A 
ATOM     63  C   UNL A   1      45.526  25.673  31.098  1.00  0.00     0.031 C 
ATOM     64  C   UNL A   1      46.383  28.003  30.404  1.00  0.00     0.034 A 
BRANCH  51  65
ATOM     65  C   UNL A   1      44.492  27.190  35.392  1.00  0.00     0.023 A 
ATOM     66  C   UNL A   1      44.971  27.673  36.632  1.00  0.00     0.012 A 
ATOM     67  C   UNL A   1      44.590  25.804  35.156  1.00  0.00     0.148 A 
ATOM     68  C   UNL A   1      45.546  26.819  37.579  1.00  0.00     0.002 A 
ATOM     69  C   UNL A   1      45.098  24.950  36.130  1.00  0.00     0.091 A 
ATOM     70  F   UNL A   1      44.316  25.318  33.939  1.00  0.00    -0.205 F 
ATOM     71  C   UNL A   1      45.599  25.453  37.333  1.00  0.00     0.022 A 
BRANCH  69  72
ATOM     72  S   UNL A   1      45.139  23.173  35.869  1.00  0.00     0.127 S 
ATOM     73  O   UNL A   1      45.466  22.690  37.213  1.00  0.00    -0.237 OA
ATOM     74  O   UNL A   1      43.764  22.897  35.438  1.00  0.00    -0.237 OA
ATOM     75  O   UNL A   1      46.137  22.967  34.842  1.00  0.00    -0.744 OA
ENDBRANCH  69  72
ENDBRANCH  51  65
BRANCH  52  76
ATOM     76  C   UNL A   1      43.055  23.868  27.790  1.00  0.00     0.023 A 
ATOM     77  C   UNL A   1      41.766  23.307  27.912  1.00  0.00     0.012 A 
ATOM     78  C   UNL A   1      43.939  23.299  26.848  1.00  0.00     0.148 A 
ATOM     79  C   UNL A   1      41.353  22.256  27.085  1.00  0.00     0.002 A 
ATOM     80  C   UNL A   1      43.529  22.242  26.040  1.00  0.00     0.091 A 
ATOM     81  F   UNL A   1      45.144  23.853  26.667  1.00  0.00    -0.205 F 
ATOM     82  C   UNL A   1      42.231  21.729  26.144  1.00  0.00     0.022 A 
BRANCH  80  83
ATOM     83  S   UNL A   1      44.620  21.520  24.805  1.00  0.00     0.127 S 
ATOM     84  O   UNL A   1      45.907  21.495  25.503  1.00  0.00    -0.237 OA
ATOM     85  O   UNL A   1      44.014  20.210  24.590  1.00  0.00    -0.237 OA
ATOM     86  O   UNL A   1      44.580  22.437  23.672  1.00  0.00    -0.744 OA
ENDBRANCH  80  83
ENDBRANCH  52  76
BRANCH  64  87
ATOM     87  C   UNL A   1      46.631  28.890  29.214  1.00  0.00     0.023 A 
ATOM     88  C   UNL A   1      47.823  28.798  28.466  1.00  0.00     0.012 A 
ATOM     89  C   UNL A   1      45.571  29.672  28.721  1.00  0.00     0.148 A 
ATOM     90  C   UNL A   1      47.960  29.482  27.257  1.00  0.00     0.002 A 
ATOM     91  C   UNL A   1      45.698  30.319  27.498  1.00  0.00     0.091 A 
ATOM     92  F   UNL A   1      44.439  29.727  29.439  1.00  0.00    -0.205 F 
ATOM     93  C   UNL A   1      46.894  30.232  26.766  1.00  0.00     0.022 A 
BRANCH  91  94
ATOM     94  S   UNL A   1      44.330  31.197  26.736  1.00  0.00     0.127 S 
ATOM     95  O   UNL A   1      43.415  30.108  26.398  1.00  0.00    -0.237 OA
ATOM     96  O   UNL A   1      43.874  32.063  27.825  1.00  0.00    -0.237 OA
ATOM     97  O   UNL A   1      44.890  31.914  25.597  1.00  0.00    -0.744 OA
ENDBRANCH  91  94
ENDBRANCH  64  87
ENDBRANCH  38  39
ENDBRANCH  30  33
ENDBRANCH  28  29
ENDBRANCH  27  28
ENDBRANCH  26  27
ENDBRANCH   1  26
TORSDOF 20
ENDMDL
MODEL 3
REMARK VINA RESULT:     -10.7      7.766     14.103
REMARK SMILES Cn1c(Cn2nnc3ccccc32)nnc1SCC(=O)NCCCCCCNC(=O)c1ccc(-c2c3nc(c(-c4cccc(S(=O)(=O)[O-])c4F)c4ccc([nH]4)c(-c4cccc(S(=O)(=O)[O-])c4F)c4nc(c(-c5cccc(S(=O)(=O)[O-])c5F)c5ccc2[nH]5)C=C4)C=C3)cc1
REMARK SMILES IDX 24 1 23 2 22 3 21 4 19 5 20 6 18 8 17 9 16 10 1 11 2 12 3 13
REMARK SMILES IDX 14 14 15 15 4 16 5 17 6 18 13 19 7 20 8 21 12 22 9 23 11 24
REMARK SMILES IDX 10 25 25 26 26 27 27 28 28 29 29 30 30 32 31 33 32 34 93 35
REMARK SMILES IDX 33 36 92 37 34 38 35 39 36 40 86 41 37 42 91 43 85 44 87 45
REMARK SMILES IDX 38 46 90 47 84 48 83 49 39 51 71 52 51 53 70 54 52 55 55 56
REMARK SMILES IDX 69 57 88 58 53 59 54 60 68 62 89 63 56 64 40 65 41 66 49 67
REMARK SMILES IDX 42 68 44 69 50 70 43 71 45 72 46 73 47 74 48 75 72 76 73 77
REMARK SMILES IDX 81 78 74 79 76 80 82 81 75 82 77 83 78 84 79 85 80 86 57 87
REMARK SMILES IDX 58 88 66 89 59 90 61 91 67 92 60 93 62 94 63 95 64 96 65 97
REMARK H PARENT 21 7 28 31 87 50 55 61
REMARK Flexibility Score: inf
ROOT
ATOM      1  C   UNL A   1      42.943  38.707  27.579  1.00  0.00     0.002 C 
ENDROOT
BRANCH   1   2
ATOM      2  C   UNL A   1      42.209  39.739  26.712  1.00  0.00     0.021 C 
BRANCH   2   3
ATOM      3  C   UNL A   1      43.120  40.764  26.036  1.00  0.00     0.116 C 
BRANCH   3   4
ATOM      4  N   UNL A   1      43.528  41.788  26.980  1.00  0.00    -0.355 N 
ATOM      5  C   UNL A   1      44.629  42.581  26.978  1.00  0.00     0.230 C 
ATOM      6  O   UNL A   1      44.829  43.308  27.954  1.00  0.00    -0.274 OA
ATOM      7  H   UNL A   1      42.912  41.930  27.736  1.00  0.00     0.163 HD
BRANCH   5   8
ATOM      8  C   UNL A   1      45.544  42.635  25.781  1.00  0.00     0.178 C 
BRANCH   8   9
ATOM      9  S   UNL A   1      45.217  43.904  24.558  1.00  0.00    -0.076 SA
BRANCH   9  10
ATOM     10  C   UNL A   1      44.009  43.359  23.457  1.00  0.00     0.191 A 
ATOM     11  C   UNL A   1      45.354  42.656  21.417  1.00  0.00     0.154 C 
ATOM     12  N   UNL A   1      44.155  42.927  22.165  1.00  0.00    -0.308 N 
ATOM     13  C   UNL A   1      42.873  42.855  21.647  1.00  0.00     0.155 A 
ATOM     14  N   UNL A   1      42.024  43.242  22.577  1.00  0.00    -0.132 NA
ATOM     15  N   UNL A   1      42.731  43.547  23.704  1.00  0.00    -0.123 NA
BRANCH  13  16
ATOM     16  C   UNL A   1      42.529  42.511  20.239  1.00  0.00     0.224 C 
BRANCH  16  17
ATOM     17  N   UNL A   1      41.942  43.634  19.527  1.00  0.00    -0.237 N 
ATOM     18  N   UNL A   1      40.599  43.771  19.500  1.00  0.00    -0.066 NA
ATOM     19  C   UNL A   1      42.559  44.554  18.717  1.00  0.00     0.089 A 
ATOM     20  N   UNL A   1      40.319  44.820  18.738  1.00  0.00    -0.130 NA
ATOM     21  C   UNL A   1      41.498  45.322  18.254  1.00  0.00     0.113 A 
ATOM     22  C   UNL A   1      43.890  44.809  18.368  1.00  0.00     0.030 A 
ATOM     23  C   UNL A   1      41.751  46.417  17.415  1.00  0.00     0.032 A 
ATOM     24  C   UNL A   1      44.127  45.910  17.537  1.00  0.00     0.002 A 
ATOM     25  C   UNL A   1      43.078  46.704  17.069  1.00  0.00     0.002 A 
ENDBRANCH  16  17
ENDBRANCH  13  16
ENDBRANCH   9  10
ENDBRANCH   8   9
ENDBRANCH   5   8
ENDBRANCH   3   4
ENDBRANCH   2   3
ENDBRANCH   1   2
BRANCH   1  26
ATOM     26  C   UNL A   1      44.257  38.174  26.998  1.00  0.00     0.002 C 
BRANCH  26  27
ATOM     27  C   UNL A   1      45.530  38.657  27.700  1.00  0.00     0.021 C 
BRANCH  27  28
ATOM     28  C   UNL A   1      45.293  39.376  29.030  1.00  0.00     0.116 C 
BRANCH  28  29
ATOM     29  N   UNL A   1      46.128  38.884  30.107  1.00  0.00    -0.352 N 
ATOM     30  C   UNL A   1      46.233  37.699  30.783  1.00  0.00     0.251 C 
ATOM     31  H   UNL A   1      46.768  39.560  30.429  1.00  0.00     0.163 HD
ATOM     32  O   UNL A   1      47.153  37.634  31.604  1.00  0.00    -0.269 OA
BRANCH  30  33
ATOM     33  C   UNL A   1      45.323  36.528  30.625  1.00  0.00     0.039 A 
ATOM     34  C   UNL A   1      45.305  35.655  29.537  1.00  0.00     0.014 A 
ATOM     35  C   UNL A   1      44.376  36.330  31.649  1.00  0.00     0.014 A 
ATOM     36  C   UNL A   1      44.338  34.657  29.445  1.00  0.00     0.010 A 
ATOM     37  C   UNL A   1      43.414  35.322  31.569  1.00  0.00     0.010 A 
ATOM     38  C   UNL A   1      43.376  34.503  30.446  1.00  0.00    -0.014 A 
BRANCH  38  39
ATOM     39  C   UNL A   1      42.376  33.455  30.250  1.00  0.00     0.031 A 
ATOM     40  C   UNL A   1      40.954  33.831  30.484  1.00  0.00     0.074 A 
ATOM     41  C   UNL A   1      42.657  32.197  29.860  1.00  0.00     0.049 A 
ATOM     42  N   UNL A   1      40.187  33.468  31.463  1.00  0.00    -0.248 NA
ATOM     43  C   UNL A   1      40.329  34.770  29.544  1.00  0.00     0.031 C 
ATOM     44  C   UNL A   1      43.902  31.667  29.303  1.00  0.00     0.029 A 
ATOM     45  N   UNL A   1      41.806  31.131  29.800  1.00  0.00    -0.354 N 
ATOM     46  C   UNL A   1      38.923  33.980  31.170  1.00  0.00     0.074 A 
ATOM     47  C   UNL A   1      39.093  34.860  30.040  1.00  0.00     0.031 C 
ATOM     48  C   UNL A   1      43.656  30.457  28.751  1.00  0.00     0.029 A 
ATOM     49  C   UNL A   1      42.289  30.068  29.054  1.00  0.00     0.049 A 
ATOM     50  H   UNL A   1      40.929  31.119  30.245  1.00  0.00     0.167 HD
ATOM     51  C   UNL A   1      37.788  33.522  31.766  1.00  0.00     0.034 A 
ATOM     52  C   UNL A   1      41.582  28.981  28.670  1.00  0.00     0.034 A 
ATOM     53  C   UNL A   1      38.055  32.687  32.902  1.00  0.00     0.049 A 
ATOM     54  C   UNL A   1      40.453  28.832  29.618  1.00  0.00     0.074 A 
ATOM     55  C   UNL A   1      38.662  32.840  34.130  1.00  0.00     0.029 A 
ATOM     56  N   UNL A   1      37.893  31.335  32.725  1.00  0.00    -0.354 N 
ATOM     57  N   UNL A   1      40.588  28.515  30.875  1.00  0.00    -0.248 NA
ATOM     58  C   UNL A   1      39.143  29.333  29.236  1.00  0.00     0.031 C 
ATOM     59  C   UNL A   1      39.240  31.569  34.419  1.00  0.00     0.029 A 
ATOM     60  C   UNL A   1      38.946  30.723  33.346  1.00  0.00     0.049 A 
ATOM     61  H   UNL A   1      37.158  30.891  32.244  1.00  0.00     0.167 HD
ATOM     62  C   UNL A   1      39.534  29.152  31.514  1.00  0.00     0.074 A 
ATOM     63  C   UNL A   1      38.610  29.514  30.446  1.00  0.00     0.031 C 
ATOM     64  C   UNL A   1      39.642  29.574  32.808  1.00  0.00     0.034 A 
BRANCH  51  65
ATOM     65  C   UNL A   1      36.406  33.568  31.167  1.00  0.00     0.023 A 
ATOM     66  C   UNL A   1      36.165  32.806  30.000  1.00  0.00     0.012 A 
ATOM     67  C   UNL A   1      35.434  34.525  31.527  1.00  0.00     0.148 A 
ATOM     68  C   UNL A   1      35.025  33.007  29.215  1.00  0.00     0.002 A 
ATOM     69  C   UNL A   1      34.268  34.671  30.781  1.00  0.00     0.091 A 
ATOM     70  F   UNL A   1      35.691  35.390  32.516  1.00  0.00    -0.205 F 
ATOM     71  C   UNL A   1      34.069  33.933  29.612  1.00  0.00     0.022 A 
BRANCH  69  72
ATOM     72  S   UNL A   1      32.987  35.823  31.289  1.00  0.00     0.127 S 
ATOM     73  O   UNL A   1      32.264  36.026  30.031  1.00  0.00    -0.237 OA
ATOM     74  O   UNL A   1      32.257  35.043  32.295  1.00  0.00    -0.237 OA
ATOM     75  O   UNL A   1      33.699  36.965  31.823  1.00  0.00    -0.744 OA
ENDBRANCH  69  72
ENDBRANCH  51  65
BRANCH  52  76
ATOM     76  C   UNL A   1      41.678  28.169  27.433  1.00  0.00     0.023 A 
ATOM     77  C   UNL A   1      41.856  28.824  26.196  1.00  0.00     0.012 A 
ATOM     78  C   UNL A   1      41.885  26.773  27.479  1.00  0.00     0.148 A 
ATOM     79  C   UNL A   1      42.282  28.124  25.061  1.00  0.00     0.002 A 
ATOM     80  C   UNL A   1      42.292  26.079  26.343  1.00  0.00     0.091 A 
ATOM     81  F   UNL A   1      41.787  26.137  28.653  1.00  0.00    -0.205 F 
ATOM     82  C   UNL A   1      42.508  26.754  25.136  1.00  0.00     0.022 A 
BRANCH  80  83
ATOM     83  S   UNL A   1      42.601  24.307  26.379  1.00  0.00     0.127 S 
ATOM     84  O   UNL A   1      41.275  23.766  26.681  1.00  0.00    -0.237 OA
ATOM     85  O   UNL A   1      43.073  24.051  25.022  1.00  0.00    -0.237 OA
ATOM     86  O   UNL A   1      43.577  24.108  27.444  1.00  0.00    -0.744 OA
ENDBRANCH  80  83
ENDBRANCH  52  76
BRANCH  64  87
ATOM     87  C   UNL A   1      40.790  29.059  33.634  1.00  0.00     0.023 A 
ATOM     88  C   UNL A   1      40.720  27.813  34.291  1.00  0.00     0.012 A 
ATOM     89  C   UNL A   1      42.021  29.735  33.576  1.00  0.00     0.148 A 
ATOM     90  C   UNL A   1      41.852  27.258  34.889  1.00  0.00     0.002 A 
ATOM     91  C   UNL A   1      43.155  29.160  34.138  1.00  0.00     0.091 A 
ATOM     92  F   UNL A   1      42.069  30.909  32.927  1.00  0.00    -0.205 F 
ATOM     93  C   UNL A   1      43.072  27.925  34.802  1.00  0.00     0.022 A 
BRANCH  91  94
ATOM     94  S   UNL A   1      44.785  29.891  33.959  1.00  0.00     0.127 S 
ATOM     95  O   UNL A   1      45.641  28.890  34.594  1.00  0.00    -0.237 OA
ATOM     96  O   UNL A   1      44.924  29.981  32.505  1.00  0.00    -0.237 OA
ATOM     97  O   UNL A   1      44.730  31.181  34.637  1.00  0.00    -0.744 OA
ENDBRANCH  91  94
ENDBRANCH  64  87
ENDBRANCH  38  39
ENDBRANCH  30  33
ENDBRANCH  28  29
ENDBRANCH  27  28
ENDBRANCH  26  27
ENDBRANCH   1  26
TORSDOF 20
ENDMDL
