MODEL 1
REMARK VINA RESULT:     -11.7      0.000      0.000
REMARK SMILES COc1ccc2c(c1)[C@H]([NH2+][C@H]1CCC[C@H](C(=O)NCCCCCCNC(=O)c3ccc(-c4c5nc(c(-c6cccc(S(=O)(=O)[O-])c6F)c6ccc([nH]6)c(-c6cccc(S(=O)(=O)[O-])c6F)c6nc(c(-c7cccc(S(=O)(=O)[O-])c7F)c7ccc4[nH]7)C=C6)C=C5)cc3)C1)CC2
REMARK SMILES IDX 21 1 20 2 19 3 18 4 16 5 17 6 15 8 11 9 12 10 91 11 13 12
REMARK SMILES IDX 14 13 10 14 9 17 3 18 4 19 8 20 5 21 7 22 6 23 93 24 92 25
REMARK SMILES IDX 2 26 1 27 22 28 23 29 24 30 25 31 26 32 27 34 28 35 29 36
REMARK SMILES IDX 90 37 30 38 89 39 31 40 32 41 33 42 83 43 34 44 88 45 82 46
REMARK SMILES IDX 84 47 35 48 87 49 81 50 80 51 36 53 68 54 48 55 67 56 49 57
REMARK SMILES IDX 52 58 66 59 85 60 50 61 51 62 65 64 86 65 53 66 37 67 38 68
REMARK SMILES IDX 46 69 39 70 41 71 47 72 40 73 42 74 43 75 44 76 45 77 69 78
REMARK SMILES IDX 70 79 78 80 71 81 73 82 79 83 72 84 74 85 75 86 76 87 77 88
REMARK SMILES IDX 54 89 55 90 63 91 56 92 58 93 64 94 57 95 59 96 60 97 61 98
REMARK SMILES IDX 62 99
REMARK H PARENT 18 7 10 15 10 16 25 33 84 52 52 63
REMARK Flexibility Score: inf
ROOT
ATOM      1  C   UNL A   1      31.012  28.566  24.122  1.00  0.00     0.002 C 
ENDROOT
BRANCH   1   2
ATOM      2  C   UNL A   1      30.070  27.864  23.140  1.00  0.00     0.021 C 
BRANCH   2   3
ATOM      3  C   UNL A   1      30.472  26.432  22.776  1.00  0.00     0.116 C 
BRANCH   3   4
ATOM      4  N   UNL A   1      31.487  26.366  21.737  1.00  0.00    -0.356 N 
ATOM      5  C   UNL A   1      32.659  25.672  21.670  1.00  0.00     0.223 C 
ATOM      6  O   UNL A   1      33.320  25.761  20.632  1.00  0.00    -0.275 OA
ATOM      7  H   UNL A   1      31.296  26.917  20.945  1.00  0.00     0.163 HD
BRANCH   5   8
ATOM      8  C   UNL A   1      33.206  24.890  22.869  1.00  0.00     0.084 C 
ATOM      9  C   UNL A   1      32.049  23.644  24.964  1.00  0.00     0.183 C 
ATOM     10  C   UNL A   1      32.537  24.917  25.649  1.00  0.00     0.065 C 
ATOM     11  C   UNL A   1      32.233  23.800  23.418  1.00  0.00     0.078 C 
ATOM     12  C   UNL A   1      33.903  25.389  25.225  1.00  0.00     0.007 C 
ATOM     13  C   UNL A   1      33.794  25.922  23.833  1.00  0.00     0.014 C 
BRANCH   9  14
ATOM     14  N   UNL A   1      32.727  22.449  25.529  1.00  0.00    -0.338 N 
ATOM     15  H   UNL A   1      33.466  22.789  26.144  1.00  0.00     0.347 HD
ATOM     16  H   UNL A   1      31.970  21.927  25.970  1.00  0.00     0.347 HD
BRANCH  14  17
ATOM     17  C   UNL A   1      33.352  21.457  24.597  1.00  0.00     0.214 C 
ATOM     18  C   UNL A   1      37.080  22.179  24.569  1.00  0.00     0.119 A 
ATOM     19  C   UNL A   1      37.534  20.919  24.960  1.00  0.00     0.047 A 
ATOM     20  C   UNL A   1      35.784  22.340  24.090  1.00  0.00     0.056 A 
ATOM     21  C   UNL A   1      36.668  19.827  24.915  1.00  0.00     0.008 A 
ATOM     22  C   UNL A   1      34.857  21.369  24.429  1.00  0.00     0.016 A 
ATOM     23  C   UNL A   1      35.320  20.080  24.702  1.00  0.00    -0.038 A 
ATOM     24  C   UNL A   1      34.187  19.111  24.710  1.00  0.00     0.042 C 
ATOM     25  C   UNL A   1      33.029  20.027  25.122  1.00  0.00     0.075 C 
BRANCH  18  26
ATOM     26  O   UNL A   1      37.760  23.260  25.077  1.00  0.00    -0.497 OA
ATOM     27  C   UNL A   1      37.156  23.902  26.185  1.00  0.00     0.278 C 
ENDBRANCH  18  26
ENDBRANCH  14  17
ENDBRANCH   9  14
ENDBRANCH   5   8
ENDBRANCH   3   4
ENDBRANCH   2   3
ENDBRANCH   1   2
BRANCH   1  28
ATOM     28  C   UNL A   1      31.080  27.932  25.513  1.00  0.00     0.002 C 
BRANCH  28  29
ATOM     29  C   UNL A   1      32.061  28.599  26.479  1.00  0.00     0.021 C 
BRANCH  29  30
ATOM     30  C   UNL A   1      33.024  29.587  25.827  1.00  0.00     0.116 C 
BRANCH  30  31
ATOM     31  N   UNL A   1      32.753  30.960  26.232  1.00  0.00    -0.352 N 
ATOM     32  C   UNL A   1      33.362  31.712  27.202  1.00  0.00     0.251 C 
ATOM     33  H   UNL A   1      32.030  31.411  25.739  1.00  0.00     0.163 HD
ATOM     34  O   UNL A   1      32.862  32.781  27.557  1.00  0.00    -0.269 OA
BRANCH  32  35
ATOM     35  C   UNL A   1      34.610  31.234  27.829  1.00  0.00     0.039 A 
ATOM     36  C   UNL A   1      35.694  32.106  27.941  1.00  0.00     0.014 A 
ATOM     37  C   UNL A   1      34.709  29.923  28.307  1.00  0.00     0.014 A 
ATOM     38  C   UNL A   1      36.859  31.681  28.581  1.00  0.00     0.010 A 
ATOM     39  C   UNL A   1      35.841  29.527  29.013  1.00  0.00     0.010 A 
ATOM     40  C   UNL A   1      36.931  30.399  29.152  1.00  0.00    -0.014 A 
BRANCH  40  41
ATOM     41  C   UNL A   1      38.136  29.956  29.900  1.00  0.00     0.031 A 
ATOM     42  C   UNL A   1      38.436  30.523  31.262  1.00  0.00     0.074 A 
ATOM     43  C   UNL A   1      38.999  29.097  29.321  1.00  0.00     0.049 A 
ATOM     44  N   UNL A   1      39.468  30.309  32.034  1.00  0.00    -0.248 NA
ATOM     45  C   UNL A   1      37.458  31.473  31.820  1.00  0.00     0.031 C 
ATOM     46  C   UNL A   1      38.860  28.535  27.975  1.00  0.00     0.029 A 
ATOM     47  N   UNL A   1      40.180  28.567  29.779  1.00  0.00    -0.354 N 
ATOM     48  C   UNL A   1      39.277  31.108  33.155  1.00  0.00     0.074 A 
ATOM     49  C   UNL A   1      38.054  31.848  32.943  1.00  0.00     0.031 C 
ATOM     50  C   UNL A   1      39.914  27.746  27.715  1.00  0.00     0.029 A 
ATOM     51  C   UNL A   1      40.821  27.770  28.858  1.00  0.00     0.049 A 
ATOM     52  H   UNL A   1      40.535  28.743  30.680  1.00  0.00     0.167 HD
ATOM     53  C   UNL A   1      40.031  31.193  34.277  1.00  0.00     0.034 A 
ATOM     54  C   UNL A   1      42.012  27.145  28.921  1.00  0.00     0.034 A 
ATOM     55  C   UNL A   1      41.235  30.436  34.498  1.00  0.00     0.049 A 
ATOM     56  C   UNL A   1      42.825  27.247  30.184  1.00  0.00     0.074 A 
ATOM     57  C   UNL A   1      42.041  30.412  35.622  1.00  0.00     0.029 A 
ATOM     58  N   UNL A   1      41.808  29.573  33.576  1.00  0.00    -0.354 N 
ATOM     59  N   UNL A   1      42.557  27.902  31.287  1.00  0.00    -0.248 NA
ATOM     60  C   UNL A   1      44.087  26.492  30.227  1.00  0.00     0.031 C 
ATOM     61  C   UNL A   1      43.115  29.552  35.370  1.00  0.00     0.029 A 
ATOM     62  C   UNL A   1      42.958  29.013  34.105  1.00  0.00     0.049 A 
ATOM     63  H   UNL A   1      41.449  29.387  32.678  1.00  0.00     0.167 HD
ATOM     64  C   UNL A   1      43.592  27.607  32.167  1.00  0.00     0.074 A 
ATOM     65  C   UNL A   1      44.480  26.696  31.476  1.00  0.00     0.031 C 
ATOM     66  C   UNL A   1      43.800  28.062  33.427  1.00  0.00     0.034 A 
BRANCH  53  67
ATOM     67  C   UNL A   1      39.543  32.091  35.385  1.00  0.00     0.023 A 
ATOM     68  C   UNL A   1      38.666  31.572  36.359  1.00  0.00     0.012 A 
ATOM     69  C   UNL A   1      40.002  33.417  35.505  1.00  0.00     0.148 A 
ATOM     70  C   UNL A   1      38.227  32.366  37.418  1.00  0.00     0.002 A 
ATOM     71  C   UNL A   1      39.597  34.188  36.590  1.00  0.00     0.091 A 
ATOM     72  F   UNL A   1      40.822  33.898  34.562  1.00  0.00    -0.205 F 
ATOM     73  C   UNL A   1      38.701  33.668  37.538  1.00  0.00     0.022 A 
BRANCH  71  74
ATOM     74  S   UNL A   1      40.208  35.851  36.884  1.00  0.00     0.127 S 
ATOM     75  O   UNL A   1      39.689  36.567  35.719  1.00  0.00    -0.237 OA
ATOM     76  O   UNL A   1      39.561  36.195  38.150  1.00  0.00    -0.237 OA
ATOM     77  O   UNL A   1      41.659  35.744  36.948  1.00  0.00    -0.744 OA
ENDBRANCH  71  74
ENDBRANCH  53  67
BRANCH  54  78
ATOM     78  C   UNL A   1      42.502  26.340  27.765  1.00  0.00     0.023 A 
ATOM     79  C   UNL A   1      43.362  26.928  26.817  1.00  0.00     0.012 A 
ATOM     80  C   UNL A   1      42.115  24.996  27.599  1.00  0.00     0.148 A 
ATOM     81  C   UNL A   1      43.787  26.209  25.699  1.00  0.00     0.002 A 
ATOM     82  C   UNL A   1      42.589  24.267  26.515  1.00  0.00     0.091 A 
ATOM     83  F   UNL A   1      41.288  24.457  28.505  1.00  0.00    -0.205 F 
ATOM     84  C   UNL A   1      43.407  24.877  25.552  1.00  0.00     0.022 A 
BRANCH  82  85
ATOM     85  S   UNL A   1      42.256  22.513  26.321  1.00  0.00     0.127 S 
ATOM     86  O   UNL A   1      42.835  21.962  27.544  1.00  0.00    -0.237 OA
ATOM     87  O   UNL A   1      40.794  22.486  26.264  1.00  0.00    -0.237 OA
ATOM     88  O   UNL A   1      42.911  22.126  25.079  1.00  0.00    -0.744 OA
ENDBRANCH  82  85
ENDBRANCH  54  78
BRANCH  66  89
ATOM     89  C   UNL A   1      45.004  27.542  34.169  1.00  0.00     0.023 A 
ATOM     90  C   UNL A   1      46.203  28.282  34.174  1.00  0.00     0.012 A 
ATOM     91  C   UNL A   1      44.922  26.351  34.917  1.00  0.00     0.148 A 
ATOM     92  C   UNL A   1      47.314  27.824  34.882  1.00  0.00     0.002 A 
ATOM     93  C   UNL A   1      46.015  25.929  35.662  1.00  0.00     0.091 A 
ATOM     94  F   UNL A   1      43.776  25.654  34.885  1.00  0.00    -0.205 F 
ATOM     95  C   UNL A   1      47.217  26.656  35.634  1.00  0.00     0.022 A 
BRANCH  93  96
ATOM     96  S   UNL A   1      45.952  24.493  36.739  1.00  0.00     0.127 S 
ATOM     97  O   UNL A   1      45.805  23.404  35.773  1.00  0.00    -0.237 OA
ATOM     98  O   UNL A   1      47.255  24.548  37.401  1.00  0.00    -0.237 OA
ATOM     99  O   UNL A   1      44.814  24.700  37.623  1.00  0.00    -0.744 OA
ENDBRANCH  93  96
ENDBRANCH  66  89
ENDBRANCH  40  41
ENDBRANCH  32  35
ENDBRANCH  30  31
ENDBRANCH  29  30
ENDBRANCH  28  29
ENDBRANCH   1  28
TORSDOF 19
ENDMDL
MODEL 2
REMARK VINA RESULT:     -11.3      1.721      2.291
REMARK SMILES COc1ccc2c(c1)[C@H]([NH2+][C@H]1CCC[C@H](C(=O)NCCCCCCNC(=O)c3ccc(-c4c5nc(c(-c6cccc(S(=O)(=O)[O-])c6F)c6ccc([nH]6)c(-c6cccc(S(=O)(=O)[O-])c6F)c6nc(c(-c7cccc(S(=O)(=O)[O-])c7F)c7ccc4[nH]7)C=C6)C=C5)cc3)C1)CC2
REMARK SMILES IDX 21 1 20 2 19 3 18 4 16 5 17 6 15 8 11 9 12 10 91 11 13 12
REMARK SMILES IDX 14 13 10 14 9 17 3 18 4 19 8 20 5 21 7 22 6 23 93 24 92 25
REMARK SMILES IDX 2 26 1 27 22 28 23 29 24 30 25 31 26 32 27 34 28 35 29 36
REMARK SMILES IDX 90 37 30 38 89 39 31 40 32 41 33 42 83 43 34 44 88 45 82 46
REMARK SMILES IDX 84 47 35 48 87 49 81 50 80 51 36 53 68 54 48 55 67 56 49 57
REMARK SMILES IDX 52 58 66 59 85 60 50 61 51 62 65 64 86 65 53 66 37 67 38 68
REMARK SMILES IDX 46 69 39 70 41 71 47 72 40 73 42 74 43 75 44 76 45 77 69 78
REMARK SMILES IDX 70 79 78 80 71 81 73 82 79 83 72 84 74 85 75 86 76 87 77 88
REMARK SMILES IDX 54 89 55 90 63 91 56 92 58 93 64 94 57 95 59 96 60 97 61 98
REMARK SMILES IDX 62 99
REMARK H PARENT 18 7 10 15 10 16 25 33 84 52 52 63
REMARK Flexibility Score: inf
ROOT
ATOM      1  C   UNL A   1      31.490  28.103  25.211  1.00  0.00     0.002 C 
ENDROOT
BRANCH   1   2
ATOM      2  C   UNL A   1      30.404  27.537  24.293  1.00  0.00     0.021 C 
BRANCH   2   3
ATOM      3  C   UNL A   1      30.745  26.192  23.647  1.00  0.00     0.116 C 
BRANCH   3   4
ATOM      4  N   UNL A   1      31.899  26.252  22.765  1.00  0.00    -0.356 N 
ATOM      5  C   UNL A   1      33.014  25.469  22.692  1.00  0.00     0.223 C 
ATOM      6  O   UNL A   1      33.831  25.718  21.801  1.00  0.00    -0.275 OA
ATOM      7  H   UNL A   1      31.873  26.984  22.109  1.00  0.00     0.163 HD
BRANCH   5   8
ATOM      8  C   UNL A   1      33.311  24.385  23.732  1.00  0.00     0.084 C 
ATOM      9  C   UNL A   1      31.767  22.932  25.402  1.00  0.00     0.183 C 
ATOM     10  C   UNL A   1      32.339  23.949  26.387  1.00  0.00     0.065 C 
ATOM     11  C   UNL A   1      32.146  23.370  23.948  1.00  0.00     0.078 C 
ATOM     12  C   UNL A   1      33.796  24.280  26.190  1.00  0.00     0.007 C 
ATOM     13  C   UNL A   1      33.918  25.096  24.944  1.00  0.00     0.014 C 
BRANCH   9  14
ATOM     14  N   UNL A   1      32.210  21.558  25.748  1.00  0.00    -0.338 N 
ATOM     15  H   UNL A   1      32.883  21.644  26.508  1.00  0.00     0.347 HD
ATOM     16  H   UNL A   1      31.341  21.068  25.960  1.00  0.00     0.347 HD
BRANCH  14  17
ATOM     17  C   UNL A   1      32.849  20.710  24.690  1.00  0.00     0.214 C 
ATOM     18  C   UNL A   1      36.592  21.312  24.916  1.00  0.00     0.119 A 
ATOM     19  C   UNL A   1      36.997  19.992  25.113  1.00  0.00     0.047 A 
ATOM     20  C   UNL A   1      35.320  21.588  24.423  1.00  0.00     0.056 A 
ATOM     21  C   UNL A   1      36.108  18.949  24.859  1.00  0.00     0.008 A 
ATOM     22  C   UNL A   1      34.357  20.605  24.565  1.00  0.00     0.016 A 
ATOM     23  C   UNL A   1      34.777  19.274  24.641  1.00  0.00    -0.038 A 
ATOM     24  C   UNL A   1      33.621  18.352  24.449  1.00  0.00     0.042 C 
ATOM     25  C   UNL A   1      32.470  19.225  24.962  1.00  0.00     0.075 C 
BRANCH  18  26
ATOM     26  O   UNL A   1      37.276  22.274  25.618  1.00  0.00    -0.497 OA
ATOM     27  C   UNL A   1      37.295  23.565  25.036  1.00  0.00     0.278 C 
ENDBRANCH  18  26
ENDBRANCH  14  17
ENDBRANCH   9  14
ENDBRANCH   5   8
ENDBRANCH   3   4
ENDBRANCH   2   3
ENDBRANCH   1   2
BRANCH   1  28
ATOM     28  C   UNL A   1      31.656  27.366  26.542  1.00  0.00     0.002 C 
BRANCH  28  29
ATOM     29  C   UNL A   1      32.760  27.912  27.449  1.00  0.00     0.021 C 
BRANCH  29  30
ATOM     30  C   UNL A   1      33.872  28.660  26.719  1.00  0.00     0.116 C 
BRANCH  30  31
ATOM     31  N   UNL A   1      33.746  30.104  26.868  1.00  0.00    -0.352 N 
ATOM     32  C   UNL A   1      34.502  30.965  27.619  1.00  0.00     0.251 C 
ATOM     33  H   UNL A   1      33.015  30.519  26.356  1.00  0.00     0.163 HD
ATOM     34  O   UNL A   1      34.121  32.124  27.796  1.00  0.00    -0.269 OA
BRANCH  32  35
ATOM     35  C   UNL A   1      35.765  30.500  28.225  1.00  0.00     0.039 A 
ATOM     36  C   UNL A   1      35.723  29.793  29.429  1.00  0.00     0.014 A 
ATOM     37  C   UNL A   1      36.991  30.763  27.605  1.00  0.00     0.014 A 
ATOM     38  C   UNL A   1      36.907  29.302  29.982  1.00  0.00     0.010 A 
ATOM     39  C   UNL A   1      38.159  30.207  28.117  1.00  0.00     0.010 A 
ATOM     40  C   UNL A   1      38.131  29.477  29.315  1.00  0.00    -0.014 A 
BRANCH  40  41
ATOM     41  C   UNL A   1      39.390  28.899  29.853  1.00  0.00     0.031 A 
ATOM     42  C   UNL A   1      40.053  29.511  31.058  1.00  0.00     0.074 A 
ATOM     43  C   UNL A   1      39.975  27.867  29.211  1.00  0.00     0.049 A 
ATOM     44  N   UNL A   1      41.183  29.190  31.629  1.00  0.00    -0.248 NA
ATOM     45  C   UNL A   1      39.366  30.650  31.692  1.00  0.00     0.031 C 
ATOM     46  C   UNL A   1      39.472  27.235  27.989  1.00  0.00     0.029 A 
ATOM     47  N   UNL A   1      41.137  27.186  29.481  1.00  0.00    -0.354 N 
ATOM     48  C   UNL A   1      41.354  30.093  32.672  1.00  0.00     0.074 A 
ATOM     49  C   UNL A   1      40.235  31.006  32.626  1.00  0.00     0.031 C 
ATOM     50  C   UNL A   1      40.320  26.265  27.613  1.00  0.00     0.029 A 
ATOM     51  C   UNL A   1      41.443  26.226  28.544  1.00  0.00     0.049 A 
ATOM     52  H   UNL A   1      41.697  27.369  30.269  1.00  0.00     0.167 HD
ATOM     53  C   UNL A   1      42.334  30.137  33.606  1.00  0.00     0.034 A 
ATOM     54  C   UNL A   1      42.517  25.419  28.437  1.00  0.00     0.034 A 
ATOM     55  C   UNL A   1      43.433  29.211  33.664  1.00  0.00     0.049 A 
ATOM     56  C   UNL A   1      43.585  25.481  29.495  1.00  0.00     0.074 A 
ATOM     57  C   UNL A   1      44.448  29.139  34.602  1.00  0.00     0.029 A 
ATOM     58  N   UNL A   1      43.665  28.197  32.747  1.00  0.00    -0.354 N 
ATOM     59  N   UNL A   1      43.657  26.254  30.552  1.00  0.00    -0.248 NA
ATOM     60  C   UNL A   1      44.704  24.534  29.369  1.00  0.00     0.031 C 
ATOM     61  C   UNL A   1      45.307  28.097  34.238  1.00  0.00     0.029 A 
ATOM     62  C   UNL A   1      44.807  27.496  33.095  1.00  0.00     0.049 A 
ATOM     63  H   UNL A   1      43.099  28.004  31.964  1.00  0.00     0.167 HD
ATOM     64  C   UNL A   1      44.802  25.861  31.236  1.00  0.00     0.074 A 
ATOM     65  C   UNL A   1      45.379  24.765  30.486  1.00  0.00     0.031 C 
ATOM     66  C   UNL A   1      45.337  26.370  32.372  1.00  0.00     0.034 A 
BRANCH  53  67
ATOM     67  C   UNL A   1      42.229  31.185  34.683  1.00  0.00     0.023 A 
ATOM     68  C   UNL A   1      41.588  30.866  35.897  1.00  0.00     0.012 A 
ATOM     69  C   UNL A   1      42.822  32.453  34.528  1.00  0.00     0.148 A 
ATOM     70  C   UNL A   1      41.508  31.802  36.929  1.00  0.00     0.002 A 
ATOM     71  C   UNL A   1      42.780  33.364  35.578  1.00  0.00     0.091 A 
ATOM     72  F   UNL A   1      43.414  32.745  33.362  1.00  0.00    -0.205 F 
ATOM     73  C   UNL A   1      42.113  33.044  36.773  1.00  0.00     0.022 A 
BRANCH  71  74
ATOM     74  S   UNL A   1      43.594  34.964  35.513  1.00  0.00     0.127 S 
ATOM     75  O   UNL A   1      42.813  35.651  34.484  1.00  0.00    -0.237 OA
ATOM     76  O   UNL A   1      43.391  35.466  36.872  1.00  0.00    -0.237 OA
ATOM     77  O   UNL A   1      44.981  34.697  35.160  1.00  0.00    -0.744 OA
ENDBRANCH  71  74
ENDBRANCH  53  67
BRANCH  54  78
ATOM     78  C   UNL A   1      42.626  24.458  27.302  1.00  0.00     0.023 A 
ATOM     79  C   UNL A   1      43.281  24.847  26.117  1.00  0.00     0.012 A 
ATOM     80  C   UNL A   1      42.080  23.163  27.390  1.00  0.00     0.148 A 
ATOM     81  C   UNL A   1      43.345  23.982  25.023  1.00  0.00     0.002 A 
ATOM     82  C   UNL A   1      42.199  22.286  26.320  1.00  0.00     0.091 A 
ATOM     83  F   UNL A   1      41.452  22.815  28.522  1.00  0.00    -0.205 F 
ATOM     84  C   UNL A   1      42.812  22.700  25.127  1.00  0.00     0.022 A 
BRANCH  82  85
ATOM     85  S   UNL A   1      41.659  20.576  26.417  1.00  0.00     0.127 S 
ATOM     86  O   UNL A   1      42.391  19.967  25.310  1.00  0.00    -0.237 OA
ATOM     87  O   UNL A   1      42.121  20.187  27.751  1.00  0.00    -0.237 OA
ATOM     88  O   UNL A   1      40.210  20.615  26.275  1.00  0.00    -0.744 OA
ENDBRANCH  82  85
ENDBRANCH  54  78
BRANCH  66  89
ATOM     89  C   UNL A   1      46.582  25.717  32.913  1.00  0.00     0.023 A 
ATOM     90  C   UNL A   1      47.851  26.224  32.569  1.00  0.00     0.012 A 
ATOM     91  C   UNL A   1      46.488  24.640  33.816  1.00  0.00     0.148 A 
ATOM     92  C   UNL A   1      49.009  25.644  33.087  1.00  0.00     0.002 A 
ATOM     93  C   UNL A   1      47.644  24.102  34.370  1.00  0.00     0.091 A 
ATOM     94  F   UNL A   1      45.272  24.162  34.117  1.00  0.00    -0.205 F 
ATOM     95  C   UNL A   1      48.905  24.593  33.996  1.00  0.00     0.022 A 
BRANCH  93  96
ATOM     96  S   UNL A   1      47.604  22.815  35.622  1.00  0.00     0.127 S 
ATOM     97  O   UNL A   1      46.642  23.360  36.579  1.00  0.00    -0.237 OA
ATOM     98  O   UNL A   1      47.122  21.662  34.862  1.00  0.00    -0.237 OA
ATOM     99  O   UNL A   1      48.969  22.688  36.113  1.00  0.00    -0.744 OA
ENDBRANCH  93  96
ENDBRANCH  66  89
ENDBRANCH  40  41
ENDBRANCH  32  35
ENDBRANCH  30  31
ENDBRANCH  29  30
ENDBRANCH  28  29
ENDBRANCH   1  28
TORSDOF 19
ENDMDL
MODEL 3
REMARK VINA RESULT:     -10.8      5.560     10.694
REMARK SMILES COc1ccc2c(c1)[C@H]([NH2+][C@H]1CCC[C@H](C(=O)NCCCCCCNC(=O)c3ccc(-c4c5nc(c(-c6cccc(S(=O)(=O)[O-])c6F)c6ccc([nH]6)c(-c6cccc(S(=O)(=O)[O-])c6F)c6nc(c(-c7cccc(S(=O)(=O)[O-])c7F)c7ccc4[nH]7)C=C6)C=C5)cc3)C1)CC2
REMARK SMILES IDX 21 1 20 2 19 3 18 4 16 5 17 6 15 8 11 9 12 10 91 11 13 12
REMARK SMILES IDX 14 13 10 14 9 17 3 18 4 19 8 20 5 21 7 22 6 23 93 24 92 25
REMARK SMILES IDX 2 26 1 27 22 28 23 29 24 30 25 31 26 32 27 34 28 35 29 36
REMARK SMILES IDX 90 37 30 38 89 39 31 40 32 41 33 42 83 43 34 44 88 45 82 46
REMARK SMILES IDX 84 47 35 48 87 49 81 50 80 51 36 53 68 54 48 55 67 56 49 57
REMARK SMILES IDX 52 58 66 59 85 60 50 61 51 62 65 64 86 65 53 66 37 67 38 68
REMARK SMILES IDX 46 69 39 70 41 71 47 72 40 73 42 74 43 75 44 76 45 77 69 78
REMARK SMILES IDX 70 79 78 80 71 81 73 82 79 83 72 84 74 85 75 86 76 87 77 88
REMARK SMILES IDX 54 89 55 90 63 91 56 92 58 93 64 94 57 95 59 96 60 97 61 98
REMARK SMILES IDX 62 99
REMARK H PARENT 18 7 10 15 10 16 25 33 84 52 52 63
REMARK Flexibility Score: inf
ROOT
ATOM      1  C   UNL A   1      39.448  22.957  26.880  1.00  0.00     0.002 C 
ENDROOT
BRANCH   1   2
ATOM      2  C   UNL A   1      38.187  23.765  26.563  1.00  0.00     0.021 C 
BRANCH   2   3
ATOM      3  C   UNL A   1      37.149  23.029  25.710  1.00  0.00     0.116 C 
BRANCH   3   4
ATOM      4  N   UNL A   1      36.267  22.173  26.487  1.00  0.00    -0.356 N 
ATOM      5  C   UNL A   1      34.906  22.098  26.538  1.00  0.00     0.223 C 
ATOM      6  O   UNL A   1      34.407  21.232  27.261  1.00  0.00    -0.275 OA
ATOM      7  H   UNL A   1      36.732  21.540  27.079  1.00  0.00     0.163 HD
BRANCH   5   8
ATOM      8  C   UNL A   1      34.013  23.109  25.814  1.00  0.00     0.084 C 
ATOM      9  C   UNL A   1      31.449  23.891  26.129  1.00  0.00     0.183 C 
ATOM     10  C   UNL A   1      31.301  22.982  24.912  1.00  0.00     0.065 C 
ATOM     11  C   UNL A   1      32.894  23.729  26.708  1.00  0.00     0.078 C 
ATOM     12  C   UNL A   1      32.403  23.095  23.891  1.00  0.00     0.007 C 
ATOM     13  C   UNL A   1      33.635  22.478  24.472  1.00  0.00     0.014 C 
BRANCH   9  14
ATOM     14  N   UNL A   1      31.097  25.292  25.785  1.00  0.00    -0.338 N 
ATOM     15  H   UNL A   1      30.816  25.297  24.805  1.00  0.00     0.347 HD
ATOM     16  H   UNL A   1      30.379  25.536  26.467  1.00  0.00     0.347 HD
BRANCH  14  17
ATOM     17  C   UNL A   1      32.129  26.365  25.952  1.00  0.00     0.214 C 
ATOM     18  C   UNL A   1      33.758  26.853  22.556  1.00  0.00     0.119 A 
ATOM     19  C   UNL A   1      33.500  28.216  22.402  1.00  0.00     0.047 A 
ATOM     20  C   UNL A   1      33.665  26.260  23.811  1.00  0.00     0.056 A 
ATOM     21  C   UNL A   1      33.101  28.974  23.502  1.00  0.00     0.008 A 
ATOM     22  C   UNL A   1      32.901  26.911  24.765  1.00  0.00     0.016 A 
ATOM     23  C   UNL A   1      32.751  28.296  24.661  1.00  0.00    -0.038 A 
ATOM     24  C   UNL A   1      32.202  28.857  25.928  1.00  0.00     0.042 C 
ATOM     25  C   UNL A   1      31.415  27.653  26.457  1.00  0.00     0.075 C 
BRANCH  18  26
ATOM     26  O   UNL A   1      33.659  26.079  21.425  1.00  0.00    -0.497 OA
ATOM     27  C   UNL A   1      32.355  25.644  21.089  1.00  0.00     0.278 C 
ENDBRANCH  18  26
ENDBRANCH  14  17
ENDBRANCH   9  14
ENDBRANCH   5   8
ENDBRANCH   3   4
ENDBRANCH   2   3
ENDBRANCH   1   2
BRANCH   1  28
ATOM     28  C   UNL A   1      39.875  21.975  25.786  1.00  0.00     0.002 C 
BRANCH  28  29
ATOM     29  C   UNL A   1      39.663  20.499  26.126  1.00  0.00     0.021 C 
BRANCH  29  30
ATOM     30  C   UNL A   1      40.773  19.873  26.965  1.00  0.00     0.116 C 
BRANCH  30  31
ATOM     31  N   UNL A   1      41.787  19.233  26.138  1.00  0.00    -0.352 N 
ATOM     32  C   UNL A   1      42.877  19.789  25.523  1.00  0.00     0.251 C 
ATOM     33  H   UNL A   1      41.672  18.264  26.003  1.00  0.00     0.163 HD
ATOM     34  O   UNL A   1      43.508  19.140  24.685  1.00  0.00    -0.269 OA
BRANCH  32  35
ATOM     35  C   UNL A   1      43.287  21.167  25.854  1.00  0.00     0.039 A 
ATOM     36  C   UNL A   1      43.394  22.111  24.830  1.00  0.00     0.014 A 
ATOM     37  C   UNL A   1      43.568  21.528  27.176  1.00  0.00     0.014 A 
ATOM     38  C   UNL A   1      43.728  23.430  25.140  1.00  0.00     0.010 A 
ATOM     39  C   UNL A   1      43.824  22.859  27.491  1.00  0.00     0.010 A 
ATOM     40  C   UNL A   1      43.914  23.823  26.476  1.00  0.00    -0.014 A 
BRANCH  40  41
ATOM     41  C   UNL A   1      44.200  25.238  26.830  1.00  0.00     0.031 A 
ATOM     42  C   UNL A   1      45.603  25.775  26.742  1.00  0.00     0.074 A 
ATOM     43  C   UNL A   1      43.206  26.019  27.301  1.00  0.00     0.049 A 
ATOM     44  N   UNL A   1      46.056  26.956  27.071  1.00  0.00    -0.248 NA
ATOM     45  C   UNL A   1      46.640  24.856  26.241  1.00  0.00     0.031 C 
ATOM     46  C   UNL A   1      41.819  25.593  27.505  1.00  0.00     0.029 A 
ATOM     47  N   UNL A   1      43.215  27.326  27.720  1.00  0.00    -0.354 N 
ATOM     48  C   UNL A   1      47.425  26.918  26.836  1.00  0.00     0.074 A 
ATOM     49  C   UNL A   1      47.739  25.582  26.383  1.00  0.00     0.031 C 
ATOM     50  C   UNL A   1      41.114  26.616  28.013  1.00  0.00     0.029 A 
ATOM     51  C   UNL A   1      42.002  27.758  28.204  1.00  0.00     0.049 A 
ATOM     52  H   UNL A   1      44.015  27.899  27.679  1.00  0.00     0.167 HD
ATOM     53  C   UNL A   1      48.335  27.915  26.952  1.00  0.00     0.034 A 
ATOM     54  C   UNL A   1      41.649  28.935  28.756  1.00  0.00     0.034 A 
ATOM     55  C   UNL A   1      48.016  29.251  27.379  1.00  0.00     0.049 A 
ATOM     56  C   UNL A   1      42.677  30.029  28.862  1.00  0.00     0.074 A 
ATOM     57  C   UNL A   1      48.857  30.345  27.479  1.00  0.00     0.029 A 
ATOM     58  N   UNL A   1      46.759  29.676  27.780  1.00  0.00    -0.354 N 
ATOM     59  N   UNL A   1      43.939  30.014  28.507  1.00  0.00    -0.248 NA
ATOM     60  C   UNL A   1      42.226  31.317  29.412  1.00  0.00     0.031 C 
ATOM     61  C   UNL A   1      48.112  31.426  27.964  1.00  0.00     0.029 A 
ATOM     62  C   UNL A   1      46.801  31.014  28.130  1.00  0.00     0.049 A 
ATOM     63  H   UNL A   1      45.954  29.108  27.811  1.00  0.00     0.167 HD
ATOM     64  C   UNL A   1      44.420  31.296  28.750  1.00  0.00     0.074 A 
ATOM     65  C   UNL A   1      43.307  32.068  29.261  1.00  0.00     0.031 C 
ATOM     66  C   UNL A   1      45.672  31.785  28.582  1.00  0.00     0.034 A 
BRANCH  53  67
ATOM     67  C   UNL A   1      49.757  27.617  26.551  1.00  0.00     0.023 A 
ATOM     68  C   UNL A   1      50.659  27.127  27.519  1.00  0.00     0.012 A 
ATOM     69  C   UNL A   1      50.183  27.751  25.216  1.00  0.00     0.148 A 
ATOM     70  C   UNL A   1      51.971  26.806  27.171  1.00  0.00     0.002 A 
ATOM     71  C   UNL A   1      51.479  27.384  24.868  1.00  0.00     0.091 A 
ATOM     72  F   UNL A   1      49.318  28.233  24.314  1.00  0.00    -0.205 F 
ATOM     73  C   UNL A   1      52.376  26.924  25.846  1.00  0.00     0.022 A 
BRANCH  71  74
ATOM     74  S   UNL A   1      52.080  27.423  23.176  1.00  0.00     0.127 S 
ATOM     75  O   UNL A   1      51.028  26.688  22.472  1.00  0.00    -0.237 OA
ATOM     76  O   UNL A   1      52.115  28.858  22.896  1.00  0.00    -0.237 OA
ATOM     77  O   UNL A   1      53.382  26.771  23.194  1.00  0.00    -0.744 OA
ENDBRANCH  71  74
ENDBRANCH  53  67
BRANCH  54  78
ATOM     78  C   UNL A   1      40.251  29.158  29.226  1.00  0.00     0.023 A 
ATOM     79  C   UNL A   1      39.262  29.565  28.310  1.00  0.00     0.012 A 
ATOM     80  C   UNL A   1      39.900  28.974  30.577  1.00  0.00     0.148 A 
ATOM     81  C   UNL A   1      37.961  29.833  28.740  1.00  0.00     0.002 A 
ATOM     82  C   UNL A   1      38.590  29.184  30.988  1.00  0.00     0.091 A 
ATOM     83  F   UNL A   1      40.857  28.596  31.436  1.00  0.00    -0.205 F 
ATOM     84  C   UNL A   1      37.623  29.635  30.077  1.00  0.00     0.022 A 
BRANCH  82  85
ATOM     85  S   UNL A   1      38.041  28.826  32.660  1.00  0.00     0.127 S 
ATOM     86  O   UNL A   1      36.669  29.325  32.638  1.00  0.00    -0.237 OA
ATOM     87  O   UNL A   1      38.167  27.369  32.715  1.00  0.00    -0.237 OA
ATOM     88  O   UNL A   1      38.961  29.539  33.535  1.00  0.00    -0.744 OA
ENDBRANCH  82  85
ENDBRANCH  54  78
BRANCH  66  89
ATOM     89  C   UNL A   1      45.903  33.240  28.899  1.00  0.00     0.023 A 
ATOM     90  C   UNL A   1      46.331  33.622  30.185  1.00  0.00     0.012 A 
ATOM     91  C   UNL A   1      45.758  34.220  27.898  1.00  0.00     0.148 A 
ATOM     92  C   UNL A   1      46.576  34.963  30.481  1.00  0.00     0.002 A 
ATOM     93  C   UNL A   1      46.055  35.547  28.184  1.00  0.00     0.091 A 
ATOM     94  F   UNL A   1      45.333  33.837  26.684  1.00  0.00    -0.205 F 
ATOM     95  C   UNL A   1      46.449  35.923  29.478  1.00  0.00     0.022 A 
BRANCH  93  96
ATOM     96  S   UNL A   1      46.016  36.836  26.933  1.00  0.00     0.127 S 
ATOM     97  O   UNL A   1      46.540  36.131  25.764  1.00  0.00    -0.237 OA
ATOM     98  O   UNL A   1      44.590  37.155  26.865  1.00  0.00    -0.237 OA
ATOM     99  O   UNL A   1      46.855  37.914  27.439  1.00  0.00    -0.744 OA
ENDBRANCH  93  96
ENDBRANCH  66  89
ENDBRANCH  40  41
ENDBRANCH  32  35
ENDBRANCH  30  31
ENDBRANCH  29  30
ENDBRANCH  28  29
ENDBRANCH   1  28
TORSDOF 19
ENDMDL
