MODEL 1
REMARK VINA RESULT:     -12.7      0.000      0.000
REMARK SMILES O=C(NCCCCCCNC(=O)[C@@H]1[C@@H](C(=O)Nc2nc(-c3ccc(F)cc3)cs2)[C@H]2C=C[C@@H]1O2)c1ccc(-c2c3nc(c(-c4cccc(S(=O)(=O)[O-])c4F)c4ccc([nH]4)c(-c4cccc(S(=O)(=O)[O-])c4F)c4nc(c(-c5cccc(S(=O)(=O)[O-])c5F)c5ccc2[nH]5)C=C4)C=C3)cc1
REMARK SMILES IDX 6 1 5 2 4 3 3 4 1 5 2 6 35 8 36 9 97 10 37 11 96 12 38 13
REMARK SMILES IDX 39 14 40 15 90 16 41 17 95 18 89 19 91 20 42 21 94 22 88 23
REMARK SMILES IDX 87 24 43 26 75 27 55 28 74 29 56 30 59 31 73 32 92 33 57 34
REMARK SMILES IDX 58 35 72 37 93 38 60 39 44 40 45 41 53 42 46 43 48 44 54 45
REMARK SMILES IDX 47 46 49 47 50 48 51 49 52 50 76 51 77 52 85 53 78 54 80 55
REMARK SMILES IDX 86 56 79 57 81 58 82 59 83 60 84 61 61 62 62 63 70 64 63 65
REMARK SMILES IDX 65 66 71 67 64 68 66 69 67 70 68 71 69 72 7 73 8 74 9 75
REMARK SMILES IDX 10 76 11 77 12 79 13 80 14 81 33 82 30 83 32 84 34 85 31 86
REMARK SMILES IDX 15 87 16 88 17 89 18 91 19 92 29 93 20 94 28 95 21 96 22 97
REMARK SMILES IDX 27 98 23 99 26 100 24 101 25 102
REMARK H PARENT 3 7 91 25 59 36 10 78 17 90
REMARK Flexibility Score: inf
ROOT
ATOM      1  C   UNL A   1      36.889  20.600  24.768  1.00  0.00     0.002 C 
ENDROOT
BRANCH   1   2
ATOM      2  C   UNL A   1      38.116  19.712  24.976  1.00  0.00     0.021 C 
BRANCH   2   3
ATOM      3  C   UNL A   1      39.029  20.171  26.104  1.00  0.00     0.116 C 
BRANCH   3   4
ATOM      4  N   UNL A   1      40.228  19.355  26.189  1.00  0.00    -0.352 N 
ATOM      5  O   UNL A   1      42.445  18.959  26.110  1.00  0.00    -0.269 OA
ATOM      6  C   UNL A   1      41.534  19.763  26.286  1.00  0.00     0.251 C 
ATOM      7  H   UNL A   1      40.084  18.381  26.176  1.00  0.00     0.163 HD
BRANCH   6   8
ATOM      8  C   UNL A   1      41.825  21.179  26.590  1.00  0.00     0.039 A 
ATOM      9  C   UNL A   1      42.358  21.536  27.833  1.00  0.00     0.014 A 
ATOM     10  C   UNL A   1      41.580  22.152  25.619  1.00  0.00     0.014 A 
ATOM     11  C   UNL A   1      42.550  22.877  28.142  1.00  0.00     0.010 A 
ATOM     12  C   UNL A   1      41.850  23.492  25.903  1.00  0.00     0.010 A 
ATOM     13  C   UNL A   1      42.329  23.864  27.169  1.00  0.00    -0.014 A 
BRANCH  13  14
ATOM     14  C   UNL A   1      42.740  25.261  27.442  1.00  0.00     0.031 A 
ATOM     15  C   UNL A   1      44.094  25.773  27.051  1.00  0.00     0.074 A 
ATOM     16  C   UNL A   1      41.863  26.061  28.079  1.00  0.00     0.049 A 
ATOM     17  N   UNL A   1      44.609  26.958  27.249  1.00  0.00    -0.248 NA
ATOM     18  C   UNL A   1      44.988  24.838  26.351  1.00  0.00     0.031 C 
ATOM     19  C   UNL A   1      40.527  25.654  28.522  1.00  0.00     0.029 A 
ATOM     20  N   UNL A   1      41.956  27.372  28.466  1.00  0.00    -0.354 N 
ATOM     21  C   UNL A   1      45.894  26.910  26.725  1.00  0.00     0.074 A 
ATOM     22  C   UNL A   1      46.087  25.570  26.210  1.00  0.00     0.031 C 
ATOM     23  C   UNL A   1      39.915  26.700  29.094  1.00  0.00     0.029 A 
ATOM     24  C   UNL A   1      40.835  27.830  29.116  1.00  0.00     0.049 A 
ATOM     25  H   UNL A   1      42.749  27.931  28.297  1.00  0.00     0.167 HD
ATOM     26  C   UNL A   1      46.819  27.899  26.667  1.00  0.00     0.034 A 
ATOM     27  C   UNL A   1      40.577  29.021  29.686  1.00  0.00     0.034 A 
ATOM     28  C   UNL A   1      46.608  29.229  27.181  1.00  0.00     0.049 A 
ATOM     29  C   UNL A   1      41.625  30.091  29.623  1.00  0.00     0.074 A 
ATOM     30  C   UNL A   1      47.476  30.306  27.159  1.00  0.00     0.029 A 
ATOM     31  N   UNL A   1      45.452  29.663  27.814  1.00  0.00    -0.354 N 
ATOM     32  N   UNL A   1      42.807  30.051  29.060  1.00  0.00    -0.248 NA
ATOM     33  C   UNL A   1      41.296  31.378  30.250  1.00  0.00     0.031 C 
ATOM     34  C   UNL A   1      46.853  31.384  27.796  1.00  0.00     0.029 A 
ATOM     35  C   UNL A   1      45.583  30.991  28.185  1.00  0.00     0.049 A 
ATOM     36  H   UNL A   1      44.654  29.109  27.974  1.00  0.00     0.167 HD
ATOM     37  C   UNL A   1      43.355  31.315  29.234  1.00  0.00     0.074 A 
ATOM     38  C   UNL A   1      42.365  32.103  29.943  1.00  0.00     0.031 C 
ATOM     39  C   UNL A   1      44.572  31.776  28.852  1.00  0.00     0.034 A 
BRANCH  26  40
ATOM     40  C   UNL A   1      48.133  27.597  25.991  1.00  0.00     0.023 A 
ATOM     41  C   UNL A   1      49.222  27.146  26.765  1.00  0.00     0.012 A 
ATOM     42  C   UNL A   1      48.270  27.677  24.591  1.00  0.00     0.148 A 
ATOM     43  C   UNL A   1      50.434  26.808  26.162  1.00  0.00     0.002 A 
ATOM     44  C   UNL A   1      49.467  27.297  23.992  1.00  0.00     0.091 A 
ATOM     45  F   UNL A   1      47.233  28.126  23.870  1.00  0.00    -0.205 F 
ATOM     46  C   UNL A   1      50.552  26.872  24.777  1.00  0.00     0.022 A 
BRANCH  44  47
ATOM     47  S   UNL A   1      49.693  27.263  22.210  1.00  0.00     0.127 S 
ATOM     48  O   UNL A   1      51.108  26.912  22.098  1.00  0.00    -0.237 OA
ATOM     49  O   UNL A   1      48.770  26.203  21.801  1.00  0.00    -0.237 OA
ATOM     50  O   UNL A   1      49.337  28.592  21.735  1.00  0.00    -0.744 OA
ENDBRANCH  44  47
ENDBRANCH  26  40
BRANCH  27  51
ATOM     51  C   UNL A   1      39.237  29.263  30.290  1.00  0.00     0.023 A 
ATOM     52  C   UNL A   1      38.959  28.744  31.567  1.00  0.00     0.012 A 
ATOM     53  C   UNL A   1      38.287  30.090  29.657  1.00  0.00     0.148 A 
ATOM     54  C   UNL A   1      37.753  29.037  32.204  1.00  0.00     0.002 A 
ATOM     55  C   UNL A   1      37.115  30.427  30.323  1.00  0.00     0.091 A 
ATOM     56  F   UNL A   1      38.575  30.570  28.440  1.00  0.00    -0.205 F 
ATOM     57  C   UNL A   1      36.839  29.890  31.590  1.00  0.00     0.022 A 
BRANCH  55  58
ATOM     58  S   UNL A   1      35.949  31.633  29.680  1.00  0.00     0.127 S 
ATOM     59  O   UNL A   1      35.031  31.791  30.805  1.00  0.00    -0.237 OA
ATOM     60  O   UNL A   1      36.820  32.782  29.428  1.00  0.00    -0.237 OA
ATOM     61  O   UNL A   1      35.377  31.034  28.483  1.00  0.00    -0.744 OA
ENDBRANCH  55  58
ENDBRANCH  27  51
BRANCH  39  62
ATOM     62  C   UNL A   1      44.897  33.215  29.156  1.00  0.00     0.023 A 
ATOM     63  C   UNL A   1      45.440  33.563  30.408  1.00  0.00     0.012 A 
ATOM     64  C   UNL A   1      44.736  34.209  28.170  1.00  0.00     0.148 A 
ATOM     65  C   UNL A   1      45.791  34.884  30.685  1.00  0.00     0.002 A 
ATOM     66  C   UNL A   1      45.137  35.513  28.435  1.00  0.00     0.091 A 
ATOM     67  F   UNL A   1      44.196  33.862  26.993  1.00  0.00    -0.205 F 
ATOM     68  C   UNL A   1      45.653  35.854  29.696  1.00  0.00     0.022 A 
BRANCH  66  69
ATOM     69  S   UNL A   1      45.090  36.804  27.186  1.00  0.00     0.127 S 
ATOM     70  O   UNL A   1      45.939  36.237  26.140  1.00  0.00    -0.237 OA
ATOM     71  O   UNL A   1      43.666  36.860  26.851  1.00  0.00    -0.237 OA
ATOM     72  O   UNL A   1      45.606  38.003  27.831  1.00  0.00    -0.744 OA
ENDBRANCH  66  69
ENDBRANCH  39  62
ENDBRANCH  13  14
ENDBRANCH   6   8
ENDBRANCH   3   4
ENDBRANCH   2   3
ENDBRANCH   1   2
BRANCH   1  73
ATOM     73  C   UNL A   1      37.204  22.033  24.323  1.00  0.00     0.002 C 
BRANCH  73  74
ATOM     74  C   UNL A   1      36.751  23.127  25.299  1.00  0.00     0.021 C 
BRANCH  74  75
ATOM     75  C   UNL A   1      35.555  23.932  24.802  1.00  0.00     0.116 C 
BRANCH  75  76
ATOM     76  N   UNL A   1      35.118  23.447  23.511  1.00  0.00    -0.356 N 
ATOM     77  C   UNL A   1      34.058  23.822  22.748  1.00  0.00     0.227 C 
ATOM     78  H   UNL A   1      35.676  22.734  23.124  1.00  0.00     0.163 HD
ATOM     79  O   UNL A   1      33.914  23.239  21.673  1.00  0.00    -0.275 OA
BRANCH  77  80
ATOM     80  C   UNL A   1      33.152  24.949  23.215  1.00  0.00     0.127 C 
ATOM     81  C   UNL A   1      31.699  24.895  22.603  1.00  0.00     0.127 C 
ATOM     82  C   UNL A   1      33.687  26.276  22.649  1.00  0.00     0.155 C 
ATOM     83  C   UNL A   1      31.710  26.200  21.770  1.00  0.00     0.155 C 
ATOM     84  C   UNL A   1      32.928  27.437  23.228  1.00  0.00     0.004 C 
ATOM     85  O   UNL A   1      33.088  26.257  21.331  1.00  0.00    -0.365 OA
ATOM     86  C   UNL A   1      31.714  27.407  22.666  1.00  0.00     0.004 C 
BRANCH  81  87
ATOM     87  C   UNL A   1      30.627  24.872  23.706  1.00  0.00     0.233 C 
ATOM     88  O   UNL A   1      29.756  25.748  23.768  1.00  0.00    -0.274 OA
ATOM     89  N   UNL A   1      30.540  23.889  24.640  1.00  0.00    -0.302 N 
ATOM     90  H   UNL A   1      29.740  23.896  25.215  1.00  0.00     0.172 HD
BRANCH  89  91
ATOM     91  C   UNL A   1      31.440  22.900  24.865  1.00  0.00     0.189 A 
ATOM     92  N   UNL A   1      31.651  21.827  24.156  1.00  0.00    -0.220 NA
ATOM     93  S   UNL A   1      32.330  23.058  26.311  1.00  0.00    -0.105 S 
ATOM     94  C   UNL A   1      32.508  20.996  24.850  1.00  0.00     0.084 A 
ATOM     95  C   UNL A   1      32.926  21.461  26.082  1.00  0.00     0.097 A 
BRANCH  94  96
ATOM     96  C   UNL A   1      32.902  19.721  24.296  1.00  0.00     0.001 A 
ATOM     97  C   UNL A   1      33.976  19.030  24.873  1.00  0.00     0.013 A 
ATOM     98  C   UNL A   1      32.261  19.201  23.165  1.00  0.00     0.013 A 
ATOM     99  C   UNL A   1      34.395  17.815  24.332  1.00  0.00     0.040 A 
ATOM    100  C   UNL A   1      32.688  17.989  22.622  1.00  0.00     0.040 A 
ATOM    101  C   UNL A   1      33.747  17.306  23.212  1.00  0.00     0.123 A 
ATOM    102  F   UNL A   1      34.155  16.143  22.688  1.00  0.00    -0.207 F 
ENDBRANCH  94  96
ENDBRANCH  89  91
ENDBRANCH  81  87
ENDBRANCH  77  80
ENDBRANCH  75  76
ENDBRANCH  74  75
ENDBRANCH  73  74
ENDBRANCH   1  73
TORSDOF 19
ENDMDL
MODEL 2
REMARK VINA RESULT:     -12.4      0.379      7.250
REMARK SMILES O=C(NCCCCCCNC(=O)[C@@H]1[C@@H](C(=O)Nc2nc(-c3ccc(F)cc3)cs2)[C@H]2C=C[C@@H]1O2)c1ccc(-c2c3nc(c(-c4cccc(S(=O)(=O)[O-])c4F)c4ccc([nH]4)c(-c4cccc(S(=O)(=O)[O-])c4F)c4nc(c(-c5cccc(S(=O)(=O)[O-])c5F)c5ccc2[nH]5)C=C4)C=C3)cc1
REMARK SMILES IDX 6 1 5 2 4 3 3 4 1 5 2 6 35 8 36 9 97 10 37 11 96 12 38 13
REMARK SMILES IDX 39 14 40 15 90 16 41 17 95 18 89 19 91 20 42 21 94 22 88 23
REMARK SMILES IDX 87 24 43 26 75 27 55 28 74 29 56 30 59 31 73 32 92 33 57 34
REMARK SMILES IDX 58 35 72 37 93 38 60 39 44 40 45 41 53 42 46 43 48 44 54 45
REMARK SMILES IDX 47 46 49 47 50 48 51 49 52 50 76 51 77 52 85 53 78 54 80 55
REMARK SMILES IDX 86 56 79 57 81 58 82 59 83 60 84 61 61 62 62 63 70 64 63 65
REMARK SMILES IDX 65 66 71 67 64 68 66 69 67 70 68 71 69 72 7 73 8 74 9 75
REMARK SMILES IDX 10 76 11 77 12 79 13 80 14 81 33 82 30 83 32 84 34 85 31 86
REMARK SMILES IDX 15 87 16 88 17 89 18 91 19 92 29 93 20 94 28 95 21 96 22 97
REMARK SMILES IDX 27 98 23 99 26 100 24 101 25 102
REMARK H PARENT 3 7 91 25 59 36 10 78 17 90
REMARK Flexibility Score: inf
ROOT
ATOM      1  C   UNL A   1      37.034  20.418  24.992  1.00  0.00     0.002 C 
ENDROOT
BRANCH   1   2
ATOM      2  C   UNL A   1      38.419  19.774  24.933  1.00  0.00     0.021 C 
BRANCH   2   3
ATOM      3  C   UNL A   1      39.265  20.010  26.176  1.00  0.00     0.116 C 
BRANCH   3   4
ATOM      4  N   UNL A   1      40.485  19.223  26.151  1.00  0.00    -0.352 N 
ATOM      5  O   UNL A   1      42.699  18.885  25.898  1.00  0.00    -0.269 OA
ATOM      6  C   UNL A   1      41.785  19.661  26.162  1.00  0.00     0.251 C 
ATOM      7  H   UNL A   1      40.364  18.246  26.123  1.00  0.00     0.163 HD
BRANCH   6   8
ATOM      8  C   UNL A   1      42.065  21.076  26.481  1.00  0.00     0.039 A 
ATOM      9  C   UNL A   1      42.289  21.467  27.805  1.00  0.00     0.014 A 
ATOM     10  C   UNL A   1      42.121  22.013  25.447  1.00  0.00     0.014 A 
ATOM     11  C   UNL A   1      42.468  22.811  28.107  1.00  0.00     0.010 A 
ATOM     12  C   UNL A   1      42.381  23.352  25.744  1.00  0.00     0.010 A 
ATOM     13  C   UNL A   1      42.549  23.761  27.077  1.00  0.00    -0.014 A 
BRANCH  13  14
ATOM     14  C   UNL A   1      42.950  25.151  27.396  1.00  0.00     0.031 A 
ATOM     15  C   UNL A   1      42.006  26.109  28.060  1.00  0.00     0.074 A 
ATOM     16  C   UNL A   1      44.192  25.542  27.050  1.00  0.00     0.049 A 
ATOM     17  N   UNL A   1      42.200  27.363  28.374  1.00  0.00    -0.248 NA
ATOM     18  C   UNL A   1      40.672  25.600  28.413  1.00  0.00     0.031 C 
ATOM     19  C   UNL A   1      45.182  24.694  26.381  1.00  0.00     0.029 A 
ATOM     20  N   UNL A   1      44.835  26.742  27.206  1.00  0.00    -0.354 N 
ATOM     21  C   UNL A   1      41.011  27.805  28.938  1.00  0.00     0.074 A 
ATOM     22  C   UNL A   1      40.092  26.685  28.911  1.00  0.00     0.031 C 
ATOM     23  C   UNL A   1      46.314  25.388  26.210  1.00  0.00     0.029 A 
ATOM     24  C   UNL A   1      46.111  26.747  26.697  1.00  0.00     0.049 A 
ATOM     25  H   UNL A   1      44.423  27.524  27.639  1.00  0.00     0.167 HD
ATOM     26  C   UNL A   1      40.722  29.028  29.445  1.00  0.00     0.034 A 
ATOM     27  C   UNL A   1      47.018  27.738  26.612  1.00  0.00     0.034 A 
ATOM     28  C   UNL A   1      41.650  30.130  29.469  1.00  0.00     0.049 A 
ATOM     29  C   UNL A   1      46.664  29.086  27.164  1.00  0.00     0.074 A 
ATOM     30  C   UNL A   1      41.459  31.405  29.972  1.00  0.00     0.029 A 
ATOM     31  N   UNL A   1      42.942  30.092  28.963  1.00  0.00    -0.354 N 
ATOM     32  N   UNL A   1      45.560  29.466  27.760  1.00  0.00    -0.248 NA
ATOM     33  C   UNL A   1      47.686  30.135  27.058  1.00  0.00     0.031 C 
ATOM     34  C   UNL A   1      42.626  32.142  29.753  1.00  0.00     0.029 A 
ATOM     35  C   UNL A   1      43.560  31.319  29.144  1.00  0.00     0.049 A 
ATOM     36  H   UNL A   1      43.359  29.308  28.540  1.00  0.00     0.167 HD
ATOM     37  C   UNL A   1      45.763  30.789  28.130  1.00  0.00     0.074 A 
ATOM     38  C   UNL A   1      47.106  31.138  27.704  1.00  0.00     0.031 C 
ATOM     39  C   UNL A   1      44.912  31.639  28.754  1.00  0.00     0.034 A 
BRANCH  26  40
ATOM     40  C   UNL A   1      39.357  29.234  30.053  1.00  0.00     0.023 A 
ATOM     41  C   UNL A   1      39.089  28.728  31.342  1.00  0.00     0.012 A 
ATOM     42  C   UNL A   1      38.369  29.993  29.394  1.00  0.00     0.148 A 
ATOM     43  C   UNL A   1      37.854  28.948  31.952  1.00  0.00     0.002 A 
ATOM     44  C   UNL A   1      37.156  30.246  30.027  1.00  0.00     0.091 A 
ATOM     45  F   UNL A   1      38.630  30.451  28.162  1.00  0.00    -0.205 F 
ATOM     46  C   UNL A   1      36.894  29.716  31.301  1.00  0.00     0.022 A 
BRANCH  44  47
ATOM     47  S   UNL A   1      35.886  31.293  29.307  1.00  0.00     0.127 S 
ATOM     48  O   UNL A   1      35.195  30.354  28.423  1.00  0.00    -0.237 OA
ATOM     49  O   UNL A   1      35.116  31.699  30.484  1.00  0.00    -0.237 OA
ATOM     50  O   UNL A   1      36.591  32.379  28.641  1.00  0.00    -0.744 OA
ENDBRANCH  44  47
ENDBRANCH  26  40
BRANCH  27  51
ATOM     51  C   UNL A   1      48.363  27.445  26.045  1.00  0.00     0.023 A 
ATOM     52  C   UNL A   1      49.334  26.840  26.862  1.00  0.00     0.012 A 
ATOM     53  C   UNL A   1      48.645  27.662  24.681  1.00  0.00     0.148 A 
ATOM     54  C   UNL A   1      50.569  26.460  26.335  1.00  0.00     0.002 A 
ATOM     55  C   UNL A   1      49.852  27.227  24.149  1.00  0.00     0.091 A 
ATOM     56  F   UNL A   1      47.705  28.243  23.923  1.00  0.00    -0.205 F 
ATOM     57  C   UNL A   1      50.822  26.639  24.977  1.00  0.00     0.022 A 
BRANCH  55  58
ATOM     58  S   UNL A   1      50.209  27.276  22.389  1.00  0.00     0.127 S 
ATOM     59  O   UNL A   1      51.613  26.875  22.357  1.00  0.00    -0.237 OA
ATOM     60  O   UNL A   1      49.272  26.281  21.868  1.00  0.00    -0.237 OA
ATOM     61  O   UNL A   1      49.937  28.642  21.967  1.00  0.00    -0.744 OA
ENDBRANCH  55  58
ENDBRANCH  27  51
BRANCH  39  62
ATOM     62  C   UNL A   1      45.411  33.028  29.054  1.00  0.00     0.023 A 
ATOM     63  C   UNL A   1      46.107  33.282  30.252  1.00  0.00     0.012 A 
ATOM     64  C   UNL A   1      45.257  34.063  28.110  1.00  0.00     0.148 A 
ATOM     65  C   UNL A   1      46.617  34.552  30.520  1.00  0.00     0.002 A 
ATOM     66  C   UNL A   1      45.813  35.312  28.361  1.00  0.00     0.091 A 
ATOM     67  F   UNL A   1      44.571  33.809  26.986  1.00  0.00    -0.205 F 
ATOM     68  C   UNL A   1      46.482  35.561  29.569  1.00  0.00     0.022 A 
BRANCH  66  69
ATOM     69  S   UNL A   1      45.776  36.639  27.149  1.00  0.00     0.127 S 
ATOM     70  O   UNL A   1      44.339  36.863  26.998  1.00  0.00    -0.237 OA
ATOM     71  O   UNL A   1      46.490  37.712  27.842  1.00  0.00    -0.237 OA
ATOM     72  O   UNL A   1      46.458  36.123  25.970  1.00  0.00    -0.744 OA
ENDBRANCH  66  69
ENDBRANCH  39  62
ENDBRANCH  13  14
ENDBRANCH   6   8
ENDBRANCH   3   4
ENDBRANCH   2   3
ENDBRANCH   1   2
BRANCH   1  73
ATOM     73  C   UNL A   1      36.964  21.841  24.424  1.00  0.00     0.002 C 
BRANCH  73  74
ATOM     74  C   UNL A   1      36.380  22.890  25.379  1.00  0.00     0.021 C 
BRANCH  74  75
ATOM     75  C   UNL A   1      35.525  23.942  24.681  1.00  0.00     0.116 C 
BRANCH  75  76
ATOM     76  N   UNL A   1      35.058  23.451  23.403  1.00  0.00    -0.356 N 
ATOM     77  C   UNL A   1      33.979  23.821  22.664  1.00  0.00     0.227 C 
ATOM     78  H   UNL A   1      35.607  22.737  23.007  1.00  0.00     0.163 HD
ATOM     79  O   UNL A   1      33.810  23.233  21.596  1.00  0.00    -0.275 OA
BRANCH  77  80
ATOM     80  C   UNL A   1      33.083  24.949  23.148  1.00  0.00     0.127 C 
ATOM     81  C   UNL A   1      31.625  24.907  22.548  1.00  0.00     0.127 C 
ATOM     82  C   UNL A   1      33.620  26.277  22.587  1.00  0.00     0.155 C 
ATOM     83  C   UNL A   1      31.635  26.219  21.725  1.00  0.00     0.155 C 
ATOM     84  C   UNL A   1      32.872  27.438  23.182  1.00  0.00     0.004 C 
ATOM     85  O   UNL A   1      33.010  26.272  21.274  1.00  0.00    -0.365 OA
ATOM     86  C   UNL A   1      31.653  27.418  22.629  1.00  0.00     0.004 C 
BRANCH  81  87
ATOM     87  C   UNL A   1      30.562  24.881  23.660  1.00  0.00     0.233 C 
ATOM     88  O   UNL A   1      29.675  25.741  23.716  1.00  0.00    -0.274 OA
ATOM     89  N   UNL A   1      30.501  23.911  24.610  1.00  0.00    -0.302 N 
ATOM     90  H   UNL A   1      29.706  23.912  25.191  1.00  0.00     0.172 HD
BRANCH  89  91
ATOM     91  C   UNL A   1      31.421  22.943  24.843  1.00  0.00     0.189 A 
ATOM     92  N   UNL A   1      31.663  21.875  24.135  1.00  0.00    -0.220 NA
ATOM     93  S   UNL A   1      32.296  23.121  26.296  1.00  0.00    -0.105 S 
ATOM     94  C   UNL A   1      32.532  21.064  24.837  1.00  0.00     0.084 A 
ATOM     95  C   UNL A   1      32.929  21.538  26.072  1.00  0.00     0.097 A 
BRANCH  94  96
ATOM     96  C   UNL A   1      32.961  19.798  24.287  1.00  0.00     0.001 A 
ATOM     97  C   UNL A   1      32.233  19.232  23.232  1.00  0.00     0.013 A 
ATOM     98  C   UNL A   1      34.055  19.113  24.831  1.00  0.00     0.013 A 
ATOM     99  C   UNL A   1      32.609  17.994  22.711  1.00  0.00     0.040 A 
ATOM    100  C   UNL A   1      34.423  17.871  24.311  1.00  0.00     0.040 A 
ATOM    101  C   UNL A   1      33.699  17.326  23.255  1.00  0.00     0.123 A 
ATOM    102  F   UNL A   1      34.056  16.134  22.759  1.00  0.00    -0.207 F 
ENDBRANCH  94  96
ENDBRANCH  89  91
ENDBRANCH  81  87
ENDBRANCH  77  80
ENDBRANCH  75  76
ENDBRANCH  74  75
ENDBRANCH  73  74
ENDBRANCH   1  73
TORSDOF 19
ENDMDL
MODEL 3
REMARK VINA RESULT:     -12.2      6.275      9.607
REMARK SMILES O=C(NCCCCCCNC(=O)[C@@H]1[C@@H](C(=O)Nc2nc(-c3ccc(F)cc3)cs2)[C@H]2C=C[C@@H]1O2)c1ccc(-c2c3nc(c(-c4cccc(S(=O)(=O)[O-])c4F)c4ccc([nH]4)c(-c4cccc(S(=O)(=O)[O-])c4F)c4nc(c(-c5cccc(S(=O)(=O)[O-])c5F)c5ccc2[nH]5)C=C4)C=C3)cc1
REMARK SMILES IDX 6 1 5 2 4 3 3 4 1 5 2 6 35 8 36 9 97 10 37 11 96 12 38 13
REMARK SMILES IDX 39 14 40 15 90 16 41 17 95 18 89 19 91 20 42 21 94 22 88 23
REMARK SMILES IDX 87 24 43 26 75 27 55 28 74 29 56 30 59 31 73 32 92 33 57 34
REMARK SMILES IDX 58 35 72 37 93 38 60 39 44 40 45 41 53 42 46 43 48 44 54 45
REMARK SMILES IDX 47 46 49 47 50 48 51 49 52 50 76 51 77 52 85 53 78 54 80 55
REMARK SMILES IDX 86 56 79 57 81 58 82 59 83 60 84 61 61 62 62 63 70 64 63 65
REMARK SMILES IDX 65 66 71 67 64 68 66 69 67 70 68 71 69 72 7 73 8 74 9 75
REMARK SMILES IDX 10 76 11 77 12 79 13 80 14 81 33 82 30 83 32 84 34 85 31 86
REMARK SMILES IDX 15 87 16 88 17 89 18 91 19 92 29 93 20 94 28 95 21 96 22 97
REMARK SMILES IDX 27 98 23 99 26 100 24 101 25 102
REMARK H PARENT 3 7 91 25 59 36 10 78 17 90
REMARK Flexibility Score: inf
ROOT
ATOM      1  C   UNL A   1      35.493  31.981  27.887  1.00  0.00     0.002 C 
ENDROOT
BRANCH   1   2
ATOM      2  C   UNL A   1      34.804  33.327  27.662  1.00  0.00     0.021 C 
BRANCH   2   3
ATOM      3  C   UNL A   1      33.311  33.315  27.959  1.00  0.00     0.116 C 
BRANCH   3   4
ATOM      4  N   UNL A   1      32.894  34.520  28.655  1.00  0.00    -0.352 N 
ATOM      5  O   UNL A   1      32.671  35.883  30.436  1.00  0.00    -0.269 OA
ATOM      6  C   UNL A   1      33.290  34.976  29.886  1.00  0.00     0.251 C 
ATOM      7  H   UNL A   1      32.241  35.084  28.180  1.00  0.00     0.163 HD
BRANCH   6   8
ATOM      8  C   UNL A   1      34.458  34.354  30.543  1.00  0.00     0.039 A 
ATOM      9  C   UNL A   1      34.284  33.262  31.400  1.00  0.00     0.014 A 
ATOM     10  C   UNL A   1      35.735  34.854  30.285  1.00  0.00     0.014 A 
ATOM     11  C   UNL A   1      35.376  32.736  32.079  1.00  0.00     0.010 A 
ATOM     12  C   UNL A   1      36.842  34.272  30.907  1.00  0.00     0.010 A 
ATOM     13  C   UNL A   1      36.669  33.214  31.813  1.00  0.00    -0.014 A 
BRANCH  13  14
ATOM     14  C   UNL A   1      37.839  32.505  32.381  1.00  0.00     0.031 A 
ATOM     15  C   UNL A   1      38.492  31.364  31.660  1.00  0.00     0.074 A 
ATOM     16  C   UNL A   1      38.291  32.902  33.586  1.00  0.00     0.049 A 
ATOM     17  N   UNL A   1      39.501  30.625  32.041  1.00  0.00    -0.248 NA
ATOM     18  C   UNL A   1      37.942  30.998  30.345  1.00  0.00     0.031 C 
ATOM     19  C   UNL A   1      37.714  33.989  34.381  1.00  0.00     0.029 A 
ATOM     20  N   UNL A   1      39.330  32.445  34.353  1.00  0.00    -0.354 N 
ATOM     21  C   UNL A   1      39.696  29.692  31.031  1.00  0.00     0.074 A 
ATOM     22  C   UNL A   1      38.688  29.949  30.023  1.00  0.00     0.031 C 
ATOM     23  C   UNL A   1      38.422  34.134  35.508  1.00  0.00     0.029 A 
ATOM     24  C   UNL A   1      39.461  33.113  35.548  1.00  0.00     0.049 A 
ATOM     25  H   UNL A   1      39.924  31.710  34.078  1.00  0.00     0.167 HD
ATOM     26  C   UNL A   1      40.639  28.723  30.950  1.00  0.00     0.034 A 
ATOM     27  C   UNL A   1      40.309  32.918  36.573  1.00  0.00     0.034 A 
ATOM     28  C   UNL A   1      41.638  28.484  31.961  1.00  0.00     0.049 A 
ATOM     29  C   UNL A   1      41.331  31.825  36.465  1.00  0.00     0.074 A 
ATOM     30  C   UNL A   1      42.646  27.536  31.967  1.00  0.00     0.029 A 
ATOM     31  N   UNL A   1      41.753  29.194  33.148  1.00  0.00    -0.354 N 
ATOM     32  N   UNL A   1      41.547  30.999  35.471  1.00  0.00    -0.248 NA
ATOM     33  C   UNL A   1      42.242  31.654  37.604  1.00  0.00     0.031 C 
ATOM     34  C   UNL A   1      43.357  27.660  33.165  1.00  0.00     0.029 A 
ATOM     35  C   UNL A   1      42.815  28.707  33.892  1.00  0.00     0.049 A 
ATOM     36  H   UNL A   1      41.167  29.936  33.420  1.00  0.00     0.167 HD
ATOM     37  C   UNL A   1      42.639  30.228  35.847  1.00  0.00     0.074 A 
ATOM     38  C   UNL A   1      43.049  30.701  37.156  1.00  0.00     0.031 C 
ATOM     39  C   UNL A   1      43.239  29.215  35.175  1.00  0.00     0.034 A 
BRANCH  26  40
ATOM     40  C   UNL A   1      40.665  27.867  29.708  1.00  0.00     0.023 A 
ATOM     41  C   UNL A   1      39.751  26.800  29.583  1.00  0.00     0.012 A 
ATOM     42  C   UNL A   1      41.529  28.162  28.634  1.00  0.00     0.148 A 
ATOM     43  C   UNL A   1      39.716  26.024  28.424  1.00  0.00     0.002 A 
ATOM     44  C   UNL A   1      41.458  27.412  27.465  1.00  0.00     0.091 A 
ATOM     45  F   UNL A   1      42.406  29.166  28.775  1.00  0.00    -0.205 F 
ATOM     46  C   UNL A   1      40.559  26.337  27.362  1.00  0.00     0.022 A 
BRANCH  44  47
ATOM     47  S   UNL A   1      42.442  27.787  26.010  1.00  0.00     0.127 S 
ATOM     48  O   UNL A   1      43.797  27.524  26.494  1.00  0.00    -0.237 OA
ATOM     49  O   UNL A   1      41.943  26.813  25.038  1.00  0.00    -0.237 OA
ATOM     50  O   UNL A   1      42.154  29.175  25.677  1.00  0.00    -0.744 OA
ENDBRANCH  44  47
ENDBRANCH  26  40
BRANCH  27  51
ATOM     51  C   UNL A   1      40.257  33.835  37.745  1.00  0.00     0.023 A 
ATOM     52  C   UNL A   1      40.924  35.072  37.676  1.00  0.00     0.012 A 
ATOM     53  C   UNL A   1      39.466  33.538  38.873  1.00  0.00     0.148 A 
ATOM     54  C   UNL A   1      40.811  35.997  38.714  1.00  0.00     0.002 A 
ATOM     55  C   UNL A   1      39.309  34.488  39.874  1.00  0.00     0.091 A 
ATOM     56  F   UNL A   1      38.843  32.353  38.916  1.00  0.00    -0.205 F 
ATOM     57  C   UNL A   1      39.992  35.712  39.805  1.00  0.00     0.022 A 
BRANCH  55  58
ATOM     58  S   UNL A   1      38.162  34.275  41.240  1.00  0.00     0.127 S 
ATOM     59  O   UNL A   1      38.980  33.548  42.207  1.00  0.00    -0.237 OA
ATOM     60  O   UNL A   1      37.868  35.662  41.601  1.00  0.00    -0.237 OA
ATOM     61  O   UNL A   1      37.030  33.539  40.697  1.00  0.00    -0.744 OA
ENDBRANCH  55  58
ENDBRANCH  27  51
BRANCH  39  62
ATOM     62  C   UNL A   1      44.433  28.563  35.821  1.00  0.00     0.023 A 
ATOM     63  C   UNL A   1      45.732  29.012  35.514  1.00  0.00     0.012 A 
ATOM     64  C   UNL A   1      44.259  27.556  36.792  1.00  0.00     0.148 A 
ATOM     65  C   UNL A   1      46.843  28.450  36.142  1.00  0.00     0.002 A 
ATOM     66  C   UNL A   1      45.368  27.037  37.451  1.00  0.00     0.091 A 
ATOM     67  F   UNL A   1      43.017  27.125  37.054  1.00  0.00    -0.205 F 
ATOM     68  C   UNL A   1      46.660  27.474  37.119  1.00  0.00     0.022 A 
BRANCH  66  69
ATOM     69  S   UNL A   1      45.217  25.852  38.793  1.00  0.00     0.127 S 
ATOM     70  O   UNL A   1      44.270  26.526  39.680  1.00  0.00    -0.237 OA
ATOM     71  O   UNL A   1      44.680  24.675  38.110  1.00  0.00    -0.237 OA
ATOM     72  O   UNL A   1      46.561  25.679  39.326  1.00  0.00    -0.744 OA
ENDBRANCH  66  69
ENDBRANCH  39  62
ENDBRANCH  13  14
ENDBRANCH   6   8
ENDBRANCH   3   4
ENDBRANCH   2   3
ENDBRANCH   1   2
BRANCH   1  73
ATOM     73  C   UNL A   1      34.539  30.792  28.051  1.00  0.00     0.002 C 
BRANCH  73  74
ATOM     74  C   UNL A   1      35.041  29.472  27.451  1.00  0.00     0.021 C 
BRANCH  74  75
ATOM     75  C   UNL A   1      33.978  28.718  26.661  1.00  0.00     0.116 C 
BRANCH  75  76
ATOM     76  N   UNL A   1      34.043  29.068  25.259  1.00  0.00    -0.356 N 
ATOM     77  C   UNL A   1      33.165  28.816  24.252  1.00  0.00     0.227 C 
ATOM     78  H   UNL A   1      34.849  29.566  24.992  1.00  0.00     0.163 HD
ATOM     79  O   UNL A   1      33.469  29.234  23.134  1.00  0.00    -0.275 OA
BRANCH  77  80
ATOM     80  C   UNL A   1      31.860  28.098  24.550  1.00  0.00     0.127 C 
ATOM     81  C   UNL A   1      32.032  26.557  24.842  1.00  0.00     0.127 C 
ATOM     82  C   UNL A   1      31.004  28.086  23.271  1.00  0.00     0.155 C 
ATOM     83  C   UNL A   1      31.261  25.968  23.636  1.00  0.00     0.155 C 
ATOM     84  C   UNL A   1      29.633  27.543  23.564  1.00  0.00     0.004 C 
ATOM     85  O   UNL A   1      31.559  26.931  22.597  1.00  0.00    -0.365 OA
ATOM     86  C   UNL A   1      29.787  26.229  23.763  1.00  0.00     0.004 C 
BRANCH  81  87
ATOM     87  C   UNL A   1      31.435  26.176  26.207  1.00  0.00     0.233 C 
ATOM     88  O   UNL A   1      30.720  26.965  26.835  1.00  0.00    -0.274 OA
ATOM     89  N   UNL A   1      31.613  24.958  26.784  1.00  0.00    -0.302 N 
ATOM     90  H   UNL A   1      31.079  24.770  27.590  1.00  0.00     0.172 HD
BRANCH  89  91
ATOM     91  C   UNL A   1      32.450  23.976  26.367  1.00  0.00     0.189 A 
ATOM     92  N   UNL A   1      33.749  23.930  26.464  1.00  0.00    -0.220 NA
ATOM     93  S   UNL A   1      31.692  22.697  25.533  1.00  0.00    -0.105 S 
ATOM     94  C   UNL A   1      34.212  22.854  25.733  1.00  0.00     0.084 A 
ATOM     95  C   UNL A   1      33.246  22.107  25.089  1.00  0.00     0.097 A 
BRANCH  94  96
ATOM     96  C   UNL A   1      35.628  22.574  25.656  1.00  0.00     0.001 A 
ATOM     97  C   UNL A   1      36.050  21.305  25.239  1.00  0.00     0.013 A 
ATOM     98  C   UNL A   1      36.571  23.534  26.045  1.00  0.00     0.013 A 
ATOM     99  C   UNL A   1      37.411  21.003  25.192  1.00  0.00     0.040 A 
ATOM    100  C   UNL A   1      37.931  23.225  26.003  1.00  0.00     0.040 A 
ATOM    101  C   UNL A   1      38.338  21.966  25.575  1.00  0.00     0.123 A 
ATOM    102  F   UNL A   1      39.644  21.673  25.536  1.00  0.00    -0.207 F 
ENDBRANCH  94  96
ENDBRANCH  89  91
ENDBRANCH  81  87
ENDBRANCH  77  80
ENDBRANCH  75  76
ENDBRANCH  74  75
ENDBRANCH  73  74
ENDBRANCH   1  73
TORSDOF 19
ENDMDL
