MODEL 1
REMARK VINA RESULT:     -10.8      0.000      0.000
REMARK SMILES CC(C)[C@H]([NH2+][C@H]1CCCS[C@H]1C)C(=O)NCCCCCCNC(=O)c1ccc(-c2c3nc(c(-c4cccc(S(=O)(=O)[O-])c4F)c4ccc([nH]4)c(-c4cccc(S(=O)(=O)[O-])c4F)c4nc(c(-c5cccc(S(=O)(=O)[O-])c5F)c5ccc2[nH]5)C=C4)C=C3)cc1
REMARK SMILES IDX 19 1 18 2 17 3 16 4 15 5 13 6 14 7 4 9 2 10 1 11 3 12 5 13
REMARK SMILES IDX 6 16 7 17 11 18 8 19 10 20 12 21 9 22 20 23 21 24 22 25
REMARK SMILES IDX 23 26 24 28 25 29 26 30 87 31 27 32 86 33 28 34 29 35 30 36
REMARK SMILES IDX 80 37 31 38 85 39 79 40 81 41 32 42 84 43 78 44 77 45 33 47
REMARK SMILES IDX 65 48 45 49 64 50 46 51 49 52 63 53 82 54 47 55 48 56 62 58
REMARK SMILES IDX 83 59 50 60 34 61 35 62 43 63 36 64 38 65 44 66 37 67 39 68
REMARK SMILES IDX 40 69 41 70 42 71 66 72 67 73 75 74 68 75 70 76 76 77 69 78
REMARK SMILES IDX 71 79 72 80 73 81 74 82 51 83 52 84 60 85 53 86 55 87 61 88
REMARK SMILES IDX 54 89 56 90 57 91 58 92 59 93
REMARK H PARENT 15 8 5 14 5 15 22 27 81 46 49 57
REMARK Flexibility Score: inf
ROOT
ATOM      1  C   UNL A   1      32.078  27.953  27.381  1.00  0.00     0.002 C 
ENDROOT
BRANCH   1   2
ATOM      2  C   UNL A   1      32.065  26.715  26.479  1.00  0.00     0.002 C 
BRANCH   2   3
ATOM      3  C   UNL A   1      30.679  26.128  26.187  1.00  0.00     0.021 C 
BRANCH   3   4
ATOM      4  C   UNL A   1      30.149  26.418  24.785  1.00  0.00     0.116 C 
BRANCH   4   5
ATOM      5  N   UNL A   1      29.903  25.193  24.042  1.00  0.00    -0.351 N 
ATOM      6  C   UNL A   1      30.756  24.414  23.312  1.00  0.00     0.278 C 
ATOM      7  O   UNL A   1      30.327  23.342  22.875  1.00  0.00    -0.268 OA
ATOM      8  H   UNL A   1      28.972  24.874  24.068  1.00  0.00     0.163 HD
BRANCH   6   9
ATOM      9  C   UNL A   1      32.219  24.859  23.045  1.00  0.00     0.275 C 
BRANCH   9  10
ATOM     10  C   UNL A   1      32.192  26.000  21.980  1.00  0.00     0.051 C 
ATOM     11  C   UNL A   1      33.134  27.132  22.411  1.00  0.00     0.014 C 
ATOM     12  C   UNL A   1      32.539  25.571  20.552  1.00  0.00     0.014 C 
ENDBRANCH   9  10
BRANCH   9  13
ATOM     13  N   UNL A   1      33.039  23.683  22.681  1.00  0.00    -0.332 N 
ATOM     14  H   UNL A   1      33.440  23.869  21.762  1.00  0.00     0.347 HD
ATOM     15  H   UNL A   1      32.388  22.900  22.744  1.00  0.00     0.347 HD
BRANCH  13  16
ATOM     16  C   UNL A   1      34.155  23.291  23.571  1.00  0.00     0.195 C 
ATOM     17  C   UNL A   1      34.590  24.384  24.568  1.00  0.00     0.067 C 
ATOM     18  C   UNL A   1      33.994  21.875  24.201  1.00  0.00     0.101 C 
ATOM     19  C   UNL A   1      35.881  24.051  25.316  1.00  0.00     0.017 C 
ATOM     20  S   UNL A   1      35.520  21.337  25.074  1.00  0.00    -0.153 SA
ATOM     21  C   UNL A   1      32.803  21.706  25.141  1.00  0.00     0.026 C 
ATOM     22  C   UNL A   1      35.776  22.779  26.140  1.00  0.00     0.070 C 
ENDBRANCH  13  16
ENDBRANCH   9  13
ENDBRANCH   6   9
ENDBRANCH   4   5
ENDBRANCH   3   4
ENDBRANCH   2   3
ENDBRANCH   1   2
BRANCH   1  23
ATOM     23  C   UNL A   1      31.815  29.287  26.676  1.00  0.00     0.021 C 
BRANCH  23  24
ATOM     24  C   UNL A   1      33.061  30.093  26.320  1.00  0.00     0.116 C 
BRANCH  24  25
ATOM     25  N   UNL A   1      32.958  31.481  26.735  1.00  0.00    -0.352 N 
ATOM     26  C   UNL A   1      33.726  32.186  27.627  1.00  0.00     0.251 C 
ATOM     27  H   UNL A   1      32.229  31.992  26.314  1.00  0.00     0.163 HD
ATOM     28  O   UNL A   1      33.374  33.314  27.968  1.00  0.00    -0.269 OA
BRANCH  26  29
ATOM     29  C   UNL A   1      34.958  31.594  28.195  1.00  0.00     0.039 A 
ATOM     30  C   UNL A   1      36.124  32.365  28.208  1.00  0.00     0.014 A 
ATOM     31  C   UNL A   1      34.982  30.285  28.686  1.00  0.00     0.014 A 
ATOM     32  C   UNL A   1      37.298  31.841  28.755  1.00  0.00     0.010 A 
ATOM     33  C   UNL A   1      36.136  29.788  29.291  1.00  0.00     0.010 A 
ATOM     34  C   UNL A   1      37.308  30.557  29.325  1.00  0.00    -0.014 A 
BRANCH  34  35
ATOM     35  C   UNL A   1      38.533  30.032  29.982  1.00  0.00     0.031 A 
ATOM     36  C   UNL A   1      38.947  30.514  31.345  1.00  0.00     0.074 A 
ATOM     37  C   UNL A   1      39.313  29.158  29.315  1.00  0.00     0.049 A 
ATOM     38  N   UNL A   1      39.968  30.142  32.074  1.00  0.00    -0.248 NA
ATOM     39  C   UNL A   1      38.124  31.566  31.964  1.00  0.00     0.031 C 
ATOM     40  C   UNL A   1      39.077  28.690  27.947  1.00  0.00     0.029 A 
ATOM     41  N   UNL A   1      40.471  28.523  29.687  1.00  0.00    -0.354 N 
ATOM     42  C   UNL A   1      39.929  30.929  33.219  1.00  0.00     0.074 A 
ATOM     43  C   UNL A   1      38.802  31.824  33.074  1.00  0.00     0.031 C 
ATOM     44  C   UNL A   1      40.054  27.836  27.600  1.00  0.00     0.029 A 
ATOM     45  C   UNL A   1      40.991  27.705  28.711  1.00  0.00     0.049 A 
ATOM     46  H   UNL A   1      40.890  28.641  30.571  1.00  0.00     0.167 HD
ATOM     47  C   UNL A   1      40.738  30.889  34.305  1.00  0.00     0.034 A 
ATOM     48  C   UNL A   1      42.093  26.931  28.713  1.00  0.00     0.034 A 
ATOM     49  C   UNL A   1      41.829  29.966  34.468  1.00  0.00     0.049 A 
ATOM     50  C   UNL A   1      42.928  26.849  29.961  1.00  0.00     0.074 A 
ATOM     51  C   UNL A   1      42.641  29.779  35.572  1.00  0.00     0.029 A 
ATOM     52  N   UNL A   1      42.267  29.080  33.496  1.00  0.00    -0.354 N 
ATOM     53  N   UNL A   1      42.761  27.463  31.107  1.00  0.00    -0.248 NA
ATOM     54  C   UNL A   1      44.077  25.933  29.933  1.00  0.00     0.031 C 
ATOM     55  C   UNL A   1      43.581  28.788  35.263  1.00  0.00     0.029 A 
ATOM     56  C   UNL A   1      43.344  28.348  33.971  1.00  0.00     0.049 A 
ATOM     57  H   UNL A   1      41.872  28.985  32.599  1.00  0.00     0.167 HD
ATOM     58  C   UNL A   1      43.764  26.990  31.943  1.00  0.00     0.074 A 
ATOM     59  C   UNL A   1      44.515  26.011  31.181  1.00  0.00     0.031 C 
ATOM     60  C   UNL A   1      44.055  27.346  33.219  1.00  0.00     0.034 A 
BRANCH  47  61
ATOM     61  C   UNL A   1      40.429  31.830  35.442  1.00  0.00     0.023 A 
ATOM     62  C   UNL A   1      41.261  32.947  35.661  1.00  0.00     0.012 A 
ATOM     63  C   UNL A   1      39.286  31.652  36.247  1.00  0.00     0.148 A 
ATOM     64  C   UNL A   1      40.982  33.854  36.682  1.00  0.00     0.002 A 
ATOM     65  C   UNL A   1      38.992  32.583  37.237  1.00  0.00     0.091 A 
ATOM     66  F   UNL A   1      38.519  30.573  36.039  1.00  0.00    -0.205 F 
ATOM     67  C   UNL A   1      39.842  33.678  37.462  1.00  0.00     0.022 A 
BRANCH  65  68
ATOM     68  S   UNL A   1      37.506  32.486  38.244  1.00  0.00     0.127 S 
ATOM     69  O   UNL A   1      37.411  31.045  38.488  1.00  0.00    -0.237 OA
ATOM     70  O   UNL A   1      37.879  33.277  39.420  1.00  0.00    -0.237 OA
ATOM     71  O   UNL A   1      36.439  33.058  37.442  1.00  0.00    -0.744 OA
ENDBRANCH  65  68
ENDBRANCH  47  61
BRANCH  48  72
ATOM     72  C   UNL A   1      42.418  26.103  27.517  1.00  0.00     0.023 A 
ATOM     73  C   UNL A   1      43.193  26.660  26.482  1.00  0.00     0.012 A 
ATOM     74  C   UNL A   1      41.998  24.763  27.417  1.00  0.00     0.148 A 
ATOM     75  C   UNL A   1      43.521  25.906  25.353  1.00  0.00     0.002 A 
ATOM     76  C   UNL A   1      42.375  24.001  26.316  1.00  0.00     0.091 A 
ATOM     77  F   UNL A   1      41.249  24.255  28.405  1.00  0.00    -0.205 F 
ATOM     78  C   UNL A   1      43.121  24.575  25.276  1.00  0.00     0.022 A 
BRANCH  76  79
ATOM     79  S   UNL A   1      42.021  22.243  26.206  1.00  0.00     0.127 S 
ATOM     80  O   UNL A   1      42.757  21.863  25.003  1.00  0.00    -0.237 OA
ATOM     81  O   UNL A   1      42.586  21.739  27.459  1.00  0.00    -0.237 OA
ATOM     82  O   UNL A   1      40.571  22.142  26.125  1.00  0.00    -0.744 OA
ENDBRANCH  76  79
ENDBRANCH  48  72
BRANCH  60  83
ATOM     83  C   UNL A   1      45.227  26.669  33.879  1.00  0.00     0.023 A 
ATOM     84  C   UNL A   1      46.500  27.271  33.822  1.00  0.00     0.012 A 
ATOM     85  C   UNL A   1      45.063  25.466  34.593  1.00  0.00     0.148 A 
ATOM     86  C   UNL A   1      47.599  26.667  34.431  1.00  0.00     0.002 A 
ATOM     87  C   UNL A   1      46.154  24.894  35.238  1.00  0.00     0.091 A 
ATOM     88  F   UNL A   1      43.851  24.894  34.620  1.00  0.00    -0.205 F 
ATOM     89  C   UNL A   1      47.425  25.485  35.148  1.00  0.00     0.022 A 
BRANCH  87  90
ATOM     90  S   UNL A   1      45.995  23.422  36.257  1.00  0.00     0.127 S 
ATOM     91  O   UNL A   1      44.904  23.795  37.154  1.00  0.00    -0.237 OA
ATOM     92  O   UNL A   1      45.650  22.393  35.274  1.00  0.00    -0.237 OA
ATOM     93  O   UNL A   1      47.296  23.237  36.885  1.00  0.00    -0.744 OA
ENDBRANCH  87  90
ENDBRANCH  60  83
ENDBRANCH  34  35
ENDBRANCH  26  29
ENDBRANCH  24  25
ENDBRANCH  23  24
ENDBRANCH   1  23
TORSDOF 19
ENDMDL
MODEL 2
REMARK VINA RESULT:     -10.3      5.561      8.791
REMARK SMILES CC(C)[C@H]([NH2+][C@H]1CCCS[C@H]1C)C(=O)NCCCCCCNC(=O)c1ccc(-c2c3nc(c(-c4cccc(S(=O)(=O)[O-])c4F)c4ccc([nH]4)c(-c4cccc(S(=O)(=O)[O-])c4F)c4nc(c(-c5cccc(S(=O)(=O)[O-])c5F)c5ccc2[nH]5)C=C4)C=C3)cc1
REMARK SMILES IDX 19 1 18 2 17 3 16 4 15 5 13 6 14 7 4 9 2 10 1 11 3 12 5 13
REMARK SMILES IDX 6 16 7 17 11 18 8 19 10 20 12 21 9 22 20 23 21 24 22 25
REMARK SMILES IDX 23 26 24 28 25 29 26 30 87 31 27 32 86 33 28 34 29 35 30 36
REMARK SMILES IDX 80 37 31 38 85 39 79 40 81 41 32 42 84 43 78 44 77 45 33 47
REMARK SMILES IDX 65 48 45 49 64 50 46 51 49 52 63 53 82 54 47 55 48 56 62 58
REMARK SMILES IDX 83 59 50 60 34 61 35 62 43 63 36 64 38 65 44 66 37 67 39 68
REMARK SMILES IDX 40 69 41 70 42 71 66 72 67 73 75 74 68 75 70 76 76 77 69 78
REMARK SMILES IDX 71 79 72 80 73 81 74 82 51 83 52 84 60 85 53 86 55 87 61 88
REMARK SMILES IDX 54 89 56 90 57 91 58 92 59 93
REMARK H PARENT 15 8 5 14 5 15 22 27 81 46 49 57
REMARK Flexibility Score: inf
ROOT
ATOM      1  C   UNL A   1      36.627  19.817  24.912  1.00  0.00     0.002 C 
ENDROOT
BRANCH   1   2
ATOM      2  C   UNL A   1      36.511  21.344  24.897  1.00  0.00     0.002 C 
BRANCH   2   3
ATOM      3  C   UNL A   1      35.683  21.952  26.035  1.00  0.00     0.021 C 
BRANCH   3   4
ATOM      4  C   UNL A   1      35.474  23.462  25.932  1.00  0.00     0.116 C 
BRANCH   4   5
ATOM      5  N   UNL A   1      35.264  23.881  24.557  1.00  0.00    -0.351 N 
ATOM      6  C   UNL A   1      34.176  24.459  23.965  1.00  0.00     0.278 C 
ATOM      7  O   UNL A   1      34.292  24.842  22.797  1.00  0.00    -0.268 OA
ATOM      8  H   UNL A   1      36.027  23.724  23.956  1.00  0.00     0.163 HD
BRANCH   6   9
ATOM      9  C   UNL A   1      32.841  24.633  24.736  1.00  0.00     0.275 C 
BRANCH   9  10
ATOM     10  C   UNL A   1      32.100  23.259  24.740  1.00  0.00     0.051 C 
ATOM     11  C   UNL A   1      31.592  22.950  26.155  1.00  0.00     0.014 C 
ATOM     12  C   UNL A   1      30.939  23.137  23.749  1.00  0.00     0.014 C 
ENDBRANCH   9  10
BRANCH   9  13
ATOM     13  N   UNL A   1      32.072  25.756  24.155  1.00  0.00    -0.332 N 
ATOM     14  H   UNL A   1      31.175  25.380  23.850  1.00  0.00     0.347 HD
ATOM     15  H   UNL A   1      32.684  26.121  23.425  1.00  0.00     0.347 HD
BRANCH  13  16
ATOM     16  C   UNL A   1      31.784  26.936  25.001  1.00  0.00     0.195 C 
ATOM     17  C   UNL A   1      32.036  26.716  26.507  1.00  0.00     0.067 C 
ATOM     18  C   UNL A   1      32.362  28.271  24.442  1.00  0.00     0.101 C 
ATOM     19  C   UNL A   1      31.521  27.856  27.385  1.00  0.00     0.017 C 
ATOM     20  S   UNL A   1      31.751  29.726  25.385  1.00  0.00    -0.153 SA
ATOM     21  C   UNL A   1      33.883  28.344  24.355  1.00  0.00     0.026 C 
ATOM     22  C   UNL A   1      32.171  29.191  27.063  1.00  0.00     0.070 C 
ENDBRANCH  13  16
ENDBRANCH   9  13
ENDBRANCH   6   9
ENDBRANCH   4   5
ENDBRANCH   3   4
ENDBRANCH   2   3
ENDBRANCH   1   2
BRANCH   1  23
ATOM     23  C   UNL A   1      38.054  19.263  24.897  1.00  0.00     0.021 C 
BRANCH  23  24
ATOM     24  C   UNL A   1      39.024  19.932  25.867  1.00  0.00     0.116 C 
BRANCH  24  25
ATOM     25  N   UNL A   1      40.220  19.138  26.088  1.00  0.00    -0.352 N 
ATOM     26  C   UNL A   1      41.510  19.545  26.321  1.00  0.00     0.251 C 
ATOM     27  H   UNL A   1      40.085  18.163  26.069  1.00  0.00     0.163 HD
ATOM     28  O   UNL A   1      42.415  18.713  26.320  1.00  0.00    -0.269 OA
BRANCH  26  29
ATOM     29  C   UNL A   1      41.819  20.973  26.552  1.00  0.00     0.039 A 
ATOM     30  C   UNL A   1      42.020  21.408  27.866  1.00  0.00     0.014 A 
ATOM     31  C   UNL A   1      41.887  21.888  25.497  1.00  0.00     0.014 A 
ATOM     32  C   UNL A   1      42.334  22.746  28.115  1.00  0.00     0.010 A 
ATOM     33  C   UNL A   1      42.265  23.208  25.742  1.00  0.00     0.010 A 
ATOM     34  C   UNL A   1      42.484  23.653  27.052  1.00  0.00    -0.014 A 
BRANCH  34  35
ATOM     35  C   UNL A   1      42.899  25.056  27.310  1.00  0.00     0.031 A 
ATOM     36  C   UNL A   1      41.949  26.041  27.935  1.00  0.00     0.074 A 
ATOM     37  C   UNL A   1      44.124  25.462  26.919  1.00  0.00     0.049 A 
ATOM     38  N   UNL A   1      42.156  27.294  28.255  1.00  0.00    -0.248 NA
ATOM     39  C   UNL A   1      40.584  25.570  28.217  1.00  0.00     0.031 C 
ATOM     40  C   UNL A   1      45.102  24.633  26.212  1.00  0.00     0.029 A 
ATOM     41  N   UNL A   1      44.749  26.678  27.044  1.00  0.00    -0.354 N 
ATOM     42  C   UNL A   1      40.946  27.768  28.747  1.00  0.00     0.074 A 
ATOM     43  C   UNL A   1      39.998  26.678  28.652  1.00  0.00     0.031 C 
ATOM     44  C   UNL A   1      46.205  25.361  25.974  1.00  0.00     0.029 A 
ATOM     45  C   UNL A   1      46.010  26.708  26.498  1.00  0.00     0.049 A 
ATOM     46  H   UNL A   1      44.333  27.454  27.485  1.00  0.00     0.167 HD
ATOM     47  C   UNL A   1      40.656  28.988  29.260  1.00  0.00     0.034 A 
ATOM     48  C   UNL A   1      46.913  27.706  26.433  1.00  0.00     0.034 A 
ATOM     49  C   UNL A   1      41.612  30.055  29.397  1.00  0.00     0.049 A 
ATOM     50  C   UNL A   1      46.593  29.026  27.080  1.00  0.00     0.074 A 
ATOM     51  C   UNL A   1      41.444  31.291  29.997  1.00  0.00     0.029 A 
ATOM     52  N   UNL A   1      42.914  30.017  28.922  1.00  0.00    -0.354 N 
ATOM     53  N   UNL A   1      45.505  29.391  27.712  1.00  0.00    -0.248 NA
ATOM     54  C   UNL A   1      47.642  30.054  27.044  1.00  0.00     0.031 C 
ATOM     55  C   UNL A   1      42.640  32.006  29.871  1.00  0.00     0.029 A 
ATOM     56  C   UNL A   1      43.559  31.210  29.207  1.00  0.00     0.049 A 
ATOM     57  H   UNL A   1      43.320  29.254  28.450  1.00  0.00     0.167 HD
ATOM     58  C   UNL A   1      45.746  30.680  28.172  1.00  0.00     0.074 A 
ATOM     59  C   UNL A   1      47.098  31.018  27.774  1.00  0.00     0.031 C 
ATOM     60  C   UNL A   1      44.918  31.518  28.844  1.00  0.00     0.034 A 
BRANCH  47  61
ATOM     61  C   UNL A   1      39.260  29.215  29.780  1.00  0.00     0.023 A 
ATOM     62  C   UNL A   1      38.908  28.723  31.053  1.00  0.00     0.012 A 
ATOM     63  C   UNL A   1      38.321  29.967  29.047  1.00  0.00     0.148 A 
ATOM     64  C   UNL A   1      37.635  28.947  31.577  1.00  0.00     0.002 A 
ATOM     65  C   UNL A   1      37.067  30.221  29.593  1.00  0.00     0.091 A 
ATOM     66  F   UNL A   1      38.665  30.408  27.828  1.00  0.00    -0.205 F 
ATOM     67  C   UNL A   1      36.720  29.704  30.852  1.00  0.00     0.022 A 
BRANCH  65  68
ATOM     68  S   UNL A   1      35.845  31.250  28.769  1.00  0.00     0.127 S 
ATOM     69  O   UNL A   1      36.675  32.347  28.268  1.00  0.00    -0.237 OA
ATOM     70  O   UNL A   1      35.335  30.351  27.730  1.00  0.00    -0.237 OA
ATOM     71  O   UNL A   1      34.874  31.612  29.787  1.00  0.00    -0.744 OA
ENDBRANCH  65  68
ENDBRANCH  47  61
BRANCH  48  72
ATOM     72  C   UNL A   1      48.242  27.462  25.805  1.00  0.00     0.023 A 
ATOM     73  C   UNL A   1      49.312  27.016  26.604  1.00  0.00     0.012 A 
ATOM     74  C   UNL A   1      48.442  27.632  24.422  1.00  0.00     0.148 A 
ATOM     75  C   UNL A   1      50.566  26.771  26.042  1.00  0.00     0.002 A 
ATOM     76  C   UNL A   1      49.678  27.333  23.859  1.00  0.00     0.091 A 
ATOM     77  F   UNL A   1      47.415  28.071  23.680  1.00  0.00    -0.205 F 
ATOM     78  C   UNL A   1      50.746  26.918  24.670  1.00  0.00     0.022 A 
BRANCH  76  79
ATOM     79  S   UNL A   1      49.952  27.362  22.084  1.00  0.00     0.127 S 
ATOM     80  O   UNL A   1      49.758  28.775  21.774  1.00  0.00    -0.237 OA
ATOM     81  O   UNL A   1      51.334  26.892  21.980  1.00  0.00    -0.237 OA
ATOM     82  O   UNL A   1      48.969  26.445  21.524  1.00  0.00    -0.744 OA
ENDBRANCH  76  79
ENDBRANCH  48  72
BRANCH  60  83
ATOM     83  C   UNL A   1      45.452  32.880  29.203  1.00  0.00     0.023 A 
ATOM     84  C   UNL A   1      46.102  33.069  30.439  1.00  0.00     0.012 A 
ATOM     85  C   UNL A   1      45.355  33.959  28.302  1.00  0.00     0.148 A 
ATOM     86  C   UNL A   1      46.611  34.318  30.791  1.00  0.00     0.002 A 
ATOM     87  C   UNL A   1      45.908  35.190  28.640  1.00  0.00     0.091 A 
ATOM     88  F   UNL A   1      44.716  33.770  27.139  1.00  0.00    -0.205 F 
ATOM     89  C   UNL A   1      46.524  35.375  29.888  1.00  0.00     0.022 A 
BRANCH  87  90
ATOM     90  S   UNL A   1      45.917  36.576  27.495  1.00  0.00     0.127 S 
ATOM     91  O   UNL A   1      46.842  37.498  28.150  1.00  0.00    -0.237 OA
ATOM     92  O   UNL A   1      46.430  35.967  26.266  1.00  0.00    -0.237 OA
ATOM     93  O   UNL A   1      44.533  37.022  27.408  1.00  0.00    -0.744 OA
ENDBRANCH  87  90
ENDBRANCH  60  83
ENDBRANCH  34  35
ENDBRANCH  26  29
ENDBRANCH  24  25
ENDBRANCH  23  24
ENDBRANCH   1  23
TORSDOF 19
ENDMDL
MODEL 3
REMARK VINA RESULT:     -10.3      1.768      2.097
REMARK SMILES CC(C)[C@H]([NH2+][C@H]1CCCS[C@H]1C)C(=O)NCCCCCCNC(=O)c1ccc(-c2c3nc(c(-c4cccc(S(=O)(=O)[O-])c4F)c4ccc([nH]4)c(-c4cccc(S(=O)(=O)[O-])c4F)c4nc(c(-c5cccc(S(=O)(=O)[O-])c5F)c5ccc2[nH]5)C=C4)C=C3)cc1
REMARK SMILES IDX 19 1 18 2 17 3 16 4 15 5 13 6 14 7 4 9 2 10 1 11 3 12 5 13
REMARK SMILES IDX 6 16 7 17 11 18 8 19 10 20 12 21 9 22 20 23 21 24 22 25
REMARK SMILES IDX 23 26 24 28 25 29 26 30 87 31 27 32 86 33 28 34 29 35 30 36
REMARK SMILES IDX 80 37 31 38 85 39 79 40 81 41 32 42 84 43 78 44 77 45 33 47
REMARK SMILES IDX 65 48 45 49 64 50 46 51 49 52 63 53 82 54 47 55 48 56 62 58
REMARK SMILES IDX 83 59 50 60 34 61 35 62 43 63 36 64 38 65 44 66 37 67 39 68
REMARK SMILES IDX 40 69 41 70 42 71 66 72 67 73 75 74 68 75 70 76 76 77 69 78
REMARK SMILES IDX 71 79 72 80 73 81 74 82 51 83 52 84 60 85 53 86 55 87 61 88
REMARK SMILES IDX 54 89 56 90 57 91 58 92 59 93
REMARK H PARENT 15 8 5 14 5 15 22 27 81 46 49 57
REMARK Flexibility Score: inf
ROOT
ATOM      1  C   UNL A   1      32.292  27.707  27.262  1.00  0.00     0.002 C 
ENDROOT
BRANCH   1   2
ATOM      2  C   UNL A   1      31.900  26.493  26.414  1.00  0.00     0.002 C 
BRANCH   2   3
ATOM      3  C   UNL A   1      30.407  26.371  26.090  1.00  0.00     0.021 C 
BRANCH   3   4
ATOM      4  C   UNL A   1      30.065  26.505  24.608  1.00  0.00     0.116 C 
BRANCH   4   5
ATOM      5  N   UNL A   1      29.896  25.207  23.977  1.00  0.00    -0.351 N 
ATOM      6  C   UNL A   1      30.806  24.402  23.351  1.00  0.00     0.278 C 
ATOM      7  O   UNL A   1      30.438  23.276  23.006  1.00  0.00    -0.268 OA
ATOM      8  H   UNL A   1      28.980  24.850  24.005  1.00  0.00     0.163 HD
BRANCH   6   9
ATOM      9  C   UNL A   1      32.258  24.886  23.089  1.00  0.00     0.275 C 
BRANCH   9  10
ATOM     10  C   UNL A   1      32.206  26.018  22.016  1.00  0.00     0.051 C 
ATOM     11  C   UNL A   1      33.150  27.158  22.421  1.00  0.00     0.014 C 
ATOM     12  C   UNL A   1      32.528  25.580  20.585  1.00  0.00     0.014 C 
ENDBRANCH   9  10
BRANCH   9  13
ATOM     13  N   UNL A   1      33.113  23.730  22.738  1.00  0.00    -0.332 N 
ATOM     14  H   UNL A   1      33.561  23.948  21.849  1.00  0.00     0.347 HD
ATOM     15  H   UNL A   1      32.469  22.939  22.740  1.00  0.00     0.347 HD
BRANCH  13  16
ATOM     16  C   UNL A   1      34.182  23.323  23.677  1.00  0.00     0.195 C 
ATOM     17  C   UNL A   1      34.566  24.402  24.710  1.00  0.00     0.067 C 
ATOM     18  C   UNL A   1      33.987  21.899  24.278  1.00  0.00     0.101 C 
ATOM     19  C   UNL A   1      35.817  24.056  25.518  1.00  0.00     0.017 C 
ATOM     20  S   UNL A   1      35.467  21.347  25.219  1.00  0.00    -0.153 SA
ATOM     21  C   UNL A   1      32.751  21.719  25.154  1.00  0.00     0.026 C 
ATOM     22  C   UNL A   1      35.670  22.773  26.317  1.00  0.00     0.070 C 
ENDBRANCH  13  16
ENDBRANCH   9  13
ENDBRANCH   6   9
ENDBRANCH   4   5
ENDBRANCH   3   4
ENDBRANCH   2   3
ENDBRANCH   1   2
BRANCH   1  23
ATOM     23  C   UNL A   1      31.680  29.041  26.828  1.00  0.00     0.021 C 
BRANCH  23  24
ATOM     24  C   UNL A   1      32.603  29.953  26.026  1.00  0.00     0.116 C 
BRANCH  24  25
ATOM     25  N   UNL A   1      32.439  31.353  26.377  1.00  0.00    -0.352 N 
ATOM     26  C   UNL A   1      33.154  32.122  27.261  1.00  0.00     0.251 C 
ATOM     27  H   UNL A   1      31.707  31.819  25.912  1.00  0.00     0.163 HD
ATOM     28  O   UNL A   1      32.752  33.251  27.541  1.00  0.00    -0.269 OA
BRANCH  26  29
ATOM     29  C   UNL A   1      34.386  31.600  27.891  1.00  0.00     0.039 A 
ATOM     30  C   UNL A   1      35.447  32.483  28.114  1.00  0.00     0.014 A 
ATOM     31  C   UNL A   1      34.517  30.251  28.236  1.00  0.00     0.014 A 
ATOM     32  C   UNL A   1      36.617  32.024  28.725  1.00  0.00     0.010 A 
ATOM     33  C   UNL A   1      35.658  29.810  28.905  1.00  0.00     0.010 A 
ATOM     34  C   UNL A   1      36.723  30.689  29.149  1.00  0.00    -0.014 A 
BRANCH  34  35
ATOM     35  C   UNL A   1      37.933  30.221  29.874  1.00  0.00     0.031 A 
ATOM     36  C   UNL A   1      38.221  30.681  31.277  1.00  0.00     0.074 A 
ATOM     37  C   UNL A   1      38.813  29.423  29.237  1.00  0.00     0.049 A 
ATOM     38  N   UNL A   1      39.213  30.350  32.064  1.00  0.00    -0.248 NA
ATOM     39  C   UNL A   1      37.290  31.656  31.867  1.00  0.00     0.031 C 
ATOM     40  C   UNL A   1      38.701  28.987  27.843  1.00  0.00     0.029 A 
ATOM     41  N   UNL A   1      39.983  28.850  29.670  1.00  0.00    -0.354 N 
ATOM     42  C   UNL A   1      39.045  31.093  33.225  1.00  0.00     0.074 A 
ATOM     43  C   UNL A   1      37.873  31.919  33.029  1.00  0.00     0.031 C 
ATOM     44  C   UNL A   1      39.754  28.210  27.540  1.00  0.00     0.029 A 
ATOM     45  C   UNL A   1      40.620  28.102  28.709  1.00  0.00     0.049 A 
ATOM     46  H   UNL A   1      40.332  28.964  30.584  1.00  0.00     0.167 HD
ATOM     47  C   UNL A   1      39.779  31.068  34.364  1.00  0.00     0.034 A 
ATOM     48  C   UNL A   1      41.768  27.400  28.764  1.00  0.00     0.034 A 
ATOM     49  C   UNL A   1      40.916  30.212  34.575  1.00  0.00     0.049 A 
ATOM     50  C   UNL A   1      42.521  27.328  30.064  1.00  0.00     0.074 A 
ATOM     51  C   UNL A   1      41.662  30.039  35.727  1.00  0.00     0.029 A 
ATOM     52  N   UNL A   1      41.476  29.390  33.610  1.00  0.00    -0.354 N 
ATOM     53  N   UNL A   1      42.236  27.891  31.213  1.00  0.00    -0.248 NA
ATOM     54  C   UNL A   1      43.727  26.489  30.089  1.00  0.00     0.031 C 
ATOM     55  C   UNL A   1      42.683  29.122  35.454  1.00  0.00     0.029 A 
ATOM     56  C   UNL A   1      42.564  28.712  34.137  1.00  0.00     0.049 A 
ATOM     57  H   UNL A   1      41.150  29.301  32.685  1.00  0.00     0.167 HD
ATOM     58  C   UNL A   1      43.210  27.454  32.103  1.00  0.00     0.074 A 
ATOM     59  C   UNL A   1      44.073  26.552  31.367  1.00  0.00     0.031 C 
ATOM     60  C   UNL A   1      43.389  27.784  33.406  1.00  0.00     0.034 A 
BRANCH  47  61
ATOM     61  C   UNL A   1      39.332  31.948  35.504  1.00  0.00     0.023 A 
ATOM     62  C   UNL A   1      38.483  31.416  36.496  1.00  0.00     0.012 A 
ATOM     63  C   UNL A   1      39.800  33.270  35.633  1.00  0.00     0.148 A 
ATOM     64  C   UNL A   1      38.080  32.193  37.581  1.00  0.00     0.002 A 
ATOM     65  C   UNL A   1      39.426  34.027  36.739  1.00  0.00     0.091 A 
ATOM     66  F   UNL A   1      40.588  33.768  34.669  1.00  0.00    -0.205 F 
ATOM     67  C   UNL A   1      38.560  33.493  37.708  1.00  0.00     0.022 A 
BRANCH  65  68
ATOM     68  S   UNL A   1      40.052  35.686  37.031  1.00  0.00     0.127 S 
ATOM     69  O   UNL A   1      39.398  36.028  38.295  1.00  0.00    -0.237 OA
ATOM     70  O   UNL A   1      41.496  35.457  37.138  1.00  0.00    -0.237 OA
ATOM     71  O   UNL A   1      39.648  36.476  35.880  1.00  0.00    -0.744 OA
ENDBRANCH  65  68
ENDBRANCH  47  61
BRANCH  48  72
ATOM     72  C   UNL A   1      42.227  26.636  27.569  1.00  0.00     0.023 A 
ATOM     73  C   UNL A   1      43.002  27.287  26.589  1.00  0.00     0.012 A 
ATOM     74  C   UNL A   1      41.936  25.267  27.417  1.00  0.00     0.148 A 
ATOM     75  C   UNL A   1      43.453  26.595  25.464  1.00  0.00     0.002 A 
ATOM     76  C   UNL A   1      42.436  24.571  26.322  1.00  0.00     0.091 A 
ATOM     77  F   UNL A   1      41.185  24.669  28.353  1.00  0.00    -0.205 F 
ATOM     78  C   UNL A   1      43.180  25.237  25.336  1.00  0.00     0.022 A 
BRANCH  76  79
ATOM     79  S   UNL A   1      42.248  22.792  26.155  1.00  0.00     0.127 S 
ATOM     80  O   UNL A   1      40.795  22.645  26.131  1.00  0.00    -0.237 OA
ATOM     81  O   UNL A   1      42.915  22.533  24.878  1.00  0.00    -0.237 OA
ATOM     82  O   UNL A   1      42.928  22.219  27.308  1.00  0.00    -0.744 OA
ENDBRANCH  76  79
ENDBRANCH  48  72
BRANCH  60  83
ATOM     83  C   UNL A   1      44.556  27.161  34.126  1.00  0.00     0.023 A 
ATOM     84  C   UNL A   1      44.384  25.932  34.795  1.00  0.00     0.012 A 
ATOM     85  C   UNL A   1      45.830  27.762  34.101  1.00  0.00     0.148 A 
ATOM     86  C   UNL A   1      45.451  25.332  35.461  1.00  0.00     0.002 A 
ATOM     87  C   UNL A   1      46.900  27.133  34.728  1.00  0.00     0.091 A 
ATOM     88  F   UNL A   1      45.973  28.941  33.479  1.00  0.00    -0.205 F 
ATOM     89  C   UNL A   1      46.711  25.926  35.419  1.00  0.00     0.022 A 
BRANCH  87  90
ATOM     90  S   UNL A   1      48.572  27.788  34.642  1.00  0.00     0.127 S 
ATOM     91  O   UNL A   1      48.802  27.834  33.200  1.00  0.00    -0.237 OA
ATOM     92  O   UNL A   1      48.432  29.098  35.280  1.00  0.00    -0.237 OA
ATOM     93  O   UNL A   1      49.400  26.846  35.385  1.00  0.00    -0.744 OA
ENDBRANCH  87  90
ENDBRANCH  60  83
ENDBRANCH  34  35
ENDBRANCH  26  29
ENDBRANCH  24  25
ENDBRANCH  23  24
ENDBRANCH   1  23
TORSDOF 19
ENDMDL
