MODEL 1
REMARK VINA RESULT:     -12.8      0.000      0.000
REMARK SMILES C#Cc1ccc2c(c1)C=C(C(=O)NCCCCCCNC(=O)c1ccc(-c3c4nc(c(-c5cccc(S(=O)(=O)[O-])c5F)c5ccc([nH]5)c(-c5cccc(S(=O)(=O)[O-])c5F)c5nc(c(-c6cccc(S(=O)(=O)[O-])c6F)c6ccc3[nH]6)C=C5)C=C4)cc1)[C@@H](C(F)(F)F)O2
REMARK SMILES IDX 17 1 16 2 15 3 14 4 13 5 11 6 12 7 10 9 3 10 4 11 8 12 5 13
REMARK SMILES IDX 7 14 6 15 9 16 91 17 86 18 2 19 1 20 87 21 88 22 89 23 90 24
REMARK SMILES IDX 18 25 19 26 20 27 21 28 22 30 23 31 24 32 85 33 25 34 84 35
REMARK SMILES IDX 26 36 27 37 28 38 78 39 29 40 83 41 77 42 79 43 30 44 82 45
REMARK SMILES IDX 76 46 75 47 31 49 63 50 43 51 62 52 44 53 47 54 61 55 80 56
REMARK SMILES IDX 45 57 46 58 60 60 81 61 48 62 32 63 33 64 41 65 34 66 36 67
REMARK SMILES IDX 42 68 35 69 37 70 38 71 39 72 40 73 64 74 65 75 73 76 66 77
REMARK SMILES IDX 68 78 74 79 67 80 69 81 70 82 71 83 72 84 49 85 50 86 58 87
REMARK SMILES IDX 51 88 53 89 59 90 52 91 54 92 55 93 56 94 57 95
REMARK H PARENT 13 8 20 29 79 48 47 59
REMARK Flexibility Score: inf
ROOT
ATOM      1  C   UNL A   1      34.744  21.061  25.232  1.00  0.00     0.002 C 
ENDROOT
BRANCH   1   2
ATOM      2  C   UNL A   1      33.757  20.056  24.622  1.00  0.00     0.002 C 
BRANCH   2   3
ATOM      3  C   UNL A   1      32.288  20.330  24.945  1.00  0.00     0.021 C 
BRANCH   3   4
ATOM      4  C   UNL A   1      31.943  21.814  24.924  1.00  0.00     0.116 C 
BRANCH   4   5
ATOM      5  N   UNL A   1      31.095  22.185  26.043  1.00  0.00    -0.352 N 
ATOM      6  C   UNL A   1      30.645  23.332  26.606  1.00  0.00     0.251 C 
ATOM      7  O   UNL A   1      29.889  23.190  27.572  1.00  0.00    -0.270 OA
ATOM      8  H   UNL A   1      30.757  21.392  26.519  1.00  0.00     0.163 HD
BRANCH   6   9
ATOM      9  C   UNL A   1      31.004  24.706  26.142  1.00  0.00     0.067 C 
ATOM     10  C   UNL A   1      29.903  28.587  23.475  1.00  0.00     0.025 A 
ATOM     11  C   UNL A   1      30.980  29.277  24.035  1.00  0.00     0.021 A 
ATOM     12  C   UNL A   1      29.620  27.276  23.874  1.00  0.00     0.029 A 
ATOM     13  C   UNL A   1      31.778  28.656  24.989  1.00  0.00     0.048 A 
ATOM     14  C   UNL A   1      30.421  26.649  24.833  1.00  0.00     0.018 A 
ATOM     15  C   UNL A   1      31.501  27.348  25.373  1.00  0.00     0.128 A 
ATOM     16  C   UNL A   1      30.127  25.304  25.315  1.00  0.00     0.025 C 
ATOM     17  O   UNL A   1      32.320  26.833  26.327  1.00  0.00    -0.475 OA
ATOM     18  C   UNL A   1      32.280  25.400  26.525  1.00  0.00     0.314 C 
BRANCH  10  19
ATOM     19  C   UNL A   1      29.086  29.242  22.503  1.00  0.00    -0.070 C 
ATOM     20  C   UNL A   1      28.415  29.775  21.660  1.00  0.00     0.010 C 
ENDBRANCH  10  19
BRANCH  18  21
ATOM     21  C   UNL A   1      33.517  24.768  25.861  1.00  0.00     0.429 C 
ATOM     22  F   UNL A   1      33.976  23.729  26.600  1.00  0.00    -0.167 F 
ATOM     23  F   UNL A   1      33.259  24.275  24.627  1.00  0.00    -0.167 F 
ATOM     24  F   UNL A   1      34.533  25.651  25.721  1.00  0.00    -0.167 F 
ENDBRANCH  18  21
ENDBRANCH   6   9
ENDBRANCH   4   5
ENDBRANCH   3   4
ENDBRANCH   2   3
ENDBRANCH   1   2
BRANCH   1  25
ATOM     25  C   UNL A   1      35.798  21.597  24.260  1.00  0.00     0.021 C 
BRANCH  25  26
ATOM     26  C   UNL A   1      37.068  22.089  24.938  1.00  0.00     0.116 C 
BRANCH  26  27
ATOM     27  N   UNL A   1      37.921  20.988  25.360  1.00  0.00    -0.352 N 
ATOM     28  C   UNL A   1      39.119  21.027  26.032  1.00  0.00     0.251 C 
ATOM     29  H   UNL A   1      37.593  20.088  25.131  1.00  0.00     0.163 HD
ATOM     30  O   UNL A   1      39.808  20.017  26.121  1.00  0.00    -0.269 OA
BRANCH  28  31
ATOM     31  C   UNL A   1      39.572  22.309  26.606  1.00  0.00     0.039 A 
ATOM     32  C   UNL A   1      38.998  23.507  26.177  1.00  0.00     0.014 A 
ATOM     33  C   UNL A   1      40.627  22.314  27.520  1.00  0.00     0.014 A 
ATOM     34  C   UNL A   1      39.609  24.710  26.499  1.00  0.00     0.010 A 
ATOM     35  C   UNL A   1      41.171  23.534  27.927  1.00  0.00     0.010 A 
ATOM     36  C   UNL A   1      40.710  24.738  27.370  1.00  0.00    -0.014 A 
BRANCH  36  37
ATOM     37  C   UNL A   1      41.380  26.028  27.667  1.00  0.00     0.031 A 
ATOM     38  C   UNL A   1      40.669  27.100  28.452  1.00  0.00     0.074 A 
ATOM     39  C   UNL A   1      42.646  26.228  27.251  1.00  0.00     0.049 A 
ATOM     40  N   UNL A   1      41.090  28.296  28.773  1.00  0.00    -0.248 NA
ATOM     41  C   UNL A   1      39.313  26.795  28.941  1.00  0.00     0.031 C 
ATOM     42  C   UNL A   1      43.444  25.266  26.488  1.00  0.00     0.029 A 
ATOM     43  N   UNL A   1      43.482  27.303  27.409  1.00  0.00    -0.354 N 
ATOM     44  C   UNL A   1      40.043  28.900  29.457  1.00  0.00     0.074 A 
ATOM     45  C   UNL A   1      38.959  27.944  29.503  1.00  0.00     0.031 C 
ATOM     46  C   UNL A   1      44.661  25.783  26.267  1.00  0.00     0.029 A 
ATOM     47  C   UNL A   1      44.707  27.135  26.811  1.00  0.00     0.049 A 
ATOM     48  H   UNL A   1      43.229  28.116  27.904  1.00  0.00     0.167 HD
ATOM     49  C   UNL A   1      39.994  30.134  30.012  1.00  0.00     0.034 A 
ATOM     50  C   UNL A   1      45.747  27.981  26.684  1.00  0.00     0.034 A 
ATOM     51  C   UNL A   1      41.085  31.069  30.000  1.00  0.00     0.049 A 
ATOM     52  C   UNL A   1      45.657  29.353  27.279  1.00  0.00     0.074 A 
ATOM     53  C   UNL A   1      41.139  32.325  30.579  1.00  0.00     0.029 A 
ATOM     54  N   UNL A   1      42.305  30.860  29.379  1.00  0.00    -0.354 N 
ATOM     55  N   UNL A   1      44.681  29.880  27.978  1.00  0.00    -0.248 NA
ATOM     56  C   UNL A   1      46.809  30.243  27.084  1.00  0.00     0.031 C 
ATOM     57  C   UNL A   1      42.381  32.890  30.279  1.00  0.00     0.029 A 
ATOM     58  C   UNL A   1      43.113  31.970  29.545  1.00  0.00     0.049 A 
ATOM     59  H   UNL A   1      42.558  30.043  28.892  1.00  0.00     0.167 HD
ATOM     60  C   UNL A   1      45.106  31.157  28.320  1.00  0.00     0.074 A 
ATOM     61  C   UNL A   1      46.436  31.319  27.766  1.00  0.00     0.031 C 
ATOM     62  C   UNL A   1      44.445  32.110  29.020  1.00  0.00     0.034 A 
BRANCH  49  63
ATOM     63  C   UNL A   1      38.729  30.550  30.712  1.00  0.00     0.023 A 
ATOM     64  C   UNL A   1      38.609  30.358  32.103  1.00  0.00     0.012 A 
ATOM     65  C   UNL A   1      37.711  31.227  30.013  1.00  0.00     0.148 A 
ATOM     66  C   UNL A   1      37.489  30.829  32.787  1.00  0.00     0.002 A 
ATOM     67  C   UNL A   1      36.612  31.718  30.706  1.00  0.00     0.091 A 
ATOM     68  F   UNL A   1      37.848  31.390  28.689  1.00  0.00    -0.205 F 
ATOM     69  C   UNL A   1      36.499  31.519  32.092  1.00  0.00     0.022 A 
BRANCH  67  70
ATOM     70  S   UNL A   1      35.297  32.650  29.913  1.00  0.00     0.127 S 
ATOM     71  O   UNL A   1      34.377  32.865  31.029  1.00  0.00    -0.237 OA
ATOM     72  O   UNL A   1      36.001  33.850  29.462  1.00  0.00    -0.237 OA
ATOM     73  O   UNL A   1      34.784  31.800  28.846  1.00  0.00    -0.744 OA
ENDBRANCH  67  70
ENDBRANCH  49  63
BRANCH  50  74
ATOM     74  C   UNL A   1      46.968  27.515  25.974  1.00  0.00     0.023 A 
ATOM     75  C   UNL A   1      47.877  26.678  26.645  1.00  0.00     0.012 A 
ATOM     76  C   UNL A   1      47.175  27.818  24.614  1.00  0.00     0.148 A 
ATOM     77  C   UNL A   1      48.973  26.144  25.970  1.00  0.00     0.002 A 
ATOM     78  C   UNL A   1      48.250  27.256  23.940  1.00  0.00     0.091 A 
ATOM     79  F   UNL A   1      46.285  28.611  24.001  1.00  0.00    -0.205 F 
ATOM     80  C   UNL A   1      49.154  26.423  24.617  1.00  0.00     0.022 A 
BRANCH  78  81
ATOM     81  S   UNL A   1      48.524  27.491  22.181  1.00  0.00     0.127 S 
ATOM     82  O   UNL A   1      49.766  28.261  22.174  1.00  0.00    -0.237 OA
ATOM     83  O   UNL A   1      48.651  26.110  21.714  1.00  0.00    -0.237 OA
ATOM     84  O   UNL A   1      47.351  28.197  21.685  1.00  0.00    -0.744 OA
ENDBRANCH  78  81
ENDBRANCH  50  74
BRANCH  62  85
ATOM     85  C   UNL A   1      45.135  33.425  29.254  1.00  0.00     0.023 A 
ATOM     86  C   UNL A   1      45.954  33.586  30.387  1.00  0.00     0.012 A 
ATOM     87  C   UNL A   1      45.079  34.446  28.284  1.00  0.00     0.148 A 
ATOM     88  C   UNL A   1      46.706  34.747  30.556  1.00  0.00     0.002 A 
ATOM     89  C   UNL A   1      45.854  35.587  28.443  1.00  0.00     0.091 A 
ATOM     90  F   UNL A   1      44.291  34.265  27.214  1.00  0.00    -0.205 F 
ATOM     91  C   UNL A   1      46.666  35.740  29.579  1.00  0.00     0.022 A 
BRANCH  89  92
ATOM     92  S   UNL A   1      45.911  36.899  27.217  1.00  0.00     0.127 S 
ATOM     93  O   UNL A   1      44.512  37.324  27.173  1.00  0.00    -0.237 OA
ATOM     94  O   UNL A   1      46.822  37.861  27.837  1.00  0.00    -0.237 OA
ATOM     95  O   UNL A   1      46.407  36.288  25.991  1.00  0.00    -0.744 OA
ENDBRANCH  89  92
ENDBRANCH  62  85
ENDBRANCH  36  37
ENDBRANCH  28  31
ENDBRANCH  26  27
ENDBRANCH  25  26
ENDBRANCH   1  25
TORSDOF 18
ENDMDL
MODEL 2
REMARK VINA RESULT:     -12.6      5.323     10.098
REMARK SMILES C#Cc1ccc2c(c1)C=C(C(=O)NCCCCCCNC(=O)c1ccc(-c3c4nc(c(-c5cccc(S(=O)(=O)[O-])c5F)c5ccc([nH]5)c(-c5cccc(S(=O)(=O)[O-])c5F)c5nc(c(-c6cccc(S(=O)(=O)[O-])c6F)c6ccc3[nH]6)C=C5)C=C4)cc1)[C@@H](C(F)(F)F)O2
REMARK SMILES IDX 17 1 16 2 15 3 14 4 13 5 11 6 12 7 10 9 3 10 4 11 8 12 5 13
REMARK SMILES IDX 7 14 6 15 9 16 91 17 86 18 2 19 1 20 87 21 88 22 89 23 90 24
REMARK SMILES IDX 18 25 19 26 20 27 21 28 22 30 23 31 24 32 85 33 25 34 84 35
REMARK SMILES IDX 26 36 27 37 28 38 78 39 29 40 83 41 77 42 79 43 30 44 82 45
REMARK SMILES IDX 76 46 75 47 31 49 63 50 43 51 62 52 44 53 47 54 61 55 80 56
REMARK SMILES IDX 45 57 46 58 60 60 81 61 48 62 32 63 33 64 41 65 34 66 36 67
REMARK SMILES IDX 42 68 35 69 37 70 38 71 39 72 40 73 64 74 65 75 73 76 66 77
REMARK SMILES IDX 68 78 74 79 67 80 69 81 70 82 71 83 72 84 49 85 50 86 58 87
REMARK SMILES IDX 51 88 53 89 59 90 52 91 54 92 55 93 56 94 57 95
REMARK H PARENT 13 8 20 29 79 48 47 59
REMARK Flexibility Score: inf
ROOT
ATOM      1  C   UNL A   1      32.254  28.511  27.354  1.00  0.00     0.002 C 
ENDROOT
BRANCH   1   2
ATOM      2  C   UNL A   1      33.615  28.115  26.765  1.00  0.00     0.002 C 
BRANCH   2   3
ATOM      3  C   UNL A   1      33.614  26.796  25.993  1.00  0.00     0.021 C 
BRANCH   3   4
ATOM      4  C   UNL A   1      33.888  26.978  24.506  1.00  0.00     0.116 C 
BRANCH   4   5
ATOM      5  N   UNL A   1      33.398  25.855  23.726  1.00  0.00    -0.352 N 
ATOM      6  C   UNL A   1      32.218  25.463  23.189  1.00  0.00     0.251 C 
ATOM      7  O   UNL A   1      32.247  24.406  22.551  1.00  0.00    -0.270 OA
ATOM      8  H   UNL A   1      34.113  25.205  23.539  1.00  0.00     0.163 HD
BRANCH   6   9
ATOM      9  C   UNL A   1      30.930  26.210  23.325  1.00  0.00     0.067 C 
ATOM     10  C   UNL A   1      28.341  30.187  22.391  1.00  0.00     0.025 A 
ATOM     11  C   UNL A   1      27.208  29.576  22.931  1.00  0.00     0.021 A 
ATOM     12  C   UNL A   1      29.557  29.495  22.331  1.00  0.00     0.029 A 
ATOM     13  C   UNL A   1      27.289  28.275  23.417  1.00  0.00     0.048 A 
ATOM     14  C   UNL A   1      29.641  28.187  22.819  1.00  0.00     0.018 A 
ATOM     15  C   UNL A   1      28.502  27.596  23.367  1.00  0.00     0.128 A 
ATOM     16  C   UNL A   1      30.874  27.414  22.725  1.00  0.00     0.025 C 
ATOM     17  O   UNL A   1      28.479  26.323  23.843  1.00  0.00    -0.475 OA
ATOM     18  C   UNL A   1      29.756  25.696  24.108  1.00  0.00     0.314 C 
BRANCH  10  19
ATOM     19  C   UNL A   1      28.241  31.520  21.888  1.00  0.00    -0.070 C 
ATOM     20  C   UNL A   1      28.180  32.652  21.487  1.00  0.00     0.010 C 
ENDBRANCH  10  19
BRANCH  18  21
ATOM     21  C   UNL A   1      30.011  25.706  25.627  1.00  0.00     0.429 C 
ATOM     22  F   UNL A   1      30.393  26.939  26.037  1.00  0.00    -0.167 F 
ATOM     23  F   UNL A   1      28.910  25.387  26.348  1.00  0.00    -0.167 F 
ATOM     24  F   UNL A   1      30.981  24.835  25.991  1.00  0.00    -0.167 F 
ENDBRANCH  18  21
ENDBRANCH   6   9
ENDBRANCH   4   5
ENDBRANCH   3   4
ENDBRANCH   2   3
ENDBRANCH   1   2
BRANCH   1  25
ATOM     25  C   UNL A   1      31.753  29.896  26.940  1.00  0.00     0.021 C 
BRANCH  25  26
ATOM     26  C   UNL A   1      32.837  30.798  26.367  1.00  0.00     0.116 C 
BRANCH  26  27
ATOM     27  N   UNL A   1      32.740  32.158  26.878  1.00  0.00    -0.352 N 
ATOM     28  C   UNL A   1      33.558  32.811  27.767  1.00  0.00     0.251 C 
ATOM     29  H   UNL A   1      31.979  32.683  26.538  1.00  0.00     0.163 HD
ATOM     30  O   UNL A   1      33.211  33.883  28.251  1.00  0.00    -0.269 OA
BRANCH  28  31
ATOM     31  C   UNL A   1      34.836  32.182  28.153  1.00  0.00     0.039 A 
ATOM     32  C   UNL A   1      34.858  30.853  28.583  1.00  0.00     0.014 A 
ATOM     33  C   UNL A   1      36.003  32.947  28.156  1.00  0.00     0.014 A 
ATOM     34  C   UNL A   1      35.993  30.356  29.207  1.00  0.00     0.010 A 
ATOM     35  C   UNL A   1      37.175  32.405  28.687  1.00  0.00     0.010 A 
ATOM     36  C   UNL A   1      37.163  31.130  29.276  1.00  0.00    -0.014 A 
BRANCH  36  37
ATOM     37  C   UNL A   1      38.353  30.601  29.987  1.00  0.00     0.031 A 
ATOM     38  C   UNL A   1      39.277  29.620  29.314  1.00  0.00     0.074 A 
ATOM     39  C   UNL A   1      38.620  31.026  31.238  1.00  0.00     0.049 A 
ATOM     40  N   UNL A   1      40.341  29.033  29.797  1.00  0.00    -0.248 NA
ATOM     41  C   UNL A   1      38.973  29.248  27.920  1.00  0.00     0.031 C 
ATOM     42  C   UNL A   1      37.805  31.978  31.997  1.00  0.00     0.029 A 
ATOM     43  N   UNL A   1      39.647  30.713  32.091  1.00  0.00    -0.354 N 
ATOM     44  C   UNL A   1      40.805  28.193  28.792  1.00  0.00     0.074 A 
ATOM     45  C   UNL A   1      39.906  28.340  27.669  1.00  0.00     0.031 C 
ATOM     46  C   UNL A   1      38.377  32.191  33.190  1.00  0.00     0.029 A 
ATOM     47  C   UNL A   1      39.557  31.342  33.308  1.00  0.00     0.049 A 
ATOM     48  H   UNL A   1      40.378  30.098  31.853  1.00  0.00     0.167 HD
ATOM     49  C   UNL A   1      41.891  27.386  28.797  1.00  0.00     0.034 A 
ATOM     50  C   UNL A   1      40.318  31.232  34.413  1.00  0.00     0.034 A 
ATOM     51  C   UNL A   1      42.807  27.271  29.899  1.00  0.00     0.049 A 
ATOM     52  C   UNL A   1      41.497  30.308  34.406  1.00  0.00     0.074 A 
ATOM     53  C   UNL A   1      43.962  26.511  29.973  1.00  0.00     0.029 A 
ATOM     54  N   UNL A   1      42.675  27.922  31.114  1.00  0.00    -0.354 N 
ATOM     55  N   UNL A   1      41.955  29.572  33.422  1.00  0.00    -0.248 NA
ATOM     56  C   UNL A   1      42.273  30.205  35.649  1.00  0.00     0.031 C 
ATOM     57  C   UNL A   1      44.511  26.677  31.247  1.00  0.00     0.029 A 
ATOM     58  C   UNL A   1      43.718  27.568  31.952  1.00  0.00     0.049 A 
ATOM     59  H   UNL A   1      41.948  28.543  31.346  1.00  0.00     0.167 HD
ATOM     60  C   UNL A   1      43.081  28.930  33.921  1.00  0.00     0.074 A 
ATOM     61  C   UNL A   1      43.247  29.377  35.289  1.00  0.00     0.031 C 
ATOM     62  C   UNL A   1      43.894  28.043  33.299  1.00  0.00     0.034 A 
BRANCH  49  63
ATOM     63  C   UNL A   1      42.182  26.575  27.564  1.00  0.00     0.023 A 
ATOM     64  C   UNL A   1      42.846  27.177  26.477  1.00  0.00     0.012 A 
ATOM     65  C   UNL A   1      41.897  25.196  27.528  1.00  0.00     0.148 A 
ATOM     66  C   UNL A   1      43.216  26.418  25.367  1.00  0.00     0.002 A 
ATOM     67  C   UNL A   1      42.294  24.441  26.432  1.00  0.00     0.091 A 
ATOM     68  F   UNL A   1      41.259  24.650  28.573  1.00  0.00    -0.205 F 
ATOM     69  C   UNL A   1      42.952  25.051  25.350  1.00  0.00     0.022 A 
BRANCH  67  70
ATOM     70  S   UNL A   1      42.033  22.668  26.325  1.00  0.00     0.127 S 
ATOM     71  O   UNL A   1      40.576  22.580  26.411  1.00  0.00    -0.237 OA
ATOM     72  O   UNL A   1      42.586  22.356  25.007  1.00  0.00    -0.237 OA
ATOM     73  O   UNL A   1      42.753  22.083  27.448  1.00  0.00    -0.744 OA
ENDBRANCH  67  70
ENDBRANCH  49  63
BRANCH  50  74
ATOM     74  C   UNL A   1      39.976  32.054  35.604  1.00  0.00     0.023 A 
ATOM     75  C   UNL A   1      40.578  33.314  35.766  1.00  0.00     0.012 A 
ATOM     76  C   UNL A   1      38.988  31.632  36.516  1.00  0.00     0.148 A 
ATOM     77  C   UNL A   1      40.197  34.147  36.818  1.00  0.00     0.002 A 
ATOM     78  C   UNL A   1      38.591  32.480  37.540  1.00  0.00     0.091 A 
ATOM     79  F   UNL A   1      38.427  30.430  36.329  1.00  0.00    -0.205 F 
ATOM     80  C   UNL A   1      39.197  33.737  37.697  1.00  0.00     0.022 A 
BRANCH  78  81
ATOM     81  S   UNL A   1      37.258  32.076  38.675  1.00  0.00     0.127 S 
ATOM     82  O   UNL A   1      36.173  32.912  38.168  1.00  0.00    -0.237 OA
ATOM     83  O   UNL A   1      37.094  30.641  38.439  1.00  0.00    -0.237 OA
ATOM     84  O   UNL A   1      37.745  32.425  40.002  1.00  0.00    -0.744 OA
ENDBRANCH  78  81
ENDBRANCH  50  74
BRANCH  62  85
ATOM     85  C   UNL A   1      45.058  27.487  34.070  1.00  0.00     0.023 A 
ATOM     86  C   UNL A   1      46.273  28.197  34.098  1.00  0.00     0.012 A 
ATOM     87  C   UNL A   1      44.904  26.337  34.871  1.00  0.00     0.148 A 
ATOM     88  C   UNL A   1      47.322  27.770  34.911  1.00  0.00     0.002 A 
ATOM     89  C   UNL A   1      45.941  25.934  35.701  1.00  0.00     0.091 A 
ATOM     90  F   UNL A   1      43.736  25.681  34.824  1.00  0.00    -0.205 F 
ATOM     91  C   UNL A   1      47.151  26.648  35.721  1.00  0.00     0.022 A 
BRANCH  89  92
ATOM     92  S   UNL A   1      45.802  24.535  36.818  1.00  0.00     0.127 S 
ATOM     93  O   UNL A   1      44.596  24.876  37.572  1.00  0.00    -0.237 OA
ATOM     94  O   UNL A   1      45.647  23.415  35.891  1.00  0.00    -0.237 OA
ATOM     95  O   UNL A   1      47.031  24.516  37.600  1.00  0.00    -0.744 OA
ENDBRANCH  89  92
ENDBRANCH  62  85
ENDBRANCH  36  37
ENDBRANCH  28  31
ENDBRANCH  26  27
ENDBRANCH  25  26
ENDBRANCH   1  25
TORSDOF 18
ENDMDL
MODEL 3
REMARK VINA RESULT:     -12.6      5.790      8.726
REMARK SMILES C#Cc1ccc2c(c1)C=C(C(=O)NCCCCCCNC(=O)c1ccc(-c3c4nc(c(-c5cccc(S(=O)(=O)[O-])c5F)c5ccc([nH]5)c(-c5cccc(S(=O)(=O)[O-])c5F)c5nc(c(-c6cccc(S(=O)(=O)[O-])c6F)c6ccc3[nH]6)C=C5)C=C4)cc1)[C@@H](C(F)(F)F)O2
REMARK SMILES IDX 17 1 16 2 15 3 14 4 13 5 11 6 12 7 10 9 3 10 4 11 8 12 5 13
REMARK SMILES IDX 7 14 6 15 9 16 91 17 86 18 2 19 1 20 87 21 88 22 89 23 90 24
REMARK SMILES IDX 18 25 19 26 20 27 21 28 22 30 23 31 24 32 85 33 25 34 84 35
REMARK SMILES IDX 26 36 27 37 28 38 78 39 29 40 83 41 77 42 79 43 30 44 82 45
REMARK SMILES IDX 76 46 75 47 31 49 63 50 43 51 62 52 44 53 47 54 61 55 80 56
REMARK SMILES IDX 45 57 46 58 60 60 81 61 48 62 32 63 33 64 41 65 34 66 36 67
REMARK SMILES IDX 42 68 35 69 37 70 38 71 39 72 40 73 64 74 65 75 73 76 66 77
REMARK SMILES IDX 68 78 74 79 67 80 69 81 70 82 71 83 72 84 49 85 50 86 58 87
REMARK SMILES IDX 51 88 53 89 59 90 52 91 54 92 55 93 56 94 57 95
REMARK H PARENT 13 8 20 29 79 48 47 59
REMARK Flexibility Score: inf
ROOT
ATOM      1  C   UNL A   1      32.203  30.098  26.721  1.00  0.00     0.002 C 
ENDROOT
BRANCH   1   2
ATOM      2  C   UNL A   1      33.682  29.697  26.800  1.00  0.00     0.002 C 
BRANCH   2   3
ATOM      3  C   UNL A   1      33.981  28.275  26.325  1.00  0.00     0.021 C 
BRANCH   3   4
ATOM      4  C   UNL A   1      34.216  28.188  24.822  1.00  0.00     0.116 C 
BRANCH   4   5
ATOM      5  N   UNL A   1      33.968  26.849  24.315  1.00  0.00    -0.352 N 
ATOM      6  C   UNL A   1      32.905  26.145  23.858  1.00  0.00     0.251 C 
ATOM      7  O   UNL A   1      33.150  24.993  23.485  1.00  0.00    -0.270 OA
ATOM      8  H   UNL A   1      34.792  26.310  24.300  1.00  0.00     0.163 HD
BRANCH   6   9
ATOM      9  C   UNL A   1      31.506  26.665  23.787  1.00  0.00     0.067 C 
ATOM     10  C   UNL A   1      28.464  30.173  22.435  1.00  0.00     0.025 A 
ATOM     11  C   UNL A   1      27.379  29.371  22.797  1.00  0.00     0.021 A 
ATOM     12  C   UNL A   1      29.772  29.694  22.569  1.00  0.00     0.029 A 
ATOM     13  C   UNL A   1      27.601  28.094  23.299  1.00  0.00     0.048 A 
ATOM     14  C   UNL A   1      29.998  28.410  23.074  1.00  0.00     0.018 A 
ATOM     15  C   UNL A   1      28.903  27.626  23.443  1.00  0.00     0.128 A 
ATOM     16  C   UNL A   1      31.342  27.854  23.177  1.00  0.00     0.025 C 
ATOM     17  O   UNL A   1      29.020  26.359  23.919  1.00  0.00    -0.475 OA
ATOM     18  C   UNL A   1      30.328  25.948  24.383  1.00  0.00     0.314 C 
BRANCH  10  19
ATOM     19  C   UNL A   1      28.220  31.480  21.913  1.00  0.00    -0.070 C 
ATOM     20  C   UNL A   1      28.047  32.581  21.462  1.00  0.00     0.010 C 
ENDBRANCH  10  19
BRANCH  18  21
ATOM     21  C   UNL A   1      30.341  25.971  25.923  1.00  0.00     0.429 C 
ATOM     22  F   UNL A   1      29.129  25.618  26.413  1.00  0.00    -0.167 F 
ATOM     23  F   UNL A   1      31.236  25.105  26.455  1.00  0.00    -0.167 F 
ATOM     24  F   UNL A   1      30.642  27.194  26.416  1.00  0.00    -0.167 F 
ENDBRANCH  18  21
ENDBRANCH   6   9
ENDBRANCH   4   5
ENDBRANCH   3   4
ENDBRANCH   2   3
ENDBRANCH   1   2
BRANCH   1  25
ATOM     25  C   UNL A   1      31.942  31.605  26.784  1.00  0.00     0.021 C 
BRANCH  25  26
ATOM     26  C   UNL A   1      33.082  32.402  27.402  1.00  0.00     0.116 C 
BRANCH  26  27
ATOM     27  N   UNL A   1      32.716  33.795  27.619  1.00  0.00    -0.352 N 
ATOM     28  C   UNL A   1      33.163  34.670  28.579  1.00  0.00     0.251 C 
ATOM     29  H   UNL A   1      32.054  34.160  26.988  1.00  0.00     0.163 HD
ATOM     30  O   UNL A   1      32.594  35.742  28.748  1.00  0.00    -0.269 OA
BRANCH  28  31
ATOM     31  C   UNL A   1      34.310  34.277  29.421  1.00  0.00     0.039 A 
ATOM     32  C   UNL A   1      35.614  34.465  28.956  1.00  0.00     0.014 A 
ATOM     33  C   UNL A   1      34.078  33.651  30.646  1.00  0.00     0.014 A 
ATOM     34  C   UNL A   1      36.668  33.846  29.611  1.00  0.00     0.010 A 
ATOM     35  C   UNL A   1      35.156  33.122  31.358  1.00  0.00     0.010 A 
ATOM     36  C   UNL A   1      36.451  33.158  30.816  1.00  0.00    -0.014 A 
BRANCH  36  37
ATOM     37  C   UNL A   1      37.581  32.463  31.479  1.00  0.00     0.031 A 
ATOM     38  C   UNL A   1      38.054  32.894  32.843  1.00  0.00     0.074 A 
ATOM     39  C   UNL A   1      38.170  31.419  30.863  1.00  0.00     0.049 A 
ATOM     40  N   UNL A   1      39.046  32.421  33.554  1.00  0.00    -0.248 NA
ATOM     41  C   UNL A   1      37.325  33.995  33.497  1.00  0.00     0.031 C 
ATOM     42  C   UNL A   1      37.800  30.900  29.544  1.00  0.00     0.029 A 
ATOM     43  N   UNL A   1      39.202  30.608  31.262  1.00  0.00    -0.354 N 
ATOM     44  C   UNL A   1      39.089  33.191  34.710  1.00  0.00     0.074 A 
ATOM     45  C   UNL A   1      38.028  34.167  34.609  1.00  0.00     0.031 C 
ATOM     46  C   UNL A   1      38.574  29.846  29.254  1.00  0.00     0.029 A 
ATOM     47  C   UNL A   1      39.538  29.654  30.331  1.00  0.00     0.049 A 
ATOM     48  H   UNL A   1      39.656  30.700  32.130  1.00  0.00     0.167 HD
ATOM     49  C   UNL A   1      39.926  33.082  35.768  1.00  0.00     0.034 A 
ATOM     50  C   UNL A   1      40.529  28.743  30.325  1.00  0.00     0.034 A 
ATOM     51  C   UNL A   1      40.956  32.086  35.885  1.00  0.00     0.049 A 
ATOM     52  C   UNL A   1      41.463  28.663  31.495  1.00  0.00     0.074 A 
ATOM     53  C   UNL A   1      41.820  31.873  36.944  1.00  0.00     0.029 A 
ATOM     54  N   UNL A   1      41.264  31.144  34.919  1.00  0.00    -0.354 N 
ATOM     55  N   UNL A   1      41.445  29.358  32.606  1.00  0.00    -0.248 NA
ATOM     56  C   UNL A   1      42.543  27.671  31.420  1.00  0.00     0.031 C 
ATOM     57  C   UNL A   1      42.676  30.822  36.604  1.00  0.00     0.029 A 
ATOM     58  C   UNL A   1      42.319  30.358  35.348  1.00  0.00     0.049 A 
ATOM     59  H   UNL A   1      40.803  31.048  34.055  1.00  0.00     0.167 HD
ATOM     60  C   UNL A   1      42.500  28.877  33.371  1.00  0.00     0.074 A 
ATOM     61  C   UNL A   1      43.126  27.820  32.603  1.00  0.00     0.031 C 
ATOM     62  C   UNL A   1      42.914  29.287  34.593  1.00  0.00     0.034 A 
BRANCH  49  63
ATOM     63  C   UNL A   1      39.757  34.045  36.911  1.00  0.00     0.023 A 
ATOM     64  C   UNL A   1      40.085  35.403  36.731  1.00  0.00     0.012 A 
ATOM     65  C   UNL A   1      39.172  33.625  38.122  1.00  0.00     0.148 A 
ATOM     66  C   UNL A   1      39.838  36.329  37.744  1.00  0.00     0.002 A 
ATOM     67  C   UNL A   1      38.904  34.558  39.115  1.00  0.00     0.091 A 
ATOM     68  F   UNL A   1      38.876  32.325  38.269  1.00  0.00    -0.205 F 
ATOM     69  C   UNL A   1      39.238  35.910  38.928  1.00  0.00     0.022 A 
BRANCH  67  70
ATOM     70  S   UNL A   1      38.103  34.129  40.664  1.00  0.00     0.127 S 
ATOM     71  O   UNL A   1      39.174  33.419  41.361  1.00  0.00    -0.237 OA
ATOM     72  O   UNL A   1      37.782  35.444  41.217  1.00  0.00    -0.237 OA
ATOM     73  O   UNL A   1      36.950  33.312  40.312  1.00  0.00    -0.744 OA
ENDBRANCH  67  70
ENDBRANCH  49  63
BRANCH  50  74
ATOM     74  C   UNL A   1      40.650  27.824  29.164  1.00  0.00     0.023 A 
ATOM     75  C   UNL A   1      39.786  26.719  29.067  1.00  0.00     0.012 A 
ATOM     76  C   UNL A   1      41.548  28.098  28.113  1.00  0.00     0.148 A 
ATOM     77  C   UNL A   1      39.809  25.902  27.937  1.00  0.00     0.002 A 
ATOM     78  C   UNL A   1      41.543  27.301  26.977  1.00  0.00     0.091 A 
ATOM     79  F   UNL A   1      42.352  29.164  28.232  1.00  0.00    -0.205 F 
ATOM     80  C   UNL A   1      40.678  26.198  26.889  1.00  0.00     0.022 A 
BRANCH  78  81
ATOM     81  S   UNL A   1      42.566  27.646  25.543  1.00  0.00     0.127 S 
ATOM     82  O   UNL A   1      42.278  26.496  24.688  1.00  0.00    -0.237 OA
ATOM     83  O   UNL A   1      42.007  28.916  25.078  1.00  0.00    -0.237 OA
ATOM     84  O   UNL A   1      43.934  27.725  26.038  1.00  0.00    -0.744 OA
ENDBRANCH  78  81
ENDBRANCH  50  74
BRANCH  62  85
ATOM     85  C   UNL A   1      44.097  28.595  35.210  1.00  0.00     0.023 A 
ATOM     86  C   UNL A   1      45.397  29.049  34.915  1.00  0.00     0.012 A 
ATOM     87  C   UNL A   1      43.914  27.590  36.180  1.00  0.00     0.148 A 
ATOM     88  C   UNL A   1      46.500  28.510  35.575  1.00  0.00     0.002 A 
ATOM     89  C   UNL A   1      45.014  27.079  36.856  1.00  0.00     0.091 A 
ATOM     90  F   UNL A   1      42.665  27.178  36.441  1.00  0.00    -0.205 F 
ATOM     91  C   UNL A   1      46.307  27.536  36.553  1.00  0.00     0.022 A 
BRANCH  89  92
ATOM     92  S   UNL A   1      44.867  25.860  38.167  1.00  0.00     0.127 S 
ATOM     93  O   UNL A   1      44.495  24.661  37.416  1.00  0.00    -0.237 OA
ATOM     94  O   UNL A   1      46.220  25.838  38.721  1.00  0.00    -0.237 OA
ATOM     95  O   UNL A   1      43.842  26.361  39.073  1.00  0.00    -0.744 OA
ENDBRANCH  89  92
ENDBRANCH  62  85
ENDBRANCH  36  37
ENDBRANCH  28  31
ENDBRANCH  26  27
ENDBRANCH  25  26
ENDBRANCH   1  25
TORSDOF 18
ENDMDL
