MODEL 1
REMARK VINA RESULT:     -12.3      0.000      0.000
REMARK SMILES O=C(NCCCCCCNC(=O)[C@@H]1C=C[C@H](NC(=O)[C@@H]2Cc3ccccc3O2)C1)c1ccc(-c2c3nc(c(-c4cccc(S(=O)(=O)[O-])c4F)c4ccc([nH]4)c(-c4cccc(S(=O)(=O)[O-])c4F)c4nc(c(-c5cccc(S(=O)(=O)[O-])c5F)c5ccc2[nH]5)C=C4)C=C3)cc1
REMARK SMILES IDX 6 1 5 2 4 3 3 4 1 5 2 6 30 8 31 9 92 10 32 11 91 12 33 13
REMARK SMILES IDX 34 14 35 15 85 16 36 17 90 18 84 19 86 20 37 21 89 22 83 23
REMARK SMILES IDX 82 24 38 26 70 27 50 28 69 29 51 30 54 31 68 32 87 33 52 34
REMARK SMILES IDX 53 35 67 37 88 38 55 39 39 40 40 41 48 42 41 43 43 44 49 45
REMARK SMILES IDX 42 46 44 47 45 48 46 49 47 50 71 51 72 52 80 53 73 54 75 55
REMARK SMILES IDX 81 56 74 57 76 58 77 59 78 60 79 61 56 62 57 63 65 64 58 65
REMARK SMILES IDX 60 66 66 67 59 68 61 69 62 70 63 71 64 72 7 73 8 74 9 75
REMARK SMILES IDX 10 76 11 77 12 79 13 80 14 81 29 82 15 83 16 84 17 85 18 86
REMARK SMILES IDX 19 88 20 89 21 90 28 91 22 92 27 93 23 94 26 95 24 96 25 97
REMARK H PARENT 3 7 86 25 54 36 10 78 17 87
REMARK Flexibility Score: inf
ROOT
ATOM      1  C   UNL A   1      32.153  28.607  24.014  1.00  0.00     0.002 C 
ENDROOT
BRANCH   1   2
ATOM      2  C   UNL A   1      32.999  29.513  24.906  1.00  0.00     0.021 C 
BRANCH   2   3
ATOM      3  C   UNL A   1      32.450  29.800  26.295  1.00  0.00     0.116 C 
BRANCH   3   4
ATOM      4  N   UNL A   1      32.248  31.210  26.562  1.00  0.00    -0.352 N 
ATOM      5  O   UNL A   1      32.673  33.231  27.462  1.00  0.00    -0.269 OA
ATOM      6  C   UNL A   1      33.048  32.085  27.267  1.00  0.00     0.251 C 
ATOM      7  H   UNL A   1      31.424  31.598  26.190  1.00  0.00     0.163 HD
BRANCH   6   8
ATOM      8  C   UNL A   1      34.341  31.612  27.822  1.00  0.00     0.039 A 
ATOM      9  C   UNL A   1      34.517  30.282  28.211  1.00  0.00     0.014 A 
ATOM     10  C   UNL A   1      35.382  32.530  27.982  1.00  0.00     0.014 A 
ATOM     11  C   UNL A   1      35.659  29.914  28.914  1.00  0.00     0.010 A 
ATOM     12  C   UNL A   1      36.570  32.131  28.607  1.00  0.00     0.010 A 
ATOM     13  C   UNL A   1      36.701  30.834  29.124  1.00  0.00    -0.014 A 
BRANCH  13  14
ATOM     14  C   UNL A   1      37.924  30.401  29.851  1.00  0.00     0.031 A 
ATOM     15  C   UNL A   1      38.196  30.847  31.265  1.00  0.00     0.074 A 
ATOM     16  C   UNL A   1      38.791  29.578  29.229  1.00  0.00     0.049 A 
ATOM     17  N   UNL A   1      39.181  30.506  32.057  1.00  0.00    -0.248 NA
ATOM     18  C   UNL A   1      37.252  31.802  31.866  1.00  0.00     0.031 C 
ATOM     19  C   UNL A   1      38.666  29.117  27.844  1.00  0.00     0.029 A 
ATOM     20  N   UNL A   1      39.941  28.978  29.675  1.00  0.00    -0.354 N 
ATOM     21  C   UNL A   1      39.006  31.238  33.227  1.00  0.00     0.074 A 
ATOM     22  C   UNL A   1      37.820  32.046  33.040  1.00  0.00     0.031 C 
ATOM     23  C   UNL A   1      39.674  28.277  27.567  1.00  0.00     0.029 A 
ATOM     24  C   UNL A   1      40.541  28.173  28.734  1.00  0.00     0.049 A 
ATOM     25  H   UNL A   1      40.303  29.110  30.582  1.00  0.00     0.167 HD
ATOM     26  C   UNL A   1      39.753  31.226  34.357  1.00  0.00     0.034 A 
ATOM     27  C   UNL A   1      41.665  27.434  28.800  1.00  0.00     0.034 A 
ATOM     28  C   UNL A   1      40.903  30.383  34.559  1.00  0.00     0.049 A 
ATOM     29  C   UNL A   1      42.440  27.399  30.086  1.00  0.00     0.074 A 
ATOM     30  C   UNL A   1      41.677  30.242  35.698  1.00  0.00     0.029 A 
ATOM     31  N   UNL A   1      41.447  29.542  33.602  1.00  0.00    -0.354 N 
ATOM     32  N   UNL A   1      42.174  27.987  31.225  1.00  0.00    -0.248 NA
ATOM     33  C   UNL A   1      43.656  26.574  30.103  1.00  0.00     0.031 C 
ATOM     34  C   UNL A   1      42.698  29.325  35.425  1.00  0.00     0.029 A 
ATOM     35  C   UNL A   1      42.549  28.882  34.120  1.00  0.00     0.049 A 
ATOM     36  H   UNL A   1      41.101  29.428  32.687  1.00  0.00     0.167 HD
ATOM     37  C   UNL A   1      43.169  27.581  32.105  1.00  0.00     0.074 A 
ATOM     38  C   UNL A   1      44.031  26.675  31.371  1.00  0.00     0.031 C 
ATOM     39  C   UNL A   1      43.364  27.941  33.397  1.00  0.00     0.034 A 
BRANCH  26  40
ATOM     40  C   UNL A   1      39.330  32.124  35.492  1.00  0.00     0.023 A 
ATOM     41  C   UNL A   1      38.472  31.623  36.492  1.00  0.00     0.012 A 
ATOM     42  C   UNL A   1      39.840  33.432  35.612  1.00  0.00     0.148 A 
ATOM     43  C   UNL A   1      38.104  32.420  37.577  1.00  0.00     0.002 A 
ATOM     44  C   UNL A   1      39.500  34.206  36.716  1.00  0.00     0.091 A 
ATOM     45  F   UNL A   1      40.637  33.900  34.641  1.00  0.00    -0.205 F 
ATOM     46  C   UNL A   1      38.625  33.705  37.695  1.00  0.00     0.022 A 
BRANCH  44  47
ATOM     47  S   UNL A   1      40.185  35.845  36.994  1.00  0.00     0.127 S 
ATOM     48  O   UNL A   1      39.712  36.565  35.812  1.00  0.00    -0.237 OA
ATOM     49  O   UNL A   1      39.542  36.243  38.247  1.00  0.00    -0.237 OA
ATOM     50  O   UNL A   1      41.627  35.662  37.086  1.00  0.00    -0.744 OA
ENDBRANCH  44  47
ENDBRANCH  26  40
BRANCH  27  51
ATOM     51  C   UNL A   1      42.074  26.607  27.630  1.00  0.00     0.023 A 
ATOM     52  C   UNL A   1      42.896  27.176  26.638  1.00  0.00     0.012 A 
ATOM     53  C   UNL A   1      41.702  25.254  27.521  1.00  0.00     0.148 A 
ATOM     54  C   UNL A   1      43.319  26.419  25.546  1.00  0.00     0.002 A 
ATOM     55  C   UNL A   1      42.176  24.489  26.463  1.00  0.00     0.091 A 
ATOM     56  F   UNL A   1      40.906  24.736  28.467  1.00  0.00    -0.205 F 
ATOM     57  C   UNL A   1      42.972  25.072  25.465  1.00  0.00     0.022 A 
BRANCH  55  58
ATOM     58  S   UNL A   1      41.895  22.717  26.365  1.00  0.00     0.127 S 
ATOM     59  O   UNL A   1      42.549  22.380  25.104  1.00  0.00    -0.237 OA
ATOM     60  O   UNL A   1      42.580  22.233  27.564  1.00  0.00    -0.237 OA
ATOM     61  O   UNL A   1      40.447  22.552  26.399  1.00  0.00    -0.744 OA
ENDBRANCH  55  58
ENDBRANCH  27  51
BRANCH  39  62
ATOM     62  C   UNL A   1      44.538  27.331  34.116  1.00  0.00     0.023 A 
ATOM     63  C   UNL A   1      45.785  27.986  34.097  1.00  0.00     0.012 A 
ATOM     64  C   UNL A   1      44.392  26.141  34.856  1.00  0.00     0.148 A 
ATOM     65  C   UNL A   1      46.878  27.448  34.776  1.00  0.00     0.002 A 
ATOM     66  C   UNL A   1      45.474  25.636  35.567  1.00  0.00     0.091 A 
ATOM     67  F   UNL A   1      43.204  25.518  34.843  1.00  0.00    -0.205 F 
ATOM     68  C   UNL A   1      46.721  26.281  35.519  1.00  0.00     0.022 A 
BRANCH  66  69
ATOM     69  S   UNL A   1      45.325  24.188  36.621  1.00  0.00     0.127 S 
ATOM     70  O   UNL A   1      44.800  24.768  37.855  1.00  0.00    -0.237 OA
ATOM     71  O   UNL A   1      44.371  23.358  35.883  1.00  0.00    -0.237 OA
ATOM     72  O   UNL A   1      46.666  23.624  36.709  1.00  0.00    -0.744 OA
ENDBRANCH  66  69
ENDBRANCH  39  62
ENDBRANCH  13  14
ENDBRANCH   6   8
ENDBRANCH   3   4
ENDBRANCH   2   3
ENDBRANCH   1   2
BRANCH   1  73
ATOM     73  C   UNL A   1      30.635  28.667  24.200  1.00  0.00     0.002 C 
BRANCH  73  74
ATOM     74  C   UNL A   1      29.790  27.655  23.421  1.00  0.00     0.021 C 
BRANCH  74  75
ATOM     75  C   UNL A   1      30.528  26.459  22.840  1.00  0.00     0.116 C 
BRANCH  75  76
ATOM     76  N   UNL A   1      30.665  25.362  23.769  1.00  0.00    -0.356 N 
ATOM     77  C   UNL A   1      31.808  24.729  24.169  1.00  0.00     0.227 C 
ATOM     78  H   UNL A   1      29.828  25.027  24.165  1.00  0.00     0.163 HD
ATOM     79  O   UNL A   1      31.697  23.819  24.991  1.00  0.00    -0.274 OA
BRANCH  77  80
ATOM     80  C   UNL A   1      33.139  25.114  23.502  1.00  0.00     0.103 C 
ATOM     81  C   UNL A   1      33.684  23.991  22.678  1.00  0.00    -0.016 C 
ATOM     82  C   UNL A   1      34.323  25.353  24.463  1.00  0.00     0.047 C 
ATOM     83  C   UNL A   1      34.716  23.400  23.289  1.00  0.00    -0.006 C 
ATOM     84  C   UNL A   1      35.029  23.993  24.614  1.00  0.00     0.106 C 
BRANCH  84  85
ATOM     85  N   UNL A   1      34.458  23.277  25.747  1.00  0.00    -0.347 N 
ATOM     86  C   UNL A   1      34.109  21.993  26.003  1.00  0.00     0.261 C 
ATOM     87  H   UNL A   1      34.284  23.871  26.513  1.00  0.00     0.164 HD
ATOM     88  O   UNL A   1      34.015  21.692  27.202  1.00  0.00    -0.271 OA
BRANCH  86  89
ATOM     89  C   UNL A   1      33.834  20.931  24.939  1.00  0.00     0.266 C 
ATOM     90  C   UNL A   1      32.535  20.152  25.160  1.00  0.00     0.095 C 
ATOM     91  O   UNL A   1      34.942  20.032  24.744  1.00  0.00    -0.480 OA
ATOM     92  C   UNL A   1      33.000  18.786  24.826  1.00  0.00    -0.002 A 
ATOM     93  C   UNL A   1      34.367  18.800  24.599  1.00  0.00     0.123 A 
ATOM     94  C   UNL A   1      32.297  17.595  24.823  1.00  0.00     0.008 A 
ATOM     95  C   UNL A   1      35.090  17.643  24.394  1.00  0.00     0.047 A 
ATOM     96  C   UNL A   1      33.008  16.411  24.612  1.00  0.00     0.001 A 
ATOM     97  C   UNL A   1      34.398  16.433  24.406  1.00  0.00     0.004 A 
ENDBRANCH  86  89
ENDBRANCH  84  85
ENDBRANCH  77  80
ENDBRANCH  75  76
ENDBRANCH  74  75
ENDBRANCH  73  74
ENDBRANCH   1  73
TORSDOF 18
ENDMDL
MODEL 2
REMARK VINA RESULT:     -12.1      4.964     10.657
REMARK SMILES O=C(NCCCCCCNC(=O)[C@@H]1C=C[C@H](NC(=O)[C@@H]2Cc3ccccc3O2)C1)c1ccc(-c2c3nc(c(-c4cccc(S(=O)(=O)[O-])c4F)c4ccc([nH]4)c(-c4cccc(S(=O)(=O)[O-])c4F)c4nc(c(-c5cccc(S(=O)(=O)[O-])c5F)c5ccc2[nH]5)C=C4)C=C3)cc1
REMARK SMILES IDX 6 1 5 2 4 3 3 4 1 5 2 6 30 8 31 9 92 10 32 11 91 12 33 13
REMARK SMILES IDX 34 14 35 15 85 16 36 17 90 18 84 19 86 20 37 21 89 22 83 23
REMARK SMILES IDX 82 24 38 26 70 27 50 28 69 29 51 30 54 31 68 32 87 33 52 34
REMARK SMILES IDX 53 35 67 37 88 38 55 39 39 40 40 41 48 42 41 43 43 44 49 45
REMARK SMILES IDX 42 46 44 47 45 48 46 49 47 50 71 51 72 52 80 53 73 54 75 55
REMARK SMILES IDX 81 56 74 57 76 58 77 59 78 60 79 61 56 62 57 63 65 64 58 65
REMARK SMILES IDX 60 66 66 67 59 68 61 69 62 70 63 71 64 72 7 73 8 74 9 75
REMARK SMILES IDX 10 76 11 77 12 79 13 80 14 81 29 82 15 83 16 84 17 85 18 86
REMARK SMILES IDX 19 88 20 89 21 90 28 91 22 92 27 93 23 94 26 95 24 96 25 97
REMARK H PARENT 3 7 86 25 54 36 10 78 17 87
REMARK Flexibility Score: inf
ROOT
ATOM      1  C   UNL A   1      36.065  19.892  24.930  1.00  0.00     0.002 C 
ENDROOT
BRANCH   1   2
ATOM      2  C   UNL A   1      36.459  21.322  24.563  1.00  0.00     0.021 C 
BRANCH   2   3
ATOM      3  C   UNL A   1      37.691  21.883  25.256  1.00  0.00     0.116 C 
BRANCH   3   4
ATOM      4  N   UNL A   1      38.655  20.871  25.640  1.00  0.00    -0.352 N 
ATOM      5  O   UNL A   1      40.572  20.051  26.495  1.00  0.00    -0.269 OA
ATOM      6  C   UNL A   1      39.839  21.015  26.333  1.00  0.00     0.251 C 
ATOM      7  H   UNL A   1      38.435  19.951  25.368  1.00  0.00     0.163 HD
BRANCH   6   8
ATOM      8  C   UNL A   1      40.235  22.354  26.836  1.00  0.00     0.039 A 
ATOM      9  C   UNL A   1      39.717  23.521  26.270  1.00  0.00     0.014 A 
ATOM     10  C   UNL A   1      41.168  22.436  27.872  1.00  0.00     0.014 A 
ATOM     11  C   UNL A   1      40.256  24.755  26.618  1.00  0.00     0.010 A 
ATOM     12  C   UNL A   1      41.640  23.687  28.286  1.00  0.00     0.010 A 
ATOM     13  C   UNL A   1      41.226  24.856  27.629  1.00  0.00    -0.014 A 
BRANCH  13  14
ATOM     14  C   UNL A   1      41.760  26.193  28.001  1.00  0.00     0.031 A 
ATOM     15  C   UNL A   1      43.160  26.611  27.632  1.00  0.00     0.074 A 
ATOM     16  C   UNL A   1      40.959  27.049  28.667  1.00  0.00     0.049 A 
ATOM     17  N   UNL A   1      43.751  27.763  27.825  1.00  0.00    -0.248 NA
ATOM     18  C   UNL A   1      44.012  25.610  26.971  1.00  0.00     0.031 C 
ATOM     19  C   UNL A   1      39.602  26.744  29.127  1.00  0.00     0.029 A 
ATOM     20  N   UNL A   1      41.161  28.345  29.068  1.00  0.00    -0.354 N 
ATOM     21  C   UNL A   1      45.052  27.613  27.358  1.00  0.00     0.074 A 
ATOM     22  C   UNL A   1      45.168  26.254  26.873  1.00  0.00     0.031 C 
ATOM     23  C   UNL A   1      39.080  27.833  29.709  1.00  0.00     0.029 A 
ATOM     24  C   UNL A   1      40.076  28.898  29.707  1.00  0.00     0.049 A 
ATOM     25  H   UNL A   1      42.003  28.833  28.912  1.00  0.00     0.167 HD
ATOM     26  C   UNL A   1      46.053  28.526  27.320  1.00  0.00     0.034 A 
ATOM     27  C   UNL A   1      39.899  30.124  30.235  1.00  0.00     0.034 A 
ATOM     28  C   UNL A   1      45.920  29.892  27.755  1.00  0.00     0.049 A 
ATOM     29  C   UNL A   1      41.008  31.131  30.127  1.00  0.00     0.074 A 
ATOM     30  C   UNL A   1      46.852  30.912  27.683  1.00  0.00     0.029 A 
ATOM     31  N   UNL A   1      44.788  30.429  28.347  1.00  0.00    -0.354 N 
ATOM     32  N   UNL A   1      42.178  31.010  29.551  1.00  0.00    -0.248 NA
ATOM     33  C   UNL A   1      40.761  32.454  30.718  1.00  0.00     0.031 C 
ATOM     34  C   UNL A   1      46.287  32.063  28.244  1.00  0.00     0.029 A 
ATOM     35  C   UNL A   1      44.997  31.764  28.650  1.00  0.00     0.049 A 
ATOM     36  H   UNL A   1      43.955  29.934  28.526  1.00  0.00     0.167 HD
ATOM     37  C   UNL A   1      42.797  32.248  29.681  1.00  0.00     0.074 A 
ATOM     38  C   UNL A   1      41.859  33.112  30.369  1.00  0.00     0.031 C 
ATOM     39  C   UNL A   1      44.035  32.628  29.284  1.00  0.00     0.034 A 
BRANCH  26  40
ATOM     40  C   UNL A   1      47.380  28.095  26.747  1.00  0.00     0.023 A 
ATOM     41  C   UNL A   1      48.431  27.741  27.618  1.00  0.00     0.012 A 
ATOM     42  C   UNL A   1      47.563  27.967  25.356  1.00  0.00     0.148 A 
ATOM     43  C   UNL A   1      49.652  27.294  27.113  1.00  0.00     0.002 A 
ATOM     44  C   UNL A   1      48.770  27.484  24.862  1.00  0.00     0.091 A 
ATOM     45  F   UNL A   1      46.562  28.329  24.543  1.00  0.00    -0.205 F 
ATOM     46  C   UNL A   1      49.818  27.156  25.737  1.00  0.00     0.022 A 
BRANCH  44  47
ATOM     47  S   UNL A   1      49.049  27.198  23.109  1.00  0.00     0.127 S 
ATOM     48  O   UNL A   1      48.338  25.937  22.901  1.00  0.00    -0.237 OA
ATOM     49  O   UNL A   1      48.410  28.364  22.498  1.00  0.00    -0.237 OA
ATOM     50  O   UNL A   1      50.494  27.144  22.941  1.00  0.00    -0.744 OA
ENDBRANCH  44  47
ENDBRANCH  26  40
BRANCH  27  51
ATOM     51  C   UNL A   1      38.588  30.484  30.843  1.00  0.00     0.023 A 
ATOM     52  C   UNL A   1      38.342  30.163  32.192  1.00  0.00     0.012 A 
ATOM     53  C   UNL A   1      37.609  31.186  30.114  1.00  0.00     0.148 A 
ATOM     54  C   UNL A   1      37.135  30.513  32.797  1.00  0.00     0.002 A 
ATOM     55  C   UNL A   1      36.434  31.584  30.740  1.00  0.00     0.091 A 
ATOM     56  F   UNL A   1      37.854  31.467  28.827  1.00  0.00    -0.205 F 
ATOM     57  C   UNL A   1      36.187  31.235  32.076  1.00  0.00     0.022 A 
BRANCH  55  58
ATOM     58  S   UNL A   1      35.230  32.640  29.925  1.00  0.00     0.127 S 
ATOM     59  O   UNL A   1      34.732  31.765  28.868  1.00  0.00    -0.237 OA
ATOM     60  O   UNL A   1      34.279  32.908  31.005  1.00  0.00    -0.237 OA
ATOM     61  O   UNL A   1      35.977  33.812  29.487  1.00  0.00    -0.744 OA
ENDBRANCH  55  58
ENDBRANCH  27  51
BRANCH  39  62
ATOM     62  C   UNL A   1      44.442  34.052  29.554  1.00  0.00     0.023 A 
ATOM     63  C   UNL A   1      45.093  34.374  30.762  1.00  0.00     0.012 A 
ATOM     64  C   UNL A   1      44.231  35.058  28.592  1.00  0.00     0.148 A 
ATOM     65  C   UNL A   1      45.498  35.684  31.020  1.00  0.00     0.002 A 
ATOM     66  C   UNL A   1      44.678  36.351  28.838  1.00  0.00     0.091 A 
ATOM     67  F   UNL A   1      43.588  34.738  27.459  1.00  0.00    -0.205 F 
ATOM     68  C   UNL A   1      45.301  36.668  30.056  1.00  0.00     0.022 A 
BRANCH  66  69
ATOM     69  S   UNL A   1      44.542  37.653  27.607  1.00  0.00     0.127 S 
ATOM     70  O   UNL A   1      43.137  37.552  27.218  1.00  0.00    -0.237 OA
ATOM     71  O   UNL A   1      44.876  38.852  28.377  1.00  0.00    -0.237 OA
ATOM     72  O   UNL A   1      45.510  37.318  26.571  1.00  0.00    -0.744 OA
ENDBRANCH  66  69
ENDBRANCH  39  62
ENDBRANCH  13  14
ENDBRANCH   6   8
ENDBRANCH   3   4
ENDBRANCH   2   3
ENDBRANCH   1   2
BRANCH   1  73
ATOM     73  C   UNL A   1      34.600  19.500  24.730  1.00  0.00     0.002 C 
BRANCH  73  74
ATOM     74  C   UNL A   1      33.549  20.266  25.539  1.00  0.00     0.021 C 
BRANCH  74  75
ATOM     75  C   UNL A   1      32.296  20.693  24.791  1.00  0.00     0.116 C 
BRANCH  75  76
ATOM     76  N   UNL A   1      32.517  21.794  23.883  1.00  0.00    -0.356 N 
ATOM     77  C   UNL A   1      32.716  23.112  24.183  1.00  0.00     0.227 C 
ATOM     78  H   UNL A   1      32.525  21.566  22.925  1.00  0.00     0.163 HD
ATOM     79  O   UNL A   1      32.903  23.887  23.244  1.00  0.00    -0.274 OA
BRANCH  77  80
ATOM     80  C   UNL A   1      32.595  23.564  25.647  1.00  0.00     0.103 C 
ATOM     81  C   UNL A   1      31.204  24.009  25.970  1.00  0.00    -0.016 C 
ATOM     82  C   UNL A   1      33.386  24.835  26.022  1.00  0.00     0.047 C 
ATOM     83  C   UNL A   1      31.130  25.341  26.057  1.00  0.00    -0.006 C 
ATOM     84  C   UNL A   1      32.426  26.017  25.793  1.00  0.00     0.106 C 
BRANCH  84  85
ATOM     85  N   UNL A   1      32.585  26.509  24.432  1.00  0.00    -0.347 N 
ATOM     86  C   UNL A   1      32.003  27.474  23.678  1.00  0.00     0.261 C 
ATOM     87  H   UNL A   1      33.286  26.024  23.939  1.00  0.00     0.164 HD
ATOM     88  O   UNL A   1      32.658  27.857  22.698  1.00  0.00    -0.271 OA
BRANCH  86  89
ATOM     89  C   UNL A   1      30.634  28.096  23.955  1.00  0.00     0.266 C 
ATOM     90  C   UNL A   1      29.648  27.971  22.792  1.00  0.00     0.095 C 
ATOM     91  O   UNL A   1      30.721  29.461  24.409  1.00  0.00    -0.480 OA
ATOM     92  C   UNL A   1      29.043  29.323  22.828  1.00  0.00    -0.002 A 
ATOM     93  C   UNL A   1      29.698  30.103  23.767  1.00  0.00     0.123 A 
ATOM     94  C   UNL A   1      28.059  29.866  22.023  1.00  0.00     0.008 A 
ATOM     95  C   UNL A   1      29.428  31.447  23.923  1.00  0.00     0.047 A 
ATOM     96  C   UNL A   1      27.765  31.225  22.167  1.00  0.00     0.001 A 
ATOM     97  C   UNL A   1      28.451  32.013  23.106  1.00  0.00     0.004 A 
ENDBRANCH  86  89
ENDBRANCH  84  85
ENDBRANCH  77  80
ENDBRANCH  75  76
ENDBRANCH  74  75
ENDBRANCH  73  74
ENDBRANCH   1  73
TORSDOF 18
ENDMDL
MODEL 3
REMARK VINA RESULT:     -11.9      1.543      4.000
REMARK SMILES O=C(NCCCCCCNC(=O)[C@@H]1C=C[C@H](NC(=O)[C@@H]2Cc3ccccc3O2)C1)c1ccc(-c2c3nc(c(-c4cccc(S(=O)(=O)[O-])c4F)c4ccc([nH]4)c(-c4cccc(S(=O)(=O)[O-])c4F)c4nc(c(-c5cccc(S(=O)(=O)[O-])c5F)c5ccc2[nH]5)C=C4)C=C3)cc1
REMARK SMILES IDX 6 1 5 2 4 3 3 4 1 5 2 6 30 8 31 9 92 10 32 11 91 12 33 13
REMARK SMILES IDX 34 14 35 15 85 16 36 17 90 18 84 19 86 20 37 21 89 22 83 23
REMARK SMILES IDX 82 24 38 26 70 27 50 28 69 29 51 30 54 31 68 32 87 33 52 34
REMARK SMILES IDX 53 35 67 37 88 38 55 39 39 40 40 41 48 42 41 43 43 44 49 45
REMARK SMILES IDX 42 46 44 47 45 48 46 49 47 50 71 51 72 52 80 53 73 54 75 55
REMARK SMILES IDX 81 56 74 57 76 58 77 59 78 60 79 61 56 62 57 63 65 64 58 65
REMARK SMILES IDX 60 66 66 67 59 68 61 69 62 70 63 71 64 72 7 73 8 74 9 75
REMARK SMILES IDX 10 76 11 77 12 79 13 80 14 81 29 82 15 83 16 84 17 85 18 86
REMARK SMILES IDX 19 88 20 89 21 90 28 91 22 92 27 93 23 94 26 95 24 96 25 97
REMARK H PARENT 3 7 86 25 54 36 10 78 17 87
REMARK Flexibility Score: inf
ROOT
ATOM      1  C   UNL A   1      33.995  27.698  22.683  1.00  0.00     0.002 C 
ENDROOT
BRANCH   1   2
ATOM      2  C   UNL A   1      33.971  29.036  23.422  1.00  0.00     0.021 C 
BRANCH   2   3
ATOM      3  C   UNL A   1      33.690  28.979  24.915  1.00  0.00     0.116 C 
BRANCH   3   4
ATOM      4  N   UNL A   1      32.877  30.078  25.397  1.00  0.00    -0.352 N 
ATOM      5  O   UNL A   1      32.198  31.685  26.822  1.00  0.00    -0.269 OA
ATOM      6  C   UNL A   1      33.038  30.849  26.530  1.00  0.00     0.251 C 
ATOM      7  H   UNL A   1      32.099  30.305  24.839  1.00  0.00     0.163 HD
BRANCH   6   8
ATOM      8  C   UNL A   1      34.211  30.622  27.410  1.00  0.00     0.039 A 
ATOM      9  C   UNL A   1      35.158  31.625  27.626  1.00  0.00     0.014 A 
ATOM     10  C   UNL A   1      34.378  29.367  28.001  1.00  0.00     0.014 A 
ATOM     11  C   UNL A   1      36.347  31.324  28.283  1.00  0.00     0.010 A 
ATOM     12  C   UNL A   1      35.534  29.095  28.742  1.00  0.00     0.010 A 
ATOM     13  C   UNL A   1      36.552  30.054  28.848  1.00  0.00    -0.014 A 
BRANCH  13  14
ATOM     14  C   UNL A   1      37.820  29.772  29.572  1.00  0.00     0.031 A 
ATOM     15  C   UNL A   1      38.074  30.317  30.954  1.00  0.00     0.074 A 
ATOM     16  C   UNL A   1      38.748  28.996  28.977  1.00  0.00     0.049 A 
ATOM     17  N   UNL A   1      39.099  30.110  31.743  1.00  0.00    -0.248 NA
ATOM     18  C   UNL A   1      37.058  31.217  31.523  1.00  0.00     0.031 C 
ATOM     19  C   UNL A   1      38.643  28.451  27.621  1.00  0.00     0.029 A 
ATOM     20  N   UNL A   1      39.955  28.527  29.430  1.00  0.00    -0.354 N 
ATOM     21  C   UNL A   1      38.877  30.886  32.875  1.00  0.00     0.074 A 
ATOM     22  C   UNL A   1      37.620  31.575  32.671  1.00  0.00     0.031 C 
ATOM     23  C   UNL A   1      39.717  27.690  27.368  1.00  0.00     0.029 A 
ATOM     24  C   UNL A   1      40.609  27.728  28.521  1.00  0.00     0.049 A 
ATOM     25  H   UNL A   1      40.317  28.740  30.321  1.00  0.00     0.167 HD
ATOM     26  C   UNL A   1      39.640  31.003  33.988  1.00  0.00     0.034 A 
ATOM     27  C   UNL A   1      41.796  27.096  28.603  1.00  0.00     0.034 A 
ATOM     28  C   UNL A   1      40.865  30.278  34.211  1.00  0.00     0.049 A 
ATOM     29  C   UNL A   1      42.592  27.200  29.872  1.00  0.00     0.074 A 
ATOM     30  C   UNL A   1      41.666  30.269  35.340  1.00  0.00     0.029 A 
ATOM     31  N   UNL A   1      41.467  29.437  33.289  1.00  0.00    -0.354 N 
ATOM     32  N   UNL A   1      42.291  27.824  30.984  1.00  0.00    -0.248 NA
ATOM     33  C   UNL A   1      43.877  26.489  29.908  1.00  0.00     0.031 C 
ATOM     34  C   UNL A   1      42.761  29.433  35.094  1.00  0.00     0.029 A 
ATOM     35  C   UNL A   1      42.632  28.907  33.819  1.00  0.00     0.049 A 
ATOM     36  H   UNL A   1      41.118  29.243  32.389  1.00  0.00     0.167 HD
ATOM     37  C   UNL A   1      43.334  27.557  31.863  1.00  0.00     0.074 A 
ATOM     38  C   UNL A   1      44.261  26.693  31.161  1.00  0.00     0.031 C 
ATOM     39  C   UNL A   1      43.516  28.004  33.130  1.00  0.00     0.034 A 
BRANCH  26  40
ATOM     40  C   UNL A   1      39.157  31.921  35.083  1.00  0.00     0.023 A 
ATOM     41  C   UNL A   1      38.202  31.455  36.010  1.00  0.00     0.012 A 
ATOM     42  C   UNL A   1      39.699  33.212  35.241  1.00  0.00     0.148 A 
ATOM     43  C   UNL A   1      37.774  32.269  37.059  1.00  0.00     0.002 A 
ATOM     44  C   UNL A   1      39.297  34.002  36.312  1.00  0.00     0.091 A 
ATOM     45  F   UNL A   1      40.589  33.647  34.338  1.00  0.00    -0.205 F 
ATOM     46  C   UNL A   1      38.328  33.537  37.216  1.00  0.00     0.022 A 
BRANCH  44  47
ATOM     47  S   UNL A   1      40.013  35.618  36.640  1.00  0.00     0.127 S 
ATOM     48  O   UNL A   1      39.376  35.969  37.908  1.00  0.00    -0.237 OA
ATOM     49  O   UNL A   1      41.441  35.312  36.741  1.00  0.00    -0.237 OA
ATOM     50  O   UNL A   1      39.653  36.451  35.501  1.00  0.00    -0.744 OA
ENDBRANCH  44  47
ENDBRANCH  26  40
BRANCH  27  51
ATOM     51  C   UNL A   1      42.258  26.246  27.470  1.00  0.00     0.023 A 
ATOM     52  C   UNL A   1      43.161  26.781  26.530  1.00  0.00     0.012 A 
ATOM     53  C   UNL A   1      41.856  24.902  27.349  1.00  0.00     0.148 A 
ATOM     54  C   UNL A   1      43.635  26.001  25.476  1.00  0.00     0.002 A 
ATOM     55  C   UNL A   1      42.378  24.113  26.331  1.00  0.00     0.091 A 
ATOM     56  F   UNL A   1      40.984  24.416  28.243  1.00  0.00    -0.205 F 
ATOM     57  C   UNL A   1      43.255  24.663  25.384  1.00  0.00     0.022 A 
BRANCH  55  58
ATOM     58  S   UNL A   1      42.054  22.349  26.230  1.00  0.00     0.127 S 
ATOM     59  O   UNL A   1      42.762  21.985  25.006  1.00  0.00    -0.237 OA
ATOM     60  O   UNL A   1      42.663  21.855  27.465  1.00  0.00    -0.237 OA
ATOM     61  O   UNL A   1      40.602  22.224  26.191  1.00  0.00    -0.744 OA
ENDBRANCH  55  58
ENDBRANCH  27  51
BRANCH  39  62
ATOM     62  C   UNL A   1      44.751  27.541  33.856  1.00  0.00     0.023 A 
ATOM     63  C   UNL A   1      45.925  28.318  33.801  1.00  0.00     0.012 A 
ATOM     64  C   UNL A   1      44.733  26.369  34.636  1.00  0.00     0.148 A 
ATOM     65  C   UNL A   1      47.072  27.917  34.485  1.00  0.00     0.002 A 
ATOM     66  C   UNL A   1      45.867  26.000  35.351  1.00  0.00     0.091 A 
ATOM     67  F   UNL A   1      43.615  25.628  34.657  1.00  0.00    -0.205 F 
ATOM     68  C   UNL A   1      47.040  26.766  35.268  1.00  0.00     0.022 A 
BRANCH  66  69
ATOM     69  S   UNL A   1      45.874  24.581  36.454  1.00  0.00     0.127 S 
ATOM     70  O   UNL A   1      47.289  24.480  36.804  1.00  0.00    -0.237 OA
ATOM     71  O   UNL A   1      45.006  25.026  37.547  1.00  0.00    -0.237 OA
ATOM     72  O   UNL A   1      45.336  23.474  35.675  1.00  0.00    -0.744 OA
ENDBRANCH  66  69
ENDBRANCH  39  62
ENDBRANCH  13  14
ENDBRANCH   6   8
ENDBRANCH   3   4
ENDBRANCH   2   3
ENDBRANCH   1   2
BRANCH   1  73
ATOM     73  C   UNL A   1      33.616  26.452  23.486  1.00  0.00     0.002 C 
BRANCH  73  74
ATOM     74  C   UNL A   1      33.965  25.090  22.880  1.00  0.00     0.021 C 
BRANCH  74  75
ATOM     75  C   UNL A   1      34.901  24.208  23.691  1.00  0.00     0.116 C 
BRANCH  75  76
ATOM     76  N   UNL A   1      34.449  22.840  23.801  1.00  0.00    -0.356 N 
ATOM     77  C   UNL A   1      33.902  22.215  24.885  1.00  0.00     0.227 C 
ATOM     78  H   UNL A   1      34.549  22.288  22.991  1.00  0.00     0.163 HD
ATOM     79  O   UNL A   1      33.568  21.036  24.753  1.00  0.00    -0.274 OA
BRANCH  77  80
ATOM     80  C   UNL A   1      33.828  22.974  26.220  1.00  0.00     0.103 C 
ATOM     81  C   UNL A   1      32.909  22.298  27.186  1.00  0.00    -0.016 C 
ATOM     82  C   UNL A   1      33.183  24.374  26.157  1.00  0.00     0.047 C 
ATOM     83  C   UNL A   1      31.753  22.961  27.299  1.00  0.00    -0.006 C 
ATOM     84  C   UNL A   1      31.683  24.164  26.431  1.00  0.00     0.106 C 
BRANCH  84  85
ATOM     85  N   UNL A   1      30.987  23.960  25.168  1.00  0.00    -0.347 N 
ATOM     86  C   UNL A   1      30.379  24.760  24.259  1.00  0.00     0.261 C 
ATOM     87  H   UNL A   1      30.948  23.009  24.914  1.00  0.00     0.164 HD
ATOM     88  O   UNL A   1      30.237  24.274  23.127  1.00  0.00    -0.271 OA
BRANCH  86  89
ATOM     89  C   UNL A   1      29.877  26.177  24.534  1.00  0.00     0.266 C 
ATOM     90  C   UNL A   1      28.432  26.421  24.093  1.00  0.00     0.095 C 
ATOM     91  O   UNL A   1      30.752  27.194  24.009  1.00  0.00    -0.480 OA
ATOM     92  C   UNL A   1      28.574  27.771  23.501  1.00  0.00    -0.002 A 
ATOM     93  C   UNL A   1      29.910  28.140  23.493  1.00  0.00     0.123 A 
ATOM     94  C   UNL A   1      27.617  28.578  22.914  1.00  0.00     0.008 A 
ATOM     95  C   UNL A   1      30.350  29.296  22.883  1.00  0.00     0.047 A 
ATOM     96  C   UNL A   1      28.039  29.756  22.293  1.00  0.00     0.001 A 
ATOM     97  C   UNL A   1      29.398  30.111  22.270  1.00  0.00     0.004 A 
ENDBRANCH  86  89
ENDBRANCH  84  85
ENDBRANCH  77  80
ENDBRANCH  75  76
ENDBRANCH  74  75
ENDBRANCH  73  74
ENDBRANCH   1  73
TORSDOF 18
ENDMDL
