MODEL 1
REMARK VINA RESULT:     -10.7      0.000      0.000
REMARK SMILES CC1(C)C(C(=O)Nc2ccc(CC(=O)NCCCCCCNC(=O)c3ccc(-c4c5nc(c(-c6cccc(S(=O)(=O)[O-])c6F)c6ccc([nH]6)c(-c6cccc(S(=O)(=O)[O-])c6F)c6nc(c(-c7cccc(S(=O)(=O)[O-])c7F)c7ccc4[nH]7)C=C6)C=C5)cc3)cc2)C1(C)C
REMARK SMILES IDX 18 1 17 2 16 3 15 4 13 5 14 6 12 8 11 9 8 10 9 11 89 12
REMARK SMILES IDX 10 13 88 14 7 15 5 16 6 17 4 19 1 20 2 21 3 22 90 23 91 24
REMARK SMILES IDX 92 25 19 26 20 27 21 28 22 29 23 30 24 32 25 33 26 34 87 35
REMARK SMILES IDX 27 36 86 37 28 38 29 39 30 40 80 41 31 42 85 43 79 44 81 45
REMARK SMILES IDX 32 46 84 47 78 48 77 49 33 51 65 52 45 53 64 54 46 55 49 56
REMARK SMILES IDX 63 57 82 58 47 59 48 60 62 62 83 63 50 64 34 65 35 66 43 67
REMARK SMILES IDX 36 68 38 69 44 70 37 71 39 72 40 73 41 74 42 75 66 76 67 77
REMARK SMILES IDX 75 78 68 79 70 80 76 81 69 82 71 83 72 84 73 85 74 86 51 87
REMARK SMILES IDX 52 88 60 89 53 90 55 91 61 92 54 93 56 94 57 95 58 96 59 97
REMARK H PARENT 15 7 7 18 22 31 81 50 49 61
REMARK Flexibility Score: inf
ROOT
ATOM      1  C   UNL A   1      35.005  32.154  28.495  1.00  0.00     0.002 C 
ENDROOT
BRANCH   1   2
ATOM      2  C   UNL A   1      35.574  30.936  27.765  1.00  0.00     0.021 C 
BRANCH   2   3
ATOM      3  C   UNL A   1      34.495  29.960  27.282  1.00  0.00     0.116 C 
BRANCH   3   4
ATOM      4  N   UNL A   1      33.325  30.674  26.810  1.00  0.00    -0.356 N 
ATOM      5  C   UNL A   1      32.161  30.177  26.301  1.00  0.00     0.224 C 
ATOM      6  O   UNL A   1      31.329  30.972  25.858  1.00  0.00    -0.275 OA
ATOM      7  H   UNL A   1      33.379  31.656  26.864  1.00  0.00     0.163 HD
BRANCH   5   8
ATOM      8  C   UNL A   1      31.870  28.692  26.359  1.00  0.00     0.135 C 
BRANCH   8   9
ATOM      9  C   UNL A   1      31.869  27.964  25.037  1.00  0.00    -0.039 A 
ATOM     10  C   UNL A   1      31.977  26.188  22.887  1.00  0.00     0.041 A 
ATOM     11  C   UNL A   1      30.742  26.691  23.301  1.00  0.00     0.026 A 
ATOM     12  C   UNL A   1      33.134  26.782  23.337  1.00  0.00     0.026 A 
ATOM     13  C   UNL A   1      30.691  27.593  24.379  1.00  0.00     0.006 A 
ATOM     14  C   UNL A   1      33.084  27.576  24.471  1.00  0.00     0.006 A 
BRANCH  10  15
ATOM     15  N   UNL A   1      32.061  25.022  22.114  1.00  0.00    -0.326 N 
ATOM     16  C   UNL A   1      32.777  23.886  22.458  1.00  0.00     0.228 C 
ATOM     17  O   UNL A   1      33.643  23.489  21.679  1.00  0.00    -0.274 OA
ATOM     18  H   UNL A   1      31.572  25.007  21.260  1.00  0.00     0.169 HD
BRANCH  16  19
ATOM     19  C   UNL A   1      32.299  22.907  23.509  1.00  0.00     0.091 C 
ATOM     20  C   UNL A   1      32.474  20.434  24.369  1.00  0.00     0.012 C 
ATOM     21  C   UNL A   1      33.061  21.840  24.315  1.00  0.00    -0.017 C 
ATOM     22  C   UNL A   1      34.556  21.728  24.436  1.00  0.00     0.012 C 
ATOM     23  C   UNL A   1      32.271  22.975  25.029  1.00  0.00    -0.017 C 
ATOM     24  C   UNL A   1      30.945  22.629  25.684  1.00  0.00     0.012 C 
ATOM     25  C   UNL A   1      32.963  24.057  25.816  1.00  0.00     0.012 C 
ENDBRANCH  16  19
ENDBRANCH  10  15
ENDBRANCH   8   9
ENDBRANCH   5   8
ENDBRANCH   3   4
ENDBRANCH   2   3
ENDBRANCH   1   2
BRANCH   1  26
ATOM     26  C   UNL A   1      35.455  33.495  27.913  1.00  0.00     0.002 C 
BRANCH  26  27
ATOM     27  C   UNL A   1      34.402  34.604  27.990  1.00  0.00     0.021 C 
BRANCH  27  28
ATOM     28  C   UNL A   1      33.156  34.223  28.784  1.00  0.00     0.116 C 
BRANCH  28  29
ATOM     29  N   UNL A   1      32.911  35.161  29.870  1.00  0.00    -0.352 N 
ATOM     30  C   UNL A   1      33.446  35.187  31.133  1.00  0.00     0.251 C 
ATOM     31  H   UNL A   1      32.270  35.881  29.669  1.00  0.00     0.163 HD
ATOM     32  O   UNL A   1      32.943  35.891  31.999  1.00  0.00    -0.269 OA
BRANCH  30  33
ATOM     33  C   UNL A   1      34.629  34.356  31.440  1.00  0.00     0.039 A 
ATOM     34  C   UNL A   1      35.902  34.861  31.168  1.00  0.00     0.014 A 
ATOM     35  C   UNL A   1      34.479  33.078  31.987  1.00  0.00     0.014 A 
ATOM     36  C   UNL A   1      37.029  34.103  31.494  1.00  0.00     0.010 A 
ATOM     37  C   UNL A   1      35.602  32.358  32.382  1.00  0.00     0.010 A 
ATOM     38  C   UNL A   1      36.888  32.859  32.132  1.00  0.00    -0.014 A 
BRANCH  38  39
ATOM     39  C   UNL A   1      38.076  32.068  32.546  1.00  0.00     0.031 A 
ATOM     40  C   UNL A   1      38.789  32.391  33.833  1.00  0.00     0.074 A 
ATOM     41  C   UNL A   1      38.552  31.106  31.730  1.00  0.00     0.049 A 
ATOM     42  N   UNL A   1      39.874  31.857  34.328  1.00  0.00    -0.248 NA
ATOM     43  C   UNL A   1      38.221  33.470  34.660  1.00  0.00     0.031 C 
ATOM     44  C   UNL A   1      37.987  30.743  30.428  1.00  0.00     0.029 A 
ATOM     45  N   UNL A   1      39.634  30.273  31.863  1.00  0.00    -0.354 N 
ATOM     46  C   UNL A   1      40.131  32.544  35.510  1.00  0.00     0.074 A 
ATOM     47  C   UNL A   1      39.115  33.565  35.635  1.00  0.00     0.031 C 
ATOM     48  C   UNL A   1      38.722  29.757  29.888  1.00  0.00     0.029 A 
ATOM     49  C   UNL A   1      39.830  29.443  30.783  1.00  0.00     0.049 A 
ATOM     50  H   UNL A   1      40.216  30.269  32.657  1.00  0.00     0.167 HD
ATOM     51  C   UNL A   1      41.102  32.323  36.427  1.00  0.00     0.034 A 
ATOM     52  C   UNL A   1      40.799  28.540  30.537  1.00  0.00     0.034 A 
ATOM     53  C   UNL A   1      42.095  31.288  36.316  1.00  0.00     0.049 A 
ATOM     54  C   UNL A   1      41.869  28.321  31.576  1.00  0.00     0.074 A 
ATOM     55  C   UNL A   1      43.092  30.952  37.214  1.00  0.00     0.029 A 
ATOM     56  N   UNL A   1      42.219  30.424  35.239  1.00  0.00    -0.354 N 
ATOM     57  N   UNL A   1      42.012  28.890  32.748  1.00  0.00    -0.248 NA
ATOM     58  C   UNL A   1      42.889  27.307  31.272  1.00  0.00     0.031 C 
ATOM     59  C   UNL A   1      43.832  29.897  36.672  1.00  0.00     0.029 A 
ATOM     60  C   UNL A   1      43.275  29.555  35.450  1.00  0.00     0.049 A 
ATOM     61  H   UNL A   1      41.641  30.428  34.442  1.00  0.00     0.167 HD
ATOM     62  C   UNL A   1      43.108  28.270  33.340  1.00  0.00     0.074 A 
ATOM     63  C   UNL A   1      43.575  27.268  32.405  1.00  0.00     0.031 C 
ATOM     64  C   UNL A   1      43.685  28.518  34.541  1.00  0.00     0.034 A 
BRANCH  51  65
ATOM     65  C   UNL A   1      41.104  33.175  37.671  1.00  0.00     0.023 A 
ATOM     66  C   UNL A   1      40.320  32.783  38.776  1.00  0.00     0.012 A 
ATOM     67  C   UNL A   1      41.934  34.307  37.780  1.00  0.00     0.148 A 
ATOM     68  C   UNL A   1      40.339  33.518  39.959  1.00  0.00     0.002 A 
ATOM     69  C   UNL A   1      41.985  35.008  38.979  1.00  0.00     0.091 A 
ATOM     70  F   UNL A   1      42.662  34.671  36.715  1.00  0.00    -0.205 F 
ATOM     71  C   UNL A   1      41.180  34.623  40.065  1.00  0.00     0.022 A 
BRANCH  69  72
ATOM     72  S   UNL A   1      43.092  36.397  39.250  1.00  0.00     0.127 S 
ATOM     73  O   UNL A   1      42.854  36.692  40.663  1.00  0.00    -0.237 OA
ATOM     74  O   UNL A   1      44.399  35.804  38.965  1.00  0.00    -0.237 OA
ATOM     75  O   UNL A   1      42.674  37.435  38.320  1.00  0.00    -0.744 OA
ENDBRANCH  69  72
ENDBRANCH  51  65
BRANCH  52  76
ATOM     76  C   UNL A   1      40.792  27.737  29.280  1.00  0.00     0.023 A 
ATOM     77  C   UNL A   1      39.943  26.617  29.180  1.00  0.00     0.012 A 
ATOM     78  C   UNL A   1      41.633  28.058  28.198  1.00  0.00     0.148 A 
ATOM     79  C   UNL A   1      39.973  25.798  28.050  1.00  0.00     0.002 A 
ATOM     80  C   UNL A   1      41.614  27.272  27.051  1.00  0.00     0.091 A 
ATOM     81  F   UNL A   1      42.442  29.120  28.313  1.00  0.00    -0.205 F 
ATOM     82  C   UNL A   1      40.803  26.129  26.984  1.00  0.00     0.022 A 
BRANCH  80  83
ATOM     83  S   UNL A   1      42.556  27.700  25.582  1.00  0.00     0.127 S 
ATOM     84  O   UNL A   1      42.231  26.593  24.686  1.00  0.00    -0.237 OA
ATOM     85  O   UNL A   1      41.970  28.987  25.209  1.00  0.00    -0.237 OA
ATOM     86  O   UNL A   1      43.945  27.780  26.017  1.00  0.00    -0.744 OA
ENDBRANCH  80  83
ENDBRANCH  52  76
BRANCH  64  87
ATOM     87  C   UNL A   1      44.849  27.652  34.949  1.00  0.00     0.023 A 
ATOM     88  C   UNL A   1      46.169  28.099  34.743  1.00  0.00     0.012 A 
ATOM     89  C   UNL A   1      44.628  26.422  35.600  1.00  0.00     0.148 A 
ATOM     90  C   UNL A   1      47.252  27.317  35.144  1.00  0.00     0.002 A 
ATOM     91  C   UNL A   1      45.710  25.673  36.045  1.00  0.00     0.091 A 
ATOM     92  F   UNL A   1      43.365  26.007  35.772  1.00  0.00    -0.205 F 
ATOM     93  C   UNL A   1      47.023  26.112  35.804  1.00  0.00     0.022 A 
BRANCH  91  94
ATOM     94  S   UNL A   1      45.514  24.160  36.992  1.00  0.00     0.127 S 
ATOM     95  O   UNL A   1      46.905  23.767  37.215  1.00  0.00    -0.237 OA
ATOM     96  O   UNL A   1      44.815  24.633  38.187  1.00  0.00    -0.237 OA
ATOM     97  O   UNL A   1      44.739  23.257  36.154  1.00  0.00    -0.744 OA
ENDBRANCH  91  94
ENDBRANCH  64  87
ENDBRANCH  38  39
ENDBRANCH  30  33
ENDBRANCH  28  29
ENDBRANCH  27  28
ENDBRANCH  26  27
ENDBRANCH   1  26
TORSDOF 19
ENDMDL
MODEL 2
REMARK VINA RESULT:     -10.5      6.309     12.027
REMARK SMILES CC1(C)C(C(=O)Nc2ccc(CC(=O)NCCCCCCNC(=O)c3ccc(-c4c5nc(c(-c6cccc(S(=O)(=O)[O-])c6F)c6ccc([nH]6)c(-c6cccc(S(=O)(=O)[O-])c6F)c6nc(c(-c7cccc(S(=O)(=O)[O-])c7F)c7ccc4[nH]7)C=C6)C=C5)cc3)cc2)C1(C)C
REMARK SMILES IDX 18 1 17 2 16 3 15 4 13 5 14 6 12 8 11 9 8 10 9 11 89 12
REMARK SMILES IDX 10 13 88 14 7 15 5 16 6 17 4 19 1 20 2 21 3 22 90 23 91 24
REMARK SMILES IDX 92 25 19 26 20 27 21 28 22 29 23 30 24 32 25 33 26 34 87 35
REMARK SMILES IDX 27 36 86 37 28 38 29 39 30 40 80 41 31 42 85 43 79 44 81 45
REMARK SMILES IDX 32 46 84 47 78 48 77 49 33 51 65 52 45 53 64 54 46 55 49 56
REMARK SMILES IDX 63 57 82 58 47 59 48 60 62 62 83 63 50 64 34 65 35 66 43 67
REMARK SMILES IDX 36 68 38 69 44 70 37 71 39 72 40 73 41 74 42 75 66 76 67 77
REMARK SMILES IDX 75 78 68 79 70 80 76 81 69 82 71 83 72 84 73 85 74 86 51 87
REMARK SMILES IDX 52 88 60 89 53 90 55 91 61 92 54 93 56 94 57 95 58 96 59 97
REMARK H PARENT 15 7 7 18 22 31 81 50 49 61
REMARK Flexibility Score: inf
ROOT
ATOM      1  C   UNL A   1      41.348  21.645  27.667  1.00  0.00     0.002 C 
ENDROOT
BRANCH   1   2
ATOM      2  C   UNL A   1      40.858  22.389  26.425  1.00  0.00     0.021 C 
BRANCH   2   3
ATOM      3  C   UNL A   1      39.402  22.857  26.533  1.00  0.00     0.116 C 
BRANCH   3   4
ATOM      4  N   UNL A   1      38.498  21.867  25.982  1.00  0.00    -0.356 N 
ATOM      5  C   UNL A   1      37.332  22.052  25.300  1.00  0.00     0.224 C 
ATOM      6  O   UNL A   1      36.660  21.060  25.008  1.00  0.00    -0.275 OA
ATOM      7  H   UNL A   1      38.764  20.928  26.120  1.00  0.00     0.163 HD
BRANCH   5   8
ATOM      8  C   UNL A   1      36.921  23.436  24.841  1.00  0.00     0.135 C 
BRANCH   8   9
ATOM      9  C   UNL A   1      35.438  23.707  24.795  1.00  0.00    -0.039 A 
ATOM     10  C   UNL A   1      32.833  24.708  24.830  1.00  0.00     0.041 A 
ATOM     11  C   UNL A   1      33.428  24.382  23.610  1.00  0.00     0.026 A 
ATOM     12  C   UNL A   1      33.409  24.267  26.000  1.00  0.00     0.026 A 
ATOM     13  C   UNL A   1      34.737  23.870  23.594  1.00  0.00     0.006 A 
ATOM     14  C   UNL A   1      34.737  23.875  25.989  1.00  0.00     0.006 A 
BRANCH  10  15
ATOM     15  N   UNL A   1      31.727  25.567  24.892  1.00  0.00    -0.326 N 
ATOM     16  C   UNL A   1      31.373  26.334  25.990  1.00  0.00     0.228 C 
ATOM     17  O   UNL A   1      30.250  26.178  26.468  1.00  0.00    -0.274 OA
ATOM     18  H   UNL A   1      31.158  25.631  24.091  1.00  0.00     0.169 HD
BRANCH  16  19
ATOM     19  C   UNL A   1      32.114  27.597  26.376  1.00  0.00     0.091 C 
ATOM     20  C   UNL A   1      34.484  28.684  26.671  1.00  0.00     0.012 C 
ATOM     21  C   UNL A   1      33.341  28.279  25.746  1.00  0.00    -0.017 C 
ATOM     22  C   UNL A   1      33.921  27.974  24.392  1.00  0.00     0.012 C 
ATOM     23  C   UNL A   1      31.991  29.036  25.900  1.00  0.00    -0.017 C 
ATOM     24  C   UNL A   1      31.874  30.088  26.990  1.00  0.00     0.012 C 
ATOM     25  C   UNL A   1      31.162  29.440  24.709  1.00  0.00     0.012 C 
ENDBRANCH  16  19
ENDBRANCH  10  15
ENDBRANCH   8   9
ENDBRANCH   5   8
ENDBRANCH   3   4
ENDBRANCH   2   3
ENDBRANCH   1   2
BRANCH   1  26
ATOM     26  C   UNL A   1      41.249  20.123  27.561  1.00  0.00     0.002 C 
BRANCH  26  27
ATOM     27  C   UNL A   1      41.809  19.540  26.261  1.00  0.00     0.021 C 
BRANCH  27  28
ATOM     28  C   UNL A   1      43.166  18.861  26.418  1.00  0.00     0.116 C 
BRANCH  28  29
ATOM     29  N   UNL A   1      43.854  18.748  25.139  1.00  0.00    -0.352 N 
ATOM     30  C   UNL A   1      44.329  19.739  24.317  1.00  0.00     0.251 C 
ATOM     31  H   UNL A   1      43.999  17.829  24.818  1.00  0.00     0.163 HD
ATOM     32  O   UNL A   1      44.651  19.480  23.166  1.00  0.00    -0.269 OA
BRANCH  30  33
ATOM     33  C   UNL A   1      44.442  21.120  24.833  1.00  0.00     0.039 A 
ATOM     34  C   UNL A   1      45.124  21.343  26.030  1.00  0.00     0.014 A 
ATOM     35  C   UNL A   1      43.869  22.189  24.138  1.00  0.00     0.014 A 
ATOM     36  C   UNL A   1      45.276  22.648  26.505  1.00  0.00     0.010 A 
ATOM     37  C   UNL A   1      44.088  23.492  24.570  1.00  0.00     0.010 A 
ATOM     38  C   UNL A   1      44.786  23.736  25.762  1.00  0.00    -0.014 A 
BRANCH  38  39
ATOM     39  C   UNL A   1      44.996  25.134  26.217  1.00  0.00     0.031 A 
ATOM     40  C   UNL A   1      46.380  25.729  26.222  1.00  0.00     0.074 A 
ATOM     41  C   UNL A   1      43.952  25.843  26.691  1.00  0.00     0.049 A 
ATOM     42  N   UNL A   1      46.768  26.905  26.640  1.00  0.00    -0.248 NA
ATOM     43  C   UNL A   1      47.473  24.884  25.710  1.00  0.00     0.031 C 
ATOM     44  C   UNL A   1      42.574  25.355  26.797  1.00  0.00     0.029 A 
ATOM     45  N   UNL A   1      43.888  27.119  27.194  1.00  0.00    -0.354 N 
ATOM     46  C   UNL A   1      48.147  26.935  26.462  1.00  0.00     0.074 A 
ATOM     47  C   UNL A   1      48.535  25.643  25.941  1.00  0.00     0.031 C 
ATOM     48  C   UNL A   1      41.803  26.321  27.323  1.00  0.00     0.029 A 
ATOM     49  C   UNL A   1      42.634  27.481  27.627  1.00  0.00     0.049 A 
ATOM     50  H   UNL A   1      44.668  27.718  27.240  1.00  0.00     0.167 HD
ATOM     51  C   UNL A   1      49.009  27.957  26.678  1.00  0.00     0.034 A 
ATOM     52  C   UNL A   1      42.205  28.616  28.213  1.00  0.00     0.034 A 
ATOM     53  C   UNL A   1      48.618  29.251  27.169  1.00  0.00     0.049 A 
ATOM     54  C   UNL A   1      43.190  29.733  28.445  1.00  0.00     0.074 A 
ATOM     55  C   UNL A   1      49.407  30.367  27.377  1.00  0.00     0.029 A 
ATOM     56  N   UNL A   1      47.327  29.601  27.533  1.00  0.00    -0.354 N 
ATOM     57  N   UNL A   1      44.464  29.787  28.143  1.00  0.00    -0.248 NA
ATOM     58  C   UNL A   1      42.667  30.959  29.064  1.00  0.00     0.031 C 
ATOM     59  C   UNL A   1      48.598  31.388  27.885  1.00  0.00     0.029 A 
ATOM     60  C   UNL A   1      47.297  30.916  27.963  1.00  0.00     0.049 A 
ATOM     61  H   UNL A   1      46.546  29.003  27.491  1.00  0.00     0.167 HD
ATOM     62  C   UNL A   1      44.883  31.067  28.491  1.00  0.00     0.074 A 
ATOM     63  C   UNL A   1      43.721  31.760  29.005  1.00  0.00     0.031 C 
ATOM     64  C   UNL A   1      46.120  31.614  28.408  1.00  0.00     0.034 A 
BRANCH  51  65
ATOM     65  C   UNL A   1      50.459  27.743  26.323  1.00  0.00     0.023 A 
ATOM     66  C   UNL A   1      51.381  27.438  27.345  1.00  0.00     0.012 A 
ATOM     67  C   UNL A   1      50.893  27.762  24.983  1.00  0.00     0.148 A 
ATOM     68  C   UNL A   1      52.717  27.182  27.044  1.00  0.00     0.002 A 
ATOM     69  C   UNL A   1      52.217  27.460  24.686  1.00  0.00     0.091 A 
ATOM     70  F   UNL A   1      50.004  28.068  24.028  1.00  0.00    -0.205 F 
ATOM     71  C   UNL A   1      53.132  27.181  25.715  1.00  0.00     0.022 A 
BRANCH  69  72
ATOM     72  S   UNL A   1      52.838  27.352  23.004  1.00  0.00     0.127 S 
ATOM     73  O   UNL A   1      53.275  28.727  22.762  1.00  0.00    -0.237 OA
ATOM     74  O   UNL A   1      53.926  26.383  23.143  1.00  0.00    -0.237 OA
ATOM     75  O   UNL A   1      51.719  26.903  22.188  1.00  0.00    -0.744 OA
ENDBRANCH  69  72
ENDBRANCH  51  65
BRANCH  52  76
ATOM     76  C   UNL A   1      40.770  28.785  28.587  1.00  0.00     0.023 A 
ATOM     77  C   UNL A   1      39.825  29.081  27.585  1.00  0.00     0.012 A 
ATOM     78  C   UNL A   1      40.342  28.680  29.924  1.00  0.00     0.148 A 
ATOM     79  C   UNL A   1      38.491  29.326  27.915  1.00  0.00     0.002 A 
ATOM     80  C   UNL A   1      39.001  28.866  30.237  1.00  0.00     0.091 A 
ATOM     81  F   UNL A   1      41.256  28.407  30.866  1.00  0.00    -0.205 F 
ATOM     82  C   UNL A   1      38.077  29.212  29.239  1.00  0.00     0.022 A 
BRANCH  80  83
ATOM     83  S   UNL A   1      38.360  28.611  31.896  1.00  0.00     0.127 S 
ATOM     84  O   UNL A   1      38.535  27.171  32.067  1.00  0.00    -0.237 OA
ATOM     85  O   UNL A   1      39.257  29.441  32.700  1.00  0.00    -0.237 OA
ATOM     86  O   UNL A   1      36.982  29.085  31.860  1.00  0.00    -0.744 OA
ENDBRANCH  80  83
ENDBRANCH  52  76
BRANCH  64  87
ATOM     87  C   UNL A   1      46.277  33.055  28.821  1.00  0.00     0.023 A 
ATOM     88  C   UNL A   1      46.741  33.372  30.113  1.00  0.00     0.012 A 
ATOM     89  C   UNL A   1      46.027  34.091  27.901  1.00  0.00     0.148 A 
ATOM     90  C   UNL A   1      46.916  34.702  30.495  1.00  0.00     0.002 A 
ATOM     91  C   UNL A   1      46.255  35.411  28.270  1.00  0.00     0.091 A 
ATOM     92  F   UNL A   1      45.570  33.768  26.682  1.00  0.00    -0.205 F 
ATOM     93  C   UNL A   1      46.685  35.719  29.571  1.00  0.00     0.022 A 
BRANCH  91  94
ATOM     94  S   UNL A   1      46.082  36.779  27.120  1.00  0.00     0.127 S 
ATOM     95  O   UNL A   1      46.941  36.350  26.016  1.00  0.00    -0.237 OA
ATOM     96  O   UNL A   1      44.650  36.754  26.824  1.00  0.00    -0.237 OA
ATOM     97  O   UNL A   1      46.533  37.966  27.833  1.00  0.00    -0.744 OA
ENDBRANCH  91  94
ENDBRANCH  64  87
ENDBRANCH  38  39
ENDBRANCH  30  33
ENDBRANCH  28  29
ENDBRANCH  27  28
ENDBRANCH  26  27
ENDBRANCH   1  26
TORSDOF 19
ENDMDL
MODEL 3
REMARK VINA RESULT:     -10.5      2.535      4.469
REMARK SMILES CC1(C)C(C(=O)Nc2ccc(CC(=O)NCCCCCCNC(=O)c3ccc(-c4c5nc(c(-c6cccc(S(=O)(=O)[O-])c6F)c6ccc([nH]6)c(-c6cccc(S(=O)(=O)[O-])c6F)c6nc(c(-c7cccc(S(=O)(=O)[O-])c7F)c7ccc4[nH]7)C=C6)C=C5)cc3)cc2)C1(C)C
REMARK SMILES IDX 18 1 17 2 16 3 15 4 13 5 14 6 12 8 11 9 8 10 9 11 89 12
REMARK SMILES IDX 10 13 88 14 7 15 5 16 6 17 4 19 1 20 2 21 3 22 90 23 91 24
REMARK SMILES IDX 92 25 19 26 20 27 21 28 22 29 23 30 24 32 25 33 26 34 87 35
REMARK SMILES IDX 27 36 86 37 28 38 29 39 30 40 80 41 31 42 85 43 79 44 81 45
REMARK SMILES IDX 32 46 84 47 78 48 77 49 33 51 65 52 45 53 64 54 46 55 49 56
REMARK SMILES IDX 63 57 82 58 47 59 48 60 62 62 83 63 50 64 34 65 35 66 43 67
REMARK SMILES IDX 36 68 38 69 44 70 37 71 39 72 40 73 41 74 42 75 66 76 67 77
REMARK SMILES IDX 75 78 68 79 70 80 76 81 69 82 71 83 72 84 73 85 74 86 51 87
REMARK SMILES IDX 52 88 60 89 53 90 55 91 61 92 54 93 56 94 57 95 58 96 59 97
REMARK H PARENT 15 7 7 18 22 31 81 50 49 61
REMARK Flexibility Score: inf
ROOT
ATOM      1  C   UNL A   1      34.063  26.802  25.324  1.00  0.00     0.002 C 
ENDROOT
BRANCH   1   2
ATOM      2  C   UNL A   1      34.249  25.323  24.985  1.00  0.00     0.021 C 
BRANCH   2   3
ATOM      3  C   UNL A   1      35.522  24.718  25.588  1.00  0.00     0.116 C 
BRANCH   3   4
ATOM      4  N   UNL A   1      36.131  23.775  24.672  1.00  0.00    -0.356 N 
ATOM      5  C   UNL A   1      36.292  22.427  24.806  1.00  0.00     0.224 C 
ATOM      6  O   UNL A   1      36.936  21.825  23.944  1.00  0.00    -0.275 OA
ATOM      7  H   UNL A   1      36.476  24.161  23.834  1.00  0.00     0.163 HD
BRANCH   5   8
ATOM      8  C   UNL A   1      35.623  21.683  25.944  1.00  0.00     0.135 C 
BRANCH   8   9
ATOM      9  C   UNL A   1      34.128  21.851  26.058  1.00  0.00    -0.039 A 
ATOM     10  C   UNL A   1      31.464  22.676  26.168  1.00  0.00     0.041 A 
ATOM     11  C   UNL A   1      31.908  21.930  25.075  1.00  0.00     0.026 A 
ATOM     12  C   UNL A   1      32.246  22.748  27.299  1.00  0.00     0.026 A 
ATOM     13  C   UNL A   1      33.248  21.507  25.025  1.00  0.00     0.006 A 
ATOM     14  C   UNL A   1      33.593  22.438  27.205  1.00  0.00     0.006 A 
BRANCH  10  15
ATOM     15  N   UNL A   1      30.294  23.444  26.095  1.00  0.00    -0.326 N 
ATOM     16  C   UNL A   1      30.249  24.829  26.073  1.00  0.00     0.228 C 
ATOM     17  O   UNL A   1      29.597  25.401  26.947  1.00  0.00    -0.274 OA
ATOM     18  H   UNL A   1      29.437  22.962  26.053  1.00  0.00     0.169 HD
BRANCH  16  19
ATOM     19  C   UNL A   1      30.611  25.639  24.846  1.00  0.00     0.091 C 
ATOM     20  C   UNL A   1      31.863  25.589  22.540  1.00  0.00     0.012 C 
ATOM     21  C   UNL A   1      30.616  25.262  23.354  1.00  0.00    -0.017 C 
ATOM     22  C   UNL A   1      29.970  24.044  22.751  1.00  0.00     0.012 C 
ATOM     23  C   UNL A   1      29.766  26.455  23.879  1.00  0.00    -0.017 C 
ATOM     24  C   UNL A   1      30.256  27.866  23.599  1.00  0.00     0.012 C 
ATOM     25  C   UNL A   1      28.261  26.427  23.876  1.00  0.00     0.012 C 
ENDBRANCH  16  19
ENDBRANCH  10  15
ENDBRANCH   8   9
ENDBRANCH   5   8
ENDBRANCH   3   4
ENDBRANCH   2   3
ENDBRANCH   1   2
BRANCH   1  26
ATOM     26  C   UNL A   1      34.026  27.722  24.102  1.00  0.00     0.002 C 
BRANCH  26  27
ATOM     27  C   UNL A   1      33.429  29.106  24.369  1.00  0.00     0.021 C 
BRANCH  27  28
ATOM     28  C   UNL A   1      32.880  29.284  25.781  1.00  0.00     0.116 C 
BRANCH  28  29
ATOM     29  N   UNL A   1      32.633  30.688  26.081  1.00  0.00    -0.352 N 
ATOM     30  C   UNL A   1      33.230  31.494  27.018  1.00  0.00     0.251 C 
ATOM     31  H   UNL A   1      31.939  31.120  25.534  1.00  0.00     0.163 HD
ATOM     32  O   UNL A   1      32.729  32.572  27.309  1.00  0.00    -0.269 OA
BRANCH  30  33
ATOM     33  C   UNL A   1      34.478  31.048  27.673  1.00  0.00     0.039 A 
ATOM     34  C   UNL A   1      35.483  31.983  27.925  1.00  0.00     0.014 A 
ATOM     35  C   UNL A   1      34.655  29.709  28.031  1.00  0.00     0.014 A 
ATOM     36  C   UNL A   1      36.648  31.583  28.584  1.00  0.00     0.010 A 
ATOM     37  C   UNL A   1      35.779  29.328  28.755  1.00  0.00     0.010 A 
ATOM     38  C   UNL A   1      36.792  30.258  29.031  1.00  0.00    -0.014 A 
BRANCH  38  39
ATOM     39  C   UNL A   1      37.994  29.830  29.791  1.00  0.00     0.031 A 
ATOM     40  C   UNL A   1      38.259  30.387  31.165  1.00  0.00     0.074 A 
ATOM     41  C   UNL A   1      38.881  28.993  29.217  1.00  0.00     0.049 A 
ATOM     42  N   UNL A   1      39.282  30.182  31.953  1.00  0.00    -0.248 NA
ATOM     43  C   UNL A   1      37.254  31.313  31.717  1.00  0.00     0.031 C 
ATOM     44  C   UNL A   1      38.768  28.435  27.866  1.00  0.00     0.029 A 
ATOM     45  N   UNL A   1      40.066  28.482  29.685  1.00  0.00    -0.354 N 
ATOM     46  C   UNL A   1      39.056  30.964  33.081  1.00  0.00     0.074 A 
ATOM     47  C   UNL A   1      37.823  31.684  32.856  1.00  0.00     0.031 C 
ATOM     48  C   UNL A   1      39.834  27.656  27.620  1.00  0.00     0.029 A 
ATOM     49  C   UNL A   1      40.724  27.687  28.776  1.00  0.00     0.049 A 
ATOM     50  H   UNL A   1      40.412  28.668  30.588  1.00  0.00     0.167 HD
ATOM     51  C   UNL A   1      39.790  31.049  34.215  1.00  0.00     0.034 A 
ATOM     52  C   UNL A   1      41.915  27.063  28.860  1.00  0.00     0.034 A 
ATOM     53  C   UNL A   1      41.002  30.310  34.449  1.00  0.00     0.049 A 
ATOM     54  C   UNL A   1      42.710  27.181  30.135  1.00  0.00     0.074 A 
ATOM     55  C   UNL A   1      41.792  30.291  35.584  1.00  0.00     0.029 A 
ATOM     56  N   UNL A   1      41.600  29.463  33.530  1.00  0.00    -0.354 N 
ATOM     57  N   UNL A   1      42.410  27.819  31.240  1.00  0.00    -0.248 NA
ATOM     58  C   UNL A   1      43.990  26.461  30.187  1.00  0.00     0.031 C 
ATOM     59  C   UNL A   1      42.880  29.446  35.345  1.00  0.00     0.029 A 
ATOM     60  C   UNL A   1      42.750  28.914  34.072  1.00  0.00     0.049 A 
ATOM     61  H   UNL A   1      41.259  29.278  32.626  1.00  0.00     0.167 HD
ATOM     62  C   UNL A   1      43.439  27.539  32.132  1.00  0.00     0.074 A 
ATOM     63  C   UNL A   1      44.358  26.656  31.445  1.00  0.00     0.031 C 
ATOM     64  C   UNL A   1      43.617  27.984  33.400  1.00  0.00     0.034 A 
BRANCH  51  65
ATOM     65  C   UNL A   1      39.270  31.926  35.327  1.00  0.00     0.023 A 
ATOM     66  C   UNL A   1      38.332  31.399  36.239  1.00  0.00     0.012 A 
ATOM     67  C   UNL A   1      39.763  33.231  35.519  1.00  0.00     0.148 A 
ATOM     68  C   UNL A   1      37.872  32.164  37.308  1.00  0.00     0.002 A 
ATOM     69  C   UNL A   1      39.334  33.972  36.614  1.00  0.00     0.091 A 
ATOM     70  F   UNL A   1      40.643  33.718  34.634  1.00  0.00    -0.205 F 
ATOM     71  C   UNL A   1      38.381  33.445  37.502  1.00  0.00     0.022 A 
BRANCH  69  72
ATOM     72  S   UNL A   1      39.986  35.600  37.005  1.00  0.00     0.127 S 
ATOM     73  O   UNL A   1      39.278  35.911  38.247  1.00  0.00    -0.237 OA
ATOM     74  O   UNL A   1      41.413  35.325  37.170  1.00  0.00    -0.237 OA
ATOM     75  O   UNL A   1      39.653  36.451  35.872  1.00  0.00    -0.744 OA
ENDBRANCH  69  72
ENDBRANCH  51  65
BRANCH  52  76
ATOM     76  C   UNL A   1      42.421  26.231  27.730  1.00  0.00     0.023 A 
ATOM     77  C   UNL A   1      43.329  26.792  26.809  1.00  0.00     0.012 A 
ATOM     78  C   UNL A   1      41.993  24.902  27.547  1.00  0.00     0.148 A 
ATOM     79  C   UNL A   1      43.756  26.066  25.697  1.00  0.00     0.002 A 
ATOM     80  C   UNL A   1      42.469  24.165  26.469  1.00  0.00     0.091 A 
ATOM     81  F   UNL A   1      41.122  24.387  28.425  1.00  0.00    -0.205 F 
ATOM     82  C   UNL A   1      43.331  24.751  25.530  1.00  0.00     0.022 A 
BRANCH  80  83
ATOM     83  S   UNL A   1      42.076  22.426  26.250  1.00  0.00     0.127 S 
ATOM     84  O   UNL A   1      42.781  22.112  25.010  1.00  0.00    -0.237 OA
ATOM     85  O   UNL A   1      42.652  21.829  27.455  1.00  0.00    -0.237 OA
ATOM     86  O   UNL A   1      40.621  22.359  26.188  1.00  0.00    -0.744 OA
ENDBRANCH  80  83
ENDBRANCH  52  76
BRANCH  64  87
ATOM     87  C   UNL A   1      44.817  27.476  34.157  1.00  0.00     0.023 A 
ATOM     88  C   UNL A   1      46.028  28.195  34.126  1.00  0.00     0.012 A 
ATOM     89  C   UNL A   1      44.718  26.319  34.955  1.00  0.00     0.148 A 
ATOM     90  C   UNL A   1      47.135  27.747  34.847  1.00  0.00     0.002 A 
ATOM     91  C   UNL A   1      45.808  25.909  35.713  1.00  0.00     0.091 A 
ATOM     92  F   UNL A   1      43.562  25.640  34.958  1.00  0.00    -0.205 F 
ATOM     93  C   UNL A   1      47.022  26.614  35.648  1.00  0.00     0.022 A 
BRANCH  91  94
ATOM     94  S   UNL A   1      45.727  24.521  36.850  1.00  0.00     0.127 S 
ATOM     95  O   UNL A   1      45.520  23.399  35.934  1.00  0.00    -0.237 OA
ATOM     96  O   UNL A   1      47.047  24.559  37.478  1.00  0.00    -0.237 OA
ATOM     97  O   UNL A   1      44.618  24.802  37.751  1.00  0.00    -0.744 OA
ENDBRANCH  91  94
ENDBRANCH  64  87
ENDBRANCH  38  39
ENDBRANCH  30  33
ENDBRANCH  28  29
ENDBRANCH  27  28
ENDBRANCH  26  27
ENDBRANCH   1  26
TORSDOF 19
ENDMDL
