MODEL 1
REMARK VINA RESULT:     -10.5      0.000      0.000
REMARK SMILES C[C@H](Cc1ccco1)[NH2+]Cc1cc(C(=O)NCCCCCCNC(=O)c2ccc(-c3c4nc(c(-c5cccc(S(=O)(=O)[O-])c5F)c5ccc([nH]5)c(-c5cccc(S(=O)(=O)[O-])c5F)c5nc(c(-c6cccc(S(=O)(=O)[O-])c6F)c6ccc3[nH]6)C=C5)C=C4)cc2)cs1
REMARK SMILES IDX 18 1 17 2 16 3 14 4 15 5 13 7 11 8 12 9 90 10 89 11 10 12
REMARK SMILES IDX 9 13 2 16 1 17 3 18 4 19 5 20 8 21 6 22 7 23 19 24 20 25
REMARK SMILES IDX 21 26 22 27 23 28 24 29 25 31 26 32 27 33 88 34 28 35 87 36
REMARK SMILES IDX 29 37 30 38 31 39 81 40 32 41 86 42 80 43 82 44 33 45 85 46
REMARK SMILES IDX 79 47 78 48 34 50 66 51 46 52 65 53 47 54 50 55 64 56 83 57
REMARK SMILES IDX 48 58 49 59 63 61 84 62 51 63 35 64 36 65 44 66 37 67 39 68
REMARK SMILES IDX 45 69 38 70 40 71 41 72 42 73 43 74 67 75 68 76 76 77 69 78
REMARK SMILES IDX 71 79 77 80 70 81 72 82 73 83 74 84 75 85 52 86 53 87 61 88
REMARK SMILES IDX 54 89 56 90 62 91 55 92 57 93 58 94 59 95 60 96
REMARK H PARENT 16 6 9 14 9 15 23 30 82 49 50 60
REMARK Flexibility Score: inf
ROOT
ATOM      1  C   UNL A   1      33.569  19.904  25.447  1.00  0.00     0.021 C 
ENDROOT
BRANCH   1   2
ATOM      2  C   UNL A   1      32.308  19.909  24.581  1.00  0.00     0.116 C 
BRANCH   2   3
ATOM      3  N   UNL A   1      32.511  20.731  23.400  1.00  0.00    -0.352 N 
ATOM      4  C   UNL A   1      32.554  22.093  23.215  1.00  0.00     0.252 C 
ATOM      5  O   UNL A   1      32.779  22.497  22.077  1.00  0.00    -0.269 OA
ATOM      6  H   UNL A   1      32.643  20.213  22.575  1.00  0.00     0.163 HD
BRANCH   4   7
ATOM      7  C   UNL A   1      32.431  23.016  24.345  1.00  0.00     0.051 A 
ATOM      8  C   UNL A   1      32.821  24.892  25.669  1.00  0.00     0.059 A 
ATOM      9  C   UNL A   1      33.412  23.860  24.961  1.00  0.00     0.035 A 
ATOM     10  S   UNL A   1      31.233  24.454  26.136  1.00  0.00    -0.142 S 
ATOM     11  C   UNL A   1      31.217  23.177  24.998  1.00  0.00     0.079 A 
BRANCH   8  12
ATOM     12  C   UNL A   1      33.384  26.249  25.988  1.00  0.00     0.308 C 
BRANCH  12  13
ATOM     13  N   UNL A   1      33.865  26.949  24.789  1.00  0.00    -0.339 N 
ATOM     14  H   UNL A   1      34.859  26.739  24.691  1.00  0.00     0.346 HD
ATOM     15  H   UNL A   1      33.266  26.610  24.037  1.00  0.00     0.346 HD
BRANCH  13  16
ATOM     16  C   UNL A   1      33.721  28.423  24.742  1.00  0.00     0.187 C 
ATOM     17  C   UNL A   1      32.835  29.022  25.845  1.00  0.00     0.075 C 
BRANCH  16  18
ATOM     18  C   UNL A   1      33.188  28.807  23.329  1.00  0.00     0.140 C 
BRANCH  18  19
ATOM     19  C   UNL A   1      32.702  27.635  22.547  1.00  0.00     0.109 A 
ATOM     20  C   UNL A   1      31.481  27.007  22.421  1.00  0.00     0.046 A 
ATOM     21  O   UNL A   1      33.646  26.968  21.819  1.00  0.00    -0.469 OA
ATOM     22  C   UNL A   1      31.702  25.873  21.600  1.00  0.00     0.042 A 
ATOM     23  C   UNL A   1      33.032  25.897  21.257  1.00  0.00     0.195 A 
ENDBRANCH  18  19
ENDBRANCH  16  18
ENDBRANCH  13  16
ENDBRANCH  12  13
ENDBRANCH   8  12
ENDBRANCH   4   7
ENDBRANCH   2   3
ENDBRANCH   1   2
BRANCH   1  24
ATOM     24  C   UNL A   1      34.832  19.516  24.667  1.00  0.00     0.002 C 
BRANCH  24  25
ATOM     25  C   UNL A   1      36.096  20.292  25.060  1.00  0.00     0.002 C 
BRANCH  25  26
ATOM     26  C   UNL A   1      37.405  19.503  24.958  1.00  0.00     0.021 C 
BRANCH  26  27
ATOM     27  C   UNL A   1      38.632  20.227  25.506  1.00  0.00     0.116 C 
BRANCH  27  28
ATOM     28  N   UNL A   1      39.719  19.307  25.807  1.00  0.00    -0.352 N 
ATOM     29  C   UNL A   1      41.015  19.583  26.168  1.00  0.00     0.251 C 
ATOM     30  H   UNL A   1      39.492  18.352  25.742  1.00  0.00     0.163 HD
ATOM     31  O   UNL A   1      41.848  18.682  26.191  1.00  0.00    -0.269 OA
BRANCH  29  32
ATOM     32  C   UNL A   1      41.407  20.966  26.514  1.00  0.00     0.039 A 
ATOM     33  C   UNL A   1      42.170  21.186  27.663  1.00  0.00     0.014 A 
ATOM     34  C   UNL A   1      41.010  22.043  25.716  1.00  0.00     0.014 A 
ATOM     35  C   UNL A   1      42.581  22.483  27.984  1.00  0.00     0.010 A 
ATOM     36  C   UNL A   1      41.473  23.325  26.003  1.00  0.00     0.010 A 
ATOM     37  C   UNL A   1      42.259  23.560  27.142  1.00  0.00    -0.014 A 
BRANCH  37  38
ATOM     38  C   UNL A   1      42.742  24.934  27.426  1.00  0.00     0.031 A 
ATOM     39  C   UNL A   1      41.830  25.939  28.079  1.00  0.00     0.074 A 
ATOM     40  C   UNL A   1      43.968  25.308  27.010  1.00  0.00     0.049 A 
ATOM     41  N   UNL A   1      42.051  27.200  28.346  1.00  0.00    -0.248 NA
ATOM     42  C   UNL A   1      40.486  25.472  28.458  1.00  0.00     0.031 C 
ATOM     43  C   UNL A   1      44.914  24.451  26.293  1.00  0.00     0.029 A 
ATOM     44  N   UNL A   1      44.617  26.514  27.103  1.00  0.00    -0.354 N 
ATOM     45  C   UNL A   1      40.868  27.687  28.887  1.00  0.00     0.074 A 
ATOM     46  C   UNL A   1      39.921  26.592  28.884  1.00  0.00     0.031 C 
ATOM     47  C   UNL A   1      46.020  25.157  26.010  1.00  0.00     0.029 A 
ATOM     48  C   UNL A   1      45.855  26.522  26.502  1.00  0.00     0.049 A 
ATOM     49  H   UNL A   1      44.233  27.299  27.557  1.00  0.00     0.167 HD
ATOM     50  C   UNL A   1      40.600  28.923  29.372  1.00  0.00     0.034 A 
ATOM     51  C   UNL A   1      46.752  27.516  26.359  1.00  0.00     0.034 A 
ATOM     52  C   UNL A   1      41.559  29.993  29.422  1.00  0.00     0.049 A 
ATOM     53  C   UNL A   1      46.452  28.865  26.954  1.00  0.00     0.074 A 
ATOM     54  C   UNL A   1      41.416  31.251  29.979  1.00  0.00     0.029 A 
ATOM     55  N   UNL A   1      42.839  29.934  28.894  1.00  0.00    -0.354 N 
ATOM     56  N   UNL A   1      45.386  29.257  27.610  1.00  0.00    -0.248 NA
ATOM     57  C   UNL A   1      47.490  29.898  26.821  1.00  0.00     0.031 C 
ATOM     58  C   UNL A   1      42.606  31.959  29.775  1.00  0.00     0.029 A 
ATOM     59  C   UNL A   1      43.495  31.134  29.106  1.00  0.00     0.049 A 
ATOM     60  H   UNL A   1      43.225  29.153  28.435  1.00  0.00     0.167 HD
ATOM     61  C   UNL A   1      45.640  30.568  28.000  1.00  0.00     0.074 A 
ATOM     62  C   UNL A   1      46.968  30.896  27.523  1.00  0.00     0.031 C 
ATOM     63  C   UNL A   1      44.839  31.428  28.676  1.00  0.00     0.034 A 
BRANCH  50  64
ATOM     64  C   UNL A   1      39.230  29.168  29.947  1.00  0.00     0.023 A 
ATOM     65  C   UNL A   1      38.926  28.687  31.239  1.00  0.00     0.012 A 
ATOM     66  C   UNL A   1      38.266  29.918  29.247  1.00  0.00     0.148 A 
ATOM     67  C   UNL A   1      37.675  28.918  31.808  1.00  0.00     0.002 A 
ATOM     68  C   UNL A   1      37.035  30.180  29.837  1.00  0.00     0.091 A 
ATOM     69  F   UNL A   1      38.564  30.348  28.012  1.00  0.00    -0.205 F 
ATOM     70  C   UNL A   1      36.734  29.672  31.112  1.00  0.00     0.022 A 
BRANCH  68  71
ATOM     71  S   UNL A   1      35.785  31.207  29.054  1.00  0.00     0.127 S 
ATOM     72  O   UNL A   1      35.039  31.695  30.213  1.00  0.00    -0.237 OA
ATOM     73  O   UNL A   1      36.596  32.222  28.381  1.00  0.00    -0.237 OA
ATOM     74  O   UNL A   1      35.048  30.327  28.158  1.00  0.00    -0.744 OA
ENDBRANCH  68  71
ENDBRANCH  50  64
BRANCH  51  75
ATOM     75  C   UNL A   1      48.056  27.247  25.689  1.00  0.00     0.023 A 
ATOM     76  C   UNL A   1      49.129  26.743  26.450  1.00  0.00     0.012 A 
ATOM     77  C   UNL A   1      48.230  27.451  24.307  1.00  0.00     0.148 A 
ATOM     78  C   UNL A   1      50.360  26.473  25.852  1.00  0.00     0.002 A 
ATOM     79  C   UNL A   1      49.443  27.131  23.707  1.00  0.00     0.091 A 
ATOM     80  F   UNL A   1      47.202  27.945  23.602  1.00  0.00    -0.205 F 
ATOM     81  C   UNL A   1      50.515  26.657  24.481  1.00  0.00     0.022 A 
BRANCH  79  82
ATOM     82  S   UNL A   1      49.687  27.211  21.929  1.00  0.00     0.127 S 
ATOM     83  O   UNL A   1      48.733  26.212  21.451  1.00  0.00    -0.237 OA
ATOM     84  O   UNL A   1      49.325  28.598  21.634  1.00  0.00    -0.237 OA
ATOM     85  O   UNL A   1      51.093  26.901  21.713  1.00  0.00    -0.744 OA
ENDBRANCH  79  82
ENDBRANCH  51  75
BRANCH  63  86
ATOM     86  C   UNL A   1      45.380  32.802  28.972  1.00  0.00     0.023 A 
ATOM     87  C   UNL A   1      46.128  33.020  30.144  1.00  0.00     0.012 A 
ATOM     88  C   UNL A   1      45.214  33.855  28.051  1.00  0.00     0.148 A 
ATOM     89  C   UNL A   1      46.682  34.271  30.410  1.00  0.00     0.002 A 
ATOM     90  C   UNL A   1      45.807  35.087  28.300  1.00  0.00     0.091 A 
ATOM     91  F   UNL A   1      44.481  33.634  26.949  1.00  0.00    -0.205 F 
ATOM     92  C   UNL A   1      46.531  35.300  29.484  1.00  0.00     0.022 A 
BRANCH  90  93
ATOM     93  S   UNL A   1      45.745  36.439  27.118  1.00  0.00     0.127 S 
ATOM     94  O   UNL A   1      44.304  36.642  26.974  1.00  0.00    -0.237 OA
ATOM     95  O   UNL A   1      46.443  37.509  27.830  1.00  0.00    -0.237 OA
ATOM     96  O   UNL A   1      46.432  35.961  25.927  1.00  0.00    -0.744 OA
ENDBRANCH  90  93
ENDBRANCH  63  86
ENDBRANCH  37  38
ENDBRANCH  29  32
ENDBRANCH  27  28
ENDBRANCH  26  27
ENDBRANCH  25  26
ENDBRANCH  24  25
ENDBRANCH   1  24
TORSDOF 21
ENDMDL
MODEL 2
REMARK VINA RESULT:     -10.4      1.965      7.803
REMARK SMILES C[C@H](Cc1ccco1)[NH2+]Cc1cc(C(=O)NCCCCCCNC(=O)c2ccc(-c3c4nc(c(-c5cccc(S(=O)(=O)[O-])c5F)c5ccc([nH]5)c(-c5cccc(S(=O)(=O)[O-])c5F)c5nc(c(-c6cccc(S(=O)(=O)[O-])c6F)c6ccc3[nH]6)C=C5)C=C4)cc2)cs1
REMARK SMILES IDX 18 1 17 2 16 3 14 4 15 5 13 7 11 8 12 9 90 10 89 11 10 12
REMARK SMILES IDX 9 13 2 16 1 17 3 18 4 19 5 20 8 21 6 22 7 23 19 24 20 25
REMARK SMILES IDX 21 26 22 27 23 28 24 29 25 31 26 32 27 33 88 34 28 35 87 36
REMARK SMILES IDX 29 37 30 38 31 39 81 40 32 41 86 42 80 43 82 44 33 45 85 46
REMARK SMILES IDX 79 47 78 48 34 50 66 51 46 52 65 53 47 54 50 55 64 56 83 57
REMARK SMILES IDX 48 58 49 59 63 61 84 62 51 63 35 64 36 65 44 66 37 67 39 68
REMARK SMILES IDX 45 69 38 70 40 71 41 72 42 73 43 74 67 75 68 76 76 77 69 78
REMARK SMILES IDX 71 79 77 80 70 81 72 82 73 83 74 84 75 85 52 86 53 87 61 88
REMARK SMILES IDX 54 89 56 90 62 91 55 92 57 93 58 94 59 95 60 96
REMARK H PARENT 16 6 9 14 9 15 23 30 82 49 50 60
REMARK Flexibility Score: inf
ROOT
ATOM      1  C   UNL A   1      32.494  20.330  23.464  1.00  0.00     0.021 C 
ENDROOT
BRANCH   1   2
ATOM      2  C   UNL A   1      31.848  21.500  22.721  1.00  0.00     0.116 C 
BRANCH   2   3
ATOM      3  N   UNL A   1      32.858  22.469  22.331  1.00  0.00    -0.352 N 
ATOM      4  C   UNL A   1      33.033  23.798  22.633  1.00  0.00     0.252 C 
ATOM      5  O   UNL A   1      34.024  24.354  22.166  1.00  0.00    -0.269 OA
ATOM      6  H   UNL A   1      33.549  22.103  21.734  1.00  0.00     0.163 HD
BRANCH   4   7
ATOM      7  C   UNL A   1      32.128  24.492  23.553  1.00  0.00     0.051 A 
ATOM      8  C   UNL A   1      31.432  25.684  25.429  1.00  0.00     0.059 A 
ATOM      9  C   UNL A   1      32.160  24.595  24.982  1.00  0.00     0.035 A 
ATOM     10  S   UNL A   1      30.237  26.107  24.278  1.00  0.00    -0.142 S 
ATOM     11  C   UNL A   1      31.031  25.193  23.071  1.00  0.00     0.079 A 
BRANCH   8  12
ATOM     12  C   UNL A   1      31.616  26.476  26.693  1.00  0.00     0.308 C 
BRANCH  12  13
ATOM     13  N   UNL A   1      31.475  27.922  26.470  1.00  0.00    -0.339 N 
ATOM     14  H   UNL A   1      31.398  28.068  25.463  1.00  0.00     0.346 HD
ATOM     15  H   UNL A   1      30.658  28.187  27.020  1.00  0.00     0.346 HD
BRANCH  13  16
ATOM     16  C   UNL A   1      32.556  28.807  26.962  1.00  0.00     0.187 C 
ATOM     17  C   UNL A   1      32.200  30.301  27.005  1.00  0.00     0.075 C 
BRANCH  16  18
ATOM     18  C   UNL A   1      33.816  28.560  26.079  1.00  0.00     0.140 C 
BRANCH  18  19
ATOM     19  C   UNL A   1      33.496  28.397  24.633  1.00  0.00     0.109 A 
ATOM     20  C   UNL A   1      34.049  27.663  23.605  1.00  0.00     0.046 A 
ATOM     21  O   UNL A   1      32.468  29.163  24.157  1.00  0.00    -0.469 OA
ATOM     22  C   UNL A   1      33.344  28.030  22.432  1.00  0.00     0.042 A 
ATOM     23  C   UNL A   1      32.391  28.939  22.822  1.00  0.00     0.195 A 
ENDBRANCH  18  19
ENDBRANCH  16  18
ENDBRANCH  13  16
ENDBRANCH  12  13
ENDBRANCH   8  12
ENDBRANCH   4   7
ENDBRANCH   2   3
ENDBRANCH   1   2
BRANCH   1  24
ATOM     24  C   UNL A   1      33.152  20.747  24.787  1.00  0.00     0.002 C 
BRANCH  24  25
ATOM     25  C   UNL A   1      34.658  20.468  24.875  1.00  0.00     0.002 C 
BRANCH  25  26
ATOM     26  C   UNL A   1      35.562  21.674  24.610  1.00  0.00     0.021 C 
BRANCH  26  27
ATOM     27  C   UNL A   1      36.558  21.983  25.724  1.00  0.00     0.116 C 
BRANCH  27  28
ATOM     28  N   UNL A   1      37.578  20.952  25.846  1.00  0.00    -0.352 N 
ATOM     29  C   UNL A   1      38.922  21.085  26.094  1.00  0.00     0.251 C 
ATOM     30  H   UNL A   1      37.258  20.028  25.734  1.00  0.00     0.163 HD
ATOM     31  O   UNL A   1      39.666  20.117  25.968  1.00  0.00    -0.269 OA
BRANCH  29  32
ATOM     32  C   UNL A   1      39.472  22.396  26.499  1.00  0.00     0.039 A 
ATOM     33  C   UNL A   1      40.476  22.439  27.470  1.00  0.00     0.014 A 
ATOM     34  C   UNL A   1      38.989  23.580  25.935  1.00  0.00     0.014 A 
ATOM     35  C   UNL A   1      41.035  23.667  27.836  1.00  0.00     0.010 A 
ATOM     36  C   UNL A   1      39.589  24.795  26.255  1.00  0.00     0.010 A 
ATOM     37  C   UNL A   1      40.614  24.853  27.212  1.00  0.00    -0.014 A 
BRANCH  37  38
ATOM     38  C   UNL A   1      41.239  26.160  27.537  1.00  0.00     0.031 A 
ATOM     39  C   UNL A   1      42.661  26.443  27.130  1.00  0.00     0.074 A 
ATOM     40  C   UNL A   1      40.560  27.055  28.281  1.00  0.00     0.049 A 
ATOM     41  N   UNL A   1      43.395  27.496  27.381  1.00  0.00    -0.248 NA
ATOM     42  C   UNL A   1      43.356  25.395  26.364  1.00  0.00     0.031 C 
ATOM     43  C   UNL A   1      39.207  26.865  28.806  1.00  0.00     0.029 A 
ATOM     44  N   UNL A   1      40.927  28.292  28.751  1.00  0.00    -0.354 N 
ATOM     45  C   UNL A   1      44.645  27.224  26.839  1.00  0.00     0.074 A 
ATOM     46  C   UNL A   1      44.580  25.894  26.271  1.00  0.00     0.031 C 
ATOM     47  C   UNL A   1      38.858  27.943  29.526  1.00  0.00     0.029 A 
ATOM     48  C   UNL A   1      39.968  28.890  29.535  1.00  0.00     0.049 A 
ATOM     49  H   UNL A   1      41.795  28.710  28.546  1.00  0.00     0.167 HD
ATOM     50  C   UNL A   1      45.741  28.019  26.790  1.00  0.00     0.034 A 
ATOM     51  C   UNL A   1      39.984  30.067  30.191  1.00  0.00     0.034 A 
ATOM     52  C   UNL A   1      45.787  29.359  27.309  1.00  0.00     0.049 A 
ATOM     53  C   UNL A   1      41.193  30.954  30.076  1.00  0.00     0.074 A 
ATOM     54  C   UNL A   1      46.816  30.280  27.224  1.00  0.00     0.029 A 
ATOM     55  N   UNL A   1      44.760  29.972  28.010  1.00  0.00    -0.354 N 
ATOM     56  N   UNL A   1      42.308  30.747  29.417  1.00  0.00    -0.248 NA
ATOM     57  C   UNL A   1      41.134  32.253  30.762  1.00  0.00     0.031 C 
ATOM     58  C   UNL A   1      46.418  31.445  27.888  1.00  0.00     0.029 A 
ATOM     59  C   UNL A   1      45.133  31.256  28.370  1.00  0.00     0.049 A 
ATOM     60  H   UNL A   1      43.894  29.556  28.221  1.00  0.00     0.167 HD
ATOM     61  C   UNL A   1      43.067  31.900  29.580  1.00  0.00     0.074 A 
ATOM     62  C   UNL A   1      42.277  32.811  30.382  1.00  0.00     0.031 C 
ATOM     63  C   UNL A   1      44.314  32.173  29.120  1.00  0.00     0.034 A 
BRANCH  50  64
ATOM     64  C   UNL A   1      46.965  27.482  26.095  1.00  0.00     0.023 A 
ATOM     65  C   UNL A   1      47.100  27.654  24.701  1.00  0.00     0.012 A 
ATOM     66  C   UNL A   1      48.004  26.866  26.818  1.00  0.00     0.148 A 
ATOM     67  C   UNL A   1      48.231  27.189  24.034  1.00  0.00     0.002 A 
ATOM     68  C   UNL A   1      49.149  26.442  26.151  1.00  0.00     0.091 A 
ATOM     69  F   UNL A   1      47.849  26.691  28.138  1.00  0.00    -0.205 F 
ATOM     70  C   UNL A   1      49.259  26.594  24.759  1.00  0.00     0.022 A 
BRANCH  68  71
ATOM     71  S   UNL A   1      50.560  25.732  27.008  1.00  0.00     0.127 S 
ATOM     72  O   UNL A   1      49.979  24.514  27.572  1.00  0.00    -0.237 OA
ATOM     73  O   UNL A   1      51.505  25.506  25.914  1.00  0.00    -0.237 OA
ATOM     74  O   UNL A   1      50.984  26.733  27.977  1.00  0.00    -0.744 OA
ENDBRANCH  68  71
ENDBRANCH  50  64
BRANCH  51  75
ATOM     75  C   UNL A   1      38.780  30.507  30.951  1.00  0.00     0.023 A 
ATOM     76  C   UNL A   1      38.723  30.283  32.340  1.00  0.00     0.012 A 
ATOM     77  C   UNL A   1      37.714  31.177  30.320  1.00  0.00     0.148 A 
ATOM     78  C   UNL A   1      37.614  30.690  33.082  1.00  0.00     0.002 A 
ATOM     79  C   UNL A   1      36.636  31.627  31.073  1.00  0.00     0.091 A 
ATOM     80  F   UNL A   1      37.780  31.369  28.994  1.00  0.00    -0.205 F 
ATOM     81  C   UNL A   1      36.576  31.370  32.453  1.00  0.00     0.022 A 
BRANCH  79  82
ATOM     82  S   UNL A   1      35.320  32.626  30.366  1.00  0.00     0.127 S 
ATOM     83  O   UNL A   1      36.016  33.878  30.081  1.00  0.00    -0.237 OA
ATOM     84  O   UNL A   1      34.947  31.846  29.186  1.00  0.00    -0.237 OA
ATOM     85  O   UNL A   1      34.286  32.691  31.391  1.00  0.00    -0.744 OA
ENDBRANCH  79  82
ENDBRANCH  51  75
BRANCH  63  86
ATOM     86  C   UNL A   1      44.898  33.523  29.445  1.00  0.00     0.023 A 
ATOM     87  C   UNL A   1      45.795  33.654  30.523  1.00  0.00     0.012 A 
ATOM     88  C   UNL A   1      44.622  34.642  28.635  1.00  0.00     0.148 A 
ATOM     89  C   UNL A   1      46.387  34.883  30.807  1.00  0.00     0.002 A 
ATOM     90  C   UNL A   1      45.251  35.853  28.896  1.00  0.00     0.091 A 
ATOM     91  F   UNL A   1      43.750  34.502  27.625  1.00  0.00    -0.205 F 
ATOM     92  C   UNL A   1      46.125  35.978  29.988  1.00  0.00     0.022 A 
BRANCH  90  93
ATOM     93  S   UNL A   1      45.046  37.290  27.836  1.00  0.00     0.127 S 
ATOM     94  O   UNL A   1      44.983  38.375  28.814  1.00  0.00    -0.237 OA
ATOM     95  O   UNL A   1      46.269  37.263  27.034  1.00  0.00    -0.237 OA
ATOM     96  O   UNL A   1      43.825  37.056  27.079  1.00  0.00    -0.744 OA
ENDBRANCH  90  93
ENDBRANCH  63  86
ENDBRANCH  37  38
ENDBRANCH  29  32
ENDBRANCH  27  28
ENDBRANCH  26  27
ENDBRANCH  25  26
ENDBRANCH  24  25
ENDBRANCH   1  24
TORSDOF 21
ENDMDL
MODEL 3
REMARK VINA RESULT:     -10.2      1.902      2.340
REMARK SMILES C[C@H](Cc1ccco1)[NH2+]Cc1cc(C(=O)NCCCCCCNC(=O)c2ccc(-c3c4nc(c(-c5cccc(S(=O)(=O)[O-])c5F)c5ccc([nH]5)c(-c5cccc(S(=O)(=O)[O-])c5F)c5nc(c(-c6cccc(S(=O)(=O)[O-])c6F)c6ccc3[nH]6)C=C5)C=C4)cc2)cs1
REMARK SMILES IDX 18 1 17 2 16 3 14 4 15 5 13 7 11 8 12 9 90 10 89 11 10 12
REMARK SMILES IDX 9 13 2 16 1 17 3 18 4 19 5 20 8 21 6 22 7 23 19 24 20 25
REMARK SMILES IDX 21 26 22 27 23 28 24 29 25 31 26 32 27 33 88 34 28 35 87 36
REMARK SMILES IDX 29 37 30 38 31 39 81 40 32 41 86 42 80 43 82 44 33 45 85 46
REMARK SMILES IDX 79 47 78 48 34 50 66 51 46 52 65 53 47 54 50 55 64 56 83 57
REMARK SMILES IDX 48 58 49 59 63 61 84 62 51 63 35 64 36 65 44 66 37 67 39 68
REMARK SMILES IDX 45 69 38 70 40 71 41 72 42 73 43 74 67 75 68 76 76 77 69 78
REMARK SMILES IDX 71 79 77 80 70 81 72 82 73 83 74 84 75 85 52 86 53 87 61 88
REMARK SMILES IDX 54 89 56 90 62 91 55 92 57 93 58 94 59 95 60 96
REMARK H PARENT 16 6 9 14 9 15 23 30 82 49 50 60
REMARK Flexibility Score: inf
ROOT
ATOM      1  C   UNL A   1      32.505  19.959  23.464  1.00  0.00     0.021 C 
ENDROOT
BRANCH   1   2
ATOM      2  C   UNL A   1      31.764  21.044  22.681  1.00  0.00     0.116 C 
BRANCH   2   3
ATOM      3  N   UNL A   1      32.701  22.042  22.193  1.00  0.00    -0.352 N 
ATOM      4  C   UNL A   1      32.842  23.385  22.449  1.00  0.00     0.252 C 
ATOM      5  O   UNL A   1      33.771  23.967  21.896  1.00  0.00    -0.269 OA
ATOM      6  H   UNL A   1      33.362  21.687  21.556  1.00  0.00     0.163 HD
BRANCH   4   7
ATOM      7  C   UNL A   1      31.977  24.067  23.415  1.00  0.00     0.051 A 
ATOM      8  C   UNL A   1      31.327  25.092  25.403  1.00  0.00     0.059 A 
ATOM      9  C   UNL A   1      31.942  23.984  24.845  1.00  0.00     0.035 A 
ATOM     10  S   UNL A   1      30.258  25.804  24.271  1.00  0.00    -0.142 S 
ATOM     11  C   UNL A   1      31.001  24.956  22.986  1.00  0.00     0.079 A 
BRANCH   8  12
ATOM     12  C   UNL A   1      31.535  25.689  26.766  1.00  0.00     0.308 C 
BRANCH  12  13
ATOM     13  N   UNL A   1      31.224  27.125  26.799  1.00  0.00    -0.339 N 
ATOM     14  H   UNL A   1      30.908  27.390  25.866  1.00  0.00     0.346 HD
ATOM     15  H   UNL A   1      30.533  27.220  27.543  1.00  0.00     0.346 HD
BRANCH  13  16
ATOM     16  C   UNL A   1      32.308  28.061  27.178  1.00  0.00     0.187 C 
ATOM     17  C   UNL A   1      31.981  29.548  26.973  1.00  0.00     0.075 C 
BRANCH  16  18
ATOM     18  C   UNL A   1      33.588  27.657  26.387  1.00  0.00     0.140 C 
BRANCH  18  19
ATOM     19  C   UNL A   1      33.530  28.034  24.947  1.00  0.00     0.109 A 
ATOM     20  C   UNL A   1      33.215  29.195  24.272  1.00  0.00     0.046 A 
ATOM     21  O   UNL A   1      33.786  27.031  24.054  1.00  0.00    -0.469 OA
ATOM     22  C   UNL A   1      33.244  28.871  22.893  1.00  0.00     0.042 A 
ATOM     23  C   UNL A   1      33.601  27.547  22.813  1.00  0.00     0.195 A 
ENDBRANCH  18  19
ENDBRANCH  16  18
ENDBRANCH  13  16
ENDBRANCH  12  13
ENDBRANCH   8  12
ENDBRANCH   4   7
ENDBRANCH   2   3
ENDBRANCH   1   2
BRANCH   1  24
ATOM     24  C   UNL A   1      33.074  20.462  24.798  1.00  0.00     0.002 C 
BRANCH  24  25
ATOM     25  C   UNL A   1      34.604  20.417  24.904  1.00  0.00     0.002 C 
BRANCH  25  26
ATOM     26  C   UNL A   1      35.308  21.770  24.770  1.00  0.00     0.021 C 
BRANCH  26  27
ATOM     27  C   UNL A   1      36.427  22.010  25.780  1.00  0.00     0.116 C 
BRANCH  27  28
ATOM     28  N   UNL A   1      37.395  20.924  25.791  1.00  0.00    -0.352 N 
ATOM     29  C   UNL A   1      38.751  20.970  26.002  1.00  0.00     0.251 C 
ATOM     30  H   UNL A   1      37.024  20.028  25.621  1.00  0.00     0.163 HD
ATOM     31  O   UNL A   1      39.440  19.978  25.780  1.00  0.00    -0.269 OA
BRANCH  29  32
ATOM     32  C   UNL A   1      39.381  22.218  26.484  1.00  0.00     0.039 A 
ATOM     33  C   UNL A   1      40.412  22.137  27.423  1.00  0.00     0.014 A 
ATOM     34  C   UNL A   1      38.944  23.464  26.025  1.00  0.00     0.014 A 
ATOM     35  C   UNL A   1      41.044  23.305  27.860  1.00  0.00     0.010 A 
ATOM     36  C   UNL A   1      39.616  24.620  26.414  1.00  0.00     0.010 A 
ATOM     37  C   UNL A   1      40.669  24.554  27.339  1.00  0.00    -0.014 A 
BRANCH  37  38
ATOM     38  C   UNL A   1      41.371  25.800  27.738  1.00  0.00     0.031 A 
ATOM     39  C   UNL A   1      40.637  26.876  28.492  1.00  0.00     0.074 A 
ATOM     40  C   UNL A   1      42.642  26.004  27.340  1.00  0.00     0.049 A 
ATOM     41  N   UNL A   1      41.062  28.055  28.867  1.00  0.00    -0.248 NA
ATOM     42  C   UNL A   1      39.234  26.603  28.847  1.00  0.00     0.031 C 
ATOM     43  C   UNL A   1      43.435  25.072  26.536  1.00  0.00     0.029 A 
ATOM     44  N   UNL A   1      43.481  27.074  27.530  1.00  0.00    -0.354 N 
ATOM     45  C   UNL A   1      39.974  28.678  29.466  1.00  0.00     0.074 A 
ATOM     46  C   UNL A   1      38.860  27.758  29.379  1.00  0.00     0.031 C 
ATOM     47  C   UNL A   1      44.642  25.610  26.300  1.00  0.00     0.029 A 
ATOM     48  C   UNL A   1      44.703  26.933  26.914  1.00  0.00     0.049 A 
ATOM     49  H   UNL A   1      43.231  27.866  28.058  1.00  0.00     0.167 HD
ATOM     50  C   UNL A   1      39.913  29.892  30.063  1.00  0.00     0.034 A 
ATOM     51  C   UNL A   1      45.752  27.776  26.848  1.00  0.00     0.034 A 
ATOM     52  C   UNL A   1      41.034  30.782  30.195  1.00  0.00     0.049 A 
ATOM     53  C   UNL A   1      45.676  29.097  27.566  1.00  0.00     0.074 A 
ATOM     54  C   UNL A   1      41.099  31.991  30.865  1.00  0.00     0.029 A 
ATOM     55  N   UNL A   1      42.288  30.562  29.645  1.00  0.00    -0.354 N 
ATOM     56  N   UNL A   1      44.690  29.597  28.270  1.00  0.00    -0.248 NA
ATOM     57  C   UNL A   1      46.870  29.953  27.511  1.00  0.00     0.031 C 
ATOM     58  C   UNL A   1      42.389  32.510  30.707  1.00  0.00     0.029 A 
ATOM     59  C   UNL A   1      43.132  31.615  29.954  1.00  0.00     0.049 A 
ATOM     60  H   UNL A   1      42.540  29.774  29.113  1.00  0.00     0.167 HD
ATOM     61  C   UNL A   1      45.155  30.808  28.771  1.00  0.00     0.074 A 
ATOM     62  C   UNL A   1      46.519  30.956  28.306  1.00  0.00     0.031 C 
ATOM     63  C   UNL A   1      44.505  31.723  29.533  1.00  0.00     0.034 A 
BRANCH  50  64
ATOM     64  C   UNL A   1      38.601  30.304  30.678  1.00  0.00     0.023 A 
ATOM     65  C   UNL A   1      38.333  29.973  32.023  1.00  0.00     0.012 A 
ATOM     66  C   UNL A   1      37.662  31.065  29.955  1.00  0.00     0.148 A 
ATOM     67  C   UNL A   1      37.139  30.361  32.627  1.00  0.00     0.002 A 
ATOM     68  C   UNL A   1      36.491  31.484  30.577  1.00  0.00     0.091 A 
ATOM     69  F   UNL A   1      37.923  31.352  28.671  1.00  0.00    -0.205 F 
ATOM     70  C   UNL A   1      36.223  31.125  31.908  1.00  0.00     0.022 A 
BRANCH  68  71
ATOM     71  S   UNL A   1      35.285  32.536  29.759  1.00  0.00     0.127 S 
ATOM     72  O   UNL A   1      34.305  32.743  30.825  1.00  0.00    -0.237 OA
ATOM     73  O   UNL A   1      36.080  33.718  29.426  1.00  0.00    -0.237 OA
ATOM     74  O   UNL A   1      34.810  31.780  28.608  1.00  0.00    -0.744 OA
ENDBRANCH  68  71
ENDBRANCH  50  64
BRANCH  51  75
ATOM     75  C   UNL A   1      46.994  27.360  26.138  1.00  0.00     0.023 A 
ATOM     76  C   UNL A   1      47.166  27.715  24.786  1.00  0.00     0.012 A 
ATOM     77  C   UNL A   1      48.017  26.651  26.797  1.00  0.00     0.148 A 
ATOM     78  C   UNL A   1      48.321  27.348  24.095  1.00  0.00     0.002 A 
ATOM     79  C   UNL A   1      49.187  26.333  26.118  1.00  0.00     0.091 A 
ATOM     80  F   UNL A   1      47.829  26.308  28.080  1.00  0.00    -0.205 F 
ATOM     81  C   UNL A   1      49.335  26.667  24.762  1.00  0.00     0.022 A 
BRANCH  79  82
ATOM     82  S   UNL A   1      50.596  25.575  26.935  1.00  0.00     0.127 S 
ATOM     83  O   UNL A   1      51.516  25.371  25.818  1.00  0.00    -0.237 OA
ATOM     84  O   UNL A   1      50.998  26.617  27.880  1.00  0.00    -0.237 OA
ATOM     85  O   UNL A   1      50.080  24.365  27.562  1.00  0.00    -0.744 OA
ENDBRANCH  79  82
ENDBRANCH  51  75
BRANCH  63  86
ATOM     86  C   UNL A   1      45.264  32.957  29.942  1.00  0.00     0.023 A 
ATOM     87  C   UNL A   1      46.104  32.918  31.072  1.00  0.00     0.012 A 
ATOM     88  C   UNL A   1      45.208  34.129  29.163  1.00  0.00     0.148 A 
ATOM     89  C   UNL A   1      46.855  34.034  31.437  1.00  0.00     0.002 A 
ATOM     90  C   UNL A   1      45.994  35.223  29.506  1.00  0.00     0.091 A 
ATOM     91  F   UNL A   1      44.387  34.155  28.102  1.00  0.00    -0.205 F 
ATOM     92  C   UNL A   1      46.809  35.180  30.648  1.00  0.00     0.022 A 
BRANCH  90  93
ATOM     93  S   UNL A   1      46.069  36.706  28.495  1.00  0.00     0.127 S 
ATOM     94  O   UNL A   1      46.555  36.174  27.222  1.00  0.00    -0.237 OA
ATOM     95  O   UNL A   1      44.673  37.145  28.479  1.00  0.00    -0.237 OA
ATOM     96  O   UNL A   1      46.976  37.614  29.182  1.00  0.00    -0.744 OA
ENDBRANCH  90  93
ENDBRANCH  63  86
ENDBRANCH  37  38
ENDBRANCH  29  32
ENDBRANCH  27  28
ENDBRANCH  26  27
ENDBRANCH  25  26
ENDBRANCH  24  25
ENDBRANCH   1  24
TORSDOF 21
ENDMDL
