MODEL 1
REMARK VINA RESULT:     -13.2      0.000      0.000
REMARK SMILES NS(=O)(=O)c1ccc(-n2nc(C(=O)NCCCCCCNC(=O)c3ccc(-c4c5nc(c(-c6cccc(S(=O)(=O)[O-])c6F)c6ccc([nH]6)c(-c6cccc(S(=O)(=O)[O-])c6F)c6nc(c(-c7cccc(S(=O)(=O)[O-])c7F)c7ccc4[nH]7)C=C6)C=C5)cc3)cc2-c2cc3ccccc3s2)cc1
REMARK SMILES IDX 17 1 16 2 15 3 14 4 12 5 13 6 11 8 9 9 10 10 88 11 87 12
REMARK SMILES IDX 8 13 5 14 6 15 99 16 7 17 98 18 2 19 3 20 4 21 1 22 89 25
REMARK SMILES IDX 90 26 97 27 91 28 96 29 92 30 95 31 93 32 94 33 18 34 19 35
REMARK SMILES IDX 20 36 21 37 22 38 23 40 24 41 25 42 86 43 26 44 85 45 27 46
REMARK SMILES IDX 28 47 29 48 79 49 30 50 84 51 78 52 80 53 31 54 83 55 77 56
REMARK SMILES IDX 76 57 32 59 64 60 44 61 63 62 45 63 48 64 62 65 81 66 46 67
REMARK SMILES IDX 47 68 61 70 82 71 49 72 33 73 34 74 42 75 35 76 37 77 43 78
REMARK SMILES IDX 36 79 38 80 39 81 40 82 41 83 65 84 66 85 74 86 67 87 69 88
REMARK SMILES IDX 75 89 68 90 70 91 71 92 72 93 73 94 50 95 51 96 59 97 52 98
REMARK SMILES IDX 54 99 60 100 53 101 55 102 56 103 57 104 58 105
REMARK H PARENT 14 7 1 23 1 24 21 39 80 58 48 69
REMARK Flexibility Score: inf
ROOT
ATOM      1  C   UNL A   1      31.428  27.974  27.553  1.00  0.00     0.002 C 
ENDROOT
BRANCH   1   2
ATOM      2  C   UNL A   1      31.766  26.947  26.461  1.00  0.00     0.021 C 
BRANCH   2   3
ATOM      3  C   UNL A   1      30.542  26.333  25.778  1.00  0.00     0.116 C 
BRANCH   3   4
ATOM      4  N   UNL A   1      29.891  25.343  26.627  1.00  0.00    -0.351 N 
ATOM      5  C   UNL A   1      29.875  23.959  26.612  1.00  0.00     0.271 C 
ATOM      6  O   UNL A   1      29.326  23.411  27.572  1.00  0.00    -0.267 OA
ATOM      7  H   UNL A   1      29.359  25.736  27.355  1.00  0.00     0.163 HD
BRANCH   5   8
ATOM      8  C   UNL A   1      30.576  23.201  25.557  1.00  0.00     0.151 A 
ATOM      9  N   UNL A   1      31.854  21.677  24.739  1.00  0.00    -0.231 N 
ATOM     10  N   UNL A   1      30.953  21.916  25.733  1.00  0.00    -0.162 NA
ATOM     11  C   UNL A   1      32.080  22.814  23.998  1.00  0.00     0.085 A 
ATOM     12  C   UNL A   1      31.006  23.637  24.291  1.00  0.00     0.066 A 
BRANCH   9  13
ATOM     13  C   UNL A   1      32.356  20.367  24.554  1.00  0.00     0.065 A 
ATOM     14  C   UNL A   1      33.320  17.762  24.339  1.00  0.00     0.082 A 
ATOM     15  C   UNL A   1      32.686  18.363  23.245  1.00  0.00     0.024 A 
ATOM     16  C   UNL A   1      33.478  18.458  25.540  1.00  0.00     0.024 A 
ATOM     17  C   UNL A   1      32.177  19.661  23.362  1.00  0.00     0.030 A 
ATOM     18  C   UNL A   1      33.025  19.772  25.636  1.00  0.00     0.030 A 
BRANCH  14  19
ATOM     19  S   UNL A   1      33.922  16.104  24.259  1.00  0.00     0.238 S 
ATOM     20  O   UNL A   1      34.518  15.888  22.951  1.00  0.00    -0.207 OA
ATOM     21  O   UNL A   1      32.937  15.224  24.816  1.00  0.00    -0.207 OA
BRANCH  19  22
ATOM     22  N   UNL A   1      35.221  16.068  25.328  1.00  0.00    -0.225 NA
ATOM     23  H   UNL A   1      35.556  17.019  25.487  1.00  0.00     0.137 HD
ATOM     24  H   UNL A   1      35.973  15.504  24.930  1.00  0.00     0.137 HD
ENDBRANCH  19  22
ENDBRANCH  14  19
ENDBRANCH   9  13
BRANCH  11  25
ATOM     25  C   UNL A   1      33.206  23.231  23.213  1.00  0.00     0.054 A 
ATOM     26  C   UNL A   1      33.122  23.857  21.977  1.00  0.00     0.031 A 
ATOM     27  S   UNL A   1      34.534  23.965  24.054  1.00  0.00    -0.134 S 
ATOM     28  C   UNL A   1      33.333  25.275  22.213  1.00  0.00    -0.007 A 
ATOM     29  C   UNL A   1      34.032  25.490  23.408  1.00  0.00     0.035 A 
ATOM     30  C   UNL A   1      32.837  26.403  21.522  1.00  0.00     0.009 A 
ATOM     31  C   UNL A   1      34.222  26.771  23.950  1.00  0.00     0.019 A 
ATOM     32  C   UNL A   1      32.967  27.677  22.085  1.00  0.00     0.001 A 
ATOM     33  C   UNL A   1      33.641  27.855  23.288  1.00  0.00     0.001 A 
ENDBRANCH  11  25
ENDBRANCH   5   8
ENDBRANCH   3   4
ENDBRANCH   2   3
ENDBRANCH   1   2
BRANCH   1  34
ATOM     34  C   UNL A   1      31.848  29.430  27.276  1.00  0.00     0.002 C 
BRANCH  34  35
ATOM     35  C   UNL A   1      32.990  29.646  26.270  1.00  0.00     0.021 C 
BRANCH  35  36
ATOM     36  C   UNL A   1      34.298  30.090  26.904  1.00  0.00     0.116 C 
BRANCH  36  37
ATOM     37  N   UNL A   1      34.168  31.331  27.679  1.00  0.00    -0.352 N 
ATOM     38  C   UNL A   1      34.857  31.707  28.820  1.00  0.00     0.251 C 
ATOM     39  H   UNL A   1      33.508  31.980  27.342  1.00  0.00     0.163 HD
ATOM     40  O   UNL A   1      34.429  32.590  29.556  1.00  0.00    -0.269 OA
BRANCH  38  41
ATOM     41  C   UNL A   1      36.121  31.019  29.130  1.00  0.00     0.039 A 
ATOM     42  C   UNL A   1      36.208  29.631  29.279  1.00  0.00     0.014 A 
ATOM     43  C   UNL A   1      37.256  31.813  29.218  1.00  0.00     0.014 A 
ATOM     44  C   UNL A   1      37.468  29.050  29.432  1.00  0.00     0.010 A 
ATOM     45  C   UNL A   1      38.488  31.231  29.135  1.00  0.00     0.010 A 
ATOM     46  C   UNL A   1      38.605  29.863  29.344  1.00  0.00    -0.014 A 
BRANCH  46  47
ATOM     47  C   UNL A   1      39.955  29.332  29.461  1.00  0.00     0.031 A 
ATOM     48  C   UNL A   1      40.463  29.097  30.836  1.00  0.00     0.074 A 
ATOM     49  C   UNL A   1      40.603  28.842  28.379  1.00  0.00     0.049 A 
ATOM     50  N   UNL A   1      41.459  29.688  31.405  1.00  0.00    -0.248 NA
ATOM     51  C   UNL A   1      39.739  28.170  31.717  1.00  0.00     0.031 C 
ATOM     52  C   UNL A   1      40.102  28.714  27.001  1.00  0.00     0.029 A 
ATOM     53  N   UNL A   1      41.780  28.169  28.331  1.00  0.00    -0.354 N 
ATOM     54  C   UNL A   1      41.626  29.064  32.639  1.00  0.00     0.074 A 
ATOM     55  C   UNL A   1      40.442  28.270  32.849  1.00  0.00     0.031 C 
ATOM     56  C   UNL A   1      40.808  27.761  26.358  1.00  0.00     0.029 A 
ATOM     57  C   UNL A   1      41.916  27.367  27.204  1.00  0.00     0.049 A 
ATOM     58  H   UNL A   1      42.472  28.242  29.029  1.00  0.00     0.167 HD
ATOM     59  C   UNL A   1      42.823  29.082  33.289  1.00  0.00     0.034 A 
ATOM     60  C   UNL A   1      42.839  26.396  27.017  1.00  0.00     0.034 A 
ATOM     61  C   UNL A   1      43.758  29.976  32.655  1.00  0.00     0.049 A 
ATOM     62  C   UNL A   1      43.974  26.701  27.920  1.00  0.00     0.074 A 
ATOM     63  C   UNL A   1      43.775  31.325  32.364  1.00  0.00     0.029 A 
ATOM     64  N   UNL A   1      44.721  29.404  31.857  1.00  0.00    -0.354 N 
ATOM     65  N   UNL A   1      44.715  27.768  27.796  1.00  0.00    -0.248 NA
ATOM     66  C   UNL A   1      44.006  26.069  29.229  1.00  0.00     0.031 C 
ATOM     67  C   UNL A   1      44.382  31.409  31.075  1.00  0.00     0.029 A 
ATOM     68  C   UNL A   1      44.754  30.118  30.689  1.00  0.00     0.049 A 
ATOM     69  H   UNL A   1      45.280  28.626  32.083  1.00  0.00     0.167 HD
ATOM     70  C   UNL A   1      44.909  28.205  29.100  1.00  0.00     0.074 A 
ATOM     71  C   UNL A   1      44.566  27.056  29.937  1.00  0.00     0.031 C 
ATOM     72  C   UNL A   1      45.029  29.537  29.392  1.00  0.00     0.034 A 
BRANCH  59  73
ATOM     73  C   UNL A   1      43.305  28.072  34.300  1.00  0.00     0.023 A 
ATOM     74  C   UNL A   1      43.693  28.559  35.570  1.00  0.00     0.012 A 
ATOM     75  C   UNL A   1      43.645  26.738  33.991  1.00  0.00     0.148 A 
ATOM     76  C   UNL A   1      44.422  27.774  36.468  1.00  0.00     0.002 A 
ATOM     77  C   UNL A   1      44.303  25.936  34.918  1.00  0.00     0.091 A 
ATOM     78  F   UNL A   1      43.458  26.274  32.752  1.00  0.00    -0.205 F 
ATOM     79  C   UNL A   1      44.721  26.457  36.145  1.00  0.00     0.022 A 
BRANCH  77  80
ATOM     80  S   UNL A   1      44.670  24.211  34.572  1.00  0.00     0.127 S 
ATOM     81  O   UNL A   1      45.972  24.313  33.923  1.00  0.00    -0.237 OA
ATOM     82  O   UNL A   1      44.689  23.631  35.915  1.00  0.00    -0.237 OA
ATOM     83  O   UNL A   1      43.569  23.746  33.738  1.00  0.00    -0.744 OA
ENDBRANCH  77  80
ENDBRANCH  59  73
BRANCH  60  84
ATOM     84  C   UNL A   1      42.673  25.106  26.311  1.00  0.00     0.023 A 
ATOM     85  C   UNL A   1      43.611  24.714  25.339  1.00  0.00     0.012 A 
ATOM     86  C   UNL A   1      41.742  24.144  26.768  1.00  0.00     0.148 A 
ATOM     87  C   UNL A   1      43.638  23.398  24.858  1.00  0.00     0.002 A 
ATOM     88  C   UNL A   1      41.765  22.843  26.280  1.00  0.00     0.091 A 
ATOM     89  F   UNL A   1      40.897  24.473  27.754  1.00  0.00    -0.205 F 
ATOM     90  C   UNL A   1      42.719  22.461  25.330  1.00  0.00     0.022 A 
BRANCH  88  91
ATOM     91  S   UNL A   1      40.618  21.592  26.876  1.00  0.00     0.127 S 
ATOM     92  O   UNL A   1      39.322  22.159  26.505  1.00  0.00    -0.237 OA
ATOM     93  O   UNL A   1      41.020  20.418  26.106  1.00  0.00    -0.237 OA
ATOM     94  O   UNL A   1      40.842  21.505  28.316  1.00  0.00    -0.744 OA
ENDBRANCH  88  91
ENDBRANCH  60  84
BRANCH  72  95
ATOM     95  C   UNL A   1      45.161  30.514  28.245  1.00  0.00     0.023 A 
ATOM     96  C   UNL A   1      44.035  31.032  27.571  1.00  0.00     0.012 A 
ATOM     97  C   UNL A   1      46.420  31.077  27.976  1.00  0.00     0.148 A 
ATOM     98  C   UNL A   1      44.159  32.063  26.636  1.00  0.00     0.002 A 
ATOM     99  C   UNL A   1      46.536  32.134  27.079  1.00  0.00     0.091 A 
ATOM    100  F   UNL A   1      47.486  30.588  28.629  1.00  0.00    -0.205 F 
ATOM    101  C   UNL A   1      45.410  32.623  26.400  1.00  0.00     0.022 A 
BRANCH  99 102
ATOM    102  S   UNL A   1      48.094  32.989  26.833  1.00  0.00     0.127 S 
ATOM    103  O   UNL A   1      48.989  31.893  26.470  1.00  0.00    -0.237 OA
ATOM    104  O   UNL A   1      47.780  33.911  25.739  1.00  0.00    -0.237 OA
ATOM    105  O   UNL A   1      48.389  33.650  28.098  1.00  0.00    -0.744 OA
ENDBRANCH  99 102
ENDBRANCH  72  95
ENDBRANCH  46  47
ENDBRANCH  38  41
ENDBRANCH  36  37
ENDBRANCH  35  36
ENDBRANCH  34  35
ENDBRANCH   1  34
TORSDOF 20
ENDMDL
MODEL 2
REMARK VINA RESULT:     -12.0      1.755      2.454
REMARK SMILES NS(=O)(=O)c1ccc(-n2nc(C(=O)NCCCCCCNC(=O)c3ccc(-c4c5nc(c(-c6cccc(S(=O)(=O)[O-])c6F)c6ccc([nH]6)c(-c6cccc(S(=O)(=O)[O-])c6F)c6nc(c(-c7cccc(S(=O)(=O)[O-])c7F)c7ccc4[nH]7)C=C6)C=C5)cc3)cc2-c2cc3ccccc3s2)cc1
REMARK SMILES IDX 17 1 16 2 15 3 14 4 12 5 13 6 11 8 9 9 10 10 88 11 87 12
REMARK SMILES IDX 8 13 5 14 6 15 99 16 7 17 98 18 2 19 3 20 4 21 1 22 89 25
REMARK SMILES IDX 90 26 97 27 91 28 96 29 92 30 95 31 93 32 94 33 18 34 19 35
REMARK SMILES IDX 20 36 21 37 22 38 23 40 24 41 25 42 86 43 26 44 85 45 27 46
REMARK SMILES IDX 28 47 29 48 79 49 30 50 84 51 78 52 80 53 31 54 83 55 77 56
REMARK SMILES IDX 76 57 32 59 64 60 44 61 63 62 45 63 48 64 62 65 81 66 46 67
REMARK SMILES IDX 47 68 61 70 82 71 49 72 33 73 34 74 42 75 35 76 37 77 43 78
REMARK SMILES IDX 36 79 38 80 39 81 40 82 41 83 65 84 66 85 74 86 67 87 69 88
REMARK SMILES IDX 75 89 68 90 70 91 71 92 72 93 73 94 50 95 51 96 59 97 52 98
REMARK SMILES IDX 54 99 60 100 53 101 55 102 56 103 57 104 58 105
REMARK H PARENT 14 7 1 23 1 24 21 39 80 58 48 69
REMARK Flexibility Score: inf
ROOT
ATOM      1  C   UNL A   1      33.058  27.369  26.152  1.00  0.00     0.002 C 
ENDROOT
BRANCH   1   2
ATOM      2  C   UNL A   1      31.596  27.747  26.440  1.00  0.00     0.021 C 
BRANCH   2   3
ATOM      3  C   UNL A   1      30.629  26.561  26.430  1.00  0.00     0.116 C 
BRANCH   3   4
ATOM      4  N   UNL A   1      29.653  26.671  25.353  1.00  0.00    -0.351 N 
ATOM      5  C   UNL A   1      29.552  26.065  24.113  1.00  0.00     0.271 C 
ATOM      6  O   UNL A   1      28.510  26.279  23.487  1.00  0.00    -0.267 OA
ATOM      7  H   UNL A   1      28.921  27.300  25.547  1.00  0.00     0.163 HD
BRANCH   5   8
ATOM      8  C   UNL A   1      30.591  25.134  23.633  1.00  0.00     0.151 A 
ATOM      9  N   UNL A   1      31.824  23.372  23.652  1.00  0.00    -0.231 N 
ATOM     10  N   UNL A   1      30.571  23.821  23.947  1.00  0.00    -0.162 NA
ATOM     11  C   UNL A   1      32.626  24.403  23.222  1.00  0.00     0.085 A 
ATOM     12  C   UNL A   1      31.740  25.407  22.869  1.00  0.00     0.066 A 
BRANCH   9  13
ATOM     13  C   UNL A   1      32.108  21.989  23.744  1.00  0.00     0.065 A 
ATOM     14  C   UNL A   1      32.602  19.266  24.065  1.00  0.00     0.082 A 
ATOM     15  C   UNL A   1      32.378  19.787  22.785  1.00  0.00     0.024 A 
ATOM     16  C   UNL A   1      32.584  20.099  25.186  1.00  0.00     0.024 A 
ATOM     17  C   UNL A   1      32.102  21.150  22.627  1.00  0.00     0.030 A 
ATOM     18  C   UNL A   1      32.369  21.466  25.021  1.00  0.00     0.030 A 
BRANCH  14  19
ATOM     19  S   UNL A   1      32.892  17.543  24.320  1.00  0.00     0.238 S 
ATOM     20  O   UNL A   1      33.134  16.915  23.031  1.00  0.00    -0.207 OA
ATOM     21  O   UNL A   1      31.929  17.042  25.256  1.00  0.00    -0.207 OA
BRANCH  19  22
ATOM     22  N   UNL A   1      34.375  17.471  25.112  1.00  0.00    -0.225 NA
ATOM     23  H   UNL A   1      35.071  17.992  24.577  1.00  0.00     0.137 HD
ATOM     24  H   UNL A   1      34.669  16.497  25.194  1.00  0.00     0.137 HD
ENDBRANCH  19  22
ENDBRANCH  14  19
ENDBRANCH   9  13
BRANCH  11  25
ATOM     25  C   UNL A   1      34.049  24.579  23.252  1.00  0.00     0.054 A 
ATOM     26  C   UNL A   1      34.779  24.947  24.373  1.00  0.00     0.031 A 
ATOM     27  S   UNL A   1      35.011  23.421  22.389  1.00  0.00    -0.134 S 
ATOM     28  C   UNL A   1      35.370  23.730  24.903  1.00  0.00    -0.007 A 
ATOM     29  C   UNL A   1      35.469  22.743  23.914  1.00  0.00     0.035 A 
ATOM     30  C   UNL A   1      35.706  23.376  26.230  1.00  0.00     0.009 A 
ATOM     31  C   UNL A   1      35.852  21.424  24.202  1.00  0.00     0.019 A 
ATOM     32  C   UNL A   1      36.028  22.050  26.536  1.00  0.00     0.001 A 
ATOM     33  C   UNL A   1      36.090  21.086  25.536  1.00  0.00     0.001 A 
ENDBRANCH  11  25
ENDBRANCH   5   8
ENDBRANCH   3   4
ENDBRANCH   2   3
ENDBRANCH   1   2
BRANCH   1  34
ATOM     34  C   UNL A   1      34.070  28.530  26.115  1.00  0.00     0.002 C 
BRANCH  34  35
ATOM     35  C   UNL A   1      33.808  29.712  27.061  1.00  0.00     0.021 C 
BRANCH  35  36
ATOM     36  C   UNL A   1      35.069  30.349  27.621  1.00  0.00     0.116 C 
BRANCH  36  37
ATOM     37  N   UNL A   1      34.791  31.398  28.611  1.00  0.00    -0.352 N 
ATOM     38  C   UNL A   1      35.315  31.537  29.885  1.00  0.00     0.251 C 
ATOM     39  H   UNL A   1      34.150  32.093  28.332  1.00  0.00     0.163 HD
ATOM     40  O   UNL A   1      34.762  32.240  30.725  1.00  0.00    -0.269 OA
BRANCH  38  41
ATOM     41  C   UNL A   1      36.559  30.819  30.210  1.00  0.00     0.039 A 
ATOM     42  C   UNL A   1      36.581  29.460  30.539  1.00  0.00     0.014 A 
ATOM     43  C   UNL A   1      37.737  31.547  30.123  1.00  0.00     0.014 A 
ATOM     44  C   UNL A   1      37.815  28.827  30.695  1.00  0.00     0.010 A 
ATOM     45  C   UNL A   1      38.928  30.883  30.046  1.00  0.00     0.010 A 
ATOM     46  C   UNL A   1      38.986  29.550  30.430  1.00  0.00    -0.014 A 
BRANCH  46  47
ATOM     47  C   UNL A   1      40.310  28.956  30.538  1.00  0.00     0.031 A 
ATOM     48  C   UNL A   1      40.901  28.884  31.898  1.00  0.00     0.074 A 
ATOM     49  C   UNL A   1      40.853  28.281  29.499  1.00  0.00     0.049 A 
ATOM     50  N   UNL A   1      41.965  29.485  32.314  1.00  0.00    -0.248 NA
ATOM     51  C   UNL A   1      40.192  28.137  32.947  1.00  0.00     0.031 C 
ATOM     52  C   UNL A   1      40.250  27.993  28.188  1.00  0.00     0.029 A 
ATOM     53  N   UNL A   1      41.986  27.534  29.475  1.00  0.00    -0.354 N 
ATOM     54  C   UNL A   1      42.185  29.030  33.611  1.00  0.00     0.074 A 
ATOM     55  C   UNL A   1      40.978  28.349  34.006  1.00  0.00     0.031 C 
ATOM     56  C   UNL A   1      40.857  26.917  27.646  1.00  0.00     0.029 A 
ATOM     57  C   UNL A   1      41.999  26.576  28.468  1.00  0.00     0.049 A 
ATOM     58  H   UNL A   1      42.729  27.661  30.110  1.00  0.00     0.167 HD
ATOM     59  C   UNL A   1      43.425  29.063  34.176  1.00  0.00     0.034 A 
ATOM     60  C   UNL A   1      42.853  25.532  28.365  1.00  0.00     0.034 A 
ATOM     61  C   UNL A   1      44.359  29.799  33.363  1.00  0.00     0.049 A 
ATOM     62  C   UNL A   1      44.064  25.888  29.142  1.00  0.00     0.074 A 
ATOM     63  C   UNL A   1      44.428  31.090  32.880  1.00  0.00     0.029 A 
ATOM     64  N   UNL A   1      45.231  29.061  32.597  1.00  0.00    -0.354 N 
ATOM     65  N   UNL A   1      44.850  26.879  28.821  1.00  0.00    -0.248 NA
ATOM     66  C   UNL A   1      44.154  25.445  30.524  1.00  0.00     0.031 C 
ATOM     67  C   UNL A   1      44.945  30.955  31.558  1.00  0.00     0.029 A 
ATOM     68  C   UNL A   1      45.219  29.602  31.339  1.00  0.00     0.049 A 
ATOM     69  H   UNL A   1      45.762  28.289  32.897  1.00  0.00     0.167 HD
ATOM     70  C   UNL A   1      45.159  27.480  30.034  1.00  0.00     0.074 A 
ATOM     71  C   UNL A   1      44.815  26.483  31.047  1.00  0.00     0.031 C 
ATOM     72  C   UNL A   1      45.371  28.829  30.124  1.00  0.00     0.034 A 
BRANCH  59  73
ATOM     73  C   UNL A   1      43.922  28.176  35.289  1.00  0.00     0.023 A 
ATOM     74  C   UNL A   1      44.538  28.806  36.396  1.00  0.00     0.012 A 
ATOM     75  C   UNL A   1      44.057  26.775  35.189  1.00  0.00     0.148 A 
ATOM     76  C   UNL A   1      45.290  28.085  37.329  1.00  0.00     0.002 A 
ATOM     77  C   UNL A   1      44.740  26.052  36.162  1.00  0.00     0.091 A 
ATOM     78  F   UNL A   1      43.646  26.145  34.085  1.00  0.00    -0.205 F 
ATOM     79  C   UNL A   1      45.384  26.704  37.217  1.00  0.00     0.022 A 
BRANCH  77  80
ATOM     80  S   UNL A   1      44.850  24.260  36.093  1.00  0.00     0.127 S 
ATOM     81  O   UNL A   1      43.458  23.889  35.864  1.00  0.00    -0.237 OA
ATOM     82  O   UNL A   1      45.744  24.057  34.952  1.00  0.00    -0.237 OA
ATOM     83  O   UNL A   1      45.420  23.862  37.374  1.00  0.00    -0.744 OA
ENDBRANCH  77  80
ENDBRANCH  59  73
BRANCH  60  84
ATOM     84  C   UNL A   1      42.569  24.170  27.864  1.00  0.00     0.023 A 
ATOM     85  C   UNL A   1      41.317  23.578  28.112  1.00  0.00     0.012 A 
ATOM     86  C   UNL A   1      43.427  23.548  26.926  1.00  0.00     0.148 A 
ATOM     87  C   UNL A   1      40.922  22.420  27.428  1.00  0.00     0.002 A 
ATOM     88  C   UNL A   1      43.035  22.394  26.258  1.00  0.00     0.091 A 
ATOM     89  F   UNL A   1      44.586  24.142  26.612  1.00  0.00    -0.205 F 
ATOM     90  C   UNL A   1      41.777  21.830  26.499  1.00  0.00     0.022 A 
BRANCH  88  91
ATOM     91  S   UNL A   1      44.092  21.610  25.031  1.00  0.00     0.127 S 
ATOM     92  O   UNL A   1      45.393  21.610  25.699  1.00  0.00    -0.237 OA
ATOM     93  O   UNL A   1      43.472  20.296  24.890  1.00  0.00    -0.237 OA
ATOM     94  O   UNL A   1      44.027  22.466  23.850  1.00  0.00    -0.744 OA
ENDBRANCH  88  91
ENDBRANCH  60  84
BRANCH  72  95
ATOM     95  C   UNL A   1      45.474  29.627  28.842  1.00  0.00     0.023 A 
ATOM     96  C   UNL A   1      44.332  29.998  28.100  1.00  0.00     0.012 A 
ATOM     97  C   UNL A   1      46.714  30.185  28.490  1.00  0.00     0.148 A 
ATOM     98  C   UNL A   1      44.425  30.880  27.020  1.00  0.00     0.002 A 
ATOM     99  C   UNL A   1      46.796  31.098  27.444  1.00  0.00     0.091 A 
ATOM    100  F   UNL A   1      47.793  29.837  29.207  1.00  0.00    -0.205 F 
ATOM    101  C   UNL A   1      45.656  31.441  26.700  1.00  0.00     0.022 A 
BRANCH  99 102
ATOM    102  S   UNL A   1      48.326  31.959  27.069  1.00  0.00     0.127 S 
ATOM    103  O   UNL A   1      49.161  30.882  26.546  1.00  0.00    -0.237 OA
ATOM    104  O   UNL A   1      47.899  32.942  26.070  1.00  0.00    -0.237 OA
ATOM    105  O   UNL A   1      48.769  32.548  28.326  1.00  0.00    -0.744 OA
ENDBRANCH  99 102
ENDBRANCH  72  95
ENDBRANCH  46  47
ENDBRANCH  38  41
ENDBRANCH  36  37
ENDBRANCH  35  36
ENDBRANCH  34  35
ENDBRANCH   1  34
TORSDOF 20
ENDMDL
MODEL 3
REMARK VINA RESULT:     -12.0      4.103      9.598
REMARK SMILES NS(=O)(=O)c1ccc(-n2nc(C(=O)NCCCCCCNC(=O)c3ccc(-c4c5nc(c(-c6cccc(S(=O)(=O)[O-])c6F)c6ccc([nH]6)c(-c6cccc(S(=O)(=O)[O-])c6F)c6nc(c(-c7cccc(S(=O)(=O)[O-])c7F)c7ccc4[nH]7)C=C6)C=C5)cc3)cc2-c2cc3ccccc3s2)cc1
REMARK SMILES IDX 17 1 16 2 15 3 14 4 12 5 13 6 11 8 9 9 10 10 88 11 87 12
REMARK SMILES IDX 8 13 5 14 6 15 99 16 7 17 98 18 2 19 3 20 4 21 1 22 89 25
REMARK SMILES IDX 90 26 97 27 91 28 96 29 92 30 95 31 93 32 94 33 18 34 19 35
REMARK SMILES IDX 20 36 21 37 22 38 23 40 24 41 25 42 86 43 26 44 85 45 27 46
REMARK SMILES IDX 28 47 29 48 79 49 30 50 84 51 78 52 80 53 31 54 83 55 77 56
REMARK SMILES IDX 76 57 32 59 64 60 44 61 63 62 45 63 48 64 62 65 81 66 46 67
REMARK SMILES IDX 47 68 61 70 82 71 49 72 33 73 34 74 42 75 35 76 37 77 43 78
REMARK SMILES IDX 36 79 38 80 39 81 40 82 41 83 65 84 66 85 74 86 67 87 69 88
REMARK SMILES IDX 75 89 68 90 70 91 71 92 72 93 73 94 50 95 51 96 59 97 52 98
REMARK SMILES IDX 54 99 60 100 53 101 55 102 56 103 57 104 58 105
REMARK H PARENT 14 7 1 23 1 24 21 39 80 58 48 69
REMARK Flexibility Score: inf
ROOT
ATOM      1  C   UNL A   1      40.799  26.007  27.178  1.00  0.00     0.002 C 
ENDROOT
BRANCH   1   2
ATOM      2  C   UNL A   1      39.577  25.370  26.499  1.00  0.00     0.021 C 
BRANCH   2   3
ATOM      3  C   UNL A   1      38.897  24.279  27.329  1.00  0.00     0.116 C 
BRANCH   3   4
ATOM      4  N   UNL A   1      39.273  22.945  26.879  1.00  0.00    -0.351 N 
ATOM      5  C   UNL A   1      38.662  22.031  26.038  1.00  0.00     0.271 C 
ATOM      6  O   UNL A   1      39.324  21.029  25.753  1.00  0.00    -0.267 OA
ATOM      7  H   UNL A   1      40.132  22.633  27.246  1.00  0.00     0.163 HD
BRANCH   5   8
ATOM      8  C   UNL A   1      37.342  22.311  25.441  1.00  0.00     0.151 A 
ATOM      9  N   UNL A   1      35.549  23.431  25.050  1.00  0.00    -0.231 N 
ATOM     10  N   UNL A   1      36.885  23.571  25.278  1.00  0.00    -0.162 NA
ATOM     11  C   UNL A   1      35.173  22.110  25.133  1.00  0.00     0.085 A 
ATOM     12  C   UNL A   1      36.357  21.405  25.009  1.00  0.00     0.066 A 
BRANCH   9  13
ATOM     13  C   UNL A   1      34.779  24.567  24.707  1.00  0.00     0.065 A 
ATOM     14  C   UNL A   1      33.330  26.880  24.144  1.00  0.00     0.082 A 
ATOM     15  C   UNL A   1      33.651  25.990  23.112  1.00  0.00     0.024 A 
ATOM     16  C   UNL A   1      33.727  26.618  25.458  1.00  0.00     0.024 A 
ATOM     17  C   UNL A   1      34.402  24.843  23.389  1.00  0.00     0.030 A 
ATOM     18  C   UNL A   1      34.423  25.445  25.743  1.00  0.00     0.030 A 
BRANCH  14  19
ATOM     19  S   UNL A   1      32.439  28.371  23.832  1.00  0.00     0.238 S 
ATOM     20  O   UNL A   1      31.168  28.311  24.535  1.00  0.00    -0.207 OA
ATOM     21  O   UNL A   1      32.537  28.689  22.437  1.00  0.00    -0.207 OA
BRANCH  19  22
ATOM     22  N   UNL A   1      33.310  29.567  24.633  1.00  0.00    -0.225 NA
ATOM     23  H   UNL A   1      33.162  29.479  25.639  1.00  0.00     0.137 HD
ATOM     24  H   UNL A   1      32.992  30.485  24.321  1.00  0.00     0.137 HD
ENDBRANCH  19  22
ENDBRANCH  14  19
ENDBRANCH   9  13
BRANCH  11  25
ATOM     25  C   UNL A   1      33.915  21.497  25.447  1.00  0.00     0.054 A 
ATOM     26  C   UNL A   1      33.149  21.787  26.568  1.00  0.00     0.031 A 
ATOM     27  S   UNL A   1      32.805  21.243  24.138  1.00  0.00    -0.134 S 
ATOM     28  C   UNL A   1      32.091  22.682  26.130  1.00  0.00    -0.007 A 
ATOM     29  C   UNL A   1      31.859  22.555  24.754  1.00  0.00     0.035 A 
ATOM     30  C   UNL A   1      31.407  23.702  26.827  1.00  0.00     0.009 A 
ATOM     31  C   UNL A   1      31.006  23.420  24.052  1.00  0.00     0.019 A 
ATOM     32  C   UNL A   1      30.603  24.607  26.126  1.00  0.00     0.001 A 
ATOM     33  C   UNL A   1      30.415  24.472  24.754  1.00  0.00     0.001 A 
ENDBRANCH  11  25
ENDBRANCH   5   8
ENDBRANCH   3   4
ENDBRANCH   2   3
ENDBRANCH   1   2
BRANCH   1  34
ATOM     34  C   UNL A   1      41.222  25.405  28.532  1.00  0.00     0.002 C 
BRANCH  34  35
ATOM     35  C   UNL A   1      42.359  24.371  28.509  1.00  0.00     0.021 C 
BRANCH  35  36
ATOM     36  C   UNL A   1      43.028  24.217  27.153  1.00  0.00     0.116 C 
BRANCH  36  37
ATOM     37  N   UNL A   1      44.495  24.251  27.230  1.00  0.00    -0.352 N 
ATOM     38  C   UNL A   1      45.331  25.355  27.191  1.00  0.00     0.251 C 
ATOM     39  H   UNL A   1      44.940  23.378  27.322  1.00  0.00     0.163 HD
ATOM     40  O   UNL A   1      46.522  25.237  26.922  1.00  0.00    -0.269 OA
BRANCH  38  41
ATOM     41  C   UNL A   1      44.755  26.678  27.484  1.00  0.00     0.039 A 
ATOM     42  C   UNL A   1      44.050  27.421  26.531  1.00  0.00     0.014 A 
ATOM     43  C   UNL A   1      44.895  27.143  28.783  1.00  0.00     0.014 A 
ATOM     44  C   UNL A   1      43.418  28.598  26.932  1.00  0.00     0.010 A 
ATOM     45  C   UNL A   1      44.093  28.158  29.221  1.00  0.00     0.010 A 
ATOM     46  C   UNL A   1      43.435  28.950  28.288  1.00  0.00    -0.014 A 
BRANCH  46  47
ATOM     47  C   UNL A   1      42.774  30.143  28.794  1.00  0.00     0.031 A 
ATOM     48  C   UNL A   1      43.449  31.440  28.536  1.00  0.00     0.074 A 
ATOM     49  C   UNL A   1      41.499  30.092  29.241  1.00  0.00     0.049 A 
ATOM     50  N   UNL A   1      43.929  32.252  29.416  1.00  0.00    -0.248 NA
ATOM     51  C   UNL A   1      43.705  31.849  27.147  1.00  0.00     0.031 C 
ATOM     52  C   UNL A   1      40.589  28.935  29.260  1.00  0.00     0.029 A 
ATOM     53  N   UNL A   1      40.682  31.119  29.588  1.00  0.00    -0.354 N 
ATOM     54  C   UNL A   1      44.359  33.375  28.714  1.00  0.00     0.074 A 
ATOM     55  C   UNL A   1      44.361  33.001  27.323  1.00  0.00     0.031 C 
ATOM     56  C   UNL A   1      39.313  29.373  29.295  1.00  0.00     0.029 A 
ATOM     57  C   UNL A   1      39.330  30.808  29.499  1.00  0.00     0.049 A 
ATOM     58  H   UNL A   1      41.015  31.999  29.877  1.00  0.00     0.167 HD
ATOM     59  C   UNL A   1      44.472  34.592  29.317  1.00  0.00     0.034 A 
ATOM     60  C   UNL A   1      38.302  31.685  29.520  1.00  0.00     0.034 A 
ATOM     61  C   UNL A   1      44.307  34.493  30.745  1.00  0.00     0.049 A 
ATOM     62  C   UNL A   1      38.795  32.910  30.194  1.00  0.00     0.074 A 
ATOM     63  C   UNL A   1      44.952  33.813  31.758  1.00  0.00     0.029 A 
ATOM     64  N   UNL A   1      43.086  34.865  31.257  1.00  0.00    -0.354 N 
ATOM     65  N   UNL A   1      39.162  32.934  31.447  1.00  0.00    -0.248 NA
ATOM     66  C   UNL A   1      39.314  33.991  29.373  1.00  0.00     0.031 C 
ATOM     67  C   UNL A   1      43.906  33.386  32.630  1.00  0.00     0.029 A 
ATOM     68  C   UNL A   1      42.700  33.886  32.132  1.00  0.00     0.049 A 
ATOM     69  H   UNL A   1      42.584  35.682  31.033  1.00  0.00     0.167 HD
ATOM     70  C   UNL A   1      40.308  33.719  31.455  1.00  0.00     0.074 A 
ATOM     71  C   UNL A   1      40.276  34.444  30.185  1.00  0.00     0.031 C 
ATOM     72  C   UNL A   1      41.325  33.480  32.338  1.00  0.00     0.034 A 
BRANCH  59  73
ATOM     73  C   UNL A   1      44.403  35.935  28.636  1.00  0.00     0.023 A 
ATOM     74  C   UNL A   1      43.118  36.479  28.400  1.00  0.00     0.012 A 
ATOM     75  C   UNL A   1      45.493  36.554  27.988  1.00  0.00     0.148 A 
ATOM     76  C   UNL A   1      42.923  37.553  27.528  1.00  0.00     0.002 A 
ATOM     77  C   UNL A   1      45.302  37.672  27.181  1.00  0.00     0.091 A 
ATOM     78  F   UNL A   1      46.702  35.988  28.033  1.00  0.00    -0.205 F 
ATOM     79  C   UNL A   1      44.018  38.157  26.923  1.00  0.00     0.022 A 
BRANCH  77  80
ATOM     80  S   UNL A   1      46.688  38.521  26.415  1.00  0.00     0.127 S 
ATOM     81  O   UNL A   1      47.412  39.014  27.582  1.00  0.00    -0.237 OA
ATOM     82  O   UNL A   1      47.345  37.433  25.691  1.00  0.00    -0.237 OA
ATOM     83  O   UNL A   1      46.088  39.533  25.554  1.00  0.00    -0.744 OA
ENDBRANCH  77  80
ENDBRANCH  59  73
BRANCH  60  84
ATOM     84  C   UNL A   1      37.030  31.618  28.766  1.00  0.00     0.023 A 
ATOM     85  C   UNL A   1      36.584  30.387  28.254  1.00  0.00     0.012 A 
ATOM     86  C   UNL A   1      36.128  32.708  28.766  1.00  0.00     0.148 A 
ATOM     87  C   UNL A   1      35.272  30.238  27.782  1.00  0.00     0.002 A 
ATOM     88  C   UNL A   1      34.832  32.559  28.287  1.00  0.00     0.091 A 
ATOM     89  F   UNL A   1      36.505  33.865  29.327  1.00  0.00    -0.205 F 
ATOM     90  C   UNL A   1      34.395  31.321  27.802  1.00  0.00     0.022 A 
BRANCH  88  91
ATOM     91  S   UNL A   1      33.655  33.920  28.316  1.00  0.00     0.127 S 
ATOM     92  O   UNL A   1      33.467  34.136  29.750  1.00  0.00    -0.237 OA
ATOM     93  O   UNL A   1      34.391  34.974  27.625  1.00  0.00    -0.237 OA
ATOM     94  O   UNL A   1      32.466  33.428  27.626  1.00  0.00    -0.744 OA
ENDBRANCH  88  91
ENDBRANCH  60  84
BRANCH  72  95
ATOM     95  C   UNL A   1      41.091  32.481  33.450  1.00  0.00     0.023 A 
ATOM     96  C   UNL A   1      41.369  31.107  33.291  1.00  0.00     0.012 A 
ATOM     97  C   UNL A   1      40.783  32.959  34.735  1.00  0.00     0.148 A 
ATOM     98  C   UNL A   1      41.317  30.226  34.374  1.00  0.00     0.002 A 
ATOM     99  C   UNL A   1      40.777  32.089  35.820  1.00  0.00     0.091 A 
ATOM    100  F   UNL A   1      40.532  34.269  34.882  1.00  0.00    -0.205 F 
ATOM    101  C   UNL A   1      41.034  30.720  35.643  1.00  0.00     0.022 A 
BRANCH  99 102
ATOM    102  S   UNL A   1      40.554  32.684  37.499  1.00  0.00     0.127 S 
ATOM    103  O   UNL A   1      40.808  34.114  37.351  1.00  0.00    -0.237 OA
ATOM    104  O   UNL A   1      39.159  32.335  37.776  1.00  0.00    -0.237 OA
ATOM    105  O   UNL A   1      41.519  31.953  38.311  1.00  0.00    -0.744 OA
ENDBRANCH  99 102
ENDBRANCH  72  95
ENDBRANCH  46  47
ENDBRANCH  38  41
ENDBRANCH  36  37
ENDBRANCH  35  36
ENDBRANCH  34  35
ENDBRANCH   1  34
TORSDOF 20
ENDMDL
