MODEL 1
REMARK VINA RESULT:     -10.4      0.000      0.000
REMARK SMILES C[NH2+][C@]1(C(=O)NCCCCCCNC(=O)c2ccc(-c3c4nc(c(-c5cccc(S(=O)(=O)[O-])c5F)c5ccc([nH]5)c(-c5cccc(S(=O)(=O)[O-])c5F)c5nc(c(-c6cccc(S(=O)(=O)[O-])c6F)c6ccc3[nH]6)C=C5)C=C4)cc2)CCC[C@H]1CCOC1C[C@@H](C)C[C@H](C)C1
REMARK SMILES IDX 9 1 8 2 7 3 6 4 4 5 5 6 3 8 79 9 82 10 80 11 81 12 2 13 1 14
REMARK SMILES IDX 83 17 84 18 85 19 86 20 87 21 93 22 88 23 91 24 89 25 90 26
REMARK SMILES IDX 92 27 10 28 11 29 12 30 13 31 14 32 15 34 16 35 17 36 78 37
REMARK SMILES IDX 18 38 77 39 19 40 20 41 21 42 71 43 22 44 76 45 70 46 72 47
REMARK SMILES IDX 23 48 75 49 69 50 68 51 24 53 56 54 36 55 55 56 37 57 40 58
REMARK SMILES IDX 54 59 73 60 38 61 39 62 53 64 74 65 41 66 25 67 26 68 34 69
REMARK SMILES IDX 27 70 29 71 35 72 28 73 30 74 31 75 32 76 33 77 57 78 58 79
REMARK SMILES IDX 66 80 59 81 61 82 67 83 60 84 62 85 63 86 64 87 65 88 42 89
REMARK SMILES IDX 43 90 51 91 44 92 46 93 52 94 45 95 47 96 48 97 49 98 50 99
REMARK H PARENT 6 7 2 15 2 16 13 33 72 52 40 63
REMARK Flexibility Score: inf
ROOT
ATOM      1  C   UNL A   1      36.545  22.211  24.555  1.00  0.00     0.002 C 
ENDROOT
BRANCH   1   2
ATOM      2  C   UNL A   1      35.720  22.988  25.590  1.00  0.00     0.021 C 
BRANCH   2   3
ATOM      3  C   UNL A   1      35.384  24.404  25.158  1.00  0.00     0.116 C 
BRANCH   3   4
ATOM      4  N   UNL A   1      34.874  24.388  23.822  1.00  0.00    -0.351 N 
ATOM      5  C   UNL A   1      33.745  24.877  23.282  1.00  0.00     0.281 C 
ATOM      6  O   UNL A   1      33.624  24.539  22.097  1.00  0.00    -0.268 OA
ATOM      7  H   UNL A   1      35.460  23.932  23.176  1.00  0.00     0.163 HD
BRANCH   5   8
ATOM      8  C   UNL A   1      32.665  25.682  24.095  1.00  0.00     0.178 C 
ATOM      9  C   UNL A   1      31.643  26.231  23.053  1.00  0.00     0.079 C 
ATOM     10  C   UNL A   1      31.731  25.013  25.280  1.00  0.00     0.063 C 
ATOM     11  C   UNL A   1      30.353  26.438  23.821  1.00  0.00     0.008 C 
ATOM     12  C   UNL A   1      30.289  25.220  24.720  1.00  0.00     0.011 C 
BRANCH   8  13
ATOM     13  N   UNL A   1      33.223  26.948  24.698  1.00  0.00    -0.336 N 
ATOM     14  C   UNL A   1      33.236  27.180  26.130  1.00  0.00     0.331 C 
ATOM     15  H   UNL A   1      34.194  27.007  24.391  1.00  0.00     0.346 HD
ATOM     16  H   UNL A   1      32.555  27.649  24.376  1.00  0.00     0.346 HD
ENDBRANCH   8  13
BRANCH  10  17
ATOM     17  C   UNL A   1      31.704  23.584  26.041  1.00  0.00     0.039 C 
BRANCH  17  18
ATOM     18  C   UNL A   1      31.055  22.141  25.766  1.00  0.00     0.161 C 
BRANCH  18  19
ATOM     19  O   UNL A   1      31.772  20.971  25.358  1.00  0.00    -0.378 OA
BRANCH  19  20
ATOM     20  C   UNL A   1      33.122  20.800  24.893  1.00  0.00     0.118 C 
ATOM     21  C   UNL A   1      33.904  19.486  24.984  1.00  0.00     0.035 C 
ATOM     22  C   UNL A   1      33.119  21.231  23.424  1.00  0.00     0.035 C 
ATOM     23  C   UNL A   1      33.239  18.348  24.237  1.00  0.00    -0.011 C 
ATOM     24  C   UNL A   1      32.151  20.292  22.734  1.00  0.00    -0.011 C 
ATOM     25  C   UNL A   1      32.384  17.612  25.268  1.00  0.00     0.008 C 
ATOM     26  C   UNL A   1      32.708  18.853  22.847  1.00  0.00     0.006 C 
ATOM     27  C   UNL A   1      31.748  20.745  21.333  1.00  0.00     0.008 C 
ENDBRANCH  19  20
ENDBRANCH  18  19
ENDBRANCH  17  18
ENDBRANCH  10  17
ENDBRANCH   5   8
ENDBRANCH   3   4
ENDBRANCH   2   3
ENDBRANCH   1   2
BRANCH   1  28
ATOM     28  C   UNL A   1      37.965  21.828  24.987  1.00  0.00     0.002 C 
BRANCH  28  29
ATOM     29  C   UNL A   1      38.273  20.330  25.006  1.00  0.00     0.021 C 
BRANCH  29  30
ATOM     30  C   UNL A   1      38.878  19.808  26.300  1.00  0.00     0.116 C 
BRANCH  30  31
ATOM     31  N   UNL A   1      40.062  18.998  26.101  1.00  0.00    -0.352 N 
ATOM     32  C   UNL A   1      41.374  19.411  26.123  1.00  0.00     0.251 C 
ATOM     33  H   UNL A   1      39.911  18.041  25.928  1.00  0.00     0.163 HD
ATOM     34  O   UNL A   1      42.277  18.633  25.877  1.00  0.00    -0.269 OA
BRANCH  32  35
ATOM     35  C   UNL A   1      41.657  20.837  26.405  1.00  0.00     0.039 A 
ATOM     36  C   UNL A   1      42.038  21.190  27.699  1.00  0.00     0.014 A 
ATOM     37  C   UNL A   1      41.609  21.796  25.388  1.00  0.00     0.014 A 
ATOM     38  C   UNL A   1      42.417  22.506  27.965  1.00  0.00     0.010 A 
ATOM     39  C   UNL A   1      42.066  23.085  25.638  1.00  0.00     0.010 A 
ATOM     40  C   UNL A   1      42.461  23.457  26.932  1.00  0.00    -0.014 A 
BRANCH  40  41
ATOM     41  C   UNL A   1      42.920  24.844  27.194  1.00  0.00     0.031 A 
ATOM     42  C   UNL A   1      41.999  25.830  27.858  1.00  0.00     0.074 A 
ATOM     43  C   UNL A   1      44.141  25.231  26.775  1.00  0.00     0.049 A 
ATOM     44  N   UNL A   1      42.211  27.087  28.149  1.00  0.00    -0.248 NA
ATOM     45  C   UNL A   1      40.653  25.351  28.218  1.00  0.00     0.031 C 
ATOM     46  C   UNL A   1      45.092  24.390  26.045  1.00  0.00     0.029 A 
ATOM     47  N   UNL A   1      44.782  26.440  26.882  1.00  0.00    -0.354 N 
ATOM     48  C   UNL A   1      41.021  27.557  28.691  1.00  0.00     0.074 A 
ATOM     49  C   UNL A   1      40.078  26.462  28.653  1.00  0.00     0.031 C 
ATOM     50  C   UNL A   1      46.195  25.105  25.775  1.00  0.00     0.029 A 
ATOM     51  C   UNL A   1      46.020  26.462  26.284  1.00  0.00     0.049 A 
ATOM     52  H   UNL A   1      44.393  27.218  27.343  1.00  0.00     0.167 HD
ATOM     53  C   UNL A   1      40.747  28.780  29.202  1.00  0.00     0.034 A 
ATOM     54  C   UNL A   1      46.909  27.465  26.149  1.00  0.00     0.034 A 
ATOM     55  C   UNL A   1      41.701  29.854  29.270  1.00  0.00     0.049 A 
ATOM     56  C   UNL A   1      46.595  28.804  26.760  1.00  0.00     0.074 A 
ATOM     57  C   UNL A   1      41.553  31.099  29.852  1.00  0.00     0.029 A 
ATOM     58  N   UNL A   1      42.975  29.814  28.725  1.00  0.00    -0.354 N 
ATOM     59  N   UNL A   1      45.526  29.180  27.418  1.00  0.00    -0.248 NA
ATOM     60  C   UNL A   1      47.626  29.845  26.644  1.00  0.00     0.031 C 
ATOM     61  C   UNL A   1      42.725  31.827  29.627  1.00  0.00     0.029 A 
ATOM     62  C   UNL A   1      43.620  31.020  28.942  1.00  0.00     0.049 A 
ATOM     63  H   UNL A   1      43.365  29.042  28.255  1.00  0.00     0.167 HD
ATOM     64  C   UNL A   1      45.767  30.487  27.823  1.00  0.00     0.074 A 
ATOM     65  C   UNL A   1      47.094  30.830  27.355  1.00  0.00     0.031 C 
ATOM     66  C   UNL A   1      44.958  31.332  28.510  1.00  0.00     0.034 A 
BRANCH  53  67
ATOM     67  C   UNL A   1      39.367  29.010  29.763  1.00  0.00     0.023 A 
ATOM     68  C   UNL A   1      39.060  28.578  31.070  1.00  0.00     0.012 A 
ATOM     69  C   UNL A   1      38.389  29.697  29.017  1.00  0.00     0.148 A 
ATOM     70  C   UNL A   1      37.792  28.785  31.609  1.00  0.00     0.002 A 
ATOM     71  C   UNL A   1      37.143  29.945  29.580  1.00  0.00     0.091 A 
ATOM     72  F   UNL A   1      38.690  30.082  27.769  1.00  0.00    -0.205 F 
ATOM     73  C   UNL A   1      36.838  29.478  30.869  1.00  0.00     0.022 A 
BRANCH  71  74
ATOM     74  S   UNL A   1      35.873  30.899  28.741  1.00  0.00     0.127 S 
ATOM     75  O   UNL A   1      35.163  29.857  28.001  1.00  0.00    -0.237 OA
ATOM     76  O   UNL A   1      35.126  31.469  29.863  1.00  0.00    -0.237 OA
ATOM     77  O   UNL A   1      36.580  31.875  27.923  1.00  0.00    -0.744 OA
ENDBRANCH  71  74
ENDBRANCH  53  67
BRANCH  54  78
ATOM     78  C   UNL A   1      48.202  27.223  25.449  1.00  0.00     0.023 A 
ATOM     79  C   UNL A   1      49.303  26.720  26.169  1.00  0.00     0.012 A 
ATOM     80  C   UNL A   1      48.336  27.462  24.068  1.00  0.00     0.148 A 
ATOM     81  C   UNL A   1      50.524  26.491  25.533  1.00  0.00     0.002 A 
ATOM     82  C   UNL A   1      49.537  27.178  23.429  1.00  0.00     0.091 A 
ATOM     83  F   UNL A   1      47.279  27.949  23.403  1.00  0.00    -0.205 F 
ATOM     84  C   UNL A   1      50.638  26.709  24.162  1.00  0.00     0.022 A 
BRANCH  82  85
ATOM     85  S   UNL A   1      49.732  27.301  21.648  1.00  0.00     0.127 S 
ATOM     86  O   UNL A   1      51.112  26.860  21.467  1.00  0.00    -0.237 OA
ATOM     87  O   UNL A   1      48.716  26.362  21.169  1.00  0.00    -0.237 OA
ATOM     88  O   UNL A   1      49.464  28.694  21.317  1.00  0.00    -0.744 OA
ENDBRANCH  82  85
ENDBRANCH  54  78
BRANCH  66  89
ATOM     89  C   UNL A   1      45.495  32.701  28.838  1.00  0.00     0.023 A 
ATOM     90  C   UNL A   1      46.118  32.935  30.081  1.00  0.00     0.012 A 
ATOM     91  C   UNL A   1      45.448  33.734  27.882  1.00  0.00     0.148 A 
ATOM     92  C   UNL A   1      46.653  34.188  30.378  1.00  0.00     0.002 A 
ATOM     93  C   UNL A   1      46.031  34.963  28.165  1.00  0.00     0.091 A 
ATOM     94  F   UNL A   1      44.836  33.496  26.713  1.00  0.00    -0.205 F 
ATOM     95  C   UNL A   1      46.621  35.196  29.417  1.00  0.00     0.022 A 
BRANCH  93  96
ATOM     96  S   UNL A   1      46.127  36.286  26.954  1.00  0.00     0.127 S 
ATOM     97  O   UNL A   1      46.594  35.570  25.768  1.00  0.00    -0.237 OA
ATOM     98  O   UNL A   1      44.739  36.742  26.885  1.00  0.00    -0.237 OA
ATOM     99  O   UNL A   1      47.060  37.263  27.499  1.00  0.00    -0.744 OA
ENDBRANCH  93  96
ENDBRANCH  66  89
ENDBRANCH  40  41
ENDBRANCH  32  35
ENDBRANCH  30  31
ENDBRANCH  29  30
ENDBRANCH  28  29
ENDBRANCH   1  28
TORSDOF 21
ENDMDL
MODEL 2
REMARK VINA RESULT:     -10.3      5.772     11.046
REMARK SMILES C[NH2+][C@]1(C(=O)NCCCCCCNC(=O)c2ccc(-c3c4nc(c(-c5cccc(S(=O)(=O)[O-])c5F)c5ccc([nH]5)c(-c5cccc(S(=O)(=O)[O-])c5F)c5nc(c(-c6cccc(S(=O)(=O)[O-])c6F)c6ccc3[nH]6)C=C5)C=C4)cc2)CCC[C@H]1CCOC1C[C@@H](C)C[C@H](C)C1
REMARK SMILES IDX 9 1 8 2 7 3 6 4 4 5 5 6 3 8 79 9 82 10 80 11 81 12 2 13 1 14
REMARK SMILES IDX 83 17 84 18 85 19 86 20 87 21 93 22 88 23 91 24 89 25 90 26
REMARK SMILES IDX 92 27 10 28 11 29 12 30 13 31 14 32 15 34 16 35 17 36 78 37
REMARK SMILES IDX 18 38 77 39 19 40 20 41 21 42 71 43 22 44 76 45 70 46 72 47
REMARK SMILES IDX 23 48 75 49 69 50 68 51 24 53 56 54 36 55 55 56 37 57 40 58
REMARK SMILES IDX 54 59 73 60 38 61 39 62 53 64 74 65 41 66 25 67 26 68 34 69
REMARK SMILES IDX 27 70 29 71 35 72 28 73 30 74 31 75 32 76 33 77 57 78 58 79
REMARK SMILES IDX 66 80 59 81 61 82 67 83 60 84 62 85 63 86 64 87 65 88 42 89
REMARK SMILES IDX 43 90 51 91 44 92 46 93 52 94 45 95 47 96 48 97 49 98 50 99
REMARK H PARENT 6 7 2 15 2 16 13 33 72 52 40 63
REMARK Flexibility Score: inf
ROOT
ATOM      1  C   UNL A   1      32.857  29.860  27.196  1.00  0.00     0.002 C 
ENDROOT
BRANCH   1   2
ATOM      2  C   UNL A   1      32.600  28.401  27.597  1.00  0.00     0.021 C 
BRANCH   2   3
ATOM      3  C   UNL A   1      31.277  27.857  27.088  1.00  0.00     0.116 C 
BRANCH   3   4
ATOM      4  N   UNL A   1      31.399  26.452  26.847  1.00  0.00    -0.351 N 
ATOM      5  C   UNL A   1      31.619  25.746  25.725  1.00  0.00     0.281 C 
ATOM      6  O   UNL A   1      31.531  24.528  25.931  1.00  0.00    -0.268 OA
ATOM      7  H   UNL A   1      31.303  25.899  27.655  1.00  0.00     0.163 HD
BRANCH   5   8
ATOM      8  C   UNL A   1      31.845  26.398  24.311  1.00  0.00     0.178 C 
ATOM      9  C   UNL A   1      33.107  27.306  24.438  1.00  0.00     0.079 C 
ATOM     10  C   UNL A   1      32.100  25.524  22.935  1.00  0.00     0.063 C 
ATOM     11  C   UNL A   1      33.667  27.418  23.035  1.00  0.00     0.008 C 
ATOM     12  C   UNL A   1      33.513  26.014  22.490  1.00  0.00     0.011 C 
BRANCH   8  13
ATOM     13  N   UNL A   1      30.766  27.392  23.956  1.00  0.00    -0.336 N 
ATOM     14  C   UNL A   1      29.421  26.978  23.605  1.00  0.00     0.331 C 
ATOM     15  H   UNL A   1      30.673  28.012  24.761  1.00  0.00     0.346 HD
ATOM     16  H   UNL A   1      31.109  27.771  23.073  1.00  0.00     0.346 HD
ENDBRANCH   8  13
BRANCH  10  17
ATOM     17  C   UNL A   1      32.040  23.952  22.555  1.00  0.00     0.039 C 
BRANCH  17  18
ATOM     18  C   UNL A   1      32.588  22.586  23.200  1.00  0.00     0.161 C 
BRANCH  18  19
ATOM     19  O   UNL A   1      33.902  22.388  23.733  1.00  0.00    -0.378 OA
BRANCH  19  20
ATOM     20  C   UNL A   1      34.937  23.324  24.080  1.00  0.00     0.118 C 
ATOM     21  C   UNL A   1      35.044  24.027  25.436  1.00  0.00     0.035 C 
ATOM     22  C   UNL A   1      36.262  22.596  23.834  1.00  0.00     0.035 C 
ATOM     23  C   UNL A   1      35.187  23.060  26.594  1.00  0.00    -0.011 C 
ATOM     24  C   UNL A   1      36.237  21.399  24.762  1.00  0.00    -0.011 C 
ATOM     25  C   UNL A   1      33.772  22.821  27.119  1.00  0.00     0.008 C 
ATOM     26  C   UNL A   1      36.197  21.916  26.219  1.00  0.00     0.006 C 
ATOM     27  C   UNL A   1      37.311  20.359  24.451  1.00  0.00     0.008 C 
ENDBRANCH  19  20
ENDBRANCH  18  19
ENDBRANCH  17  18
ENDBRANCH  10  17
ENDBRANCH   5   8
ENDBRANCH   3   4
ENDBRANCH   2   3
ENDBRANCH   1   2
BRANCH   1  28
ATOM     28  C   UNL A   1      31.750  30.529  26.374  1.00  0.00     0.002 C 
BRANCH  28  29
ATOM     29  C   UNL A   1      31.438  31.982  26.738  1.00  0.00     0.021 C 
BRANCH  29  30
ATOM     30  C   UNL A   1      32.639  32.912  26.788  1.00  0.00     0.116 C 
BRANCH  30  31
ATOM     31  N   UNL A   1      32.384  34.152  27.493  1.00  0.00    -0.352 N 
ATOM     32  C   UNL A   1      33.075  34.663  28.567  1.00  0.00     0.251 C 
ATOM     33  H   UNL A   1      31.627  34.690  27.167  1.00  0.00     0.163 HD
ATOM     34  O   UNL A   1      32.713  35.693  29.108  1.00  0.00    -0.269 OA
BRANCH  32  35
ATOM     35  C   UNL A   1      34.238  33.905  29.080  1.00  0.00     0.039 A 
ATOM     36  C   UNL A   1      35.512  34.432  28.871  1.00  0.00     0.014 A 
ATOM     37  C   UNL A   1      34.064  32.726  29.812  1.00  0.00     0.014 A 
ATOM     38  C   UNL A   1      36.616  33.796  29.439  1.00  0.00     0.010 A 
ATOM     39  C   UNL A   1      35.157  32.143  30.444  1.00  0.00     0.010 A 
ATOM     40  C   UNL A   1      36.446  32.664  30.252  1.00  0.00    -0.014 A 
BRANCH  40  41
ATOM     41  C   UNL A   1      37.609  32.016  30.908  1.00  0.00     0.031 A 
ATOM     42  C   UNL A   1      38.410  30.979  30.171  1.00  0.00     0.074 A 
ATOM     43  C   UNL A   1      37.902  32.316  32.189  1.00  0.00     0.049 A 
ATOM     44  N   UNL A   1      39.441  30.290  30.583  1.00  0.00    -0.248 NA
ATOM     45  C   UNL A   1      37.980  30.652  28.801  1.00  0.00     0.031 C 
ATOM     46  C   UNL A   1      37.149  33.243  33.036  1.00  0.00     0.029 A 
ATOM     47  N   UNL A   1      38.900  31.854  33.011  1.00  0.00    -0.354 N 
ATOM     48  C   UNL A   1      39.761  29.426  29.542  1.00  0.00     0.074 A 
ATOM     49  C   UNL A   1      38.790  29.650  28.494  1.00  0.00     0.031 C 
ATOM     50  C   UNL A   1      37.712  33.285  34.253  1.00  0.00     0.029 A 
ATOM     51  C   UNL A   1      38.847  32.367  34.285  1.00  0.00     0.049 A 
ATOM     52  H   UNL A   1      39.588  31.214  32.716  1.00  0.00     0.167 HD
ATOM     53  C   UNL A   1      40.787  28.548  29.454  1.00  0.00     0.034 A 
ATOM     54  C   UNL A   1      39.618  32.119  35.361  1.00  0.00     0.034 A 
ATOM     55  C   UNL A   1      41.770  28.356  30.485  1.00  0.00     0.049 A 
ATOM     56  C   UNL A   1      40.775  31.168  35.225  1.00  0.00     0.074 A 
ATOM     57  C   UNL A   1      42.901  27.561  30.458  1.00  0.00     0.029 A 
ATOM     58  N   UNL A   1      41.732  28.955  31.735  1.00  0.00    -0.354 N 
ATOM     59  N   UNL A   1      41.161  30.484  34.176  1.00  0.00    -0.248 NA
ATOM     60  C   UNL A   1      41.626  30.982  36.409  1.00  0.00     0.031 C 
ATOM     61  C   UNL A   1      43.527  27.650  31.705  1.00  0.00     0.029 A 
ATOM     62  C   UNL A   1      42.810  28.534  32.495  1.00  0.00     0.049 A 
ATOM     63  H   UNL A   1      41.041  29.587  32.038  1.00  0.00     0.167 HD
ATOM     64  C   UNL A   1      42.316  29.814  34.560  1.00  0.00     0.074 A 
ATOM     65  C   UNL A   1      42.579  30.193  35.934  1.00  0.00     0.031 C 
ATOM     66  C   UNL A   1      43.084  28.954  33.846  1.00  0.00     0.034 A 
BRANCH  53  67
ATOM     67  C   UNL A   1      40.920  27.753  28.180  1.00  0.00     0.023 A 
ATOM     68  C   UNL A   1      41.574  28.318  27.066  1.00  0.00     0.012 A 
ATOM     69  C   UNL A   1      40.441  26.431  28.101  1.00  0.00     0.148 A 
ATOM     70  C   UNL A   1      41.712  27.599  25.880  1.00  0.00     0.002 A 
ATOM     71  C   UNL A   1      40.626  25.701  26.932  1.00  0.00     0.091 A 
ATOM     72  F   UNL A   1      39.803  25.917  29.161  1.00  0.00    -0.205 F 
ATOM     73  C   UNL A   1      41.248  26.287  25.818  1.00  0.00     0.022 A 
BRANCH  71  74
ATOM     74  S   UNL A   1      40.139  23.979  26.778  1.00  0.00     0.127 S 
ATOM     75  O   UNL A   1      40.152  23.544  28.174  1.00  0.00    -0.237 OA
ATOM     76  O   UNL A   1      38.805  24.090  26.186  1.00  0.00    -0.237 OA
ATOM     77  O   UNL A   1      41.135  23.355  25.919  1.00  0.00    -0.744 OA
ENDBRANCH  71  74
ENDBRANCH  53  67
BRANCH  54  78
ATOM     78  C   UNL A   1      39.349  32.823  36.647  1.00  0.00     0.023 A 
ATOM     79  C   UNL A   1      39.979  34.054  36.915  1.00  0.00     0.012 A 
ATOM     80  C   UNL A   1      38.448  32.293  37.591  1.00  0.00     0.148 A 
ATOM     81  C   UNL A   1      39.744  34.727  38.115  1.00  0.00     0.002 A 
ATOM     82  C   UNL A   1      38.175  32.996  38.758  1.00  0.00     0.091 A 
ATOM     83  F   UNL A   1      37.866  31.116  37.321  1.00  0.00    -0.205 F 
ATOM     84  C   UNL A   1      38.834  34.204  39.031  1.00  0.00     0.022 A 
BRANCH  82  85
ATOM     85  S   UNL A   1      36.920  32.466  39.929  1.00  0.00     0.127 S 
ATOM     86  O   UNL A   1      37.460  31.189  40.387  1.00  0.00    -0.237 OA
ATOM     87  O   UNL A   1      36.958  33.543  40.918  1.00  0.00    -0.237 OA
ATOM     88  O   UNL A   1      35.678  32.392  39.170  1.00  0.00    -0.744 OA
ENDBRANCH  82  85
ENDBRANCH  54  78
BRANCH  66  89
ATOM     89  C   UNL A   1      44.309  28.388  34.515  1.00  0.00     0.023 A 
ATOM     90  C   UNL A   1      45.526  29.099  34.475  1.00  0.00     0.012 A 
ATOM     91  C   UNL A   1      44.232  27.189  35.249  1.00  0.00     0.148 A 
ATOM     92  C   UNL A   1      46.656  28.603  35.126  1.00  0.00     0.002 A 
ATOM     93  C   UNL A   1      45.347  26.729  35.939  1.00  0.00     0.091 A 
ATOM     94  F   UNL A   1      43.069  26.520  35.260  1.00  0.00    -0.205 F 
ATOM     95  C   UNL A   1      46.562  27.427  35.867  1.00  0.00     0.022 A 
BRANCH  93  96
ATOM     96  S   UNL A   1      45.294  25.281  37.000  1.00  0.00     0.127 S 
ATOM     97  O   UNL A   1      46.696  24.868  37.010  1.00  0.00    -0.237 OA
ATOM     98  O   UNL A   1      44.813  25.842  38.263  1.00  0.00    -0.237 OA
ATOM     99  O   UNL A   1      44.374  24.349  36.363  1.00  0.00    -0.744 OA
ENDBRANCH  93  96
ENDBRANCH  66  89
ENDBRANCH  40  41
ENDBRANCH  32  35
ENDBRANCH  30  31
ENDBRANCH  29  30
ENDBRANCH  28  29
ENDBRANCH   1  28
TORSDOF 21
ENDMDL
MODEL 3
REMARK VINA RESULT:     -10.2      6.203     11.063
REMARK SMILES C[NH2+][C@]1(C(=O)NCCCCCCNC(=O)c2ccc(-c3c4nc(c(-c5cccc(S(=O)(=O)[O-])c5F)c5ccc([nH]5)c(-c5cccc(S(=O)(=O)[O-])c5F)c5nc(c(-c6cccc(S(=O)(=O)[O-])c6F)c6ccc3[nH]6)C=C5)C=C4)cc2)CCC[C@H]1CCOC1C[C@@H](C)C[C@H](C)C1
REMARK SMILES IDX 9 1 8 2 7 3 6 4 4 5 5 6 3 8 79 9 82 10 80 11 81 12 2 13 1 14
REMARK SMILES IDX 83 17 84 18 85 19 86 20 87 21 93 22 88 23 91 24 89 25 90 26
REMARK SMILES IDX 92 27 10 28 11 29 12 30 13 31 14 32 15 34 16 35 17 36 78 37
REMARK SMILES IDX 18 38 77 39 19 40 20 41 21 42 71 43 22 44 76 45 70 46 72 47
REMARK SMILES IDX 23 48 75 49 69 50 68 51 24 53 56 54 36 55 55 56 37 57 40 58
REMARK SMILES IDX 54 59 73 60 38 61 39 62 53 64 74 65 41 66 25 67 26 68 34 69
REMARK SMILES IDX 27 70 29 71 35 72 28 73 30 74 31 75 32 76 33 77 57 78 58 79
REMARK SMILES IDX 66 80 59 81 61 82 67 83 60 84 62 85 63 86 64 87 65 88 42 89
REMARK SMILES IDX 43 90 51 91 44 92 46 93 52 94 45 95 47 96 48 97 49 98 50 99
REMARK H PARENT 6 7 2 15 2 16 13 33 72 52 40 63
REMARK Flexibility Score: inf
ROOT
ATOM      1  C   UNL A   1      32.516  29.249  27.346  1.00  0.00     0.002 C 
ENDROOT
BRANCH   1   2
ATOM      2  C   UNL A   1      31.754  27.921  27.243  1.00  0.00     0.021 C 
BRANCH   2   3
ATOM      3  C   UNL A   1      32.162  27.078  26.048  1.00  0.00     0.116 C 
BRANCH   3   4
ATOM      4  N   UNL A   1      30.993  26.542  25.420  1.00  0.00    -0.351 N 
ATOM      5  C   UNL A   1      30.544  26.597  24.155  1.00  0.00     0.281 C 
ATOM      6  O   UNL A   1      29.414  26.100  24.052  1.00  0.00    -0.268 OA
ATOM      7  H   UNL A   1      30.408  26.039  26.030  1.00  0.00     0.163 HD
BRANCH   5   8
ATOM      8  C   UNL A   1      31.317  27.306  22.983  1.00  0.00     0.178 C 
ATOM      9  C   UNL A   1      32.148  28.455  23.631  1.00  0.00     0.079 C 
ATOM     10  C   UNL A   1      32.386  26.528  21.994  1.00  0.00     0.063 C 
ATOM     11  C   UNL A   1      33.301  28.707  22.680  1.00  0.00     0.008 C 
ATOM     12  C   UNL A   1      33.709  27.311  22.258  1.00  0.00     0.011 C 
BRANCH   8  13
ATOM     13  N   UNL A   1      30.394  28.058  22.056  1.00  0.00    -0.336 N 
ATOM     14  C   UNL A   1      29.696  29.260  22.470  1.00  0.00     0.331 C 
ATOM     15  H   UNL A   1      30.954  28.319  21.244  1.00  0.00     0.346 HD
ATOM     16  H   UNL A   1      29.626  27.397  21.939  1.00  0.00     0.346 HD
ENDBRANCH   8  13
BRANCH  10  17
ATOM     17  C   UNL A   1      32.824  24.985  21.777  1.00  0.00     0.039 C 
BRANCH  17  18
ATOM     18  C   UNL A   1      33.335  23.787  22.717  1.00  0.00     0.161 C 
BRANCH  18  19
ATOM     19  O   UNL A   1      32.527  23.060  23.649  1.00  0.00    -0.378 OA
BRANCH  19  20
ATOM     20  C   UNL A   1      32.831  21.936  24.494  1.00  0.00     0.118 C 
ATOM     21  C   UNL A   1      34.064  21.846  25.397  1.00  0.00     0.035 C 
ATOM     22  C   UNL A   1      31.598  21.730  25.379  1.00  0.00     0.035 C 
ATOM     23  C   UNL A   1      34.125  22.955  26.428  1.00  0.00    -0.011 C 
ATOM     24  C   UNL A   1      31.452  23.016  26.165  1.00  0.00    -0.011 C 
ATOM     25  C   UNL A   1      34.978  24.060  25.808  1.00  0.00     0.008 C 
ATOM     26  C   UNL A   1      32.704  23.184  27.058  1.00  0.00     0.006 C 
ATOM     27  C   UNL A   1      30.104  23.155  26.870  1.00  0.00     0.008 C 
ENDBRANCH  19  20
ENDBRANCH  18  19
ENDBRANCH  17  18
ENDBRANCH  10  17
ENDBRANCH   5   8
ENDBRANCH   3   4
ENDBRANCH   2   3
ENDBRANCH   1   2
BRANCH   1  28
ATOM     28  C   UNL A   1      32.147  30.310  26.304  1.00  0.00     0.002 C 
BRANCH  28  29
ATOM     29  C   UNL A   1      31.781  31.688  26.859  1.00  0.00     0.021 C 
BRANCH  29  30
ATOM     30  C   UNL A   1      32.948  32.502  27.397  1.00  0.00     0.116 C 
BRANCH  30  31
ATOM     31  N   UNL A   1      32.610  33.881  27.682  1.00  0.00    -0.352 N 
ATOM     32  C   UNL A   1      33.211  34.721  28.590  1.00  0.00     0.251 C 
ATOM     33  H   UNL A   1      31.863  34.261  27.166  1.00  0.00     0.163 HD
ATOM     34  O   UNL A   1      32.785  35.847  28.776  1.00  0.00    -0.269 OA
BRANCH  32  35
ATOM     35  C   UNL A   1      34.357  34.206  29.373  1.00  0.00     0.039 A 
ATOM     36  C   UNL A   1      34.090  33.415  30.490  1.00  0.00     0.014 A 
ATOM     37  C   UNL A   1      35.674  34.448  28.968  1.00  0.00     0.014 A 
ATOM     38  C   UNL A   1      35.149  32.826  31.180  1.00  0.00     0.010 A 
ATOM     39  C   UNL A   1      36.720  33.792  29.608  1.00  0.00     0.010 A 
ATOM     40  C   UNL A   1      36.470  32.986  30.729  1.00  0.00    -0.014 A 
BRANCH  40  41
ATOM     41  C   UNL A   1      37.597  32.315  31.422  1.00  0.00     0.031 A 
ATOM     42  C   UNL A   1      38.315  31.170  30.762  1.00  0.00     0.074 A 
ATOM     43  C   UNL A   1      37.931  32.694  32.672  1.00  0.00     0.049 A 
ATOM     44  N   UNL A   1      39.304  30.447  31.217  1.00  0.00    -0.248 NA
ATOM     45  C   UNL A   1      37.841  30.765  29.427  1.00  0.00     0.031 C 
ATOM     46  C   UNL A   1      37.255  33.735  33.449  1.00  0.00     0.029 A 
ATOM     47  N   UNL A   1      38.908  32.232  33.517  1.00  0.00    -0.354 N 
ATOM     48  C   UNL A   1      39.549  29.484  30.246  1.00  0.00     0.074 A 
ATOM     49  C   UNL A   1      38.578  29.689  29.194  1.00  0.00     0.031 C 
ATOM     50  C   UNL A   1      37.839  33.836  34.653  1.00  0.00     0.029 A 
ATOM     51  C   UNL A   1      38.910  32.848  34.746  1.00  0.00     0.049 A 
ATOM     52  H   UNL A   1      39.547  31.526  33.267  1.00  0.00     0.167 HD
ATOM     53  C   UNL A   1      40.512  28.533  30.217  1.00  0.00     0.034 A 
ATOM     54  C   UNL A   1      39.680  32.634  35.831  1.00  0.00     0.034 A 
ATOM     55  C   UNL A   1      41.497  28.357  31.250  1.00  0.00     0.049 A 
ATOM     56  C   UNL A   1      40.768  31.598  35.759  1.00  0.00     0.074 A 
ATOM     57  C   UNL A   1      42.571  27.487  31.275  1.00  0.00     0.029 A 
ATOM     58  N   UNL A   1      41.519  29.056  32.448  1.00  0.00    -0.354 N 
ATOM     59  N   UNL A   1      41.091  30.809  34.764  1.00  0.00    -0.248 NA
ATOM     60  C   UNL A   1      41.625  31.450  36.945  1.00  0.00     0.031 C 
ATOM     61  C   UNL A   1      43.222  27.633  32.504  1.00  0.00     0.029 A 
ATOM     62  C   UNL A   1      42.578  28.624  33.228  1.00  0.00     0.049 A 
ATOM     63  H   UNL A   1      40.876  29.755  32.707  1.00  0.00     0.167 HD
ATOM     64  C   UNL A   1      42.205  30.095  35.189  1.00  0.00     0.074 A 
ATOM     65  C   UNL A   1      42.515  30.562  36.524  1.00  0.00     0.031 C 
ATOM     66  C   UNL A   1      42.902  29.130  34.537  1.00  0.00     0.034 A 
BRANCH  53  67
ATOM     67  C   UNL A   1      40.570  27.632  29.010  1.00  0.00     0.023 A 
ATOM     68  C   UNL A   1      39.633  26.587  28.871  1.00  0.00     0.012 A 
ATOM     69  C   UNL A   1      41.518  27.849  27.992  1.00  0.00     0.148 A 
ATOM     70  C   UNL A   1      39.665  25.745  27.760  1.00  0.00     0.002 A 
ATOM     71  C   UNL A   1      41.513  27.037  26.863  1.00  0.00     0.091 A 
ATOM     72  F   UNL A   1      42.414  28.832  28.151  1.00  0.00    -0.205 F 
ATOM     73  C   UNL A   1      40.598  25.978  26.753  1.00  0.00     0.022 A 
BRANCH  71  74
ATOM     74  S   UNL A   1      42.618  27.305  25.473  1.00  0.00     0.127 S 
ATOM     75  O   UNL A   1      43.908  27.448  26.146  1.00  0.00    -0.237 OA
ATOM     76  O   UNL A   1      42.461  26.063  24.713  1.00  0.00    -0.237 OA
ATOM     77  O   UNL A   1      42.130  28.498  24.796  1.00  0.00    -0.744 OA
ENDBRANCH  71  74
ENDBRANCH  53  67
BRANCH  54  78
ATOM     78  C   UNL A   1      39.480  33.455  37.059  1.00  0.00     0.023 A 
ATOM     79  C   UNL A   1      38.400  33.175  37.917  1.00  0.00     0.012 A 
ATOM     80  C   UNL A   1      40.373  34.492  37.393  1.00  0.00     0.148 A 
ATOM     81  C   UNL A   1      38.192  33.935  39.070  1.00  0.00     0.002 A 
ATOM     82  C   UNL A   1      40.193  35.207  38.571  1.00  0.00     0.091 A 
ATOM     83  F   UNL A   1      41.389  34.748  36.557  1.00  0.00    -0.205 F 
ATOM     84  C   UNL A   1      39.094  34.942  39.402  1.00  0.00     0.022 A 
BRANCH  82  85
ATOM     85  S   UNL A   1      41.378  36.428  39.145  1.00  0.00     0.127 S 
ATOM     86  O   UNL A   1      40.611  37.129  40.171  1.00  0.00    -0.237 OA
ATOM     87  O   UNL A   1      42.460  35.583  39.652  1.00  0.00    -0.237 OA
ATOM     88  O   UNL A   1      41.732  37.216  37.971  1.00  0.00    -0.744 OA
ENDBRANCH  82  85
ENDBRANCH  54  78
BRANCH  66  89
ATOM     89  C   UNL A   1      44.097  28.537  35.237  1.00  0.00     0.023 A 
ATOM     90  C   UNL A   1      45.377  29.092  35.039  1.00  0.00     0.012 A 
ATOM     91  C   UNL A   1      43.936  27.478  36.150  1.00  0.00     0.148 A 
ATOM     92  C   UNL A   1      46.484  28.576  35.713  1.00  0.00     0.002 A 
ATOM     93  C   UNL A   1      45.034  27.005  36.859  1.00  0.00     0.091 A 
ATOM     94  F   UNL A   1      42.712  26.953  36.312  1.00  0.00    -0.205 F 
ATOM     95  C   UNL A   1      46.310  27.543  36.630  1.00  0.00     0.022 A 
BRANCH  93  96
ATOM     96  S   UNL A   1      44.890  25.747  38.133  1.00  0.00     0.127 S 
ATOM     97  O   UNL A   1      43.954  26.373  39.065  1.00  0.00    -0.237 OA
ATOM     98  O   UNL A   1      44.343  24.614  37.387  1.00  0.00    -0.237 OA
ATOM     99  O   UNL A   1      46.237  25.540  38.647  1.00  0.00    -0.744 OA
ENDBRANCH  93  96
ENDBRANCH  66  89
ENDBRANCH  40  41
ENDBRANCH  32  35
ENDBRANCH  30  31
ENDBRANCH  29  30
ENDBRANCH  28  29
ENDBRANCH   1  28
TORSDOF 21
ENDMDL
