MODEL 1
REMARK VINA RESULT:     -11.2      0.000      0.000
REMARK SMILES CN1C(=O)/C(=C/c2ccc(OCC(=O)NCCCCCCNC(=O)c3ccc(-c4c5nc(c(-c6cccc(S(=O)(=O)[O-])c6F)c6ccc([nH]6)c(-c6cccc(S(=O)(=O)[O-])c6F)c6nc(c(-c7cccc(S(=O)(=O)[O-])c7F)c7ccc4[nH]7)C=C6)C=C5)cc3)c(Br)c2)C(=O)NC1=S
REMARK SMILES IDX 18 1 17 2 16 3 15 4 13 5 14 6 12 8 11 9 10 10 7 11 8 12
REMARK SMILES IDX 90 13 9 14 88 15 89 16 6 17 1 18 2 19 3 20 94 21 4 22 5 23
REMARK SMILES IDX 93 24 95 25 91 26 92 28 19 29 20 30 21 31 22 32 23 33 24 35
REMARK SMILES IDX 25 36 26 37 87 38 27 39 86 40 28 41 29 42 30 43 80 44 31 45
REMARK SMILES IDX 85 46 79 47 81 48 32 49 84 50 78 51 77 52 33 54 65 55 45 56
REMARK SMILES IDX 64 57 46 58 49 59 63 60 82 61 47 62 48 63 62 65 83 66 50 67
REMARK SMILES IDX 34 68 35 69 43 70 36 71 38 72 44 73 37 74 39 75 40 76 41 77
REMARK SMILES IDX 42 78 66 79 67 80 75 81 68 82 70 83 76 84 69 85 71 86 72 87
REMARK SMILES IDX 73 88 74 89 51 90 52 91 60 92 53 93 55 94 61 95 54 96 56 97
REMARK SMILES IDX 57 98 58 99 59 100
REMARK H PARENT 15 7 93 27 22 34 81 53 49 64
REMARK Flexibility Score: inf
ROOT
ATOM      1  C   UNL A   1      34.043  28.187  25.084  1.00  0.00     0.002 C 
ENDROOT
BRANCH   1   2
ATOM      2  C   UNL A   1      33.258  28.741  23.888  1.00  0.00     0.021 C 
BRANCH   2   3
ATOM      3  C   UNL A   1      31.860  29.263  24.215  1.00  0.00     0.116 C 
BRANCH   3   4
ATOM      4  N   UNL A   1      31.096  29.539  23.015  1.00  0.00    -0.353 N 
ATOM      5  C   UNL A   1      29.952  28.945  22.573  1.00  0.00     0.257 C 
ATOM      6  O   UNL A   1      29.425  29.384  21.549  1.00  0.00    -0.271 OA
ATOM      7  H   UNL A   1      31.452  30.254  22.440  1.00  0.00     0.163 HD
BRANCH   5   8
ATOM      8  C   UNL A   1      29.318  27.817  23.397  1.00  0.00     0.329 C 
BRANCH   8   9
ATOM      9  O   UNL A   1      29.640  26.473  23.106  1.00  0.00    -0.483 OA
BRANCH   9  10
ATOM     10  C   UNL A   1      30.766  25.883  23.601  1.00  0.00     0.134 A 
ATOM     11  C   UNL A   1      32.779  24.483  25.004  1.00  0.00    -0.023 A 
ATOM     12  C   UNL A   1      31.607  24.833  25.658  1.00  0.00     0.012 A 
ATOM     13  C   UNL A   1      32.955  24.855  23.666  1.00  0.00     0.027 A 
ATOM     14  C   UNL A   1      30.613  25.523  24.955  1.00  0.00     0.048 A 
ATOM     15  C   UNL A   1      31.950  25.526  22.951  1.00  0.00     0.060 A 
ATOM     16  Br  UNL A   1      32.311  25.701  21.096  1.00  0.00    -0.047 Br
BRANCH  11  17
ATOM     17  C   UNL A   1      33.820  23.640  25.597  1.00  0.00     0.027 C 
ATOM     18  C   UNL A   1      36.446  19.798  24.962  1.00  0.00     0.156 C 
ATOM     19  N   UNL A   1      35.094  20.326  25.142  1.00  0.00    -0.288 N 
ATOM     20  C   UNL A   1      35.052  21.584  25.755  1.00  0.00     0.265 C 
ATOM     21  C   UNL A   1      33.963  19.615  24.759  1.00  0.00     0.182 C 
ATOM     22  O   UNL A   1      36.030  22.109  26.284  1.00  0.00    -0.268 OA
ATOM     23  C   UNL A   1      33.755  22.293  25.640  1.00  0.00     0.106 C 
ATOM     24  N   UNL A   1      32.759  20.238  24.943  1.00  0.00    -0.298 N 
ATOM     25  S   UNL A   1      33.908  18.069  24.113  1.00  0.00    -0.040 S 
ATOM     26  C   UNL A   1      32.532  21.513  25.374  1.00  0.00     0.263 C 
ATOM     27  H   UNL A   1      31.959  19.702  24.739  1.00  0.00     0.172 HD
ATOM     28  O   UNL A   1      31.389  21.920  25.541  1.00  0.00    -0.269 OA
ENDBRANCH  11  17
ENDBRANCH   9  10
ENDBRANCH   8   9
ENDBRANCH   5   8
ENDBRANCH   3   4
ENDBRANCH   2   3
ENDBRANCH   1   2
BRANCH   1  29
ATOM     29  C   UNL A   1      33.221  27.908  26.346  1.00  0.00     0.002 C 
BRANCH  29  30
ATOM     30  C   UNL A   1      33.328  28.961  27.451  1.00  0.00     0.021 C 
BRANCH  30  31
ATOM     31  C   UNL A   1      34.199  30.169  27.118  1.00  0.00     0.116 C 
BRANCH  31  32
ATOM     32  N   UNL A   1      33.974  31.284  28.023  1.00  0.00    -0.352 N 
ATOM     33  C   UNL A   1      34.701  31.682  29.117  1.00  0.00     0.251 C 
ATOM     34  H   UNL A   1      33.185  31.837  27.820  1.00  0.00     0.163 HD
ATOM     35  O   UNL A   1      34.264  32.567  29.848  1.00  0.00    -0.269 OA
BRANCH  33  36
ATOM     36  C   UNL A   1      35.997  31.036  29.434  1.00  0.00     0.039 A 
ATOM     37  C   UNL A   1      37.149  31.491  28.786  1.00  0.00     0.014 A 
ATOM     38  C   UNL A   1      36.079  29.975  30.340  1.00  0.00     0.014 A 
ATOM     39  C   UNL A   1      38.388  30.917  29.085  1.00  0.00     0.010 A 
ATOM     40  C   UNL A   1      37.324  29.452  30.689  1.00  0.00     0.010 A 
ATOM     41  C   UNL A   1      38.489  29.909  30.057  1.00  0.00    -0.014 A 
BRANCH  41  42
ATOM     42  C   UNL A   1      39.810  29.336  30.428  1.00  0.00     0.031 A 
ATOM     43  C   UNL A   1      40.627  29.943  31.535  1.00  0.00     0.074 A 
ATOM     44  C   UNL A   1      40.315  28.316  29.707  1.00  0.00     0.049 A 
ATOM     45  N   UNL A   1      41.799  29.579  31.988  1.00  0.00    -0.248 NA
ATOM     46  C   UNL A   1      40.071  31.133  32.199  1.00  0.00     0.031 C 
ATOM     47  C   UNL A   1      39.676  27.712  28.537  1.00  0.00     0.029 A 
ATOM     48  N   UNL A   1      41.497  27.629  29.834  1.00  0.00    -0.354 N 
ATOM     49  C   UNL A   1      42.138  30.511  32.962  1.00  0.00     0.074 A 
ATOM     50  C   UNL A   1      41.063  31.479  33.007  1.00  0.00     0.031 C 
ATOM     51  C   UNL A   1      40.475  26.750  28.049  1.00  0.00     0.029 A 
ATOM     52  C   UNL A   1      41.686  26.675  28.862  1.00  0.00     0.049 A 
ATOM     53  H   UNL A   1      42.147  27.804  30.552  1.00  0.00     0.167 HD
ATOM     54  C   UNL A   1      43.224  30.542  33.770  1.00  0.00     0.034 A 
ATOM     55  C   UNL A   1      42.715  25.833  28.649  1.00  0.00     0.034 A 
ATOM     56  C   UNL A   1      44.268  29.552  33.758  1.00  0.00     0.049 A 
ATOM     57  C   UNL A   1      43.865  25.819  29.618  1.00  0.00     0.074 A 
ATOM     58  C   UNL A   1      45.351  29.429  34.610  1.00  0.00     0.029 A 
ATOM     59  N   UNL A   1      44.364  28.516  32.841  1.00  0.00    -0.354 N 
ATOM     60  N   UNL A   1      44.070  26.584  30.663  1.00  0.00    -0.248 NA
ATOM     61  C   UNL A   1      44.898  24.796  29.409  1.00  0.00     0.031 C 
ATOM     62  C   UNL A   1      46.109  28.326  34.200  1.00  0.00     0.029 A 
ATOM     63  C   UNL A   1      45.491  27.753  33.100  1.00  0.00     0.049 A 
ATOM     64  H   UNL A   1      43.724  28.348  32.112  1.00  0.00     0.167 HD
ATOM     65  C   UNL A   1      45.242  26.122  31.251  1.00  0.00     0.074 A 
ATOM     66  C   UNL A   1      45.684  24.990  30.461  1.00  0.00     0.031 C 
ATOM     67  C   UNL A   1      45.901  26.602  32.335  1.00  0.00     0.034 A 
BRANCH  54  68
ATOM     68  C   UNL A   1      43.301  31.656  34.783  1.00  0.00     0.023 A 
ATOM     69  C   UNL A   1      43.998  32.839  34.459  1.00  0.00     0.012 A 
ATOM     70  C   UNL A   1      42.669  31.551  36.037  1.00  0.00     0.148 A 
ATOM     71  C   UNL A   1      44.103  33.879  35.382  1.00  0.00     0.002 A 
ATOM     72  C   UNL A   1      42.742  32.611  36.935  1.00  0.00     0.091 A 
ATOM     73  F   UNL A   1      42.032  30.411  36.342  1.00  0.00    -0.205 F 
ATOM     74  C   UNL A   1      43.469  33.769  36.614  1.00  0.00     0.022 A 
BRANCH  72  75
ATOM     75  S   UNL A   1      41.889  32.584  38.517  1.00  0.00     0.127 S 
ATOM     76  O   UNL A   1      40.522  32.263  38.111  1.00  0.00    -0.237 OA
ATOM     77  O   UNL A   1      42.581  31.508  39.229  1.00  0.00    -0.237 OA
ATOM     78  O   UNL A   1      42.087  33.908  39.092  1.00  0.00    -0.744 OA
ENDBRANCH  72  75
ENDBRANCH  54  68
BRANCH  55  79
ATOM     79  C   UNL A   1      42.647  24.875  27.511  1.00  0.00     0.023 A 
ATOM     80  C   UNL A   1      43.246  25.213  26.283  1.00  0.00     0.012 A 
ATOM     81  C   UNL A   1      42.059  23.604  27.664  1.00  0.00     0.148 A 
ATOM     82  C   UNL A   1      43.243  24.312  25.218  1.00  0.00     0.002 A 
ATOM     83  C   UNL A   1      42.107  22.690  26.617  1.00  0.00     0.091 A 
ATOM     84  F   UNL A   1      41.486  23.306  28.838  1.00  0.00    -0.205 F 
ATOM     85  C   UNL A   1      42.685  23.047  25.389  1.00  0.00     0.022 A 
BRANCH  83  86
ATOM     86  S   UNL A   1      41.544  20.993  26.794  1.00  0.00     0.127 S 
ATOM     87  O   UNL A   1      41.942  20.411  25.515  1.00  0.00    -0.237 OA
ATOM     88  O   UNL A   1      42.320  20.536  27.947  1.00  0.00    -0.237 OA
ATOM     89  O   UNL A   1      40.109  21.076  27.032  1.00  0.00    -0.744 OA
ENDBRANCH  83  86
ENDBRANCH  55  79
BRANCH  67  90
ATOM     90  C   UNL A   1      47.171  25.901  32.742  1.00  0.00     0.023 A 
ATOM     91  C   UNL A   1      48.405  26.344  32.225  1.00  0.00     0.012 A 
ATOM     92  C   UNL A   1      47.151  24.848  33.676  1.00  0.00     0.148 A 
ATOM     93  C   UNL A   1      49.596  25.724  32.603  1.00  0.00     0.002 A 
ATOM     94  C   UNL A   1      48.347  24.264  34.083  1.00  0.00     0.091 A 
ATOM     95  F   UNL A   1      45.967  24.422  34.142  1.00  0.00    -0.205 F 
ATOM     96  C   UNL A   1      49.568  24.693  33.539  1.00  0.00     0.022 A 
BRANCH  94  97
ATOM     97  S   UNL A   1      48.400  22.993  35.352  1.00  0.00     0.127 S 
ATOM     98  O   UNL A   1      49.829  22.692  35.417  1.00  0.00    -0.237 OA
ATOM     99  O   UNL A   1      47.871  23.693  36.523  1.00  0.00    -0.237 OA
ATOM    100  O   UNL A   1      47.547  21.917  34.865  1.00  0.00    -0.744 OA
ENDBRANCH  94  97
ENDBRANCH  67  90
ENDBRANCH  41  42
ENDBRANCH  33  36
ENDBRANCH  31  32
ENDBRANCH  30  31
ENDBRANCH  29  30
ENDBRANCH   1  29
TORSDOF 19
ENDMDL
MODEL 2
REMARK VINA RESULT:     -11.1      3.011      8.045
REMARK SMILES CN1C(=O)/C(=C/c2ccc(OCC(=O)NCCCCCCNC(=O)c3ccc(-c4c5nc(c(-c6cccc(S(=O)(=O)[O-])c6F)c6ccc([nH]6)c(-c6cccc(S(=O)(=O)[O-])c6F)c6nc(c(-c7cccc(S(=O)(=O)[O-])c7F)c7ccc4[nH]7)C=C6)C=C5)cc3)c(Br)c2)C(=O)NC1=S
REMARK SMILES IDX 18 1 17 2 16 3 15 4 13 5 14 6 12 8 11 9 10 10 7 11 8 12
REMARK SMILES IDX 90 13 9 14 88 15 89 16 6 17 1 18 2 19 3 20 94 21 4 22 5 23
REMARK SMILES IDX 93 24 95 25 91 26 92 28 19 29 20 30 21 31 22 32 23 33 24 35
REMARK SMILES IDX 25 36 26 37 87 38 27 39 86 40 28 41 29 42 30 43 80 44 31 45
REMARK SMILES IDX 85 46 79 47 81 48 32 49 84 50 78 51 77 52 33 54 65 55 45 56
REMARK SMILES IDX 64 57 46 58 49 59 63 60 82 61 47 62 48 63 62 65 83 66 50 67
REMARK SMILES IDX 34 68 35 69 43 70 36 71 38 72 44 73 37 74 39 75 40 76 41 77
REMARK SMILES IDX 42 78 66 79 67 80 75 81 68 82 70 83 76 84 69 85 71 86 72 87
REMARK SMILES IDX 73 88 74 89 51 90 52 91 60 92 53 93 55 94 61 95 54 96 56 97
REMARK SMILES IDX 57 98 58 99 59 100
REMARK H PARENT 15 7 93 27 22 34 81 53 49 64
REMARK Flexibility Score: inf
ROOT
ATOM      1  C   UNL A   1      33.257  30.023  26.161  1.00  0.00     0.002 C 
ENDROOT
BRANCH   1   2
ATOM      2  C   UNL A   1      32.633  29.471  24.873  1.00  0.00     0.021 C 
BRANCH   2   3
ATOM      3  C   UNL A   1      31.116  29.617  24.773  1.00  0.00     0.116 C 
BRANCH   3   4
ATOM      4  N   UNL A   1      30.679  29.758  23.398  1.00  0.00    -0.353 N 
ATOM      5  C   UNL A   1      29.908  28.917  22.654  1.00  0.00     0.257 C 
ATOM      6  O   UNL A   1      29.597  29.266  21.514  1.00  0.00    -0.271 OA
ATOM      7  H   UNL A   1      30.982  30.575  22.939  1.00  0.00     0.163 HD
BRANCH   5   8
ATOM      8  C   UNL A   1      29.389  27.615  23.279  1.00  0.00     0.329 C 
BRANCH   8   9
ATOM      9  O   UNL A   1      30.042  26.396  22.996  1.00  0.00    -0.483 OA
BRANCH   9  10
ATOM     10  C   UNL A   1      31.284  26.118  23.485  1.00  0.00     0.134 A 
ATOM     11  C   UNL A   1      33.601  25.417  24.942  1.00  0.00    -0.023 A 
ATOM     12  C   UNL A   1      32.437  25.741  25.623  1.00  0.00     0.012 A 
ATOM     13  C   UNL A   1      33.614  25.471  23.543  1.00  0.00     0.027 A 
ATOM     14  C   UNL A   1      31.293  26.083  24.895  1.00  0.00     0.048 A 
ATOM     15  C   UNL A   1      32.461  25.790  22.809  1.00  0.00     0.060 A 
ATOM     16  Br  UNL A   1      32.652  25.554  20.936  1.00  0.00    -0.047 Br
BRANCH  11  17
ATOM     17  C   UNL A   1      34.810  24.909  25.595  1.00  0.00     0.027 C 
ATOM     18  C   UNL A   1      38.219  21.688  25.345  1.00  0.00     0.156 C 
ATOM     19  N   UNL A   1      36.786  21.925  25.511  1.00  0.00    -0.288 N 
ATOM     20  C   UNL A   1      36.470  23.213  25.961  1.00  0.00     0.265 C 
ATOM     21  C   UNL A   1      35.837  20.940  25.265  1.00  0.00     0.182 C 
ATOM     22  O   UNL A   1      37.312  24.004  26.381  1.00  0.00    -0.268 OA
ATOM     23  C   UNL A   1      35.047  23.599  25.809  1.00  0.00     0.106 C 
ATOM     24  N   UNL A   1      34.527  21.302  25.417  1.00  0.00    -0.298 N 
ATOM     25  S   UNL A   1      36.121  19.348  24.822  1.00  0.00    -0.040 S 
ATOM     26  C   UNL A   1      34.026  22.541  25.693  1.00  0.00     0.263 C 
ATOM     27  H   UNL A   1      33.864  20.581  25.314  1.00  0.00     0.172 HD
ATOM     28  O   UNL A   1      32.823  22.706  25.853  1.00  0.00    -0.269 OA
ENDBRANCH  11  17
ENDBRANCH   9  10
ENDBRANCH   8   9
ENDBRANCH   5   8
ENDBRANCH   3   4
ENDBRANCH   2   3
ENDBRANCH   1   2
BRANCH   1  29
ATOM     29  C   UNL A   1      32.266  30.476  27.239  1.00  0.00     0.002 C 
BRANCH  29  30
ATOM     30  C   UNL A   1      31.791  31.926  27.131  1.00  0.00     0.021 C 
BRANCH  30  31
ATOM     31  C   UNL A   1      32.895  32.964  26.955  1.00  0.00     0.116 C 
BRANCH  31  32
ATOM     32  N   UNL A   1      32.625  34.194  27.680  1.00  0.00    -0.352 N 
ATOM     33  C   UNL A   1      33.168  34.655  28.854  1.00  0.00     0.251 C 
ATOM     34  H   UNL A   1      31.953  34.785  27.269  1.00  0.00     0.163 HD
ATOM     35  O   UNL A   1      32.698  35.655  29.389  1.00  0.00    -0.269 OA
BRANCH  33  36
ATOM     36  C   UNL A   1      34.302  33.941  29.487  1.00  0.00     0.039 A 
ATOM     37  C   UNL A   1      35.604  34.351  29.188  1.00  0.00     0.014 A 
ATOM     38  C   UNL A   1      34.092  32.862  30.350  1.00  0.00     0.014 A 
ATOM     39  C   UNL A   1      36.691  33.713  29.791  1.00  0.00     0.010 A 
ATOM     40  C   UNL A   1      35.173  32.273  31.006  1.00  0.00     0.010 A 
ATOM     41  C   UNL A   1      36.484  32.684  30.724  1.00  0.00    -0.014 A 
BRANCH  41  42
ATOM     42  C   UNL A   1      37.629  32.041  31.419  1.00  0.00     0.031 A 
ATOM     43  C   UNL A   1      38.403  30.932  30.760  1.00  0.00     0.074 A 
ATOM     44  C   UNL A   1      37.922  32.398  32.684  1.00  0.00     0.049 A 
ATOM     45  N   UNL A   1      39.424  30.254  31.219  1.00  0.00    -0.248 NA
ATOM     46  C   UNL A   1      37.952  30.505  29.425  1.00  0.00     0.031 C 
ATOM     47  C   UNL A   1      37.178  33.378  33.478  1.00  0.00     0.029 A 
ATOM     48  N   UNL A   1      38.903  31.955  33.536  1.00  0.00    -0.354 N 
ATOM     49  C   UNL A   1      39.715  29.301  30.250  1.00  0.00     0.074 A 
ATOM     50  C   UNL A   1      38.739  29.464  29.195  1.00  0.00     0.031 C 
ATOM     51  C   UNL A   1      37.723  33.456  34.701  1.00  0.00     0.029 A 
ATOM     52  C   UNL A   1      38.848  32.528  34.785  1.00  0.00     0.049 A 
ATOM     53  H   UNL A   1      39.581  31.290  33.277  1.00  0.00     0.167 HD
ATOM     54  C   UNL A   1      40.723  28.396  30.222  1.00  0.00     0.034 A 
ATOM     55  C   UNL A   1      39.616  32.331  35.874  1.00  0.00     0.034 A 
ATOM     56  C   UNL A   1      41.722  28.268  31.248  1.00  0.00     0.049 A 
ATOM     57  C   UNL A   1      40.788  31.394  35.786  1.00  0.00     0.074 A 
ATOM     58  C   UNL A   1      42.848  27.463  31.261  1.00  0.00     0.029 A 
ATOM     59  N   UNL A   1      41.713  28.960  32.450  1.00  0.00    -0.354 N 
ATOM     60  N   UNL A   1      41.169  30.644  34.780  1.00  0.00    -0.248 NA
ATOM     61  C   UNL A   1      41.665  31.313  36.962  1.00  0.00     0.031 C 
ATOM     62  C   UNL A   1      43.513  27.658  32.478  1.00  0.00     0.029 A 
ATOM     63  C   UNL A   1      42.808  28.596  33.217  1.00  0.00     0.049 A 
ATOM     64  H   UNL A   1      41.029  29.614  32.719  1.00  0.00     0.167 HD
ATOM     65  C   UNL A   1      42.341  30.020  35.191  1.00  0.00     0.074 A 
ATOM     66  C   UNL A   1      42.623  30.504  36.528  1.00  0.00     0.031 C 
ATOM     67  C   UNL A   1      43.104  29.114  34.529  1.00  0.00     0.034 A 
BRANCH  54  68
ATOM     68  C   UNL A   1      40.827  27.516  29.002  1.00  0.00     0.023 A 
ATOM     69  C   UNL A   1      39.997  26.380  28.896  1.00  0.00     0.012 A 
ATOM     70  C   UNL A   1      41.717  27.818  27.954  1.00  0.00     0.148 A 
ATOM     71  C   UNL A   1      40.084  25.535  27.790  1.00  0.00     0.002 A 
ATOM     72  C   UNL A   1      41.767  26.995  26.834  1.00  0.00     0.091 A 
ATOM     73  F   UNL A   1      42.518  28.886  28.079  1.00  0.00    -0.205 F 
ATOM     74  C   UNL A   1      40.961  25.847  26.756  1.00  0.00     0.022 A 
BRANCH  72  75
ATOM     75  S   UNL A   1      42.813  27.364  25.421  1.00  0.00     0.127 S 
ATOM     76  O   UNL A   1      42.740  26.115  24.664  1.00  0.00    -0.237 OA
ATOM     77  O   UNL A   1      42.116  28.492  24.800  1.00  0.00    -0.237 OA
ATOM     78  O   UNL A   1      44.119  27.695  25.974  1.00  0.00    -0.744 OA
ENDBRANCH  72  75
ENDBRANCH  54  68
BRANCH  55  79
ATOM     79  C   UNL A   1      39.338  33.114  37.110  1.00  0.00     0.023 A 
ATOM     80  C   UNL A   1      39.879  34.406  37.249  1.00  0.00     0.012 A 
ATOM     81  C   UNL A   1      38.483  32.613  38.111  1.00  0.00     0.148 A 
ATOM     82  C   UNL A   1      39.591  35.180  38.373  1.00  0.00     0.002 A 
ATOM     83  C   UNL A   1      38.156  33.411  39.203  1.00  0.00     0.091 A 
ATOM     84  F   UNL A   1      37.987  31.377  37.963  1.00  0.00    -0.205 F 
ATOM     85  C   UNL A   1      38.720  34.688  39.343  1.00  0.00     0.022 A 
BRANCH  83  86
ATOM     86  S   UNL A   1      36.933  32.917  40.424  1.00  0.00     0.127 S 
ATOM     87  O   UNL A   1      36.810  34.129  41.230  1.00  0.00    -0.237 OA
ATOM     88  O   UNL A   1      35.774  32.614  39.585  1.00  0.00    -0.237 OA
ATOM     89  O   UNL A   1      37.500  31.760  41.103  1.00  0.00    -0.744 OA
ENDBRANCH  83  86
ENDBRANCH  55  79
BRANCH  67  90
ATOM     90  C   UNL A   1      44.328  28.589  35.235  1.00  0.00     0.023 A 
ATOM     91  C   UNL A   1      45.581  29.185  34.989  1.00  0.00     0.012 A 
ATOM     92  C   UNL A   1      44.231  27.551  36.181  1.00  0.00     0.148 A 
ATOM     93  C   UNL A   1      46.725  28.730  35.645  1.00  0.00     0.002 A 
ATOM     94  C   UNL A   1      45.368  27.132  36.865  1.00  0.00     0.091 A 
ATOM     95  F   UNL A   1      43.035  26.978  36.388  1.00  0.00    -0.205 F 
ATOM     96  C   UNL A   1      46.616  27.712  36.590  1.00  0.00     0.022 A 
BRANCH  94  97
ATOM     97  S   UNL A   1      45.293  25.890  38.161  1.00  0.00     0.127 S 
ATOM     98  O   UNL A   1      46.691  25.807  38.579  1.00  0.00    -0.237 OA
ATOM     99  O   UNL A   1      44.401  26.511  39.142  1.00  0.00    -0.237 OA
ATOM    100  O   UNL A   1      44.748  24.697  37.530  1.00  0.00    -0.744 OA
ENDBRANCH  94  97
ENDBRANCH  67  90
ENDBRANCH  41  42
ENDBRANCH  33  36
ENDBRANCH  31  32
ENDBRANCH  30  31
ENDBRANCH  29  30
ENDBRANCH   1  29
TORSDOF 19
ENDMDL
MODEL 3
REMARK VINA RESULT:     -10.8      2.657      3.577
REMARK SMILES CN1C(=O)/C(=C/c2ccc(OCC(=O)NCCCCCCNC(=O)c3ccc(-c4c5nc(c(-c6cccc(S(=O)(=O)[O-])c6F)c6ccc([nH]6)c(-c6cccc(S(=O)(=O)[O-])c6F)c6nc(c(-c7cccc(S(=O)(=O)[O-])c7F)c7ccc4[nH]7)C=C6)C=C5)cc3)c(Br)c2)C(=O)NC1=S
REMARK SMILES IDX 18 1 17 2 16 3 15 4 13 5 14 6 12 8 11 9 10 10 7 11 8 12
REMARK SMILES IDX 90 13 9 14 88 15 89 16 6 17 1 18 2 19 3 20 94 21 4 22 5 23
REMARK SMILES IDX 93 24 95 25 91 26 92 28 19 29 20 30 21 31 22 32 23 33 24 35
REMARK SMILES IDX 25 36 26 37 87 38 27 39 86 40 28 41 29 42 30 43 80 44 31 45
REMARK SMILES IDX 85 46 79 47 81 48 32 49 84 50 78 51 77 52 33 54 65 55 45 56
REMARK SMILES IDX 64 57 46 58 49 59 63 60 82 61 47 62 48 63 62 65 83 66 50 67
REMARK SMILES IDX 34 68 35 69 43 70 36 71 38 72 44 73 37 74 39 75 40 76 41 77
REMARK SMILES IDX 42 78 66 79 67 80 75 81 68 82 70 83 76 84 69 85 71 86 72 87
REMARK SMILES IDX 73 88 74 89 51 90 52 91 60 92 53 93 55 94 61 95 54 96 56 97
REMARK SMILES IDX 57 98 58 99 59 100
REMARK H PARENT 15 7 93 27 22 34 81 53 49 64
REMARK Flexibility Score: inf
ROOT
ATOM      1  C   UNL A   1      33.222  29.540  26.063  1.00  0.00     0.002 C 
ENDROOT
BRANCH   1   2
ATOM      2  C   UNL A   1      32.621  29.346  24.666  1.00  0.00     0.021 C 
BRANCH   2   3
ATOM      3  C   UNL A   1      31.134  29.678  24.548  1.00  0.00     0.116 C 
BRANCH   3   4
ATOM      4  N   UNL A   1      30.726  29.832  23.166  1.00  0.00    -0.353 N 
ATOM      5  C   UNL A   1      29.673  29.261  22.516  1.00  0.00     0.257 C 
ATOM      6  O   UNL A   1      29.466  29.584  21.345  1.00  0.00    -0.271 OA
ATOM      7  H   UNL A   1      31.287  30.430  22.622  1.00  0.00     0.163 HD
BRANCH   5   8
ATOM      8  C   UNL A   1      28.740  28.310  23.276  1.00  0.00     0.329 C 
BRANCH   8   9
ATOM      9  O   UNL A   1      29.004  26.923  23.275  1.00  0.00    -0.483 OA
BRANCH   9  10
ATOM     10  C   UNL A   1      30.158  26.413  23.793  1.00  0.00     0.134 A 
ATOM     11  C   UNL A   1      32.246  25.213  25.271  1.00  0.00    -0.023 A 
ATOM     12  C   UNL A   1      31.085  25.605  25.921  1.00  0.00     0.012 A 
ATOM     13  C   UNL A   1      32.373  25.445  23.896  1.00  0.00     0.027 A 
ATOM     14  C   UNL A   1      30.054  26.195  25.182  1.00  0.00     0.048 A 
ATOM     15  C   UNL A   1      31.331  26.015  23.147  1.00  0.00     0.060 A 
ATOM     16  Br  UNL A   1      31.633  26.000  21.274  1.00  0.00    -0.047 Br
BRANCH  11  17
ATOM     17  C   UNL A   1      33.324  24.460  25.916  1.00  0.00     0.027 C 
ATOM     18  C   UNL A   1      36.272  20.837  25.431  1.00  0.00     0.156 C 
ATOM     19  N   UNL A   1      34.877  21.255  25.549  1.00  0.00    -0.288 N 
ATOM     20  C   UNL A   1      34.708  22.510  26.146  1.00  0.00     0.265 C 
ATOM     21  C   UNL A   1      33.823  20.454  25.126  1.00  0.00     0.182 C 
ATOM     22  O   UNL A   1      35.617  23.116  26.711  1.00  0.00    -0.268 OA
ATOM     23  C   UNL A   1      33.364  23.113  25.970  1.00  0.00     0.106 C 
ATOM     24  N   UNL A   1      32.566  20.980  25.253  1.00  0.00    -0.298 N 
ATOM     25  S   UNL A   1      33.919  18.904  24.495  1.00  0.00    -0.040 S 
ATOM     26  C   UNL A   1      32.220  22.236  25.661  1.00  0.00     0.263 C 
ATOM     27  H   UNL A   1      31.821  20.380  25.021  1.00  0.00     0.172 HD
ATOM     28  O   UNL A   1      31.043  22.551  25.776  1.00  0.00    -0.269 OA
ENDBRANCH  11  17
ENDBRANCH   9  10
ENDBRANCH   8   9
ENDBRANCH   5   8
ENDBRANCH   3   4
ENDBRANCH   2   3
ENDBRANCH   1   2
BRANCH   1  29
ATOM     29  C   UNL A   1      32.279  30.128  27.118  1.00  0.00     0.002 C 
BRANCH  29  30
ATOM     30  C   UNL A   1      31.941  31.611  26.948  1.00  0.00     0.021 C 
BRANCH  30  31
ATOM     31  C   UNL A   1      33.121  32.568  27.082  1.00  0.00     0.116 C 
BRANCH  31  32
ATOM     32  N   UNL A   1      32.753  33.820  27.721  1.00  0.00    -0.352 N 
ATOM     33  C   UNL A   1      33.279  34.419  28.839  1.00  0.00     0.251 C 
ATOM     34  H   UNL A   1      32.020  34.314  27.287  1.00  0.00     0.163 HD
ATOM     35  O   UNL A   1      32.730  35.411  29.313  1.00  0.00    -0.269 OA
BRANCH  33  36
ATOM     36  C   UNL A   1      34.490  33.864  29.488  1.00  0.00     0.039 A 
ATOM     37  C   UNL A   1      34.331  32.961  30.543  1.00  0.00     0.014 A 
ATOM     38  C   UNL A   1      35.773  34.244  29.083  1.00  0.00     0.014 A 
ATOM     39  C   UNL A   1      35.456  32.402  31.157  1.00  0.00     0.010 A 
ATOM     40  C   UNL A   1      36.892  33.633  29.647  1.00  0.00     0.010 A 
ATOM     41  C   UNL A   1      36.746  32.715  30.698  1.00  0.00    -0.014 A 
BRANCH  41  42
ATOM     42  C   UNL A   1      37.946  32.079  31.301  1.00  0.00     0.031 A 
ATOM     43  C   UNL A   1      38.578  32.651  32.540  1.00  0.00     0.074 A 
ATOM     44  C   UNL A   1      38.522  31.030  30.682  1.00  0.00     0.049 A 
ATOM     45  N   UNL A   1      39.629  32.232  33.198  1.00  0.00    -0.248 NA
ATOM     46  C   UNL A   1      37.972  33.872  33.095  1.00  0.00     0.031 C 
ATOM     47  C   UNL A   1      38.076  30.450  29.413  1.00  0.00     0.029 A 
ATOM     48  N   UNL A   1      39.624  30.286  31.019  1.00  0.00    -0.354 N 
ATOM     49  C   UNL A   1      39.832  33.153  34.219  1.00  0.00     0.074 A 
ATOM     50  C   UNL A   1      38.816  34.174  34.071  1.00  0.00     0.031 C 
ATOM     51  C   UNL A   1      38.901  29.447  29.076  1.00  0.00     0.029 A 
ATOM     52  C   UNL A   1      39.938  29.317  30.096  1.00  0.00     0.049 A 
ATOM     53  H   UNL A   1      40.141  30.433  31.844  1.00  0.00     0.167 HD
ATOM     54  C   UNL A   1      40.754  33.135  35.211  1.00  0.00     0.034 A 
ATOM     55  C   UNL A   1      40.945  28.422  30.072  1.00  0.00     0.034 A 
ATOM     56  C   UNL A   1      41.731  32.094  35.386  1.00  0.00     0.049 A 
ATOM     57  C   UNL A   1      41.898  28.358  31.233  1.00  0.00     0.074 A 
ATOM     58  C   UNL A   1      42.633  31.923  36.421  1.00  0.00     0.029 A 
ATOM     59  N   UNL A   1      41.939  31.048  34.500  1.00  0.00    -0.354 N 
ATOM     60  N   UNL A   1      41.949  29.119  32.300  1.00  0.00    -0.248 NA
ATOM     61  C   UNL A   1      42.899  27.283  31.213  1.00  0.00     0.031 C 
ATOM     62  C   UNL A   1      43.397  30.780  36.153  1.00  0.00     0.029 A 
ATOM     63  C   UNL A   1      42.960  30.231  34.958  1.00  0.00     0.049 A 
ATOM     64  H   UNL A   1      41.434  30.907  33.666  1.00  0.00     0.167 HD
ATOM     65  C   UNL A   1      42.969  28.602  33.090  1.00  0.00     0.074 A 
ATOM     66  C   UNL A   1      43.489  27.444  32.391  1.00  0.00     0.031 C 
ATOM     67  C   UNL A   1      43.444  29.056  34.277  1.00  0.00     0.034 A 
BRANCH  54  68
ATOM     68  C   UNL A   1      40.701  34.250  36.224  1.00  0.00     0.023 A 
ATOM     69  C   UNL A   1      41.244  35.510  35.895  1.00  0.00     0.012 A 
ATOM     70  C   UNL A   1      40.098  34.069  37.483  1.00  0.00     0.148 A 
ATOM     71  C   UNL A   1      41.229  36.556  36.817  1.00  0.00     0.002 A 
ATOM     72  C   UNL A   1      40.047  35.130  38.381  1.00  0.00     0.091 A 
ATOM     73  F   UNL A   1      39.608  32.860  37.793  1.00  0.00    -0.205 F 
ATOM     74  C   UNL A   1      40.623  36.369  38.055  1.00  0.00     0.022 A 
BRANCH  72  75
ATOM     75  S   UNL A   1      39.218  35.000  39.970  1.00  0.00     0.127 S 
ATOM     76  O   UNL A   1      38.146  34.053  39.668  1.00  0.00    -0.237 OA
ATOM     77  O   UNL A   1      40.274  34.468  40.833  1.00  0.00    -0.237 OA
ATOM     78  O   UNL A   1      38.794  36.353  40.304  1.00  0.00    -0.744 OA
ENDBRANCH  72  75
ENDBRANCH  54  68
BRANCH  55  79
ATOM     79  C   UNL A   1      41.037  27.461  28.938  1.00  0.00     0.023 A 
ATOM     80  C   UNL A   1      40.136  26.382  28.869  1.00  0.00     0.012 A 
ATOM     81  C   UNL A   1      41.962  27.654  27.893  1.00  0.00     0.148 A 
ATOM     82  C   UNL A   1      40.166  25.499  27.790  1.00  0.00     0.002 A 
ATOM     83  C   UNL A   1      41.951  26.802  26.794  1.00  0.00     0.091 A 
ATOM     84  F   UNL A   1      42.817  28.682  27.984  1.00  0.00    -0.205 F 
ATOM     85  C   UNL A   1      41.064  25.715  26.748  1.00  0.00     0.022 A 
BRANCH  83  86
ATOM     86  S   UNL A   1      42.972  27.089  25.343  1.00  0.00     0.127 S 
ATOM     87  O   UNL A   1      42.793  25.843  24.602  1.00  0.00    -0.237 OA
ATOM     88  O   UNL A   1      42.326  28.259  24.748  1.00  0.00    -0.237 OA
ATOM     89  O   UNL A   1      44.315  27.338  25.849  1.00  0.00    -0.744 OA
ENDBRANCH  83  86
ENDBRANCH  55  79
BRANCH  67  90
ATOM     90  C   UNL A   1      44.582  28.295  34.906  1.00  0.00     0.023 A 
ATOM     91  C   UNL A   1      45.910  28.688  34.644  1.00  0.00     0.012 A 
ATOM     92  C   UNL A   1      44.339  27.234  35.800  1.00  0.00     0.148 A 
ATOM     93  C   UNL A   1      46.979  28.011  35.231  1.00  0.00     0.002 A 
ATOM     94  C   UNL A   1      45.409  26.593  36.416  1.00  0.00     0.091 A 
ATOM     95  F   UNL A   1      43.071  26.857  36.021  1.00  0.00    -0.205 F 
ATOM     96  C   UNL A   1      46.729  26.973  36.125  1.00  0.00     0.022 A 
BRANCH  94  97
ATOM     97  S   UNL A   1      45.164  25.308  37.648  1.00  0.00     0.127 S 
ATOM     98  O   UNL A   1      44.465  24.282  36.876  1.00  0.00    -0.237 OA
ATOM     99  O   UNL A   1      46.537  24.960  38.020  1.00  0.00    -0.237 OA
ATOM    100  O   UNL A   1      44.396  25.930  38.717  1.00  0.00    -0.744 OA
ENDBRANCH  94  97
ENDBRANCH  67  90
ENDBRANCH  41  42
ENDBRANCH  33  36
ENDBRANCH  31  32
ENDBRANCH  30  31
ENDBRANCH  29  30
ENDBRANCH   1  29
TORSDOF 19
ENDMDL
