MODEL 1
REMARK VINA RESULT:     -11.3      0.000      0.000
REMARK SMILES Cc1cc(C(=O)N[C@H](C(=O)NCCCCCCNC(=O)c2ccc(-c3c4nc(c(-c5cccc(S(=O)(=O)[O-])c5F)c5ccc([nH]5)c(-c5cccc(S(=O)(=O)[O-])c5F)c5nc(c(-c6cccc(S(=O)(=O)[O-])c6F)c6ccc3[nH]6)C=C5)C=C4)cc2)C(C)C)c(C)s1
REMARK SMILES IDX 15 1 14 2 13 3 12 4 11 5 9 6 10 7 8 9 7 10 5 11 6 12 4 14
REMARK SMILES IDX 1 15 2 16 3 17 89 18 87 19 88 20 84 21 85 22 86 23 16 24
REMARK SMILES IDX 17 25 18 26 19 27 20 29 21 30 22 31 83 32 23 33 82 34 24 35
REMARK SMILES IDX 25 36 26 37 76 38 27 39 81 40 75 41 77 42 28 43 80 44 74 45
REMARK SMILES IDX 73 46 29 48 61 49 41 50 60 51 42 52 45 53 59 54 78 55 43 56
REMARK SMILES IDX 44 57 58 59 79 60 46 61 30 62 31 63 39 64 32 65 34 66 40 67
REMARK SMILES IDX 33 68 35 69 36 70 37 71 38 72 62 73 63 74 71 75 64 76 66 77
REMARK SMILES IDX 72 78 65 79 67 80 68 81 69 82 70 83 47 84 48 85 56 86 49 87
REMARK SMILES IDX 51 88 57 89 50 90 52 91 53 92 54 93 55 94
REMARK H PARENT 11 8 7 13 18 28 77 47 45 58
REMARK Flexibility Score: inf
ROOT
ATOM      1  C   UNL A   1      35.722  20.300  24.980  1.00  0.00     0.002 C 
ENDROOT
BRANCH   1   2
ATOM      2  C   UNL A   1      34.305  20.741  25.355  1.00  0.00     0.002 C 
BRANCH   2   3
ATOM      3  C   UNL A   1      33.381  21.066  24.176  1.00  0.00     0.021 C 
BRANCH   3   4
ATOM      4  C   UNL A   1      32.076  21.766  24.551  1.00  0.00     0.116 C 
BRANCH   4   5
ATOM      5  N   UNL A   1      31.985  21.970  25.985  1.00  0.00    -0.354 N 
ATOM      6  C   UNL A   1      32.162  23.104  26.728  1.00  0.00     0.242 C 
ATOM      7  O   UNL A   1      32.273  22.939  27.945  1.00  0.00    -0.273 OA
ATOM      8  H   UNL A   1      31.760  21.165  26.505  1.00  0.00     0.163 HD
BRANCH   6   9
ATOM      9  C   UNL A   1      32.350  24.482  26.025  1.00  0.00     0.174 C 
BRANCH   9  10
ATOM     10  N   UNL A   1      31.699  25.533  26.824  1.00  0.00    -0.340 N 
ATOM     11  C   UNL A   1      31.393  26.859  26.634  1.00  0.00     0.253 C 
ATOM     12  O   UNL A   1      30.966  27.433  27.630  1.00  0.00    -0.269 OA
ATOM     13  H   UNL A   1      31.415  25.208  27.709  1.00  0.00     0.164 HD
BRANCH  11  14
ATOM     14  C   UNL A   1      31.513  27.533  25.330  1.00  0.00     0.053 A 
ATOM     15  C   UNL A   1      29.995  28.877  22.126  1.00  0.00     0.056 C 
ATOM     16  C   UNL A   1      30.866  28.460  23.258  1.00  0.00     0.003 A 
ATOM     17  C   UNL A   1      30.582  27.538  24.238  1.00  0.00     0.029 A 
ATOM     18  S   UNL A   1      32.413  29.117  23.474  1.00  0.00    -0.145 S 
ATOM     19  C   UNL A   1      32.637  28.278  24.961  1.00  0.00     0.014 A 
ATOM     20  C   UNL A   1      33.952  28.481  25.651  1.00  0.00     0.057 C 
ENDBRANCH  11  14
ENDBRANCH   9  10
BRANCH   9  21
ATOM     21  C   UNL A   1      33.754  24.897  25.502  1.00  0.00     0.015 C 
ATOM     22  C   UNL A   1      34.921  24.105  26.096  1.00  0.00     0.010 C 
ATOM     23  C   UNL A   1      33.808  24.767  23.971  1.00  0.00     0.010 C 
ENDBRANCH   9  21
ENDBRANCH   6   9
ENDBRANCH   4   5
ENDBRANCH   3   4
ENDBRANCH   2   3
ENDBRANCH   1   2
BRANCH   1  24
ATOM     24  C   UNL A   1      36.580  21.364  24.290  1.00  0.00     0.021 C 
BRANCH  24  25
ATOM     25  C   UNL A   1      37.675  21.982  25.155  1.00  0.00     0.116 C 
BRANCH  25  26
ATOM     26  N   UNL A   1      38.567  20.989  25.733  1.00  0.00    -0.352 N 
ATOM     27  C   UNL A   1      39.714  21.180  26.463  1.00  0.00     0.251 C 
ATOM     28  H   UNL A   1      38.313  20.050  25.578  1.00  0.00     0.163 HD
ATOM     29  O   UNL A   1      40.421  20.220  26.761  1.00  0.00    -0.269 OA
BRANCH  27  30
ATOM     30  C   UNL A   1      40.111  22.547  26.867  1.00  0.00     0.039 A 
ATOM     31  C   UNL A   1      41.037  22.702  27.904  1.00  0.00     0.014 A 
ATOM     32  C   UNL A   1      39.580  23.669  26.225  1.00  0.00     0.014 A 
ATOM     33  C   UNL A   1      41.472  23.982  28.257  1.00  0.00     0.010 A 
ATOM     34  C   UNL A   1      40.066  24.938  26.536  1.00  0.00     0.010 A 
ATOM     35  C   UNL A   1      41.013  25.108  27.557  1.00  0.00    -0.014 A 
BRANCH  35  36
ATOM     36  C   UNL A   1      41.517  26.470  27.870  1.00  0.00     0.031 A 
ATOM     37  C   UNL A   1      42.937  26.847  27.547  1.00  0.00     0.074 A 
ATOM     38  C   UNL A   1      40.722  27.340  28.525  1.00  0.00     0.049 A 
ATOM     39  N   UNL A   1      43.571  27.964  27.799  1.00  0.00    -0.248 NA
ATOM     40  C   UNL A   1      43.761  25.829  26.875  1.00  0.00     0.031 C 
ATOM     41  C   UNL A   1      39.351  27.068  28.965  1.00  0.00     0.029 A 
ATOM     42  N   UNL A   1      40.961  28.620  28.961  1.00  0.00    -0.354 N 
ATOM     43  C   UNL A   1      44.874  27.770  27.353  1.00  0.00     0.074 A 
ATOM     44  C   UNL A   1      44.948  26.419  26.842  1.00  0.00     0.031 C 
ATOM     45  C   UNL A   1      38.873  28.147  29.607  1.00  0.00     0.029 A 
ATOM     46  C   UNL A   1      39.907  29.176  29.646  1.00  0.00     0.049 A 
ATOM     47  H   UNL A   1      41.810  29.094  28.800  1.00  0.00     0.167 HD
ATOM     48  C   UNL A   1      45.906  28.647  27.338  1.00  0.00     0.034 A 
ATOM     49  C   UNL A   1      39.786  30.379  30.242  1.00  0.00     0.034 A 
ATOM     50  C   UNL A   1      45.816  30.006  27.798  1.00  0.00     0.049 A 
ATOM     51  C   UNL A   1      40.932  31.351  30.169  1.00  0.00     0.074 A 
ATOM     52  C   UNL A   1      46.778  30.999  27.743  1.00  0.00     0.029 A 
ATOM     53  N   UNL A   1      44.699  30.566  28.399  1.00  0.00    -0.354 N 
ATOM     54  N   UNL A   1      42.103  31.205  29.596  1.00  0.00    -0.248 NA
ATOM     55  C   UNL A   1      40.728  32.668  30.790  1.00  0.00     0.031 C 
ATOM     56  C   UNL A   1      46.248  32.156  28.324  1.00  0.00     0.029 A 
ATOM     57  C   UNL A   1      44.949  31.888  28.725  1.00  0.00     0.049 A 
ATOM     58  H   UNL A   1      43.852  30.093  28.570  1.00  0.00     0.167 HD
ATOM     59  C   UNL A   1      42.760  32.419  29.758  1.00  0.00     0.074 A 
ATOM     60  C   UNL A   1      41.849  33.298  30.462  1.00  0.00     0.031 C 
ATOM     61  C   UNL A   1      44.011  32.770  29.372  1.00  0.00     0.034 A 
BRANCH  48  62
ATOM     62  C   UNL A   1      47.210  28.181  26.746  1.00  0.00     0.023 A 
ATOM     63  C   UNL A   1      48.275  27.841  27.606  1.00  0.00     0.012 A 
ATOM     64  C   UNL A   1      47.367  28.023  25.355  1.00  0.00     0.148 A 
ATOM     65  C   UNL A   1      49.486  27.382  27.090  1.00  0.00     0.002 A 
ATOM     66  C   UNL A   1      48.564  27.525  24.851  1.00  0.00     0.091 A 
ATOM     67  F   UNL A   1      46.352  28.372  24.553  1.00  0.00    -0.205 F 
ATOM     68  C   UNL A   1      49.627  27.216  25.716  1.00  0.00     0.022 A 
BRANCH  66  69
ATOM     69  S   UNL A   1      48.818  27.203  23.102  1.00  0.00     0.127 S 
ATOM     70  O   UNL A   1      48.103  28.321  22.490  1.00  0.00    -0.237 OA
ATOM     71  O   UNL A   1      50.274  27.272  22.983  1.00  0.00    -0.237 OA
ATOM     72  O   UNL A   1      48.252  25.885  22.852  1.00  0.00    -0.744 OA
ENDBRANCH  66  69
ENDBRANCH  48  62
BRANCH  49  73
ATOM     73  C   UNL A   1      38.501  30.761  30.893  1.00  0.00     0.023 A 
ATOM     74  C   UNL A   1      38.315  30.486  32.262  1.00  0.00     0.012 A 
ATOM     75  C   UNL A   1      37.479  31.415  30.178  1.00  0.00     0.148 A 
ATOM     76  C   UNL A   1      37.122  30.827  32.901  1.00  0.00     0.002 A 
ATOM     77  C   UNL A   1      36.314  31.801  30.833  1.00  0.00     0.091 A 
ATOM     78  F   UNL A   1      37.669  31.655  28.873  1.00  0.00    -0.205 F 
ATOM     79  C   UNL A   1      36.127  31.494  32.190  1.00  0.00     0.022 A 
BRANCH  77  80
ATOM     80  S   UNL A   1      35.037  32.774  30.029  1.00  0.00     0.127 S 
ATOM     81  O   UNL A   1      34.521  31.831  29.039  1.00  0.00    -0.237 OA
ATOM     82  O   UNL A   1      34.128  33.062  31.138  1.00  0.00    -0.237 OA
ATOM     83  O   UNL A   1      35.719  33.945  29.495  1.00  0.00    -0.744 OA
ENDBRANCH  77  80
ENDBRANCH  49  73
BRANCH  61  84
ATOM     84  C   UNL A   1      44.468  34.174  29.671  1.00  0.00     0.023 A 
ATOM     85  C   UNL A   1      45.185  34.437  30.854  1.00  0.00     0.012 A 
ATOM     86  C   UNL A   1      44.256  35.213  28.743  1.00  0.00     0.148 A 
ATOM     87  C   UNL A   1      45.659  35.720  31.124  1.00  0.00     0.002 A 
ATOM     88  C   UNL A   1      44.771  36.479  28.999  1.00  0.00     0.091 A 
ATOM     89  F   UNL A   1      43.554  34.948  27.633  1.00  0.00    -0.205 F 
ATOM     90  C   UNL A   1      45.464  36.737  30.193  1.00  0.00     0.022 A 
BRANCH  88  91
ATOM     91  S   UNL A   1      44.648  37.823  27.812  1.00  0.00     0.127 S 
ATOM     92  O   UNL A   1      45.901  37.681  27.071  1.00  0.00    -0.237 OA
ATOM     93  O   UNL A   1      43.448  37.464  27.056  1.00  0.00    -0.237 OA
ATOM     94  O   UNL A   1      44.521  39.041  28.600  1.00  0.00    -0.744 OA
ENDBRANCH  88  91
ENDBRANCH  61  84
ENDBRANCH  35  36
ENDBRANCH  27  30
ENDBRANCH  25  26
ENDBRANCH  24  25
ENDBRANCH   1  24
TORSDOF 19
ENDMDL
MODEL 2
REMARK VINA RESULT:     -11.3      1.202      2.565
REMARK SMILES Cc1cc(C(=O)N[C@H](C(=O)NCCCCCCNC(=O)c2ccc(-c3c4nc(c(-c5cccc(S(=O)(=O)[O-])c5F)c5ccc([nH]5)c(-c5cccc(S(=O)(=O)[O-])c5F)c5nc(c(-c6cccc(S(=O)(=O)[O-])c6F)c6ccc3[nH]6)C=C5)C=C4)cc2)C(C)C)c(C)s1
REMARK SMILES IDX 15 1 14 2 13 3 12 4 11 5 9 6 10 7 8 9 7 10 5 11 6 12 4 14
REMARK SMILES IDX 1 15 2 16 3 17 89 18 87 19 88 20 84 21 85 22 86 23 16 24
REMARK SMILES IDX 17 25 18 26 19 27 20 29 21 30 22 31 83 32 23 33 82 34 24 35
REMARK SMILES IDX 25 36 26 37 76 38 27 39 81 40 75 41 77 42 28 43 80 44 74 45
REMARK SMILES IDX 73 46 29 48 61 49 41 50 60 51 42 52 45 53 59 54 78 55 43 56
REMARK SMILES IDX 44 57 58 59 79 60 46 61 30 62 31 63 39 64 32 65 34 66 40 67
REMARK SMILES IDX 33 68 35 69 36 70 37 71 38 72 62 73 63 74 71 75 64 76 66 77
REMARK SMILES IDX 72 78 65 79 67 80 68 81 69 82 70 83 47 84 48 85 56 86 49 87
REMARK SMILES IDX 51 88 57 89 50 90 52 91 53 92 54 93 55 94
REMARK H PARENT 11 8 7 13 18 28 77 47 45 58
REMARK Flexibility Score: inf
ROOT
ATOM      1  C   UNL A   1      35.967  22.156  24.231  1.00  0.00     0.002 C 
ENDROOT
BRANCH   1   2
ATOM      2  C   UNL A   1      36.182  23.645  24.509  1.00  0.00     0.002 C 
BRANCH   2   3
ATOM      3  C   UNL A   1      35.204  24.280  25.503  1.00  0.00     0.021 C 
BRANCH   3   4
ATOM      4  C   UNL A   1      34.292  25.355  24.916  1.00  0.00     0.116 C 
BRANCH   4   5
ATOM      5  N   UNL A   1      33.984  26.375  25.903  1.00  0.00    -0.354 N 
ATOM      6  C   UNL A   1      32.846  27.109  26.088  1.00  0.00     0.242 C 
ATOM      7  O   UNL A   1      32.948  28.080  26.841  1.00  0.00    -0.273 OA
ATOM      8  H   UNL A   1      34.710  26.569  26.539  1.00  0.00     0.163 HD
BRANCH   6   9
ATOM      9  C   UNL A   1      31.562  26.786  25.268  1.00  0.00     0.174 C 
BRANCH   9  10
ATOM     10  N   UNL A   1      30.621  26.025  26.107  1.00  0.00    -0.340 N 
ATOM     11  C   UNL A   1      30.357  24.694  26.321  1.00  0.00     0.253 C 
ATOM     12  O   UNL A   1      29.369  24.474  27.013  1.00  0.00    -0.269 OA
ATOM     13  H   UNL A   1      30.042  26.611  26.645  1.00  0.00     0.164 HD
BRANCH  11  14
ATOM     14  C   UNL A   1      31.215  23.611  25.811  1.00  0.00     0.053 A 
ATOM     15  C   UNL A   1      33.388  20.551  26.350  1.00  0.00     0.056 C 
ATOM     16  C   UNL A   1      32.608  21.706  25.828  1.00  0.00     0.003 A 
ATOM     17  C   UNL A   1      32.144  22.791  26.534  1.00  0.00     0.029 A 
ATOM     18  S   UNL A   1      32.183  21.820  24.192  1.00  0.00    -0.145 S 
ATOM     19  C   UNL A   1      31.252  23.243  24.462  1.00  0.00     0.014 A 
ATOM     20  C   UNL A   1      30.602  23.855  23.258  1.00  0.00     0.057 C 
ENDBRANCH  11  14
ENDBRANCH   9  10
BRANCH   9  21
ATOM     21  C   UNL A   1      30.869  27.907  24.443  1.00  0.00     0.015 C 
ATOM     22  C   UNL A   1      31.733  28.517  23.336  1.00  0.00     0.010 C 
ATOM     23  C   UNL A   1      29.573  27.376  23.810  1.00  0.00     0.010 C 
ENDBRANCH   9  21
ENDBRANCH   6   9
ENDBRANCH   4   5
ENDBRANCH   3   4
ENDBRANCH   2   3
ENDBRANCH   1   2
BRANCH   1  24
ATOM     24  C   UNL A   1      36.868  21.202  25.020  1.00  0.00     0.021 C 
BRANCH  24  25
ATOM     25  C   UNL A   1      38.278  21.715  25.297  1.00  0.00     0.116 C 
BRANCH  25  26
ATOM     26  N   UNL A   1      39.085  20.767  26.050  1.00  0.00    -0.352 N 
ATOM     27  C   UNL A   1      40.142  21.012  26.892  1.00  0.00     0.251 C 
ATOM     28  H   UNL A   1      38.841  19.820  25.939  1.00  0.00     0.163 HD
ATOM     29  O   UNL A   1      40.798  20.076  27.344  1.00  0.00    -0.269 OA
BRANCH  27  30
ATOM     30  C   UNL A   1      40.505  22.405  27.235  1.00  0.00     0.039 A 
ATOM     31  C   UNL A   1      41.437  22.629  28.252  1.00  0.00     0.014 A 
ATOM     32  C   UNL A   1      39.934  23.485  26.554  1.00  0.00     0.014 A 
ATOM     33  C   UNL A   1      41.840  23.934  28.547  1.00  0.00     0.010 A 
ATOM     34  C   UNL A   1      40.387  24.778  26.805  1.00  0.00     0.010 A 
ATOM     35  C   UNL A   1      41.341  25.017  27.806  1.00  0.00    -0.014 A 
BRANCH  35  36
ATOM     36  C   UNL A   1      41.809  26.405  28.056  1.00  0.00     0.031 A 
ATOM     37  C   UNL A   1      43.211  26.810  27.689  1.00  0.00     0.074 A 
ATOM     38  C   UNL A   1      41.001  27.276  28.693  1.00  0.00     0.049 A 
ATOM     39  N   UNL A   1      43.816  27.954  27.885  1.00  0.00    -0.248 NA
ATOM     40  C   UNL A   1      44.053  25.791  27.041  1.00  0.00     0.031 C 
ATOM     41  C   UNL A   1      39.648  26.981  29.171  1.00  0.00     0.029 A 
ATOM     42  N   UNL A   1      41.210  28.578  29.075  1.00  0.00    -0.354 N 
ATOM     43  C   UNL A   1      45.115  27.781  27.420  1.00  0.00     0.074 A 
ATOM     44  C   UNL A   1      45.220  26.414  26.961  1.00  0.00     0.031 C 
ATOM     45  C   UNL A   1      39.150  28.069  29.780  1.00  0.00     0.029 A 
ATOM     46  C   UNL A   1      40.153  29.130  29.758  1.00  0.00     0.049 A 
ATOM     47  H   UNL A   1      42.041  29.070  28.878  1.00  0.00     0.167 HD
ATOM     48  C   UNL A   1      46.119  28.687  27.350  1.00  0.00     0.034 A 
ATOM     49  C   UNL A   1      40.007  30.351  30.310  1.00  0.00     0.034 A 
ATOM     50  C   UNL A   1      45.997  30.060  27.760  1.00  0.00     0.049 A 
ATOM     51  C   UNL A   1      41.122  31.353  30.176  1.00  0.00     0.074 A 
ATOM     52  C   UNL A   1      46.928  31.078  27.647  1.00  0.00     0.029 A 
ATOM     53  N   UNL A   1      44.876  30.610  28.361  1.00  0.00    -0.354 N 
ATOM     54  N   UNL A   1      42.285  31.219  29.586  1.00  0.00    -0.248 NA
ATOM     55  C   UNL A   1      40.890  32.687  30.749  1.00  0.00     0.031 C 
ATOM     56  C   UNL A   1      46.375  32.240  28.193  1.00  0.00     0.029 A 
ATOM     57  C   UNL A   1      45.092  31.950  28.630  1.00  0.00     0.049 A 
ATOM     58  H   UNL A   1      44.047  30.119  28.567  1.00  0.00     0.167 HD
ATOM     59  C   UNL A   1      42.908  32.457  29.687  1.00  0.00     0.074 A 
ATOM     60  C   UNL A   1      41.985  33.335  30.375  1.00  0.00     0.031 C 
ATOM     61  C   UNL A   1      44.141  32.829  29.262  1.00  0.00     0.034 A 
BRANCH  48  62
ATOM     62  C   UNL A   1      47.426  28.237  26.750  1.00  0.00     0.023 A 
ATOM     63  C   UNL A   1      48.517  27.962  27.601  1.00  0.00     0.012 A 
ATOM     64  C   UNL A   1      47.560  28.029  25.364  1.00  0.00     0.148 A 
ATOM     65  C   UNL A   1      49.731  27.519  27.078  1.00  0.00     0.002 A 
ATOM     66  C   UNL A   1      48.762  27.547  24.855  1.00  0.00     0.091 A 
ATOM     67  F   UNL A   1      46.520  28.317  24.569  1.00  0.00    -0.205 F 
ATOM     68  C   UNL A   1      49.850  27.303  25.709  1.00  0.00     0.022 A 
BRANCH  66  69
ATOM     69  S   UNL A   1      48.991  27.164  23.115  1.00  0.00     0.127 S 
ATOM     70  O   UNL A   1      48.408  28.342  22.475  1.00  0.00    -0.237 OA
ATOM     71  O   UNL A   1      50.447  27.071  23.008  1.00  0.00    -0.237 OA
ATOM     72  O   UNL A   1      48.286  25.911  22.884  1.00  0.00    -0.744 OA
ENDBRANCH  66  69
ENDBRANCH  48  62
BRANCH  49  73
ATOM     73  C   UNL A   1      38.724  30.721  30.972  1.00  0.00     0.023 A 
ATOM     74  C   UNL A   1      38.573  30.493  32.354  1.00  0.00     0.012 A 
ATOM     75  C   UNL A   1      37.669  31.316  30.253  1.00  0.00     0.148 A 
ATOM     76  C   UNL A   1      37.383  30.824  33.003  1.00  0.00     0.002 A 
ATOM     77  C   UNL A   1      36.506  31.692  30.917  1.00  0.00     0.091 A 
ATOM     78  F   UNL A   1      37.827  31.511  28.937  1.00  0.00    -0.205 F 
ATOM     79  C   UNL A   1      36.355  31.433  32.288  1.00  0.00     0.022 A 
BRANCH  77  80
ATOM     80  S   UNL A   1      35.186  32.596  30.102  1.00  0.00     0.127 S 
ATOM     81  O   UNL A   1      35.902  33.746  29.557  1.00  0.00    -0.237 OA
ATOM     82  O   UNL A   1      34.724  31.629  29.106  1.00  0.00    -0.237 OA
ATOM     83  O   UNL A   1      34.213  32.889  31.146  1.00  0.00    -0.744 OA
ENDBRANCH  77  80
ENDBRANCH  49  73
BRANCH  61  84
ATOM     84  C   UNL A   1      44.561  34.256  29.497  1.00  0.00     0.023 A 
ATOM     85  C   UNL A   1      45.153  34.617  30.723  1.00  0.00     0.012 A 
ATOM     86  C   UNL A   1      44.441  35.220  28.476  1.00  0.00     0.148 A 
ATOM     87  C   UNL A   1      45.594  35.922  30.940  1.00  0.00     0.002 A 
ATOM     88  C   UNL A   1      44.924  36.507  28.685  1.00  0.00     0.091 A 
ATOM     89  F   UNL A   1      43.856  34.863  27.324  1.00  0.00    -0.205 F 
ATOM     90  C   UNL A   1      45.491  36.862  29.919  1.00  0.00     0.022 A 
BRANCH  88  91
ATOM     91  S   UNL A   1      44.918  37.755  27.392  1.00  0.00     0.127 S 
ATOM     92  O   UNL A   1      45.344  38.945  28.126  1.00  0.00    -0.237 OA
ATOM     93  O   UNL A   1      45.907  37.233  26.448  1.00  0.00    -0.237 OA
ATOM     94  O   UNL A   1      43.556  37.791  26.877  1.00  0.00    -0.744 OA
ENDBRANCH  88  91
ENDBRANCH  61  84
ENDBRANCH  35  36
ENDBRANCH  27  30
ENDBRANCH  25  26
ENDBRANCH  24  25
ENDBRANCH   1  24
TORSDOF 19
ENDMDL
MODEL 3
REMARK VINA RESULT:     -11.2      5.132     10.236
REMARK SMILES Cc1cc(C(=O)N[C@H](C(=O)NCCCCCCNC(=O)c2ccc(-c3c4nc(c(-c5cccc(S(=O)(=O)[O-])c5F)c5ccc([nH]5)c(-c5cccc(S(=O)(=O)[O-])c5F)c5nc(c(-c6cccc(S(=O)(=O)[O-])c6F)c6ccc3[nH]6)C=C5)C=C4)cc2)C(C)C)c(C)s1
REMARK SMILES IDX 15 1 14 2 13 3 12 4 11 5 9 6 10 7 8 9 7 10 5 11 6 12 4 14
REMARK SMILES IDX 1 15 2 16 3 17 89 18 87 19 88 20 84 21 85 22 86 23 16 24
REMARK SMILES IDX 17 25 18 26 19 27 20 29 21 30 22 31 83 32 23 33 82 34 24 35
REMARK SMILES IDX 25 36 26 37 76 38 27 39 81 40 75 41 77 42 28 43 80 44 74 45
REMARK SMILES IDX 73 46 29 48 61 49 41 50 60 51 42 52 45 53 59 54 78 55 43 56
REMARK SMILES IDX 44 57 58 59 79 60 46 61 30 62 31 63 39 64 32 65 34 66 40 67
REMARK SMILES IDX 33 68 35 69 36 70 37 71 38 72 62 73 63 74 71 75 64 76 66 77
REMARK SMILES IDX 72 78 65 79 67 80 68 81 69 82 70 83 47 84 48 85 56 86 49 87
REMARK SMILES IDX 51 88 57 89 50 90 52 91 53 92 54 93 55 94
REMARK H PARENT 11 8 7 13 18 28 77 47 45 58
REMARK Flexibility Score: inf
ROOT
ATOM      1  C   UNL A   1      30.971  29.652  24.195  1.00  0.00     0.002 C 
ENDROOT
BRANCH   1   2
ATOM      2  C   UNL A   1      30.639  28.461  23.294  1.00  0.00     0.002 C 
BRANCH   2   3
ATOM      3  C   UNL A   1      30.261  27.167  24.023  1.00  0.00     0.021 C 
BRANCH   3   4
ATOM      4  C   UNL A   1      30.552  25.881  23.252  1.00  0.00     0.116 C 
BRANCH   4   5
ATOM      5  N   UNL A   1      31.513  26.114  22.190  1.00  0.00    -0.354 N 
ATOM      6  C   UNL A   1      32.866  25.925  22.168  1.00  0.00     0.242 C 
ATOM      7  O   UNL A   1      33.468  26.441  21.223  1.00  0.00    -0.273 OA
ATOM      8  H   UNL A   1      31.130  26.463  21.353  1.00  0.00     0.163 HD
BRANCH   6   9
ATOM      9  C   UNL A   1      33.580  25.217  23.359  1.00  0.00     0.174 C 
BRANCH   9  10
ATOM     10  N   UNL A   1      34.646  24.342  22.842  1.00  0.00    -0.340 N 
ATOM     11  C   UNL A   1      35.215  23.156  23.237  1.00  0.00     0.253 C 
ATOM     12  O   UNL A   1      36.203  22.823  22.590  1.00  0.00    -0.269 OA
ATOM     13  H   UNL A   1      35.049  24.692  22.015  1.00  0.00     0.164 HD
BRANCH  11  14
ATOM     14  C   UNL A   1      34.661  22.315  24.311  1.00  0.00     0.053 A 
ATOM     15  C   UNL A   1      32.801  19.234  25.504  1.00  0.00     0.056 C 
ATOM     16  C   UNL A   1      33.550  20.510  25.350  1.00  0.00     0.003 A 
ATOM     17  C   UNL A   1      33.676  21.277  24.215  1.00  0.00     0.029 A 
ATOM     18  S   UNL A   1      34.382  21.210  26.649  1.00  0.00    -0.145 S 
ATOM     19  C   UNL A   1      35.030  22.455  25.652  1.00  0.00     0.014 A 
ATOM     20  C   UNL A   1      35.903  23.468  26.331  1.00  0.00     0.057 C 
ENDBRANCH  11  14
ENDBRANCH   9  10
BRANCH   9  21
ATOM     21  C   UNL A   1      34.021  26.045  24.598  1.00  0.00     0.015 C 
ATOM     22  C   UNL A   1      34.058  27.559  24.378  1.00  0.00     0.010 C 
ATOM     23  C   UNL A   1      33.094  25.750  25.789  1.00  0.00     0.010 C 
ENDBRANCH   9  21
ENDBRANCH   6   9
ENDBRANCH   4   5
ENDBRANCH   3   4
ENDBRANCH   2   3
ENDBRANCH   1   2
BRANCH   1  24
ATOM     24  C   UNL A   1      31.315  29.305  25.645  1.00  0.00     0.021 C 
BRANCH  24  25
ATOM     25  C   UNL A   1      32.596  29.935  26.182  1.00  0.00     0.116 C 
BRANCH  25  26
ATOM     26  N   UNL A   1      32.445  31.350  26.487  1.00  0.00    -0.352 N 
ATOM     27  C   UNL A   1      33.218  32.145  27.297  1.00  0.00     0.251 C 
ATOM     28  H   UNL A   1      31.684  31.797  26.052  1.00  0.00     0.163 HD
ATOM     29  O   UNL A   1      32.865  33.295  27.547  1.00  0.00    -0.269 OA
BRANCH  27  30
ATOM     30  C   UNL A   1      34.462  31.606  27.890  1.00  0.00     0.039 A 
ATOM     31  C   UNL A   1      35.562  32.456  28.038  1.00  0.00     0.014 A 
ATOM     32  C   UNL A   1      34.544  30.273  28.302  1.00  0.00     0.014 A 
ATOM     33  C   UNL A   1      36.724  31.983  28.653  1.00  0.00     0.010 A 
ATOM     34  C   UNL A   1      35.679  29.824  28.973  1.00  0.00     0.010 A 
ATOM     35  C   UNL A   1      36.782  30.673  29.153  1.00  0.00    -0.014 A 
BRANCH  35  36
ATOM     36  C   UNL A   1      37.982  30.173  29.872  1.00  0.00     0.031 A 
ATOM     37  C   UNL A   1      38.291  30.661  31.262  1.00  0.00     0.074 A 
ATOM     38  C   UNL A   1      38.840  29.347  29.242  1.00  0.00     0.049 A 
ATOM     39  N   UNL A   1      39.320  30.385  32.022  1.00  0.00    -0.248 NA
ATOM     40  C   UNL A   1      37.334  31.600  31.868  1.00  0.00     0.031 C 
ATOM     41  C   UNL A   1      38.694  28.864  27.867  1.00  0.00     0.029 A 
ATOM     42  N   UNL A   1      40.022  28.789  29.665  1.00  0.00    -0.354 N 
ATOM     43  C   UNL A   1      39.154  31.143  33.176  1.00  0.00     0.074 A 
ATOM     44  C   UNL A   1      37.942  31.913  33.004  1.00  0.00     0.031 C 
ATOM     45  C   UNL A   1      39.744  28.083  27.561  1.00  0.00     0.029 A 
ATOM     46  C   UNL A   1      40.648  28.029  28.706  1.00  0.00     0.049 A 
ATOM     47  H   UNL A   1      40.387  28.923  30.570  1.00  0.00     0.167 HD
ATOM     48  C   UNL A   1      39.922  31.171  34.291  1.00  0.00     0.034 A 
ATOM     49  C   UNL A   1      41.821  27.366  28.741  1.00  0.00     0.034 A 
ATOM     50  C   UNL A   1      41.098  30.366  34.481  1.00  0.00     0.049 A 
ATOM     51  C   UNL A   1      42.630  27.376  30.010  1.00  0.00     0.074 A 
ATOM     52  C   UNL A   1      41.893  30.257  35.609  1.00  0.00     0.029 A 
ATOM     53  N   UNL A   1      41.650  29.532  33.521  1.00  0.00    -0.354 N 
ATOM     54  N   UNL A   1      42.370  27.970  31.150  1.00  0.00    -0.248 NA
ATOM     55  C   UNL A   1      43.875  26.593  30.012  1.00  0.00     0.031 C 
ATOM     56  C   UNL A   1      42.934  29.367  35.326  1.00  0.00     0.029 A 
ATOM     57  C   UNL A   1      42.778  28.910  34.027  1.00  0.00     0.049 A 
ATOM     58  H   UNL A   1      41.294  29.404  32.612  1.00  0.00     0.167 HD
ATOM     59  C   UNL A   1      43.398  27.607  32.012  1.00  0.00     0.074 A 
ATOM     60  C   UNL A   1      44.273  26.722  31.271  1.00  0.00     0.031 C 
ATOM     61  C   UNL A   1      43.607  27.984  33.297  1.00  0.00     0.034 A 
BRANCH  48  62
ATOM     62  C   UNL A   1      39.476  32.059  35.424  1.00  0.00     0.023 A 
ATOM     63  C   UNL A   1      38.639  31.528  36.428  1.00  0.00     0.012 A 
ATOM     64  C   UNL A   1      39.926  33.389  35.531  1.00  0.00     0.148 A 
ATOM     65  C   UNL A   1      38.231  32.316  37.502  1.00  0.00     0.002 A 
ATOM     66  C   UNL A   1      39.547  34.156  36.628  1.00  0.00     0.091 A 
ATOM     67  F   UNL A   1      40.702  33.882  34.556  1.00  0.00    -0.205 F 
ATOM     68  C   UNL A   1      38.691  33.625  37.607  1.00  0.00     0.022 A 
BRANCH  66  69
ATOM     69  S   UNL A   1      40.148  35.827  36.893  1.00  0.00     0.127 S 
ATOM     70  O   UNL A   1      39.534  36.162  38.176  1.00  0.00    -0.237 OA
ATOM     71  O   UNL A   1      41.597  35.631  36.944  1.00  0.00    -0.237 OA
ATOM     72  O   UNL A   1      39.683  36.606  35.753  1.00  0.00    -0.744 OA
ENDBRANCH  66  69
ENDBRANCH  48  62
BRANCH  49  73
ATOM     73  C   UNL A   1      42.263  26.570  27.561  1.00  0.00     0.023 A 
ATOM     74  C   UNL A   1      43.045  27.191  26.567  1.00  0.00     0.012 A 
ATOM     75  C   UNL A   1      41.938  25.206  27.429  1.00  0.00     0.148 A 
ATOM     76  C   UNL A   1      43.471  26.475  25.447  1.00  0.00     0.002 A 
ATOM     77  C   UNL A   1      42.411  24.486  26.337  1.00  0.00     0.091 A 
ATOM     78  F   UNL A   1      41.181  24.638  28.377  1.00  0.00    -0.205 F 
ATOM     79  C   UNL A   1      43.164  25.122  25.337  1.00  0.00     0.022 A 
BRANCH  77  80
ATOM     80  S   UNL A   1      42.172  22.713  26.181  1.00  0.00     0.127 S 
ATOM     81  O   UNL A   1      42.783  22.442  24.882  1.00  0.00    -0.237 OA
ATOM     82  O   UNL A   1      42.916  22.202  27.332  1.00  0.00    -0.237 OA
ATOM     83  O   UNL A   1      40.732  22.506  26.260  1.00  0.00    -0.744 OA
ENDBRANCH  77  80
ENDBRANCH  49  73
BRANCH  61  84
ATOM     84  C   UNL A   1      44.812  27.421  34.004  1.00  0.00     0.023 A 
ATOM     85  C   UNL A   1      46.037  28.115  33.956  1.00  0.00     0.012 A 
ATOM     86  C   UNL A   1      44.710  26.250  34.781  1.00  0.00     0.148 A 
ATOM     87  C   UNL A   1      47.150  27.636  34.645  1.00  0.00     0.002 A 
ATOM     88  C   UNL A   1      45.811  25.804  35.502  1.00  0.00     0.091 A 
ATOM     89  F   UNL A   1      43.541  25.593  34.799  1.00  0.00    -0.205 F 
ATOM     90  C   UNL A   1      47.034  26.489  35.427  1.00  0.00     0.022 A 
BRANCH  88  91
ATOM     91  S   UNL A   1      45.726  24.391  36.609  1.00  0.00     0.127 S 
ATOM     92  O   UNL A   1      46.975  23.696  36.301  1.00  0.00    -0.237 OA
ATOM     93  O   UNL A   1      45.690  25.027  37.926  1.00  0.00    -0.237 OA
ATOM     94  O   UNL A   1      44.508  23.677  36.251  1.00  0.00    -0.744 OA
ENDBRANCH  88  91
ENDBRANCH  61  84
ENDBRANCH  35  36
ENDBRANCH  27  30
ENDBRANCH  25  26
ENDBRANCH  24  25
ENDBRANCH   1  24
TORSDOF 19
ENDMDL
