MODEL 1
REMARK VINA RESULT:     -12.5      0.000      0.000
REMARK SMILES O=C1O[C@@H](c2ccc(O)c(O)c2)[C@H](C(=O)NCCCCCCNC(=O)c2ccc(-c3c4nc(c(-c5cccc(S(=O)(=O)[O-])c5F)c5ccc([nH]5)c(-c5cccc(S(=O)(=O)[O-])c5F)c5nc(c(-c6cccc(S(=O)(=O)[O-])c6F)c6ccc3[nH]6)C=C5)C=C4)cc2)/C1=C\c1ccc(O)c(O)c1
REMARK SMILES IDX 20 1 19 2 18 3 17 4 16 5 14 6 15 7 13 9 1 10 2 11 3 12 89 13
REMARK SMILES IDX 4 14 90 15 5 16 6 17 12 18 7 19 10 20 8 21 11 22 9 24 91 26
REMARK SMILES IDX 92 27 98 28 93 29 96 30 94 31 97 32 95 34 21 36 22 37 23 38
REMARK SMILES IDX 24 39 25 41 26 42 27 43 88 44 28 45 87 46 29 47 30 48 31 49
REMARK SMILES IDX 81 50 32 51 86 52 80 53 82 54 33 55 85 56 79 57 78 58 34 60
REMARK SMILES IDX 66 61 46 62 65 63 47 64 50 65 64 66 83 67 48 68 49 69 63 71
REMARK SMILES IDX 84 72 51 73 35 74 36 75 44 76 37 77 39 78 45 79 38 80 40 81
REMARK SMILES IDX 41 82 42 83 43 84 67 85 68 86 76 87 69 88 71 89 77 90 70 91
REMARK SMILES IDX 72 92 73 93 74 94 75 95 52 96 53 97 61 98 54 99 56 100
REMARK SMILES IDX 62 101 55 102 57 103 58 104 59 105 60 106
REMARK H PARENT 16 8 11 23 9 25 97 33 95 35 23 40 82 59 50 70
REMARK Flexibility Score: inf
ROOT
ATOM      1  C   UNL A   1      31.422  30.565  25.489  1.00  0.00     0.002 C 
ENDROOT
BRANCH   1   2
ATOM      2  C   UNL A   1      32.341  29.421  25.930  1.00  0.00     0.002 C 
BRANCH   2   3
ATOM      3  C   UNL A   1      31.634  28.254  26.620  1.00  0.00     0.021 C 
BRANCH   3   4
ATOM      4  C   UNL A   1      32.351  26.919  26.487  1.00  0.00     0.116 C 
BRANCH   4   5
ATOM      5  N   UNL A   1      31.530  25.786  26.858  1.00  0.00    -0.355 N 
ATOM      6  C   UNL A   1      31.725  24.446  26.673  1.00  0.00     0.231 C 
ATOM      7  O   UNL A   1      30.913  23.692  27.213  1.00  0.00    -0.274 OA
ATOM      8  H   UNL A   1      30.691  26.019  27.320  1.00  0.00     0.163 HD
BRANCH   6   9
ATOM      9  C   UNL A   1      32.840  23.939  25.748  1.00  0.00     0.161 C 
ATOM     10  O   UNL A   1      31.590  21.066  24.033  1.00  0.00    -0.247 OA
ATOM     11  C   UNL A   1      32.196  21.870  24.719  1.00  0.00     0.335 C 
ATOM     12  O   UNL A   1      32.949  21.569  25.804  1.00  0.00    -0.453 OA
ATOM     13  C   UNL A   1      32.260  23.327  24.516  1.00  0.00     0.054 C 
ATOM     14  C   UNL A   1      33.601  22.745  26.318  1.00  0.00     0.224 C 
ATOM     15  C   UNL A   1      31.846  23.860  23.357  1.00  0.00     0.020 C 
BRANCH  14  16
ATOM     16  C   UNL A   1      35.104  22.741  26.017  1.00  0.00    -0.002 A 
ATOM     17  C   UNL A   1      35.891  23.903  26.196  1.00  0.00     0.012 A 
ATOM     18  C   UNL A   1      35.764  21.558  25.652  1.00  0.00     0.057 A 
ATOM     19  C   UNL A   1      37.282  23.883  26.051  1.00  0.00     0.050 A 
ATOM     20  C   UNL A   1      37.145  21.552  25.481  1.00  0.00     0.157 A 
ATOM     21  C   UNL A   1      37.903  22.699  25.695  1.00  0.00     0.157 A 
BRANCH  20  22
ATOM     22  O   UNL A   1      37.765  20.391  25.119  1.00  0.00    -0.504 OA
ATOM     23  H   UNL A   1      38.344  20.379  24.382  1.00  0.00     0.293 HD
ENDBRANCH  20  22
BRANCH  21  24
ATOM     24  O   UNL A   1      39.258  22.610  25.548  1.00  0.00    -0.504 OA
ATOM     25  H   UNL A   1      39.623  22.004  24.935  1.00  0.00     0.293 HD
ENDBRANCH  21  24
ENDBRANCH  14  16
BRANCH  15  26
ATOM     26  C   UNL A   1      31.874  25.288  23.049  1.00  0.00    -0.021 A 
ATOM     27  C   UNL A   1      30.778  26.113  23.349  1.00  0.00     0.012 A 
ATOM     28  C   UNL A   1      33.026  25.843  22.482  1.00  0.00     0.058 A 
ATOM     29  C   UNL A   1      30.817  27.480  23.055  1.00  0.00     0.051 A 
ATOM     30  C   UNL A   1      33.059  27.202  22.204  1.00  0.00     0.157 A 
ATOM     31  C   UNL A   1      31.962  28.015  22.480  1.00  0.00     0.157 A 
BRANCH  30  32
ATOM     32  O   UNL A   1      34.186  27.745  21.654  1.00  0.00    -0.504 OA
ATOM     33  H   UNL A   1      34.646  27.284  20.980  1.00  0.00     0.293 HD
ENDBRANCH  30  32
BRANCH  31  34
ATOM     34  O   UNL A   1      32.061  29.344  22.171  1.00  0.00    -0.504 OA
ATOM     35  H   UNL A   1      32.826  29.826  22.417  1.00  0.00     0.293 HD
ENDBRANCH  31  34
ENDBRANCH  15  26
ENDBRANCH   6   9
ENDBRANCH   4   5
ENDBRANCH   3   4
ENDBRANCH   2   3
ENDBRANCH   1   2
BRANCH   1  36
ATOM     36  C   UNL A   1      31.248  31.694  26.509  1.00  0.00     0.021 C 
BRANCH  36  37
ATOM     37  C   UNL A   1      32.549  32.220  27.103  1.00  0.00     0.116 C 
BRANCH  37  38
ATOM     38  N   UNL A   1      32.458  33.629  27.449  1.00  0.00    -0.352 N 
ATOM     39  C   UNL A   1      33.180  34.339  28.377  1.00  0.00     0.251 C 
ATOM     40  H   UNL A   1      31.788  34.147  26.947  1.00  0.00     0.163 HD
ATOM     41  O   UNL A   1      32.837  35.476  28.684  1.00  0.00    -0.269 OA
BRANCH  39  42
ATOM     42  C   UNL A   1      34.361  33.717  29.010  1.00  0.00     0.039 A 
ATOM     43  C   UNL A   1      35.630  34.233  28.737  1.00  0.00     0.014 A 
ATOM     44  C   UNL A   1      34.212  32.631  29.876  1.00  0.00     0.014 A 
ATOM     45  C   UNL A   1      36.747  33.690  29.375  1.00  0.00     0.010 A 
ATOM     46  C   UNL A   1      35.315  32.147  30.572  1.00  0.00     0.010 A 
ATOM     47  C   UNL A   1      36.595  32.662  30.320  1.00  0.00    -0.014 A 
BRANCH  47  48
ATOM     48  C   UNL A   1      37.761  32.102  31.049  1.00  0.00     0.031 A 
ATOM     49  C   UNL A   1      38.533  30.949  30.463  1.00  0.00     0.074 A 
ATOM     50  C   UNL A   1      38.074  32.571  32.273  1.00  0.00     0.049 A 
ATOM     51  N   UNL A   1      39.525  30.274  30.980  1.00  0.00    -0.248 NA
ATOM     52  C   UNL A   1      38.115  30.474  29.133  1.00  0.00     0.031 C 
ATOM     53  C   UNL A   1      37.362  33.640  32.978  1.00  0.00     0.029 A 
ATOM     54  N   UNL A   1      39.055  32.190  33.154  1.00  0.00    -0.354 N 
ATOM     55  C   UNL A   1      39.825  29.276  30.062  1.00  0.00     0.074 A 
ATOM     56  C   UNL A   1      38.884  29.409  28.972  1.00  0.00     0.031 C 
ATOM     57  C   UNL A   1      37.933  33.831  34.178  1.00  0.00     0.029 A 
ATOM     58  C   UNL A   1      39.022  32.876  34.346  1.00  0.00     0.049 A 
ATOM     59  H   UNL A   1      39.720  31.492  32.952  1.00  0.00     0.167 HD
ATOM     60  C   UNL A   1      40.810  28.349  30.106  1.00  0.00     0.034 A 
ATOM     61  C   UNL A   1      39.775  32.740  35.456  1.00  0.00     0.034 A 
ATOM     62  C   UNL A   1      41.765  28.242  31.176  1.00  0.00     0.049 A 
ATOM     63  C   UNL A   1      40.874  31.712  35.473  1.00  0.00     0.074 A 
ATOM     64  C   UNL A   1      42.850  27.389  31.277  1.00  0.00     0.029 A 
ATOM     65  N   UNL A   1      41.745  29.002  32.334  1.00  0.00    -0.354 N 
ATOM     66  N   UNL A   1      41.230  30.868  34.535  1.00  0.00    -0.248 NA
ATOM     67  C   UNL A   1      41.699  31.641  36.688  1.00  0.00     0.031 C 
ATOM     68  C   UNL A   1      43.462  27.606  32.515  1.00  0.00     0.029 A 
ATOM     69  C   UNL A   1      42.789  28.630  33.163  1.00  0.00     0.049 A 
ATOM     70  H   UNL A   1      41.086  29.704  32.537  1.00  0.00     0.167 HD
ATOM     71  C   UNL A   1      42.345  30.200  35.027  1.00  0.00     0.074 A 
ATOM     72  C   UNL A   1      42.613  30.746  36.342  1.00  0.00     0.031 C 
ATOM     73  C   UNL A   1      43.076  29.217  34.446  1.00  0.00     0.034 A 
BRANCH  60  74
ATOM     74  C   UNL A   1      40.930  27.394  28.946  1.00  0.00     0.023 A 
ATOM     75  C   UNL A   1      40.099  26.256  28.885  1.00  0.00     0.012 A 
ATOM     76  C   UNL A   1      41.825  27.651  27.889  1.00  0.00     0.148 A 
ATOM     77  C   UNL A   1      40.184  25.369  27.813  1.00  0.00     0.002 A 
ATOM     78  C   UNL A   1      41.868  26.790  26.799  1.00  0.00     0.091 A 
ATOM     79  F   UNL A   1      42.621  28.726  27.973  1.00  0.00    -0.205 F 
ATOM     80  C   UNL A   1      41.061  25.642  26.766  1.00  0.00     0.022 A 
BRANCH  78  81
ATOM     81  S   UNL A   1      42.904  27.095  25.365  1.00  0.00     0.127 S 
ATOM     82  O   UNL A   1      44.210  27.319  25.986  1.00  0.00    -0.237 OA
ATOM     83  O   UNL A   1      42.787  25.837  24.629  1.00  0.00    -0.237 OA
ATOM     84  O   UNL A   1      42.331  28.251  24.690  1.00  0.00    -0.744 OA
ENDBRANCH  78  81
ENDBRANCH  60  74
BRANCH  61  85
ATOM     85  C   UNL A   1      39.544  33.629  36.629  1.00  0.00     0.023 A 
ATOM     86  C   UNL A   1      39.938  34.980  36.566  1.00  0.00     0.012 A 
ATOM     87  C   UNL A   1      38.926  33.147  37.799  1.00  0.00     0.148 A 
ATOM     88  C   UNL A   1      39.757  35.825  37.662  1.00  0.00     0.002 A 
ATOM     89  C   UNL A   1      38.697  34.008  38.865  1.00  0.00     0.091 A 
ATOM     90  F   UNL A   1      38.566  31.857  37.841  1.00  0.00    -0.205 F 
ATOM     91  C   UNL A   1      39.129  35.342  38.808  1.00  0.00     0.022 A 
BRANCH  89  92
ATOM     92  S   UNL A   1      37.780  33.508  40.326  1.00  0.00     0.127 S 
ATOM     93  O   UNL A   1      36.511  33.074  39.747  1.00  0.00    -0.237 OA
ATOM     94  O   UNL A   1      38.620  32.432  40.852  1.00  0.00    -0.237 OA
ATOM     95  O   UNL A   1      37.715  34.691  41.174  1.00  0.00    -0.744 OA
ENDBRANCH  89  92
ENDBRANCH  61  85
BRANCH  73  96
ATOM     96  C   UNL A   1      44.279  28.701  35.193  1.00  0.00     0.023 A 
ATOM     97  C   UNL A   1      45.549  29.272  34.977  1.00  0.00     0.012 A 
ATOM     98  C   UNL A   1      44.128  27.699  36.173  1.00  0.00     0.148 A 
ATOM     99  C   UNL A   1      46.657  28.827  35.699  1.00  0.00     0.002 A 
ATOM    100  C   UNL A   1      45.225  27.302  36.927  1.00  0.00     0.091 A 
ATOM    101  F   UNL A   1      42.914  27.158  36.352  1.00  0.00    -0.205 F 
ATOM    102  C   UNL A   1      46.492  27.854  36.681  1.00  0.00     0.022 A 
BRANCH 100 103
ATOM    103  S   UNL A   1      45.089  26.131  38.283  1.00  0.00     0.127 S 
ATOM    104  O   UNL A   1      44.662  24.919  37.586  1.00  0.00    -0.237 OA
ATOM    105  O   UNL A   1      46.459  26.092  38.794  1.00  0.00    -0.237 OA
ATOM    106  O   UNL A   1      44.114  26.694  39.206  1.00  0.00    -0.744 OA
ENDBRANCH 100 103
ENDBRANCH  73  96
ENDBRANCH  47  48
ENDBRANCH  39  42
ENDBRANCH  37  38
ENDBRANCH  36  37
ENDBRANCH   1  36
TORSDOF 22
ENDMDL
MODEL 2
REMARK VINA RESULT:     -12.5      5.984     10.882
REMARK SMILES O=C1O[C@@H](c2ccc(O)c(O)c2)[C@H](C(=O)NCCCCCCNC(=O)c2ccc(-c3c4nc(c(-c5cccc(S(=O)(=O)[O-])c5F)c5ccc([nH]5)c(-c5cccc(S(=O)(=O)[O-])c5F)c5nc(c(-c6cccc(S(=O)(=O)[O-])c6F)c6ccc3[nH]6)C=C5)C=C4)cc2)/C1=C\c1ccc(O)c(O)c1
REMARK SMILES IDX 20 1 19 2 18 3 17 4 16 5 14 6 15 7 13 9 1 10 2 11 3 12 89 13
REMARK SMILES IDX 4 14 90 15 5 16 6 17 12 18 7 19 10 20 8 21 11 22 9 24 91 26
REMARK SMILES IDX 92 27 98 28 93 29 96 30 94 31 97 32 95 34 21 36 22 37 23 38
REMARK SMILES IDX 24 39 25 41 26 42 27 43 88 44 28 45 87 46 29 47 30 48 31 49
REMARK SMILES IDX 81 50 32 51 86 52 80 53 82 54 33 55 85 56 79 57 78 58 34 60
REMARK SMILES IDX 66 61 46 62 65 63 47 64 50 65 64 66 83 67 48 68 49 69 63 71
REMARK SMILES IDX 84 72 51 73 35 74 36 75 44 76 37 77 39 78 45 79 38 80 40 81
REMARK SMILES IDX 41 82 42 83 43 84 67 85 68 86 76 87 69 88 71 89 77 90 70 91
REMARK SMILES IDX 72 92 73 93 74 94 75 95 52 96 53 97 61 98 54 99 56 100
REMARK SMILES IDX 62 101 55 102 57 103 58 104 59 105 60 106
REMARK H PARENT 16 8 11 23 9 25 97 33 95 35 23 40 82 59 50 70
REMARK Flexibility Score: inf
ROOT
ATOM      1  C   UNL A   1      36.912  20.443  24.663  1.00  0.00     0.002 C 
ENDROOT
BRANCH   1   2
ATOM      2  C   UNL A   1      37.388  21.899  24.618  1.00  0.00     0.002 C 
BRANCH   2   3
ATOM      3  C   UNL A   1      36.751  22.753  23.522  1.00  0.00     0.021 C 
BRANCH   3   4
ATOM      4  C   UNL A   1      36.054  24.008  24.029  1.00  0.00     0.116 C 
BRANCH   4   5
ATOM      5  N   UNL A   1      35.793  23.984  25.452  1.00  0.00    -0.355 N 
ATOM      6  C   UNL A   1      34.810  23.357  26.166  1.00  0.00     0.231 C 
ATOM      7  O   UNL A   1      34.907  23.405  27.394  1.00  0.00    -0.274 OA
ATOM      8  H   UNL A   1      36.427  24.505  25.997  1.00  0.00     0.163 HD
BRANCH   6   9
ATOM      9  C   UNL A   1      33.606  22.729  25.453  1.00  0.00     0.161 C 
ATOM     10  O   UNL A   1      30.784  23.058  27.619  1.00  0.00    -0.247 OA
ATOM     11  C   UNL A   1      31.702  22.681  26.913  1.00  0.00     0.335 C 
ATOM     12  O   UNL A   1      32.301  21.468  26.984  1.00  0.00    -0.453 OA
ATOM     13  C   UNL A   1      32.346  23.440  25.828  1.00  0.00     0.054 C 
ATOM     14  C   UNL A   1      33.282  21.319  25.941  1.00  0.00     0.224 C 
ATOM     15  C   UNL A   1      31.766  24.551  25.353  1.00  0.00     0.020 C 
BRANCH  14  16
ATOM     16  C   UNL A   1      32.809  20.356  24.846  1.00  0.00    -0.002 A 
ATOM     17  C   UNL A   1      32.448  20.826  23.561  1.00  0.00     0.012 A 
ATOM     18  C   UNL A   1      32.814  18.969  25.053  1.00  0.00     0.057 A 
ATOM     19  C   UNL A   1      32.138  19.952  22.514  1.00  0.00     0.050 A 
ATOM     20  C   UNL A   1      32.477  18.106  24.015  1.00  0.00     0.157 A 
ATOM     21  C   UNL A   1      32.158  18.589  22.750  1.00  0.00     0.157 A 
BRANCH  20  22
ATOM     22  O   UNL A   1      32.482  16.759  24.242  1.00  0.00    -0.504 OA
ATOM     23  H   UNL A   1      33.023  16.199  23.721  1.00  0.00     0.293 HD
ENDBRANCH  20  22
BRANCH  21  24
ATOM     24  O   UNL A   1      31.875  17.682  21.768  1.00  0.00    -0.504 OA
ATOM     25  H   UNL A   1      31.789  17.966  20.880  1.00  0.00     0.293 HD
ENDBRANCH  21  24
ENDBRANCH  14  16
BRANCH  15  26
ATOM     26  C   UNL A   1      32.315  25.373  24.276  1.00  0.00    -0.021 A 
ATOM     27  C   UNL A   1      32.923  26.609  24.548  1.00  0.00     0.012 A 
ATOM     28  C   UNL A   1      32.265  24.898  22.961  1.00  0.00     0.058 A 
ATOM     29  C   UNL A   1      33.450  27.385  23.511  1.00  0.00     0.051 A 
ATOM     30  C   UNL A   1      32.800  25.670  21.939  1.00  0.00     0.157 A 
ATOM     31  C   UNL A   1      33.381  26.907  22.208  1.00  0.00     0.157 A 
BRANCH  30  32
ATOM     32  O   UNL A   1      32.754  25.205  20.656  1.00  0.00    -0.504 OA
ATOM     33  H   UNL A   1      33.473  24.713  20.310  1.00  0.00     0.293 HD
ENDBRANCH  30  32
BRANCH  31  34
ATOM     34  O   UNL A   1      33.879  27.619  21.152  1.00  0.00    -0.504 OA
ATOM     35  H   UNL A   1      33.358  27.740  20.382  1.00  0.00     0.293 HD
ENDBRANCH  31  34
ENDBRANCH  15  26
ENDBRANCH   6   9
ENDBRANCH   4   5
ENDBRANCH   3   4
ENDBRANCH   2   3
ENDBRANCH   1   2
BRANCH   1  36
ATOM     36  C   UNL A   1      37.994  19.413  25.000  1.00  0.00     0.021 C 
BRANCH  36  37
ATOM     37  C   UNL A   1      39.014  19.876  26.032  1.00  0.00     0.116 C 
BRANCH  37  38
ATOM     38  N   UNL A   1      40.207  19.046  26.029  1.00  0.00    -0.352 N 
ATOM     39  C   UNL A   1      41.524  19.427  26.104  1.00  0.00     0.251 C 
ATOM     40  H   UNL A   1      40.049  18.077  25.967  1.00  0.00     0.163 HD
ATOM     41  O   UNL A   1      42.414  18.611  25.886  1.00  0.00    -0.269 OA
BRANCH  39  42
ATOM     42  C   UNL A   1      41.859  20.827  26.436  1.00  0.00     0.039 A 
ATOM     43  C   UNL A   1      42.234  21.146  27.743  1.00  0.00     0.014 A 
ATOM     44  C   UNL A   1      41.808  21.820  25.453  1.00  0.00     0.014 A 
ATOM     45  C   UNL A   1      42.607  22.455  28.052  1.00  0.00     0.010 A 
ATOM     46  C   UNL A   1      42.260  23.102  25.745  1.00  0.00     0.010 A 
ATOM     47  C   UNL A   1      42.652  23.438  27.049  1.00  0.00    -0.014 A 
BRANCH  47  48
ATOM     48  C   UNL A   1      43.094  24.824  27.343  1.00  0.00     0.031 A 
ATOM     49  C   UNL A   1      42.145  25.796  27.991  1.00  0.00     0.074 A 
ATOM     50  C   UNL A   1      44.317  25.234  26.951  1.00  0.00     0.049 A 
ATOM     51  N   UNL A   1      42.316  27.065  28.253  1.00  0.00    -0.248 NA
ATOM     52  C   UNL A   1      40.817  25.282  28.367  1.00  0.00     0.031 C 
ATOM     53  C   UNL A   1      45.305  24.407  26.254  1.00  0.00     0.029 A 
ATOM     54  N   UNL A   1      44.928  26.459  27.058  1.00  0.00    -0.354 N 
ATOM     55  C   UNL A   1      41.113  27.509  28.788  1.00  0.00     0.074 A 
ATOM     56  C   UNL A   1      40.206  26.382  28.777  1.00  0.00     0.031 C 
ATOM     57  C   UNL A   1      46.397  25.146  26.001  1.00  0.00     0.029 A 
ATOM     58  C   UNL A   1      46.175  26.505  26.479  1.00  0.00     0.049 A 
ATOM     59  H   UNL A   1      44.512  27.232  27.506  1.00  0.00     0.167 HD
ATOM     60  C   UNL A   1      40.798  28.733  29.270  1.00  0.00     0.034 A 
ATOM     61  C   UNL A   1      47.036  27.532  26.336  1.00  0.00     0.034 A 
ATOM     62  C   UNL A   1      41.713  29.841  29.311  1.00  0.00     0.049 A 
ATOM     63  C   UNL A   1      46.668  28.880  26.895  1.00  0.00     0.074 A 
ATOM     64  C   UNL A   1      41.516  31.099  29.851  1.00  0.00     0.029 A 
ATOM     65  N   UNL A   1      42.994  29.830  28.781  1.00  0.00    -0.354 N 
ATOM     66  N   UNL A   1      45.575  29.243  27.522  1.00  0.00    -0.248 NA
ATOM     67  C   UNL A   1      47.665  29.952  26.759  1.00  0.00     0.031 C 
ATOM     68  C   UNL A   1      42.664  31.862  29.613  1.00  0.00     0.029 A 
ATOM     69  C   UNL A   1      43.595  31.062  28.969  1.00  0.00     0.049 A 
ATOM     70  H   UNL A   1      43.414  29.058  28.337  1.00  0.00     0.167 HD
ATOM     71  C   UNL A   1      45.771  30.568  27.894  1.00  0.00     0.074 A 
ATOM     72  C   UNL A   1      47.093  30.940  27.433  1.00  0.00     0.031 C 
ATOM     73  C   UNL A   1      44.930  31.403  28.551  1.00  0.00     0.034 A 
BRANCH  60  74
ATOM     74  C   UNL A   1      39.411  28.934  29.826  1.00  0.00     0.023 A 
ATOM     75  C   UNL A   1      39.114  28.512  31.139  1.00  0.00     0.012 A 
ATOM     76  C   UNL A   1      38.418  29.587  29.070  1.00  0.00     0.148 A 
ATOM     77  C   UNL A   1      37.841  28.701  31.676  1.00  0.00     0.002 A 
ATOM     78  C   UNL A   1      37.167  29.818  29.631  1.00  0.00     0.091 A 
ATOM     79  F   UNL A   1      38.711  29.963  27.818  1.00  0.00    -0.205 F 
ATOM     80  C   UNL A   1      36.872  29.363  30.926  1.00  0.00     0.022 A 
BRANCH  78  81
ATOM     81  S   UNL A   1      35.878  30.732  28.779  1.00  0.00     0.127 S 
ATOM     82  O   UNL A   1      35.198  29.666  28.043  1.00  0.00    -0.237 OA
ATOM     83  O   UNL A   1      35.110  31.289  29.893  1.00  0.00    -0.237 OA
ATOM     84  O   UNL A   1      36.559  31.720  27.955  1.00  0.00    -0.744 OA
ENDBRANCH  78  81
ENDBRANCH  60  74
BRANCH  61  85
ATOM     85  C   UNL A   1      48.352  27.317  25.671  1.00  0.00     0.023 A 
ATOM     86  C   UNL A   1      49.466  26.932  26.443  1.00  0.00     0.012 A 
ATOM     87  C   UNL A   1      48.502  27.478  24.281  1.00  0.00     0.148 A 
ATOM     88  C   UNL A   1      50.715  26.751  25.847  1.00  0.00     0.002 A 
ATOM     89  C   UNL A   1      49.735  27.240  23.686  1.00  0.00     0.091 A 
ATOM     90  F   UNL A   1      47.432  27.853  23.567  1.00  0.00    -0.205 F 
ATOM     91  C   UNL A   1      50.848  26.896  24.468  1.00  0.00     0.022 A 
BRANCH  89  92
ATOM     92  S   UNL A   1      49.967  27.277  21.906  1.00  0.00     0.127 S 
ATOM     93  O   UNL A   1      49.732  28.687  21.604  1.00  0.00    -0.237 OA
ATOM     94  O   UNL A   1      51.357  26.840  21.777  1.00  0.00    -0.237 OA
ATOM     95  O   UNL A   1      48.990  26.344  21.362  1.00  0.00    -0.744 OA
ENDBRANCH  89  92
ENDBRANCH  61  85
BRANCH  73  96
ATOM     96  C   UNL A   1      45.426  32.789  28.872  1.00  0.00     0.023 A 
ATOM     97  C   UNL A   1      46.216  33.015  30.017  1.00  0.00     0.012 A 
ATOM     98  C   UNL A   1      45.170  33.856  27.987  1.00  0.00     0.148 A 
ATOM     99  C   UNL A   1      46.715  34.288  30.294  1.00  0.00     0.002 A 
ATOM    100  C   UNL A   1      45.717  35.108  28.240  1.00  0.00     0.091 A 
ATOM    101  F   UNL A   1      44.402  33.624  26.913  1.00  0.00    -0.205 F 
ATOM    102  C   UNL A   1      46.476  35.329  29.399  1.00  0.00     0.022 A 
BRANCH 100 103
ATOM    103  S   UNL A   1      45.550  36.481  27.093  1.00  0.00     0.127 S 
ATOM    104  O   UNL A   1      46.329  36.008  25.950  1.00  0.00    -0.237 OA
ATOM    105  O   UNL A   1      44.104  36.523  26.873  1.00  0.00    -0.237 OA
ATOM    106  O   UNL A   1      46.092  37.646  27.777  1.00  0.00    -0.744 OA
ENDBRANCH 100 103
ENDBRANCH  73  96
ENDBRANCH  47  48
ENDBRANCH  39  42
ENDBRANCH  37  38
ENDBRANCH  36  37
ENDBRANCH   1  36
TORSDOF 22
ENDMDL
MODEL 3
REMARK VINA RESULT:     -12.3      2.973      8.078
REMARK SMILES O=C1O[C@@H](c2ccc(O)c(O)c2)[C@H](C(=O)NCCCCCCNC(=O)c2ccc(-c3c4nc(c(-c5cccc(S(=O)(=O)[O-])c5F)c5ccc([nH]5)c(-c5cccc(S(=O)(=O)[O-])c5F)c5nc(c(-c6cccc(S(=O)(=O)[O-])c6F)c6ccc3[nH]6)C=C5)C=C4)cc2)/C1=C\c1ccc(O)c(O)c1
REMARK SMILES IDX 20 1 19 2 18 3 17 4 16 5 14 6 15 7 13 9 1 10 2 11 3 12 89 13
REMARK SMILES IDX 4 14 90 15 5 16 6 17 12 18 7 19 10 20 8 21 11 22 9 24 91 26
REMARK SMILES IDX 92 27 98 28 93 29 96 30 94 31 97 32 95 34 21 36 22 37 23 38
REMARK SMILES IDX 24 39 25 41 26 42 27 43 88 44 28 45 87 46 29 47 30 48 31 49
REMARK SMILES IDX 81 50 32 51 86 52 80 53 82 54 33 55 85 56 79 57 78 58 34 60
REMARK SMILES IDX 66 61 46 62 65 63 47 64 50 65 64 66 83 67 48 68 49 69 63 71
REMARK SMILES IDX 84 72 51 73 35 74 36 75 44 76 37 77 39 78 45 79 38 80 40 81
REMARK SMILES IDX 41 82 42 83 43 84 67 85 68 86 76 87 69 88 71 89 77 90 70 91
REMARK SMILES IDX 72 92 73 93 74 94 75 95 52 96 53 97 61 98 54 99 56 100
REMARK SMILES IDX 62 101 55 102 57 103 58 104 59 105 60 106
REMARK H PARENT 16 8 11 23 9 25 97 33 95 35 23 40 82 59 50 70
REMARK Flexibility Score: inf
ROOT
ATOM      1  C   UNL A   1      32.549  28.059  27.424  1.00  0.00     0.002 C 
ENDROOT
BRANCH   1   2
ATOM      2  C   UNL A   1      31.459  28.311  26.376  1.00  0.00     0.002 C 
BRANCH   2   3
ATOM      3  C   UNL A   1      30.858  27.051  25.754  1.00  0.00     0.021 C 
BRANCH   3   4
ATOM      4  C   UNL A   1      31.692  25.794  25.951  1.00  0.00     0.116 C 
BRANCH   4   5
ATOM      5  N   UNL A   1      30.915  24.574  25.890  1.00  0.00    -0.355 N 
ATOM      6  C   UNL A   1      31.274  23.308  25.523  1.00  0.00     0.231 C 
ATOM      7  O   UNL A   1      30.430  22.425  25.692  1.00  0.00    -0.274 OA
ATOM      8  H   UNL A   1      29.971  24.672  26.155  1.00  0.00     0.163 HD
BRANCH   6   9
ATOM      9  C   UNL A   1      32.623  23.045  24.840  1.00  0.00     0.161 C 
ATOM     10  O   UNL A   1      32.014  20.892  22.054  1.00  0.00    -0.247 OA
ATOM     11  C   UNL A   1      32.372  21.419  23.093  1.00  0.00     0.335 C 
ATOM     12  O   UNL A   1      32.798  20.765  24.200  1.00  0.00    -0.453 OA
ATOM     13  C   UNL A   1      32.438  22.864  23.369  1.00  0.00     0.054 C 
ATOM     14  C   UNL A   1      33.234  21.696  25.209  1.00  0.00     0.224 C 
ATOM     15  C   UNL A   1      32.350  23.743  22.360  1.00  0.00     0.020 C 
BRANCH  14  16
ATOM     16  C   UNL A   1      34.760  21.702  25.355  1.00  0.00    -0.002 A 
ATOM     17  C   UNL A   1      35.537  20.577  24.990  1.00  0.00     0.012 A 
ATOM     18  C   UNL A   1      35.442  22.860  25.760  1.00  0.00     0.057 A 
ATOM     19  C   UNL A   1      36.935  20.611  24.995  1.00  0.00     0.050 A 
ATOM     20  C   UNL A   1      36.833  22.877  25.790  1.00  0.00     0.157 A 
ATOM     21  C   UNL A   1      37.577  21.770  25.395  1.00  0.00     0.157 A 
BRANCH  20  22
ATOM     22  O   UNL A   1      37.474  24.012  26.194  1.00  0.00    -0.504 OA
ATOM     23  H   UNL A   1      37.017  24.653  26.702  1.00  0.00     0.293 HD
ENDBRANCH  20  22
BRANCH  21  24
ATOM     24  O   UNL A   1      38.939  21.871  25.412  1.00  0.00    -0.504 OA
ATOM     25  H   UNL A   1      39.353  22.510  25.958  1.00  0.00     0.293 HD
ENDBRANCH  21  24
ENDBRANCH  14  16
BRANCH  15  26
ATOM     26  C   UNL A   1      32.412  25.194  22.521  1.00  0.00    -0.021 A 
ATOM     27  C   UNL A   1      33.564  25.816  23.028  1.00  0.00     0.012 A 
ATOM     28  C   UNL A   1      31.319  25.972  22.127  1.00  0.00     0.058 A 
ATOM     29  C   UNL A   1      33.615  27.206  23.173  1.00  0.00     0.051 A 
ATOM     30  C   UNL A   1      31.383  27.352  22.265  1.00  0.00     0.157 A 
ATOM     31  C   UNL A   1      32.518  27.965  22.791  1.00  0.00     0.157 A 
BRANCH  30  32
ATOM     32  O   UNL A   1      30.317  28.113  21.876  1.00  0.00    -0.504 OA
ATOM     33  H   UNL A   1      30.046  28.841  22.400  1.00  0.00     0.293 HD
ENDBRANCH  30  32
BRANCH  31  34
ATOM     34  O   UNL A   1      32.507  29.328  22.907  1.00  0.00    -0.504 OA
ATOM     35  H   UNL A   1      32.194  29.728  23.695  1.00  0.00     0.293 HD
ENDBRANCH  31  34
ENDBRANCH  15  26
ENDBRANCH   6   9
ENDBRANCH   4   5
ENDBRANCH   3   4
ENDBRANCH   2   3
ENDBRANCH   1   2
BRANCH   1  36
ATOM     36  C   UNL A   1      33.987  28.182  26.914  1.00  0.00     0.021 C 
BRANCH  36  37
ATOM     37  C   UNL A   1      34.279  29.457  26.134  1.00  0.00     0.116 C 
BRANCH  37  38
ATOM     38  N   UNL A   1      34.026  30.650  26.927  1.00  0.00    -0.352 N 
ATOM     39  C   UNL A   1      34.685  31.101  28.043  1.00  0.00     0.251 C 
ATOM     40  H   UNL A   1      33.279  31.213  26.618  1.00  0.00     0.163 HD
ATOM     41  O   UNL A   1      34.215  32.019  28.706  1.00  0.00    -0.269 OA
BRANCH  39  42
ATOM     42  C   UNL A   1      35.955  30.463  28.445  1.00  0.00     0.039 A 
ATOM     43  C   UNL A   1      37.096  30.667  27.665  1.00  0.00     0.014 A 
ATOM     44  C   UNL A   1      36.019  29.671  29.595  1.00  0.00     0.014 A 
ATOM     45  C   UNL A   1      38.314  30.116  28.068  1.00  0.00     0.010 A 
ATOM     46  C   UNL A   1      37.248  29.194  30.037  1.00  0.00     0.010 A 
ATOM     47  C   UNL A   1      38.406  29.400  29.273  1.00  0.00    -0.014 A 
BRANCH  47  48
ATOM     48  C   UNL A   1      39.700  28.847  29.748  1.00  0.00     0.031 A 
ATOM     49  C   UNL A   1      40.459  29.546  30.845  1.00  0.00     0.074 A 
ATOM     50  C   UNL A   1      40.233  27.771  29.137  1.00  0.00     0.049 A 
ATOM     51  N   UNL A   1      41.636  29.266  31.339  1.00  0.00    -0.248 NA
ATOM     52  C   UNL A   1      39.824  30.731  31.446  1.00  0.00     0.031 C 
ATOM     53  C   UNL A   1      39.627  27.045  28.018  1.00  0.00     0.029 A 
ATOM     54  N   UNL A   1      41.419  27.115  29.353  1.00  0.00    -0.354 N 
ATOM     55  C   UNL A   1      41.900  30.256  32.278  1.00  0.00     0.074 A 
ATOM     56  C   UNL A   1      40.776  31.166  32.256  1.00  0.00     0.031 C 
ATOM     57  C   UNL A   1      40.443  26.044  27.651  1.00  0.00     0.029 A 
ATOM     58  C   UNL A   1      41.644  26.078  28.477  1.00  0.00     0.049 A 
ATOM     59  H   UNL A   1      42.050  27.363  30.068  1.00  0.00     0.167 HD
ATOM     60  C   UNL A   1      42.965  30.384  33.102  1.00  0.00     0.034 A 
ATOM     61  C   UNL A   1      42.705  25.259  28.344  1.00  0.00     0.034 A 
ATOM     62  C   UNL A   1      44.064  29.458  33.143  1.00  0.00     0.049 A 
ATOM     63  C   UNL A   1      43.871  25.412  29.283  1.00  0.00     0.074 A 
ATOM     64  C   UNL A   1      45.153  29.454  33.997  1.00  0.00     0.029 A 
ATOM     65  N   UNL A   1      44.222  28.378  32.290  1.00  0.00    -0.354 N 
ATOM     66  N   UNL A   1      44.038  26.273  30.257  1.00  0.00    -0.248 NA
ATOM     67  C   UNL A   1      44.979  24.458  29.129  1.00  0.00     0.031 C 
ATOM     68  C   UNL A   1      45.990  28.394  33.633  1.00  0.00     0.029 A 
ATOM     69  C   UNL A   1      45.397  27.708  32.586  1.00  0.00     0.049 A 
ATOM     70  H   UNL A   1      43.591  28.124  31.578  1.00  0.00     0.167 HD
ATOM     71  C   UNL A   1      45.245  25.937  30.860  1.00  0.00     0.074 A 
ATOM     72  C   UNL A   1      45.761  24.785  30.149  1.00  0.00     0.031 C 
ATOM     73  C   UNL A   1      45.873  26.533  31.903  1.00  0.00     0.034 A 
BRANCH  60  74
ATOM     74  C   UNL A   1      42.981  31.552  34.054  1.00  0.00     0.023 A 
ATOM     75  C   UNL A   1      43.430  32.813  33.611  1.00  0.00     0.012 A 
ATOM     76  C   UNL A   1      42.500  31.415  35.371  1.00  0.00     0.148 A 
ATOM     77  C   UNL A   1      43.439  33.909  34.474  1.00  0.00     0.002 A 
ATOM     78  C   UNL A   1      42.464  32.523  36.209  1.00  0.00     0.091 A 
ATOM     79  F   UNL A   1      42.096  30.205  35.782  1.00  0.00    -0.205 F 
ATOM     80  C   UNL A   1      42.946  33.766  35.768  1.00  0.00     0.022 A 
BRANCH  78  81
ATOM     81  S   UNL A   1      41.774  32.462  37.866  1.00  0.00     0.127 S 
ATOM     82  O   UNL A   1      40.362  32.202  37.588  1.00  0.00    -0.237 OA
ATOM     83  O   UNL A   1      42.496  31.335  38.457  1.00  0.00    -0.237 OA
ATOM     84  O   UNL A   1      42.061  33.754  38.472  1.00  0.00    -0.744 OA
ENDBRANCH  78  81
ENDBRANCH  60  74
BRANCH  61  85
ATOM     85  C   UNL A   1      42.698  24.189  27.306  1.00  0.00     0.023 A 
ATOM     86  C   UNL A   1      43.286  24.435  26.050  1.00  0.00     0.012 A 
ATOM     87  C   UNL A   1      42.125  22.929  27.562  1.00  0.00     0.148 A 
ATOM     88  C   UNL A   1      43.267  23.459  25.053  1.00  0.00     0.002 A 
ATOM     89  C   UNL A   1      42.161  21.941  26.585  1.00  0.00     0.091 A 
ATOM     90  F   UNL A   1      41.565  22.719  28.761  1.00  0.00    -0.205 F 
ATOM     91  C   UNL A   1      42.714  22.210  25.323  1.00  0.00     0.022 A 
BRANCH  89  92
ATOM     92  S   UNL A   1      41.590  20.266  26.888  1.00  0.00     0.127 S 
ATOM     93  O   UNL A   1      40.335  20.504  27.597  1.00  0.00    -0.237 OA
ATOM     94  O   UNL A   1      41.445  19.749  25.528  1.00  0.00    -0.237 OA
ATOM     95  O   UNL A   1      42.643  19.626  27.666  1.00  0.00    -0.744 OA
ENDBRANCH  89  92
ENDBRANCH  61  85
BRANCH  73  96
ATOM     96  C   UNL A   1      47.162  25.922  32.389  1.00  0.00     0.023 A 
ATOM     97  C   UNL A   1      48.397  26.365  31.876  1.00  0.00     0.012 A 
ATOM     98  C   UNL A   1      47.146  24.959  33.419  1.00  0.00     0.148 A 
ATOM     99  C   UNL A   1      49.594  25.834  32.356  1.00  0.00     0.002 A 
ATOM    100  C   UNL A   1      48.344  24.476  33.929  1.00  0.00     0.091 A 
ATOM    101  F   UNL A   1      45.960  24.539  33.881  1.00  0.00    -0.205 F 
ATOM    102  C   UNL A   1      49.567  24.902  33.390  1.00  0.00     0.022 A 
BRANCH 100 103
ATOM    103  S   UNL A   1      48.410  23.352  35.330  1.00  0.00     0.127 S 
ATOM    104  O   UNL A   1      49.845  23.094  35.435  1.00  0.00    -0.237 OA
ATOM    105  O   UNL A   1      47.856  24.172  36.408  1.00  0.00    -0.237 OA
ATOM    106  O   UNL A   1      47.596  22.202  34.964  1.00  0.00    -0.744 OA
ENDBRANCH 100 103
ENDBRANCH  73  96
ENDBRANCH  47  48
ENDBRANCH  39  42
ENDBRANCH  37  38
ENDBRANCH  36  37
ENDBRANCH   1  36
TORSDOF 22
ENDMDL
