MODEL 1
REMARK VINA RESULT:     -10.1      0.000      0.000
REMARK SMILES CC(C)C[C@H](NC(N)=O)C(=O)N[C@@H](C(=O)NCCCCCCNC(=O)c1ccc(-c2c3nc(c(-c4cccc(S(=O)(=O)[O-])c4F)c4ccc([nH]4)c(-c4cccc(S(=O)(=O)[O-])c4F)c4nc(c(-c5cccc(S(=O)(=O)[O-])c5F)c5ccc2[nH]5)C=C4)C=C3)cc1)C(C)C
REMARK SMILES IDX 19 1 18 2 17 3 16 4 14 5 15 6 13 8 12 9 10 10 11 11 5 13
REMARK SMILES IDX 4 14 2 15 1 16 3 17 6 18 7 19 8 21 9 22 89 25 90 26 91 27
REMARK SMILES IDX 20 28 21 29 22 30 23 31 24 32 25 34 26 35 27 36 88 37 28 38
REMARK SMILES IDX 87 39 29 40 30 41 31 42 81 43 32 44 86 45 80 46 82 47 33 48
REMARK SMILES IDX 85 49 79 50 78 51 34 53 66 54 46 55 65 56 47 57 50 58 64 59
REMARK SMILES IDX 83 60 48 61 49 62 63 64 84 65 51 66 35 67 36 68 44 69 37 70
REMARK SMILES IDX 39 71 45 72 38 73 40 74 41 75 42 76 43 77 67 78 68 79 76 80
REMARK SMILES IDX 69 81 71 82 77 83 70 84 72 85 73 86 74 87 75 88 52 89 53 90
REMARK SMILES IDX 61 91 54 92 56 93 62 94 55 95 57 96 58 97 59 98 60 99
REMARK H PARENT 16 7 12 12 6 20 8 23 8 24 23 33 82 52 50 63
REMARK Flexibility Score: inf
ROOT
ATOM      1  C   UNL A   1      31.350  28.110  25.171  1.00  0.00     0.002 C 
ENDROOT
BRANCH   1   2
ATOM      2  C   UNL A   1      31.654  26.721  24.610  1.00  0.00     0.021 C 
BRANCH   2   3
ATOM      3  C   UNL A   1      30.412  25.877  24.357  1.00  0.00     0.116 C 
BRANCH   3   4
ATOM      4  N   UNL A   1      29.962  25.210  25.550  1.00  0.00    -0.354 N 
ATOM      5  C   UNL A   1      30.483  24.152  26.225  1.00  0.00     0.242 C 
ATOM      6  O   UNL A   1      29.864  23.835  27.248  1.00  0.00    -0.273 OA
ATOM      7  H   UNL A   1      29.140  25.583  25.942  1.00  0.00     0.163 HD
BRANCH   5   8
ATOM      8  C   UNL A   1      31.827  23.451  25.804  1.00  0.00     0.173 C 
BRANCH   8   9
ATOM      9  N   UNL A   1      31.654  21.992  25.838  1.00  0.00    -0.342 N 
ATOM     10  C   UNL A   1      32.329  20.972  25.234  1.00  0.00     0.243 C 
ATOM     11  O   UNL A   1      31.773  19.867  25.260  1.00  0.00    -0.273 OA
ATOM     12  H   UNL A   1      30.907  21.693  26.406  1.00  0.00     0.164 HD
BRANCH  10  13
ATOM     13  C   UNL A   1      33.697  21.131  24.512  1.00  0.00     0.173 C 
BRANCH  13  14
ATOM     14  C   UNL A   1      33.591  21.806  23.141  1.00  0.00     0.038 C 
BRANCH  14  15
ATOM     15  C   UNL A   1      34.179  23.231  23.068  1.00  0.00    -0.015 C 
ATOM     16  C   UNL A   1      35.701  23.253  22.926  1.00  0.00     0.007 C 
ATOM     17  C   UNL A   1      33.542  23.992  21.902  1.00  0.00     0.007 C 
ENDBRANCH  14  15
ENDBRANCH  13  14
BRANCH  13  18
ATOM     18  N   UNL A   1      34.498  19.903  24.595  1.00  0.00    -0.327 N 
ATOM     19  C   UNL A   1      35.804  19.788  24.953  1.00  0.00     0.312 C 
ATOM     20  H   UNL A   1      34.036  19.065  24.364  1.00  0.00     0.166 HD
ATOM     21  N   UNL A   1      36.220  18.498  25.002  1.00  0.00    -0.352 N 
ATOM     22  O   UNL A   1      36.579  20.700  25.186  1.00  0.00    -0.249 OA
ATOM     23  H   UNL A   1      35.586  17.770  24.812  1.00  0.00     0.161 HD
ATOM     24  H   UNL A   1      37.155  18.291  25.228  1.00  0.00     0.161 HD
ENDBRANCH  13  18
ENDBRANCH  10  13
ENDBRANCH   8   9
BRANCH   8  25
ATOM     25  C   UNL A   1      32.933  23.927  26.802  1.00  0.00     0.015 C 
ATOM     26  C   UNL A   1      33.565  22.833  27.658  1.00  0.00     0.010 C 
ATOM     27  C   UNL A   1      34.056  24.664  26.057  1.00  0.00     0.010 C 
ENDBRANCH   8  25
ENDBRANCH   5   8
ENDBRANCH   3   4
ENDBRANCH   2   3
ENDBRANCH   1   2
BRANCH   1  28
ATOM     28  C   UNL A   1      31.527  28.244  26.687  1.00  0.00     0.002 C 
BRANCH  28  29
ATOM     29  C   UNL A   1      32.960  28.057  27.196  1.00  0.00     0.021 C 
BRANCH  29  30
ATOM     30  C   UNL A   1      34.007  28.922  26.499  1.00  0.00     0.116 C 
BRANCH  30  31
ATOM     31  N   UNL A   1      33.860  30.329  26.831  1.00  0.00    -0.352 N 
ATOM     32  C   UNL A   1      34.624  31.115  27.654  1.00  0.00     0.251 C 
ATOM     33  H   UNL A   1      33.100  30.785  26.401  1.00  0.00     0.163 HD
ATOM     34  O   UNL A   1      34.231  32.238  27.959  1.00  0.00    -0.269 OA
BRANCH  32  35
ATOM     35  C   UNL A   1      35.907  30.606  28.182  1.00  0.00     0.039 A 
ATOM     36  C   UNL A   1      35.886  29.721  29.262  1.00  0.00     0.014 A 
ATOM     37  C   UNL A   1      37.125  31.021  27.634  1.00  0.00     0.014 A 
ATOM     38  C   UNL A   1      37.087  29.219  29.769  1.00  0.00     0.010 A 
ATOM     39  C   UNL A   1      38.316  30.468  28.095  1.00  0.00     0.010 A 
ATOM     40  C   UNL A   1      38.310  29.573  29.175  1.00  0.00    -0.014 A 
BRANCH  40  41
ATOM     41  C   UNL A   1      39.592  29.020  29.679  1.00  0.00     0.031 A 
ATOM     42  C   UNL A   1      40.299  29.674  30.834  1.00  0.00     0.074 A 
ATOM     43  C   UNL A   1      40.159  27.975  29.043  1.00  0.00     0.049 A 
ATOM     44  N   UNL A   1      41.441  29.356  31.388  1.00  0.00    -0.248 NA
ATOM     45  C   UNL A   1      39.654  30.855  31.430  1.00  0.00     0.031 C 
ATOM     46  C   UNL A   1      39.612  27.309  27.859  1.00  0.00     0.029 A 
ATOM     47  N   UNL A   1      41.331  27.307  29.288  1.00  0.00    -0.354 N 
ATOM     48  C   UNL A   1      41.668  30.314  32.369  1.00  0.00     0.074 A 
ATOM     49  C   UNL A   1      40.563  31.246  32.312  1.00  0.00     0.031 C 
ATOM     50  C   UNL A   1      40.446  26.326  27.484  1.00  0.00     0.029 A 
ATOM     51  C   UNL A   1      41.595  26.305  28.384  1.00  0.00     0.049 A 
ATOM     52  H   UNL A   1      41.928  27.524  30.041  1.00  0.00     0.167 HD
ATOM     53  C   UNL A   1      42.686  30.394  33.258  1.00  0.00     0.034 A 
ATOM     54  C   UNL A   1      42.643  25.463  28.292  1.00  0.00     0.034 A 
ATOM     55  C   UNL A   1      43.755  29.436  33.344  1.00  0.00     0.049 A 
ATOM     56  C   UNL A   1      43.731  25.536  29.329  1.00  0.00     0.074 A 
ATOM     57  C   UNL A   1      44.782  29.374  34.269  1.00  0.00     0.029 A 
ATOM     58  N   UNL A   1      43.936  28.375  32.472  1.00  0.00    -0.354 N 
ATOM     59  N   UNL A   1      43.841  26.347  30.354  1.00  0.00    -0.248 NA
ATOM     60  C   UNL A   1      44.819  24.554  29.221  1.00  0.00     0.031 C 
ATOM     61  C   UNL A   1      45.594  28.281  33.947  1.00  0.00     0.029 A 
ATOM     62  C   UNL A   1      45.062  27.652  32.833  1.00  0.00     0.049 A 
ATOM     63  H   UNL A   1      43.352  28.164  31.709  1.00  0.00     0.167 HD
ATOM     64  C   UNL A   1      44.986  25.950  31.033  1.00  0.00     0.074 A 
ATOM     65  C   UNL A   1      45.524  24.813  30.315  1.00  0.00     0.031 C 
ATOM     66  C   UNL A   1      45.553  26.488  32.141  1.00  0.00     0.034 A 
BRANCH  53  67
ATOM     67  C   UNL A   1      42.658  31.526  34.252  1.00  0.00     0.023 A 
ATOM     68  C   UNL A   1      43.391  32.701  33.985  1.00  0.00     0.012 A 
ATOM     69  C   UNL A   1      41.869  31.454  35.417  1.00  0.00     0.148 A 
ATOM     70  C   UNL A   1      43.368  33.772  34.876  1.00  0.00     0.002 A 
ATOM     71  C   UNL A   1      41.817  32.544  36.279  1.00  0.00     0.091 A 
ATOM     72  F   UNL A   1      41.197  30.322  35.667  1.00  0.00    -0.205 F 
ATOM     73  C   UNL A   1      42.573  33.698  36.017  1.00  0.00     0.022 A 
BRANCH  71  74
ATOM     74  S   UNL A   1      40.764  32.576  37.735  1.00  0.00     0.127 S 
ATOM     75  O   UNL A   1      39.586  31.850  37.263  1.00  0.00    -0.237 OA
ATOM     76  O   UNL A   1      41.573  31.852  38.717  1.00  0.00    -0.237 OA
ATOM     77  O   UNL A   1      40.552  33.983  38.044  1.00  0.00    -0.744 OA
ENDBRANCH  71  74
ENDBRANCH  53  67
BRANCH  54  78
ATOM     78  C   UNL A   1      42.669  24.426  27.223  1.00  0.00     0.023 A 
ATOM     79  C   UNL A   1      43.420  24.657  26.055  1.00  0.00     0.012 A 
ATOM     80  C   UNL A   1      41.989  23.202  27.371  1.00  0.00     0.148 A 
ATOM     81  C   UNL A   1      43.469  23.701  25.039  1.00  0.00     0.002 A 
ATOM     82  C   UNL A   1      42.087  22.231  26.380  1.00  0.00     0.091 A 
ATOM     83  F   UNL A   1      41.270  23.004  28.486  1.00  0.00    -0.205 F 
ATOM     84  C   UNL A   1      42.812  22.486  25.206  1.00  0.00     0.022 A 
BRANCH  82  85
ATOM     85  S   UNL A   1      41.389  20.587  26.575  1.00  0.00     0.127 S 
ATOM     86  O   UNL A   1      39.959  20.852  26.448  1.00  0.00    -0.237 OA
ATOM     87  O   UNL A   1      41.986  19.868  25.449  1.00  0.00    -0.237 OA
ATOM     88  O   UNL A   1      41.838  20.126  27.883  1.00  0.00    -0.744 OA
ENDBRANCH  82  85
ENDBRANCH  54  78
BRANCH  66  89
ATOM     89  C   UNL A   1      46.802  25.838  32.672  1.00  0.00     0.023 A 
ATOM     90  C   UNL A   1      48.063  26.294  32.240  1.00  0.00     0.012 A 
ATOM     91  C   UNL A   1      46.729  24.830  33.653  1.00  0.00     0.148 A 
ATOM     92  C   UNL A   1      49.233  25.734  32.753  1.00  0.00     0.002 A 
ATOM     93  C   UNL A   1      47.899  24.310  34.194  1.00  0.00     0.091 A 
ATOM     94  F   UNL A   1      45.520  24.395  34.036  1.00  0.00    -0.205 F 
ATOM     95  C   UNL A   1      49.151  24.752  33.737  1.00  0.00     0.022 A 
BRANCH  93  96
ATOM     96  S   UNL A   1      47.885  23.112  35.533  1.00  0.00     0.127 S 
ATOM     97  O   UNL A   1      46.683  23.499  36.268  1.00  0.00    -0.237 OA
ATOM     98  O   UNL A   1      47.778  21.841  34.814  1.00  0.00    -0.237 OA
ATOM     99  O   UNL A   1      49.143  23.295  36.244  1.00  0.00    -0.744 OA
ENDBRANCH  93  96
ENDBRANCH  66  89
ENDBRANCH  40  41
ENDBRANCH  32  35
ENDBRANCH  30  31
ENDBRANCH  29  30
ENDBRANCH  28  29
ENDBRANCH   1  28
TORSDOF 22
ENDMDL
MODEL 2
REMARK VINA RESULT:      -9.9      2.651      8.164
REMARK SMILES CC(C)C[C@H](NC(N)=O)C(=O)N[C@@H](C(=O)NCCCCCCNC(=O)c1ccc(-c2c3nc(c(-c4cccc(S(=O)(=O)[O-])c4F)c4ccc([nH]4)c(-c4cccc(S(=O)(=O)[O-])c4F)c4nc(c(-c5cccc(S(=O)(=O)[O-])c5F)c5ccc2[nH]5)C=C4)C=C3)cc1)C(C)C
REMARK SMILES IDX 19 1 18 2 17 3 16 4 14 5 15 6 13 8 12 9 10 10 11 11 5 13
REMARK SMILES IDX 4 14 2 15 1 16 3 17 6 18 7 19 8 21 9 22 89 25 90 26 91 27
REMARK SMILES IDX 20 28 21 29 22 30 23 31 24 32 25 34 26 35 27 36 88 37 28 38
REMARK SMILES IDX 87 39 29 40 30 41 31 42 81 43 32 44 86 45 80 46 82 47 33 48
REMARK SMILES IDX 85 49 79 50 78 51 34 53 66 54 46 55 65 56 47 57 50 58 64 59
REMARK SMILES IDX 83 60 48 61 49 62 63 64 84 65 51 66 35 67 36 68 44 69 37 70
REMARK SMILES IDX 39 71 45 72 38 73 40 74 41 75 42 76 43 77 67 78 68 79 76 80
REMARK SMILES IDX 69 81 71 82 77 83 70 84 72 85 73 86 74 87 75 88 52 89 53 90
REMARK SMILES IDX 61 91 54 92 56 93 62 94 55 95 57 96 58 97 59 98 60 99
REMARK H PARENT 16 7 12 12 6 20 8 23 8 24 23 33 82 52 50 63
REMARK Flexibility Score: inf
ROOT
ATOM      1  C   UNL A   1      30.537  29.860  24.521  1.00  0.00     0.002 C 
ENDROOT
BRANCH   1   2
ATOM      2  C   UNL A   1      31.576  29.385  23.506  1.00  0.00     0.021 C 
BRANCH   2   3
ATOM      3  C   UNL A   1      31.396  27.935  23.078  1.00  0.00     0.116 C 
BRANCH   3   4
ATOM      4  N   UNL A   1      30.349  27.281  23.817  1.00  0.00    -0.354 N 
ATOM      5  C   UNL A   1      30.407  26.456  24.896  1.00  0.00     0.242 C 
ATOM      6  O   UNL A   1      29.307  26.081  25.319  1.00  0.00    -0.273 OA
ATOM      7  H   UNL A   1      29.440  27.462  23.486  1.00  0.00     0.163 HD
BRANCH   5   8
ATOM      8  C   UNL A   1      31.756  26.092  25.619  1.00  0.00     0.173 C 
BRANCH   8   9
ATOM      9  N   UNL A   1      31.501  25.083  26.658  1.00  0.00    -0.342 N 
ATOM     10  C   UNL A   1      31.747  23.743  26.716  1.00  0.00     0.243 C 
ATOM     11  O   UNL A   1      31.177  23.129  27.626  1.00  0.00    -0.273 OA
ATOM     12  H   UNL A   1      31.070  25.445  27.466  1.00  0.00     0.164 HD
BRANCH  10  13
ATOM     13  C   UNL A   1      32.650  22.972  25.711  1.00  0.00     0.173 C 
BRANCH  13  14
ATOM     14  C   UNL A   1      32.254  21.502  25.538  1.00  0.00     0.038 C 
BRANCH  14  15
ATOM     15  C   UNL A   1      32.899  20.791  24.329  1.00  0.00    -0.015 C 
ATOM     16  C   UNL A   1      32.847  19.266  24.423  1.00  0.00     0.007 C 
ATOM     17  C   UNL A   1      32.217  21.251  23.037  1.00  0.00     0.007 C 
ENDBRANCH  14  15
ENDBRANCH  13  14
BRANCH  13  18
ATOM     18  N   UNL A   1      34.073  23.262  25.930  1.00  0.00    -0.327 N 
ATOM     19  C   UNL A   1      34.947  23.824  25.055  1.00  0.00     0.312 C 
ATOM     20  H   UNL A   1      34.435  23.022  26.813  1.00  0.00     0.166 HD
ATOM     21  N   UNL A   1      36.173  24.026  25.600  1.00  0.00    -0.352 N 
ATOM     22  O   UNL A   1      34.732  24.108  23.889  1.00  0.00    -0.249 OA
ATOM     23  H   UNL A   1      36.336  23.793  26.542  1.00  0.00     0.161 HD
ATOM     24  H   UNL A   1      36.898  24.407  25.054  1.00  0.00     0.161 HD
ENDBRANCH  13  18
ENDBRANCH  10  13
ENDBRANCH   8   9
BRANCH   8  25
ATOM     25  C   UNL A   1      32.331  27.415  26.224  1.00  0.00     0.015 C 
ATOM     26  C   UNL A   1      31.782  27.808  27.592  1.00  0.00     0.010 C 
ATOM     27  C   UNL A   1      33.862  27.346  26.321  1.00  0.00     0.010 C 
ENDBRANCH   8  25
ENDBRANCH   5   8
ENDBRANCH   3   4
ENDBRANCH   2   3
ENDBRANCH   1   2
BRANCH   1  28
ATOM     28  C   UNL A   1      30.784  31.265  25.084  1.00  0.00     0.002 C 
BRANCH  28  29
ATOM     29  C   UNL A   1      31.201  31.314  26.556  1.00  0.00     0.021 C 
BRANCH  29  30
ATOM     30  C   UNL A   1      32.553  31.972  26.820  1.00  0.00     0.116 C 
BRANCH  30  31
ATOM     31  N   UNL A   1      32.416  33.375  27.171  1.00  0.00    -0.352 N 
ATOM     32  C   UNL A   1      33.090  34.107  28.115  1.00  0.00     0.251 C 
ATOM     33  H   UNL A   1      31.742  33.874  26.656  1.00  0.00     0.163 HD
ATOM     34  O   UNL A   1      32.703  35.238  28.398  1.00  0.00    -0.269 OA
BRANCH  32  35
ATOM     35  C   UNL A   1      34.267  33.531  28.798  1.00  0.00     0.039 A 
ATOM     36  C   UNL A   1      34.063  32.647  29.860  1.00  0.00     0.014 A 
ATOM     37  C   UNL A   1      35.565  33.881  28.412  1.00  0.00     0.014 A 
ATOM     38  C   UNL A   1      35.162  32.082  30.511  1.00  0.00     0.010 A 
ATOM     39  C   UNL A   1      36.657  33.265  29.016  1.00  0.00     0.010 A 
ATOM     40  C   UNL A   1      36.467  32.371  30.080  1.00  0.00    -0.014 A 
BRANCH  40  41
ATOM     41  C   UNL A   1      37.644  31.750  30.738  1.00  0.00     0.031 A 
ATOM     42  C   UNL A   1      38.442  30.693  30.023  1.00  0.00     0.074 A 
ATOM     43  C   UNL A   1      37.945  32.081  32.009  1.00  0.00     0.049 A 
ATOM     44  N   UNL A   1      39.476  30.015  30.448  1.00  0.00    -0.248 NA
ATOM     45  C   UNL A   1      38.007  30.332  28.664  1.00  0.00     0.031 C 
ATOM     46  C   UNL A   1      37.195  33.029  32.835  1.00  0.00     0.029 A 
ATOM     47  N   UNL A   1      38.946  31.640  32.836  1.00  0.00    -0.354 N 
ATOM     48  C   UNL A   1      39.793  29.125  29.429  1.00  0.00     0.074 A 
ATOM     49  C   UNL A   1      38.820  29.325  28.377  1.00  0.00     0.031 C 
ATOM     50  C   UNL A   1      37.765  33.100  34.049  1.00  0.00     0.029 A 
ATOM     51  C   UNL A   1      38.904  32.189  34.096  1.00  0.00     0.049 A 
ATOM     52  H   UNL A   1      39.631  30.990  32.554  1.00  0.00     0.167 HD
ATOM     53  C   UNL A   1      40.819  28.244  29.359  1.00  0.00     0.034 A 
ATOM     54  C   UNL A   1      39.695  31.983  35.167  1.00  0.00     0.034 A 
ATOM     55  C   UNL A   1      41.813  28.086  30.385  1.00  0.00     0.049 A 
ATOM     56  C   UNL A   1      40.863  31.043  35.042  1.00  0.00     0.074 A 
ATOM     57  C   UNL A   1      42.946  27.290  30.371  1.00  0.00     0.029 A 
ATOM     58  N   UNL A   1      41.795  28.733  31.610  1.00  0.00    -0.354 N 
ATOM     59  N   UNL A   1      41.245  30.335  34.006  1.00  0.00    -0.248 NA
ATOM     60  C   UNL A   1      41.733  30.903  36.218  1.00  0.00     0.031 C 
ATOM     61  C   UNL A   1      43.604  27.446  31.595  1.00  0.00     0.029 A 
ATOM     62  C   UNL A   1      42.893  28.353  32.364  1.00  0.00     0.049 A 
ATOM     63  H   UNL A   1      41.104  29.370  31.903  1.00  0.00     0.167 HD
ATOM     64  C   UNL A   1      42.417  29.695  34.392  1.00  0.00     0.074 A 
ATOM     65  C   UNL A   1      42.694  30.117  35.750  1.00  0.00     0.031 C 
ATOM     66  C   UNL A   1      43.186  28.825  33.693  1.00  0.00     0.034 A 
BRANCH  53  67
ATOM     67  C   UNL A   1      40.953  27.426  28.101  1.00  0.00     0.023 A 
ATOM     68  C   UNL A   1      41.556  28.000  26.963  1.00  0.00     0.012 A 
ATOM     69  C   UNL A   1      40.539  26.080  28.058  1.00  0.00     0.148 A 
ATOM     70  C   UNL A   1      41.713  27.261  25.791  1.00  0.00     0.002 A 
ATOM     71  C   UNL A   1      40.738  25.337  26.899  1.00  0.00     0.091 A 
ATOM     72  F   UNL A   1      39.947  25.558  29.141  1.00  0.00    -0.205 F 
ATOM     73  C   UNL A   1      41.314  25.928  25.763  1.00  0.00     0.022 A 
BRANCH  71  74
ATOM     74  S   UNL A   1      40.328  23.591  26.788  1.00  0.00     0.127 S 
ATOM     75  O   UNL A   1      38.929  23.643  26.367  1.00  0.00    -0.237 OA
ATOM     76  O   UNL A   1      41.257  23.121  25.759  1.00  0.00    -0.237 OA
ATOM     77  O   UNL A   1      40.564  23.039  28.115  1.00  0.00    -0.744 OA
ENDBRANCH  71  74
ENDBRANCH  53  67
BRANCH  54  78
ATOM     78  C   UNL A   1      39.454  32.746  36.424  1.00  0.00     0.023 A 
ATOM     79  C   UNL A   1      40.082  33.993  36.604  1.00  0.00     0.012 A 
ATOM     80  C   UNL A   1      38.583  32.265  37.420  1.00  0.00     0.148 A 
ATOM     81  C   UNL A   1      39.872  34.735  37.767  1.00  0.00     0.002 A 
ATOM     82  C   UNL A   1      38.334  33.034  38.551  1.00  0.00     0.091 A 
ATOM     83  F   UNL A   1      38.003  31.070  37.236  1.00  0.00    -0.205 F 
ATOM     84  C   UNL A   1      38.991  34.261  38.735  1.00  0.00     0.022 A 
BRANCH  82  85
ATOM     85  S   UNL A   1      37.109  32.566  39.779  1.00  0.00     0.127 S 
ATOM     86  O   UNL A   1      37.654  31.307  40.281  1.00  0.00    -0.237 OA
ATOM     87  O   UNL A   1      37.177  33.686  40.719  1.00  0.00    -0.237 OA
ATOM     88  O   UNL A   1      35.848  32.470  39.055  1.00  0.00    -0.744 OA
ENDBRANCH  82  85
ENDBRANCH  54  78
BRANCH  66  89
ATOM     89  C   UNL A   1      44.421  28.290  34.365  1.00  0.00     0.023 A 
ATOM     90  C   UNL A   1      45.633  29.001  34.267  1.00  0.00     0.012 A 
ATOM     91  C   UNL A   1      44.364  27.126  35.157  1.00  0.00     0.148 A 
ATOM     92  C   UNL A   1      46.778  28.544  34.919  1.00  0.00     0.002 A 
ATOM     93  C   UNL A   1      45.497  26.702  35.841  1.00  0.00     0.091 A 
ATOM     94  F   UNL A   1      43.207  26.451  35.221  1.00  0.00    -0.205 F 
ATOM     95  C   UNL A   1      46.707  27.403  35.715  1.00  0.00     0.022 A 
BRANCH  93  96
ATOM     96  S   UNL A   1      45.470  25.299  36.964  1.00  0.00     0.127 S 
ATOM     97  O   UNL A   1      46.865  25.236  37.396  1.00  0.00    -0.237 OA
ATOM     98  O   UNL A   1      44.531  25.742  37.995  1.00  0.00    -0.237 OA
ATOM     99  O   UNL A   1      45.005  24.167  36.174  1.00  0.00    -0.744 OA
ENDBRANCH  93  96
ENDBRANCH  66  89
ENDBRANCH  40  41
ENDBRANCH  32  35
ENDBRANCH  30  31
ENDBRANCH  29  30
ENDBRANCH  28  29
ENDBRANCH   1  28
TORSDOF 22
ENDMDL
MODEL 3
REMARK VINA RESULT:      -9.9      1.817      2.511
REMARK SMILES CC(C)C[C@H](NC(N)=O)C(=O)N[C@@H](C(=O)NCCCCCCNC(=O)c1ccc(-c2c3nc(c(-c4cccc(S(=O)(=O)[O-])c4F)c4ccc([nH]4)c(-c4cccc(S(=O)(=O)[O-])c4F)c4nc(c(-c5cccc(S(=O)(=O)[O-])c5F)c5ccc2[nH]5)C=C4)C=C3)cc1)C(C)C
REMARK SMILES IDX 19 1 18 2 17 3 16 4 14 5 15 6 13 8 12 9 10 10 11 11 5 13
REMARK SMILES IDX 4 14 2 15 1 16 3 17 6 18 7 19 8 21 9 22 89 25 90 26 91 27
REMARK SMILES IDX 20 28 21 29 22 30 23 31 24 32 25 34 26 35 27 36 88 37 28 38
REMARK SMILES IDX 87 39 29 40 30 41 31 42 81 43 32 44 86 45 80 46 82 47 33 48
REMARK SMILES IDX 85 49 79 50 78 51 34 53 66 54 46 55 65 56 47 57 50 58 64 59
REMARK SMILES IDX 83 60 48 61 49 62 63 64 84 65 51 66 35 67 36 68 44 69 37 70
REMARK SMILES IDX 39 71 45 72 38 73 40 74 41 75 42 76 43 77 67 78 68 79 76 80
REMARK SMILES IDX 69 81 71 82 77 83 70 84 72 85 73 86 74 87 75 88 52 89 53 90
REMARK SMILES IDX 61 91 54 92 56 93 62 94 55 95 57 96 58 97 59 98 60 99
REMARK H PARENT 16 7 12 12 6 20 8 23 8 24 23 33 82 52 50 63
REMARK Flexibility Score: inf
ROOT
ATOM      1  C   UNL A   1      31.524  28.529  24.617  1.00  0.00     0.002 C 
ENDROOT
BRANCH   1   2
ATOM      2  C   UNL A   1      31.958  27.373  23.716  1.00  0.00     0.021 C 
BRANCH   2   3
ATOM      3  C   UNL A   1      33.465  27.167  23.666  1.00  0.00     0.116 C 
BRANCH   3   4
ATOM      4  N   UNL A   1      33.813  25.836  23.242  1.00  0.00    -0.354 N 
ATOM      5  C   UNL A   1      33.521  24.627  23.789  1.00  0.00     0.242 C 
ATOM      6  O   UNL A   1      33.948  23.655  23.155  1.00  0.00    -0.273 OA
ATOM      7  H   UNL A   1      34.351  25.795  22.419  1.00  0.00     0.163 HD
BRANCH   5   8
ATOM      8  C   UNL A   1      32.617  24.465  25.067  1.00  0.00     0.173 C 
BRANCH   8   9
ATOM      9  N   UNL A   1      33.450  24.072  26.213  1.00  0.00    -0.342 N 
ATOM     10  C   UNL A   1      34.100  22.913  26.520  1.00  0.00     0.243 C 
ATOM     11  O   UNL A   1      34.504  22.813  27.685  1.00  0.00    -0.273 OA
ATOM     12  H   UNL A   1      33.560  24.781  26.887  1.00  0.00     0.164 HD
BRANCH  10  13
ATOM     13  C   UNL A   1      34.322  21.739  25.523  1.00  0.00     0.173 C 
BRANCH  13  14
ATOM     14  C   UNL A   1      33.486  20.497  25.846  1.00  0.00     0.038 C 
BRANCH  14  15
ATOM     15  C   UNL A   1      33.330  19.496  24.682  1.00  0.00    -0.015 C 
ATOM     16  C   UNL A   1      32.800  18.131  25.122  1.00  0.00     0.007 C 
ATOM     17  C   UNL A   1      32.405  20.087  23.615  1.00  0.00     0.007 C 
ENDBRANCH  14  15
ENDBRANCH  13  14
BRANCH  13  18
ATOM     18  N   UNL A   1      35.748  21.533  25.240  1.00  0.00    -0.327 N 
ATOM     19  C   UNL A   1      36.702  22.484  25.061  1.00  0.00     0.312 C 
ATOM     20  H   UNL A   1      36.048  20.599  25.171  1.00  0.00     0.166 HD
ATOM     21  N   UNL A   1      37.940  21.956  24.892  1.00  0.00    -0.352 N 
ATOM     22  O   UNL A   1      36.531  23.691  25.013  1.00  0.00    -0.249 OA
ATOM     23  H   UNL A   1      38.068  20.981  24.932  1.00  0.00     0.161 HD
ATOM     24  H   UNL A   1      38.710  22.547  24.730  1.00  0.00     0.161 HD
ENDBRANCH  13  18
ENDBRANCH  10  13
ENDBRANCH   8   9
BRANCH   8  25
ATOM     25  C   UNL A   1      31.535  23.385  24.739  1.00  0.00     0.015 C 
ATOM     26  C   UNL A   1      30.624  22.991  25.898  1.00  0.00     0.010 C 
ATOM     27  C   UNL A   1      30.653  23.841  23.567  1.00  0.00     0.010 C 
ENDBRANCH   8  25
ENDBRANCH   5   8
ENDBRANCH   3   4
ENDBRANCH   2   3
ENDBRANCH   1   2
BRANCH   1  28
ATOM     28  C   UNL A   1      31.402  28.173  26.103  1.00  0.00     0.002 C 
BRANCH  28  29
ATOM     29  C   UNL A   1      32.340  28.943  27.037  1.00  0.00     0.021 C 
BRANCH  29  30
ATOM     30  C   UNL A   1      33.342  29.855  26.334  1.00  0.00     0.116 C 
BRANCH  30  31
ATOM     31  N   UNL A   1      33.198  31.241  26.745  1.00  0.00    -0.352 N 
ATOM     32  C   UNL A   1      33.909  31.952  27.677  1.00  0.00     0.251 C 
ATOM     33  H   UNL A   1      32.486  31.744  26.287  1.00  0.00     0.163 HD
ATOM     34  O   UNL A   1      33.517  33.064  28.023  1.00  0.00    -0.269 OA
BRANCH  32  35
ATOM     35  C   UNL A   1      35.134  31.377  28.270  1.00  0.00     0.039 A 
ATOM     36  C   UNL A   1      36.350  32.037  28.076  1.00  0.00     0.014 A 
ATOM     37  C   UNL A   1      35.090  30.179  28.992  1.00  0.00     0.014 A 
ATOM     38  C   UNL A   1      37.517  31.517  28.640  1.00  0.00     0.010 A 
ATOM     39  C   UNL A   1      36.241  29.699  29.609  1.00  0.00     0.010 A 
ATOM     40  C   UNL A   1      37.468  30.355  29.427  1.00  0.00    -0.014 A 
BRANCH  40  41
ATOM     41  C   UNL A   1      38.693  29.810  30.063  1.00  0.00     0.031 A 
ATOM     42  C   UNL A   1      39.139  30.316  31.408  1.00  0.00     0.074 A 
ATOM     43  C   UNL A   1      39.448  28.918  29.392  1.00  0.00     0.049 A 
ATOM     44  N   UNL A   1      40.197  29.986  32.102  1.00  0.00    -0.248 NA
ATOM     45  C   UNL A   1      38.302  31.345  32.046  1.00  0.00     0.031 C 
ATOM     46  C   UNL A   1      39.165  28.415  28.046  1.00  0.00     0.029 A 
ATOM     47  N   UNL A   1      40.619  28.294  29.740  1.00  0.00    -0.354 N 
ATOM     48  C   UNL A   1      40.173  30.789  33.237  1.00  0.00     0.074 A 
ATOM     49  C   UNL A   1      39.014  31.647  33.122  1.00  0.00     0.031 C 
ATOM     50  C   UNL A   1      40.134  27.558  27.685  1.00  0.00     0.029 A 
ATOM     51  C   UNL A   1      41.116  27.466  28.761  1.00  0.00     0.049 A 
ATOM     52  H   UNL A   1      41.062  28.425  30.611  1.00  0.00     0.167 HD
ATOM     53  C   UNL A   1      41.020  30.790  34.294  1.00  0.00     0.034 A 
ATOM     54  C   UNL A   1      42.236  26.718  28.734  1.00  0.00     0.034 A 
ATOM     55  C   UNL A   1      42.141  29.900  34.427  1.00  0.00     0.049 A 
ATOM     56  C   UNL A   1      43.127  26.694  29.946  1.00  0.00     0.074 A 
ATOM     57  C   UNL A   1      43.003  29.757  35.500  1.00  0.00     0.029 A 
ATOM     58  N   UNL A   1      42.557  29.004  33.456  1.00  0.00    -0.354 N 
ATOM     59  N   UNL A   1      42.994  27.336  31.081  1.00  0.00    -0.248 NA
ATOM     60  C   UNL A   1      44.301  25.811  29.890  1.00  0.00     0.031 C 
ATOM     61  C   UNL A   1      43.951  28.782  35.170  1.00  0.00     0.029 A 
ATOM     62  C   UNL A   1      43.668  28.306  33.900  1.00  0.00     0.049 A 
ATOM     63  H   UNL A   1      42.128  28.881  32.578  1.00  0.00     0.167 HD
ATOM     64  C   UNL A   1      44.043  26.910  31.887  1.00  0.00     0.074 A 
ATOM     65  C   UNL A   1      44.790  25.936  31.117  1.00  0.00     0.031 C 
ATOM     66  C   UNL A   1      44.368  27.299  33.144  1.00  0.00     0.034 A 
BRANCH  53  67
ATOM     67  C   UNL A   1      40.728  31.746  35.422  1.00  0.00     0.023 A 
ATOM     68  C   UNL A   1      41.615  32.812  35.674  1.00  0.00     0.012 A 
ATOM     69  C   UNL A   1      39.554  31.628  36.192  1.00  0.00     0.148 A 
ATOM     70  C   UNL A   1      41.361  33.723  36.697  1.00  0.00     0.002 A 
ATOM     71  C   UNL A   1      39.286  32.566  37.183  1.00  0.00     0.091 A 
ATOM     72  F   UNL A   1      38.733  30.596  35.954  1.00  0.00    -0.205 F 
ATOM     73  C   UNL A   1      40.192  33.607  37.444  1.00  0.00     0.022 A 
BRANCH  71  74
ATOM     74  S   UNL A   1      37.770  32.547  38.148  1.00  0.00     0.127 S 
ATOM     75  O   UNL A   1      36.769  32.869  37.132  1.00  0.00    -0.237 OA
ATOM     76  O   UNL A   1      37.727  31.166  38.629  1.00  0.00    -0.237 OA
ATOM     77  O   UNL A   1      37.948  33.547  39.192  1.00  0.00    -0.744 OA
ENDBRANCH  71  74
ENDBRANCH  53  67
BRANCH  54  78
ATOM     78  C   UNL A   1      42.530  25.867  27.547  1.00  0.00     0.023 A 
ATOM     79  C   UNL A   1      43.286  26.400  26.485  1.00  0.00     0.012 A 
ATOM     80  C   UNL A   1      42.102  24.527  27.480  1.00  0.00     0.148 A 
ATOM     81  C   UNL A   1      43.583  25.626  25.364  1.00  0.00     0.002 A 
ATOM     82  C   UNL A   1      42.448  23.744  26.384  1.00  0.00     0.091 A 
ATOM     83  F   UNL A   1      41.373  24.040  28.495  1.00  0.00    -0.205 F 
ATOM     84  C   UNL A   1      43.173  24.296  25.317  1.00  0.00     0.022 A 
BRANCH  82  85
ATOM     85  S   UNL A   1      42.083  21.987  26.307  1.00  0.00     0.127 S 
ATOM     86  O   UNL A   1      42.479  21.540  27.640  1.00  0.00    -0.237 OA
ATOM     87  O   UNL A   1      40.642  21.986  26.058  1.00  0.00    -0.237 OA
ATOM     88  O   UNL A   1      42.880  21.472  25.201  1.00  0.00    -0.744 OA
ENDBRANCH  82  85
ENDBRANCH  54  78
BRANCH  66  89
ATOM     89  C   UNL A   1      45.566  26.653  33.787  1.00  0.00     0.023 A 
ATOM     90  C   UNL A   1      46.823  27.284  33.713  1.00  0.00     0.012 A 
ATOM     91  C   UNL A   1      45.432  25.463  34.528  1.00  0.00     0.148 A 
ATOM     92  C   UNL A   1      47.935  26.723  34.339  1.00  0.00     0.002 A 
ATOM     93  C   UNL A   1      46.535  24.934  35.188  1.00  0.00     0.091 A 
ATOM     94  F   UNL A   1      44.232  24.866  34.569  1.00  0.00    -0.205 F 
ATOM     95  C   UNL A   1      47.789  25.557  35.085  1.00  0.00     0.022 A 
BRANCH  93  96
ATOM     96  S   UNL A   1      46.415  23.490  36.250  1.00  0.00     0.127 S 
ATOM     97  O   UNL A   1      47.750  23.445  36.845  1.00  0.00    -0.237 OA
ATOM     98  O   UNL A   1      45.347  23.869  37.176  1.00  0.00    -0.237 OA
ATOM     99  O   UNL A   1      46.082  22.377  35.371  1.00  0.00    -0.744 OA
ENDBRANCH  93  96
ENDBRANCH  66  89
ENDBRANCH  40  41
ENDBRANCH  32  35
ENDBRANCH  30  31
ENDBRANCH  29  30
ENDBRANCH  28  29
ENDBRANCH   1  28
TORSDOF 22
ENDMDL
