MODEL 1
REMARK VINA RESULT:     -11.4      0.000      0.000
REMARK SMILES CN1CC[N@H+](CC(=O)NCCCCCCNC(=O)c2ccc(-c3c4nc(c(-c5cccc(S(=O)(=O)[O-])c5F)c5ccc([nH]5)c(-c5cccc(S(=O)(=O)[O-])c5F)c5nc(c(-c6cccc(S(=O)(=O)[O-])c6F)c6ccc3[nH]6)C=C5)C=C4)cc2)C(C)(C)C1=O
REMARK SMILES IDX 13 1 12 2 11 3 10 4 9 5 7 6 8 7 6 9 5 10 1 11 2 12 3 13
REMARK SMILES IDX 85 14 4 15 82 16 86 17 83 18 84 19 14 21 15 22 16 23 17 24
REMARK SMILES IDX 18 26 19 27 20 28 81 29 21 30 80 31 22 32 23 33 24 34 74 35
REMARK SMILES IDX 25 36 79 37 73 38 75 39 26 40 78 41 72 42 71 43 27 45 59 46
REMARK SMILES IDX 39 47 58 48 40 49 43 50 57 51 76 52 41 53 42 54 56 56 77 57
REMARK SMILES IDX 44 58 28 59 29 60 37 61 30 62 32 63 38 64 31 65 33 66 34 67
REMARK SMILES IDX 35 68 36 69 60 70 61 71 69 72 62 73 64 74 70 75 63 76 65 77
REMARK SMILES IDX 66 78 67 79 68 80 45 81 46 82 54 83 47 84 49 85 55 86 48 87
REMARK SMILES IDX 50 88 51 89 52 90 53 91
REMARK H PARENT 9 8 5 20 16 25 75 44 43 55
REMARK Flexibility Score: inf
ROOT
ATOM      1  C   UNL A   1      31.865  30.482  26.074  1.00  0.00     0.002 C 
ENDROOT
BRANCH   1   2
ATOM      2  C   UNL A   1      32.699  29.450  26.830  1.00  0.00     0.002 C 
BRANCH   2   3
ATOM      3  C   UNL A   1      31.894  28.224  27.276  1.00  0.00     0.021 C 
BRANCH   3   4
ATOM      4  C   UNL A   1      31.860  27.062  26.278  1.00  0.00     0.116 C 
BRANCH   4   5
ATOM      5  N   UNL A   1      31.136  25.892  26.761  1.00  0.00    -0.351 N 
ATOM      6  C   UNL A   1      30.885  24.654  26.252  1.00  0.00     0.275 C 
ATOM      7  O   UNL A   1      30.346  23.846  27.019  1.00  0.00    -0.269 OA
ATOM      8  H   UNL A   1      30.741  26.027  27.652  1.00  0.00     0.163 HD
BRANCH   6   9
ATOM      9  C   UNL A   1      31.280  24.225  24.834  1.00  0.00     0.364 C 
BRANCH   9  10
ATOM     10  N   UNL A   1      32.668  23.716  24.635  1.00  0.00    -0.314 N 
ATOM     11  C   UNL A   1      32.594  19.403  24.218  1.00  0.00     0.147 C 
ATOM     12  N   UNL A   1      32.643  20.847  24.351  1.00  0.00    -0.335 N 
ATOM     13  C   UNL A   1      32.811  21.404  25.689  1.00  0.00     0.180 C 
ATOM     14  C   UNL A   1      32.420  21.645  23.225  1.00  0.00     0.283 C 
ATOM     15  C   UNL A   1      33.172  22.895  25.741  1.00  0.00     0.285 C 
ATOM     16  C   UNL A   1      32.979  23.105  23.315  1.00  0.00     0.172 C 
ATOM     17  O   UNL A   1      32.005  21.154  22.175  1.00  0.00    -0.268 OA
ATOM     18  C   UNL A   1      34.499  22.872  23.077  1.00  0.00     0.090 C 
ATOM     19  C   UNL A   1      32.621  24.096  22.192  1.00  0.00     0.090 C 
ATOM     20  H   UNL A   1      33.192  24.591  24.637  1.00  0.00     0.349 HD
ENDBRANCH   9  10
ENDBRANCH   6   9
ENDBRANCH   4   5
ENDBRANCH   3   4
ENDBRANCH   2   3
ENDBRANCH   1   2
BRANCH   1  21
ATOM     21  C   UNL A   1      31.597  31.782  26.842  1.00  0.00     0.021 C 
BRANCH  21  22
ATOM     22  C   UNL A   1      32.839  32.429  27.449  1.00  0.00     0.116 C 
BRANCH  22  23
ATOM     23  N   UNL A   1      32.670  33.873  27.553  1.00  0.00    -0.352 N 
ATOM     24  C   UNL A   1      33.181  34.704  28.517  1.00  0.00     0.251 C 
ATOM     25  H   UNL A   1      32.128  34.301  26.852  1.00  0.00     0.163 HD
ATOM     26  O   UNL A   1      32.708  35.827  28.703  1.00  0.00    -0.269 OA
BRANCH  24  27
ATOM     27  C   UNL A   1      34.313  34.226  29.334  1.00  0.00     0.039 A 
ATOM     28  C   UNL A   1      34.073  33.497  30.498  1.00  0.00     0.014 A 
ATOM     29  C   UNL A   1      35.621  34.474  28.903  1.00  0.00     0.014 A 
ATOM     30  C   UNL A   1      35.153  32.967  31.208  1.00  0.00     0.010 A 
ATOM     31  C   UNL A   1      36.689  33.885  29.572  1.00  0.00     0.010 A 
ATOM     32  C   UNL A   1      36.466  33.132  30.734  1.00  0.00    -0.014 A 
BRANCH  32  33
ATOM     33  C   UNL A   1      37.620  32.505  31.429  1.00  0.00     0.031 A 
ATOM     34  C   UNL A   1      38.349  31.350  30.800  1.00  0.00     0.074 A 
ATOM     35  C   UNL A   1      37.953  32.921  32.667  1.00  0.00     0.049 A 
ATOM     36  N   UNL A   1      39.348  30.650  31.272  1.00  0.00    -0.248 NA
ATOM     37  C   UNL A   1      37.878  30.903  29.478  1.00  0.00     0.031 C 
ATOM     38  C   UNL A   1      37.268  33.974  33.418  1.00  0.00     0.029 A 
ATOM     39  N   UNL A   1      38.934  32.487  33.525  1.00  0.00    -0.354 N 
ATOM     40  C   UNL A   1      39.603  29.664  30.326  1.00  0.00     0.074 A 
ATOM     41  C   UNL A   1      38.631  29.834  29.268  1.00  0.00     0.031 C 
ATOM     42  C   UNL A   1      37.851  34.109  34.619  1.00  0.00     0.029 A 
ATOM     43  C   UNL A   1      38.928  33.131  34.739  1.00  0.00     0.049 A 
ATOM     44  H   UNL A   1      39.581  31.783  33.292  1.00  0.00     0.167 HD
ATOM     45  C   UNL A   1      40.573  28.720  30.325  1.00  0.00     0.034 A 
ATOM     46  C   UNL A   1      39.693  32.947  35.834  1.00  0.00     0.034 A 
ATOM     47  C   UNL A   1      41.556  28.577  31.365  1.00  0.00     0.049 A 
ATOM     48  C   UNL A   1      40.782  31.909  35.796  1.00  0.00     0.074 A 
ATOM     49  C   UNL A   1      42.639  27.718  31.411  1.00  0.00     0.029 A 
ATOM     50  N   UNL A   1      41.564  29.295  32.552  1.00  0.00    -0.354 N 
ATOM     51  N   UNL A   1      41.119  31.103  34.819  1.00  0.00    -0.248 NA
ATOM     52  C   UNL A   1      41.617  31.778  36.998  1.00  0.00     0.031 C 
ATOM     53  C   UNL A   1      43.280  27.891  32.643  1.00  0.00     0.029 A 
ATOM     54  C   UNL A   1      42.619  28.883  33.347  1.00  0.00     0.049 A 
ATOM     55  H   UNL A   1      40.914  29.995  32.792  1.00  0.00     0.167 HD
ATOM     56  C   UNL A   1      42.220  30.387  35.277  1.00  0.00     0.074 A 
ATOM     57  C   UNL A   1      42.509  30.876  36.610  1.00  0.00     0.031 C 
ATOM     58  C   UNL A   1      42.918  29.404  34.658  1.00  0.00     0.034 A 
BRANCH  45  59
ATOM     59  C   UNL A   1      40.647  27.792  29.139  1.00  0.00     0.023 A 
ATOM     60  C   UNL A   1      39.749  26.709  29.042  1.00  0.00     0.012 A 
ATOM     61  C   UNL A   1      41.566  28.022  28.097  1.00  0.00     0.148 A 
ATOM     62  C   UNL A   1      39.790  25.847  27.948  1.00  0.00     0.002 A 
ATOM     63  C   UNL A   1      41.568  27.187  26.985  1.00  0.00     0.091 A 
ATOM     64  F   UNL A   1      42.425  29.045  28.213  1.00  0.00    -0.205 F 
ATOM     65  C   UNL A   1      40.691  26.092  26.915  1.00  0.00     0.022 A 
BRANCH  63  66
ATOM     66  S   UNL A   1      42.633  27.465  25.566  1.00  0.00     0.127 S 
ATOM     67  O   UNL A   1      42.122  28.736  25.056  1.00  0.00    -0.237 OA
ATOM     68  O   UNL A   1      43.956  27.546  26.186  1.00  0.00    -0.237 OA
ATOM     69  O   UNL A   1      42.443  26.318  24.689  1.00  0.00    -0.744 OA
ENDBRANCH  63  66
ENDBRANCH  45  59
BRANCH  46  70
ATOM     70  C   UNL A   1      39.487  33.800  37.037  1.00  0.00     0.023 A 
ATOM     71  C   UNL A   1      39.877  35.153  37.004  1.00  0.00     0.012 A 
ATOM     72  C   UNL A   1      38.874  33.290  38.199  1.00  0.00     0.148 A 
ATOM     73  C   UNL A   1      39.690  35.975  38.117  1.00  0.00     0.002 A 
ATOM     74  C   UNL A   1      38.639  34.128  39.283  1.00  0.00     0.091 A 
ATOM     75  F   UNL A   1      38.520  31.997  38.213  1.00  0.00    -0.205 F 
ATOM     76  C   UNL A   1      39.062  35.466  39.251  1.00  0.00     0.022 A 
BRANCH  74  77
ATOM     77  S   UNL A   1      37.718  33.596  40.730  1.00  0.00     0.127 S 
ATOM     78  O   UNL A   1      38.477  32.422  41.154  1.00  0.00    -0.237 OA
ATOM     79  O   UNL A   1      37.840  34.759  41.609  1.00  0.00    -0.237 OA
ATOM     80  O   UNL A   1      36.363  33.336  40.263  1.00  0.00    -0.744 OA
ENDBRANCH  74  77
ENDBRANCH  46  70
BRANCH  58  81
ATOM     81  C   UNL A   1      44.081  28.798  35.400  1.00  0.00     0.023 A 
ATOM     82  C   UNL A   1      45.370  29.348  35.254  1.00  0.00     0.012 A 
ATOM     83  C   UNL A   1      43.881  27.732  36.301  1.00  0.00     0.148 A 
ATOM     84  C   UNL A   1      46.448  28.826  35.967  1.00  0.00     0.002 A 
ATOM     85  C   UNL A   1      44.950  27.251  37.047  1.00  0.00     0.091 A 
ATOM     86  F   UNL A   1      42.650  27.213  36.414  1.00  0.00    -0.205 F 
ATOM     87  C   UNL A   1      46.236  27.787  36.871  1.00  0.00     0.022 A 
BRANCH  85  88
ATOM     88  S   UNL A   1      44.759  25.984  38.305  1.00  0.00     0.127 S 
ATOM     89  O   UNL A   1      43.858  26.639  39.252  1.00  0.00    -0.237 OA
ATOM     90  O   UNL A   1      44.154  24.887  37.549  1.00  0.00    -0.237 OA
ATOM     91  O   UNL A   1      46.097  25.708  38.807  1.00  0.00    -0.744 OA
ENDBRANCH  85  88
ENDBRANCH  58  81
ENDBRANCH  32  33
ENDBRANCH  24  27
ENDBRANCH  22  23
ENDBRANCH  21  22
ENDBRANCH   1  21
TORSDOF 17
ENDMDL
MODEL 2
REMARK VINA RESULT:     -11.4      3.457      8.798
REMARK SMILES CN1CC[N@H+](CC(=O)NCCCCCCNC(=O)c2ccc(-c3c4nc(c(-c5cccc(S(=O)(=O)[O-])c5F)c5ccc([nH]5)c(-c5cccc(S(=O)(=O)[O-])c5F)c5nc(c(-c6cccc(S(=O)(=O)[O-])c6F)c6ccc3[nH]6)C=C5)C=C4)cc2)C(C)(C)C1=O
REMARK SMILES IDX 13 1 12 2 11 3 10 4 9 5 7 6 8 7 6 9 5 10 1 11 2 12 3 13
REMARK SMILES IDX 85 14 4 15 82 16 86 17 83 18 84 19 14 21 15 22 16 23 17 24
REMARK SMILES IDX 18 26 19 27 20 28 81 29 21 30 80 31 22 32 23 33 24 34 74 35
REMARK SMILES IDX 25 36 79 37 73 38 75 39 26 40 78 41 72 42 71 43 27 45 59 46
REMARK SMILES IDX 39 47 58 48 40 49 43 50 57 51 76 52 41 53 42 54 56 56 77 57
REMARK SMILES IDX 44 58 28 59 29 60 37 61 30 62 32 63 38 64 31 65 33 66 34 67
REMARK SMILES IDX 35 68 36 69 60 70 61 71 69 72 62 73 64 74 70 75 63 76 65 77
REMARK SMILES IDX 66 78 67 79 68 80 45 81 46 82 54 83 47 84 49 85 55 86 48 87
REMARK SMILES IDX 50 88 51 89 52 90 53 91
REMARK H PARENT 9 8 5 20 16 25 75 44 43 55
REMARK Flexibility Score: inf
ROOT
ATOM      1  C   UNL A   1      32.471  27.566  24.761  1.00  0.00     0.002 C 
ENDROOT
BRANCH   1   2
ATOM      2  C   UNL A   1      31.073  28.127  24.507  1.00  0.00     0.002 C 
BRANCH   2   3
ATOM      3  C   UNL A   1      30.021  27.044  24.242  1.00  0.00     0.021 C 
BRANCH   3   4
ATOM      4  C   UNL A   1      30.555  25.610  24.177  1.00  0.00     0.116 C 
BRANCH   4   5
ATOM      5  N   UNL A   1      30.259  24.818  25.365  1.00  0.00    -0.351 N 
ATOM      6  C   UNL A   1      31.008  24.051  26.206  1.00  0.00     0.275 C 
ATOM      7  O   UNL A   1      30.436  23.632  27.221  1.00  0.00    -0.269 OA
ATOM      8  H   UNL A   1      29.308  24.843  25.616  1.00  0.00     0.163 HD
BRANCH   6   9
ATOM      9  C   UNL A   1      32.493  23.745  25.976  1.00  0.00     0.364 C 
BRANCH   9  10
ATOM     10  N   UNL A   1      32.827  22.479  25.260  1.00  0.00    -0.314 N 
ATOM     11  C   UNL A   1      36.643  22.904  23.251  1.00  0.00     0.147 C 
ATOM     12  N   UNL A   1      35.365  22.737  23.918  1.00  0.00    -0.335 N 
ATOM     13  C   UNL A   1      34.158  23.086  23.178  1.00  0.00     0.180 C 
ATOM     14  C   UNL A   1      35.342  22.358  25.264  1.00  0.00     0.283 C 
ATOM     15  C   UNL A   1      32.841  22.600  23.799  1.00  0.00     0.285 C 
ATOM     16  C   UNL A   1      34.002  21.714  25.757  1.00  0.00     0.172 C 
ATOM     17  O   UNL A   1      36.374  22.344  25.934  1.00  0.00    -0.268 OA
ATOM     18  C   UNL A   1      34.110  20.279  25.164  1.00  0.00     0.090 C 
ATOM     19  C   UNL A   1      33.836  21.434  27.262  1.00  0.00     0.090 C 
ATOM     20  H   UNL A   1      32.025  21.902  25.514  1.00  0.00     0.349 HD
ENDBRANCH   9  10
ENDBRANCH   6   9
ENDBRANCH   4   5
ENDBRANCH   3   4
ENDBRANCH   2   3
ENDBRANCH   1   2
BRANCH   1  21
ATOM     21  C   UNL A   1      32.950  27.662  26.215  1.00  0.00     0.021 C 
BRANCH  21  22
ATOM     22  C   UNL A   1      34.230  28.471  26.410  1.00  0.00     0.116 C 
BRANCH  22  23
ATOM     23  N   UNL A   1      33.922  29.877  26.637  1.00  0.00    -0.352 N 
ATOM     24  C   UNL A   1      34.483  30.712  27.569  1.00  0.00     0.251 C 
ATOM     25  H   UNL A   1      33.234  30.273  26.055  1.00  0.00     0.163 HD
ATOM     26  O   UNL A   1      33.925  31.761  27.900  1.00  0.00    -0.269 OA
BRANCH  24  27
ATOM     27  C   UNL A   1      35.773  30.331  28.174  1.00  0.00     0.039 A 
ATOM     28  C   UNL A   1      35.797  29.659  29.396  1.00  0.00     0.014 A 
ATOM     29  C   UNL A   1      36.961  30.611  27.490  1.00  0.00     0.014 A 
ATOM     30  C   UNL A   1      37.019  29.217  29.909  1.00  0.00     0.010 A 
ATOM     31  C   UNL A   1      38.165  30.107  27.967  1.00  0.00     0.010 A 
ATOM     32  C   UNL A   1      38.208  29.411  29.185  1.00  0.00    -0.014 A 
BRANCH  32  33
ATOM     33  C   UNL A   1      39.505  28.875  29.673  1.00  0.00     0.031 A 
ATOM     34  C   UNL A   1      40.246  29.573  30.780  1.00  0.00     0.074 A 
ATOM     35  C   UNL A   1      40.056  27.811  29.057  1.00  0.00     0.049 A 
ATOM     36  N   UNL A   1      41.405  29.279  31.308  1.00  0.00    -0.248 NA
ATOM     37  C   UNL A   1      39.614  30.774  31.352  1.00  0.00     0.031 C 
ATOM     38  C   UNL A   1      39.475  27.100  27.916  1.00  0.00     0.029 A 
ATOM     39  N   UNL A   1      41.242  27.158  29.284  1.00  0.00    -0.354 N 
ATOM     40  C   UNL A   1      41.658  30.273  32.247  1.00  0.00     0.074 A 
ATOM     41  C   UNL A   1      40.547  31.198  32.192  1.00  0.00     0.031 C 
ATOM     42  C   UNL A   1      40.302  26.109  27.547  1.00  0.00     0.029 A 
ATOM     43  C   UNL A   1      41.487  26.134  28.401  1.00  0.00     0.049 A 
ATOM     44  H   UNL A   1      41.860  27.400  30.012  1.00  0.00     0.167 HD
ATOM     45  C   UNL A   1      42.706  30.390  33.095  1.00  0.00     0.034 A 
ATOM     46  C   UNL A   1      42.549  25.314  28.280  1.00  0.00     0.034 A 
ATOM     47  C   UNL A   1      43.792  29.450  33.167  1.00  0.00     0.049 A 
ATOM     48  C   UNL A   1      43.689  25.449  29.254  1.00  0.00     0.074 A 
ATOM     49  C   UNL A   1      44.850  29.425  34.058  1.00  0.00     0.029 A 
ATOM     50  N   UNL A   1      43.972  28.381  32.302  1.00  0.00    -0.354 N 
ATOM     51  N   UNL A   1      43.827  26.289  30.250  1.00  0.00    -0.248 NA
ATOM     52  C   UNL A   1      44.804  24.503  29.107  1.00  0.00     0.031 C 
ATOM     53  C   UNL A   1      45.690  28.362  33.707  1.00  0.00     0.029 A 
ATOM     54  C   UNL A   1      45.136  27.703  32.623  1.00  0.00     0.049 A 
ATOM     55  H   UNL A   1      43.361  28.140  31.568  1.00  0.00     0.167 HD
ATOM     56  C   UNL A   1      45.029  25.958  30.865  1.00  0.00     0.074 A 
ATOM     57  C   UNL A   1      45.566  24.822  30.145  1.00  0.00     0.031 C 
ATOM     58  C   UNL A   1      45.641  26.550  31.921  1.00  0.00     0.034 A 
BRANCH  45  59
ATOM     59  C   UNL A   1      42.709  31.559  34.049  1.00  0.00     0.023 A 
ATOM     60  C   UNL A   1      43.192  32.812  33.617  1.00  0.00     0.012 A 
ATOM     61  C   UNL A   1      42.185  31.432  35.350  1.00  0.00     0.148 A 
ATOM     62  C   UNL A   1      43.190  33.909  34.477  1.00  0.00     0.002 A 
ATOM     63  C   UNL A   1      42.142  32.542  36.185  1.00  0.00     0.091 A 
ATOM     64  F   UNL A   1      41.748  30.230  35.751  1.00  0.00    -0.205 F 
ATOM     65  C   UNL A   1      42.656  33.777  35.756  1.00  0.00     0.022 A 
BRANCH  63  66
ATOM     66  S   UNL A   1      41.401  32.498  37.821  1.00  0.00     0.127 S 
ATOM     67  O   UNL A   1      40.028  32.098  37.513  1.00  0.00    -0.237 OA
ATOM     68  O   UNL A   1      42.198  31.470  38.491  1.00  0.00    -0.237 OA
ATOM     69  O   UNL A   1      41.553  33.838  38.368  1.00  0.00    -0.744 OA
ENDBRANCH  63  66
ENDBRANCH  45  59
BRANCH  46  70
ATOM     70  C   UNL A   1      42.559  24.261  27.227  1.00  0.00     0.023 A 
ATOM     71  C   UNL A   1      43.201  24.512  25.999  1.00  0.00     0.012 A 
ATOM     72  C   UNL A   1      41.968  23.001  27.448  1.00  0.00     0.148 A 
ATOM     73  C   UNL A   1      43.229  23.539  24.998  1.00  0.00     0.002 A 
ATOM     74  C   UNL A   1      42.049  22.017  26.469  1.00  0.00     0.091 A 
ATOM     75  F   UNL A   1      41.352  22.786  28.619  1.00  0.00    -0.205 F 
ATOM     76  C   UNL A   1      42.663  22.289  25.237  1.00  0.00     0.022 A 
BRANCH  74  77
ATOM     77  S   UNL A   1      41.467  20.339  26.739  1.00  0.00     0.127 S 
ATOM     78  O   UNL A   1      41.784  19.703  25.463  1.00  0.00    -0.237 OA
ATOM     79  O   UNL A   1      42.298  19.911  27.865  1.00  0.00    -0.237 OA
ATOM     80  O   UNL A   1      40.049  20.457  27.050  1.00  0.00    -0.744 OA
ENDBRANCH  74  77
ENDBRANCH  46  70
BRANCH  58  81
ATOM     81  C   UNL A   1      46.954  25.972  32.382  1.00  0.00     0.023 A 
ATOM     82  C   UNL A   1      48.163  26.490  31.877  1.00  0.00     0.012 A 
ATOM     83  C   UNL A   1      46.990  24.969  33.371  1.00  0.00     0.148 A 
ATOM     84  C   UNL A   1      49.388  25.996  32.324  1.00  0.00     0.002 A 
ATOM     85  C   UNL A   1      48.213  24.518  33.850  1.00  0.00     0.091 A 
ATOM     86  F   UNL A   1      45.828  24.479  33.827  1.00  0.00    -0.205 F 
ATOM     87  C   UNL A   1      49.412  25.020  33.318  1.00  0.00     0.022 A 
BRANCH  85  88
ATOM     88  S   UNL A   1      48.349  23.336  35.195  1.00  0.00     0.127 S 
ATOM     89  O   UNL A   1      47.625  24.020  36.266  1.00  0.00    -0.237 OA
ATOM     90  O   UNL A   1      47.663  22.165  34.648  1.00  0.00    -0.237 OA
ATOM     91  O   UNL A   1      49.774  23.150  35.428  1.00  0.00    -0.744 OA
ENDBRANCH  85  88
ENDBRANCH  58  81
ENDBRANCH  32  33
ENDBRANCH  24  27
ENDBRANCH  22  23
ENDBRANCH  21  22
ENDBRANCH   1  21
TORSDOF 17
ENDMDL
MODEL 3
REMARK VINA RESULT:     -11.2      2.200      8.267
REMARK SMILES CN1CC[N@H+](CC(=O)NCCCCCCNC(=O)c2ccc(-c3c4nc(c(-c5cccc(S(=O)(=O)[O-])c5F)c5ccc([nH]5)c(-c5cccc(S(=O)(=O)[O-])c5F)c5nc(c(-c6cccc(S(=O)(=O)[O-])c6F)c6ccc3[nH]6)C=C5)C=C4)cc2)C(C)(C)C1=O
REMARK SMILES IDX 13 1 12 2 11 3 10 4 9 5 7 6 8 7 6 9 5 10 1 11 2 12 3 13
REMARK SMILES IDX 85 14 4 15 82 16 86 17 83 18 84 19 14 21 15 22 16 23 17 24
REMARK SMILES IDX 18 26 19 27 20 28 81 29 21 30 80 31 22 32 23 33 24 34 74 35
REMARK SMILES IDX 25 36 79 37 73 38 75 39 26 40 78 41 72 42 71 43 27 45 59 46
REMARK SMILES IDX 39 47 58 48 40 49 43 50 57 51 76 52 41 53 42 54 56 56 77 57
REMARK SMILES IDX 44 58 28 59 29 60 37 61 30 62 32 63 38 64 31 65 33 66 34 67
REMARK SMILES IDX 35 68 36 69 60 70 61 71 69 72 62 73 64 74 70 75 63 76 65 77
REMARK SMILES IDX 66 78 67 79 68 80 45 81 46 82 54 83 47 84 49 85 55 86 48 87
REMARK SMILES IDX 50 88 51 89 52 90 53 91
REMARK H PARENT 9 8 5 20 16 25 75 44 43 55
REMARK Flexibility Score: inf
ROOT
ATOM      1  C   UNL A   1      32.346  28.191  25.673  1.00  0.00     0.002 C 
ENDROOT
BRANCH   1   2
ATOM      2  C   UNL A   1      31.141  27.507  25.030  1.00  0.00     0.002 C 
BRANCH   2   3
ATOM      3  C   UNL A   1      30.558  28.284  23.845  1.00  0.00     0.021 C 
BRANCH   3   4
ATOM      4  C   UNL A   1      30.396  27.484  22.549  1.00  0.00     0.116 C 
BRANCH   4   5
ATOM      5  N   UNL A   1      31.659  27.081  21.944  1.00  0.00    -0.351 N 
ATOM      6  C   UNL A   1      32.388  25.930  21.944  1.00  0.00     0.275 C 
ATOM      7  O   UNL A   1      33.364  25.899  21.184  1.00  0.00    -0.269 OA
ATOM      8  H   UNL A   1      32.078  27.799  21.418  1.00  0.00     0.163 HD
BRANCH   6   9
ATOM      9  C   UNL A   1      32.025  24.697  22.781  1.00  0.00     0.364 C 
BRANCH   9  10
ATOM     10  N   UNL A   1      33.150  23.925  23.384  1.00  0.00    -0.314 N 
ATOM     11  C   UNL A   1      32.219  22.971  27.507  1.00  0.00     0.147 C 
ATOM     12  N   UNL A   1      32.551  23.275  26.128  1.00  0.00    -0.335 N 
ATOM     13  C   UNL A   1      33.269  24.516  25.856  1.00  0.00     0.180 C 
ATOM     14  C   UNL A   1      32.082  22.437  25.112  1.00  0.00     0.283 C 
ATOM     15  C   UNL A   1      33.867  24.635  24.448  1.00  0.00     0.285 C 
ATOM     16  C   UNL A   1      32.871  22.513  23.761  1.00  0.00     0.172 C 
ATOM     17  O   UNL A   1      31.250  21.562  25.349  1.00  0.00    -0.268 OA
ATOM     18  C   UNL A   1      34.150  21.693  24.101  1.00  0.00     0.090 C 
ATOM     19  C   UNL A   1      32.311  21.755  22.543  1.00  0.00     0.090 C 
ATOM     20  H   UNL A   1      33.778  23.852  22.584  1.00  0.00     0.349 HD
ENDBRANCH   9  10
ENDBRANCH   6   9
ENDBRANCH   4   5
ENDBRANCH   3   4
ENDBRANCH   2   3
ENDBRANCH   1   2
BRANCH   1  21
ATOM     21  C   UNL A   1      32.317  29.723  25.628  1.00  0.00     0.021 C 
BRANCH  21  22
ATOM     22  C   UNL A   1      32.319  30.399  26.997  1.00  0.00     0.116 C 
BRANCH  22  23
ATOM     23  N   UNL A   1      32.440  31.845  26.859  1.00  0.00    -0.352 N 
ATOM     24  C   UNL A   1      33.369  32.663  27.449  1.00  0.00     0.251 C 
ATOM     25  H   UNL A   1      31.781  32.285  26.276  1.00  0.00     0.163 HD
ATOM     26  O   UNL A   1      33.179  33.878  27.540  1.00  0.00    -0.269 OA
BRANCH  24  27
ATOM     27  C   UNL A   1      34.607  32.059  27.979  1.00  0.00     0.039 A 
ATOM     28  C   UNL A   1      35.738  32.851  28.175  1.00  0.00     0.014 A 
ATOM     29  C   UNL A   1      34.616  30.703  28.322  1.00  0.00     0.014 A 
ATOM     30  C   UNL A   1      36.871  32.290  28.769  1.00  0.00     0.010 A 
ATOM     31  C   UNL A   1      35.719  30.166  28.977  1.00  0.00     0.010 A 
ATOM     32  C   UNL A   1      36.859  30.952  29.202  1.00  0.00    -0.014 A 
BRANCH  32  33
ATOM     33  C   UNL A   1      38.024  30.361  29.911  1.00  0.00     0.031 A 
ATOM     34  C   UNL A   1      38.341  30.771  31.322  1.00  0.00     0.074 A 
ATOM     35  C   UNL A   1      38.846  29.522  29.250  1.00  0.00     0.049 A 
ATOM     36  N   UNL A   1      39.335  30.397  32.085  1.00  0.00    -0.248 NA
ATOM     37  C   UNL A   1      37.438  31.750  31.952  1.00  0.00     0.031 C 
ATOM     38  C   UNL A   1      38.692  29.116  27.851  1.00  0.00     0.029 A 
ATOM     39  N   UNL A   1      39.991  28.884  29.656  1.00  0.00    -0.354 N 
ATOM     40  C   UNL A   1      39.199  31.116  33.267  1.00  0.00     0.074 A 
ATOM     41  C   UNL A   1      38.045  31.974  33.108  1.00  0.00     0.031 C 
ATOM     42  C   UNL A   1      39.700  28.294  27.518  1.00  0.00     0.029 A 
ATOM     43  C   UNL A   1      40.590  28.142  28.666  1.00  0.00     0.049 A 
ATOM     44  H   UNL A   1      40.350  28.950  30.571  1.00  0.00     0.167 HD
ATOM     45  C   UNL A   1      39.949  31.048  34.392  1.00  0.00     0.034 A 
ATOM     46  C   UNL A   1      41.734  27.429  28.673  1.00  0.00     0.034 A 
ATOM     47  C   UNL A   1      41.075  30.170  34.555  1.00  0.00     0.049 A 
ATOM     48  C   UNL A   1      42.535  27.349  29.945  1.00  0.00     0.074 A 
ATOM     49  C   UNL A   1      41.840  29.954  35.687  1.00  0.00     0.029 A 
ATOM     50  N   UNL A   1      41.613  29.377  33.552  1.00  0.00    -0.354 N 
ATOM     51  N   UNL A   1      42.291  27.900  31.109  1.00  0.00    -0.248 NA
ATOM     52  C   UNL A   1      43.750  26.524  29.914  1.00  0.00     0.031 C 
ATOM     53  C   UNL A   1      42.864  29.059  35.358  1.00  0.00     0.029 A 
ATOM     54  C   UNL A   1      42.714  28.688  34.032  1.00  0.00     0.049 A 
ATOM     55  H   UNL A   1      41.263  29.313  32.634  1.00  0.00     0.167 HD
ATOM     56  C   UNL A   1      43.305  27.469  31.956  1.00  0.00     0.074 A 
ATOM     57  C   UNL A   1      44.151  26.588  31.177  1.00  0.00     0.031 C 
ATOM     58  C   UNL A   1      43.526  27.784  33.256  1.00  0.00     0.034 A 
BRANCH  45  59
ATOM     59  C   UNL A   1      39.549  31.921  35.555  1.00  0.00     0.023 A 
ATOM     60  C   UNL A   1      40.007  33.254  35.619  1.00  0.00     0.012 A 
ATOM     61  C   UNL A   1      38.678  31.442  36.553  1.00  0.00     0.148 A 
ATOM     62  C   UNL A   1      39.639  34.082  36.677  1.00  0.00     0.002 A 
ATOM     63  C   UNL A   1      38.276  32.289  37.579  1.00  0.00     0.091 A 
ATOM     64  F   UNL A   1      38.267  30.168  36.487  1.00  0.00    -0.205 F 
ATOM     65  C   UNL A   1      38.765  33.604  37.650  1.00  0.00     0.022 A 
BRANCH  63  66
ATOM     66  S   UNL A   1      37.091  31.797  38.836  1.00  0.00     0.127 S 
ATOM     67  O   UNL A   1      36.848  30.399  38.481  1.00  0.00    -0.237 OA
ATOM     68  O   UNL A   1      37.855  31.987  40.069  1.00  0.00    -0.237 OA
ATOM     69  O   UNL A   1      35.950  32.687  38.684  1.00  0.00    -0.744 OA
ENDBRANCH  63  66
ENDBRANCH  45  59
BRANCH  46  70
ATOM     70  C   UNL A   1      42.160  26.694  27.450  1.00  0.00     0.023 A 
ATOM     71  C   UNL A   1      42.798  27.392  26.407  1.00  0.00     0.012 A 
ATOM     72  C   UNL A   1      41.968  25.303  27.329  1.00  0.00     0.148 A 
ATOM     73  C   UNL A   1      43.211  26.725  25.252  1.00  0.00     0.002 A 
ATOM     74  C   UNL A   1      42.433  24.636  26.202  1.00  0.00     0.091 A 
ATOM     75  F   UNL A   1      41.349  24.659  28.329  1.00  0.00    -0.205 F 
ATOM     76  C   UNL A   1      43.039  25.347  25.155  1.00  0.00     0.022 A 
BRANCH  74  77
ATOM     77  S   UNL A   1      42.376  22.847  26.050  1.00  0.00     0.127 S 
ATOM     78  O   UNL A   1      40.941  22.585  26.130  1.00  0.00    -0.237 OA
ATOM     79  O   UNL A   1      42.969  22.638  24.728  1.00  0.00    -0.237 OA
ATOM     80  O   UNL A   1      43.174  22.330  27.154  1.00  0.00    -0.744 OA
ENDBRANCH  74  77
ENDBRANCH  46  70
BRANCH  58  81
ATOM     81  C   UNL A   1      44.719  27.162  33.934  1.00  0.00     0.023 A 
ATOM     82  C   UNL A   1      45.967  27.815  33.898  1.00  0.00     0.012 A 
ATOM     83  C   UNL A   1      44.585  25.967  34.671  1.00  0.00     0.148 A 
ATOM     84  C   UNL A   1      47.070  27.274  34.556  1.00  0.00     0.002 A 
ATOM     85  C   UNL A   1      45.675  25.461  35.367  1.00  0.00     0.091 A 
ATOM     86  F   UNL A   1      43.392  25.353  34.680  1.00  0.00    -0.205 F 
ATOM     87  C   UNL A   1      46.921  26.104  35.299  1.00  0.00     0.022 A 
BRANCH  85  88
ATOM     88  S   UNL A   1      45.558  24.018  36.429  1.00  0.00     0.127 S 
ATOM     89  O   UNL A   1      45.025  23.014  35.510  1.00  0.00    -0.237 OA
ATOM     90  O   UNL A   1      46.952  23.807  36.820  1.00  0.00    -0.237 OA
ATOM     91  O   UNL A   1      44.672  24.392  37.523  1.00  0.00    -0.744 OA
ENDBRANCH  85  88
ENDBRANCH  58  81
ENDBRANCH  32  33
ENDBRANCH  24  27
ENDBRANCH  22  23
ENDBRANCH  21  22
ENDBRANCH   1  21
TORSDOF 17
ENDMDL
