MODEL 1
REMARK VINA RESULT:     -10.4      0.000      0.000
REMARK SMILES CC(C)CCN(C(=O)N[C@H](C(=O)NCCCCCCNC(=O)c1ccc(-c2c3nc(c(-c4cccc(S(=O)(=O)[O-])c4F)c4ccc([nH]4)c(-c4cccc(S(=O)(=O)[O-])c4F)c4nc(c(-c5cccc(S(=O)(=O)[O-])c5F)c5ccc2[nH]5)C=C4)C=C3)cc1)[C@H](C)O)C1CCCC1
REMARK SMILES IDX 15 1 14 2 13 3 11 4 12 5 10 7 9 8 7 9 8 10 6 12 5 13 4 14
REMARK SMILES IDX 2 15 1 16 3 17 89 18 90 19 93 20 91 21 92 22 86 23 87 24
REMARK SMILES IDX 88 25 16 27 17 28 18 29 19 30 20 31 21 32 22 34 23 35 24 36
REMARK SMILES IDX 85 37 25 38 84 39 26 40 27 41 28 42 78 43 29 44 83 45 77 46
REMARK SMILES IDX 79 47 30 48 82 49 76 50 75 51 31 53 63 54 43 55 62 56 44 57
REMARK SMILES IDX 47 58 61 59 80 60 45 61 46 62 60 64 81 65 48 66 32 67 33 68
REMARK SMILES IDX 41 69 34 70 36 71 42 72 35 73 37 74 38 75 39 76 40 77 64 78
REMARK SMILES IDX 65 79 73 80 66 81 68 82 74 83 67 84 69 85 70 86 71 87 72 88
REMARK SMILES IDX 49 89 50 90 58 91 51 92 53 93 59 94 52 95 54 96 55 97 56 98
REMARK SMILES IDX 57 99
REMARK H PARENT 13 6 9 11 88 26 20 33 79 52 47 63
REMARK Flexibility Score: inf
ROOT
ATOM      1  C   UNL A   1      33.564  28.487  24.839  1.00  0.00     0.021 C 
ENDROOT
BRANCH   1   2
ATOM      2  C   UNL A   1      33.653  27.076  25.394  1.00  0.00     0.116 C 
BRANCH   2   3
ATOM      3  N   UNL A   1      34.193  26.117  24.461  1.00  0.00    -0.354 N 
ATOM      4  C   UNL A   1      34.496  24.798  24.593  1.00  0.00     0.245 C 
ATOM      5  O   UNL A   1      34.672  24.199  23.525  1.00  0.00    -0.273 OA
ATOM      6  H   UNL A   1      34.373  26.484  23.565  1.00  0.00     0.163 HD
BRANCH   4   7
ATOM      7  C   UNL A   1      34.668  24.064  25.960  1.00  0.00     0.201 C 
BRANCH   7   8
ATOM      8  N   UNL A   1      33.485  23.590  26.684  1.00  0.00    -0.324 N 
ATOM      9  C   UNL A   1      32.302  22.997  26.501  1.00  0.00     0.318 C 
ATOM     10  O   UNL A   1      31.852  22.553  27.563  1.00  0.00    -0.249 OA
ATOM     11  H   UNL A   1      33.603  23.776  27.644  1.00  0.00     0.166 HD
BRANCH   9  12
ATOM     12  N   UNL A   1      31.637  22.879  25.309  1.00  0.00    -0.322 N 
BRANCH  12  13
ATOM     13  C   UNL A   1      31.817  21.867  24.246  1.00  0.00     0.122 C 
BRANCH  13  14
ATOM     14  C   UNL A   1      32.793  20.711  24.554  1.00  0.00     0.024 C 
BRANCH  14  15
ATOM     15  C   UNL A   1      32.279  19.260  24.502  1.00  0.00    -0.016 C 
ATOM     16  C   UNL A   1      32.520  18.600  23.146  1.00  0.00     0.007 C 
ATOM     17  C   UNL A   1      32.940  18.441  25.614  1.00  0.00     0.007 C 
ENDBRANCH  14  15
ENDBRANCH  13  14
ENDBRANCH  12  13
BRANCH  12  18
ATOM     18  C   UNL A   1      30.704  23.963  24.957  1.00  0.00     0.087 C 
ATOM     19  C   UNL A   1      30.802  25.184  25.869  1.00  0.00     0.025 C 
ATOM     20  C   UNL A   1      30.747  24.567  23.547  1.00  0.00     0.025 C 
ATOM     21  C   UNL A   1      29.858  26.166  25.196  1.00  0.00     0.002 C 
ATOM     22  C   UNL A   1      29.996  25.897  23.694  1.00  0.00     0.002 C 
ENDBRANCH  12  18
ENDBRANCH   9  12
ENDBRANCH   7   8
BRANCH   7  23
ATOM     23  C   UNL A   1      35.910  23.134  26.004  1.00  0.00     0.143 C 
ATOM     24  C   UNL A   1      37.231  23.867  25.762  1.00  0.00     0.041 C 
BRANCH  23  25
ATOM     25  O   UNL A   1      35.841  22.150  24.959  1.00  0.00    -0.391 OA
ATOM     26  H   UNL A   1      36.082  22.558  24.114  1.00  0.00     0.211 HD
ENDBRANCH  23  25
ENDBRANCH   7  23
ENDBRANCH   4   7
ENDBRANCH   2   3
ENDBRANCH   1   2
BRANCH   1  27
ATOM     27  C   UNL A   1      33.162  29.538  25.873  1.00  0.00     0.002 C 
BRANCH  27  28
ATOM     28  C   UNL A   1      31.767  30.147  25.679  1.00  0.00     0.002 C 
BRANCH  28  29
ATOM     29  C   UNL A   1      31.500  31.445  26.449  1.00  0.00     0.021 C 
BRANCH  29  30
ATOM     30  C   UNL A   1      32.740  32.092  27.056  1.00  0.00     0.116 C 
BRANCH  30  31
ATOM     31  N   UNL A   1      32.522  33.499  27.356  1.00  0.00    -0.352 N 
ATOM     32  C   UNL A   1      33.081  34.279  28.335  1.00  0.00     0.251 C 
ATOM     33  H   UNL A   1      31.876  33.957  26.771  1.00  0.00     0.163 HD
ATOM     34  O   UNL A   1      32.611  35.386  28.578  1.00  0.00    -0.269 OA
BRANCH  32  35
ATOM     35  C   UNL A   1      34.245  33.782  29.100  1.00  0.00     0.039 A 
ATOM     36  C   UNL A   1      34.029  32.900  30.161  1.00  0.00     0.014 A 
ATOM     37  C   UNL A   1      35.541  34.198  28.784  1.00  0.00     0.014 A 
ATOM     38  C   UNL A   1      35.119  32.395  30.873  1.00  0.00     0.010 A 
ATOM     39  C   UNL A   1      36.630  33.637  29.447  1.00  0.00     0.010 A 
ATOM     40  C   UNL A   1      36.431  32.736  30.503  1.00  0.00    -0.014 A 
BRANCH  40  41
ATOM     41  C   UNL A   1      37.605  32.158  31.206  1.00  0.00     0.031 A 
ATOM     42  C   UNL A   1      38.353  30.998  30.605  1.00  0.00     0.074 A 
ATOM     43  C   UNL A   1      37.952  32.631  32.421  1.00  0.00     0.049 A 
ATOM     44  N   UNL A   1      39.353  30.317  31.101  1.00  0.00    -0.248 NA
ATOM     45  C   UNL A   1      37.904  30.525  29.284  1.00  0.00     0.031 C 
ATOM     46  C   UNL A   1      37.260  33.704  33.140  1.00  0.00     0.029 A 
ATOM     47  N   UNL A   1      38.954  32.251  33.278  1.00  0.00    -0.354 N 
ATOM     48  C   UNL A   1      39.640  29.326  30.169  1.00  0.00     0.074 A 
ATOM     49  C   UNL A   1      38.681  29.466  29.095  1.00  0.00     0.031 C 
ATOM     50  C   UNL A   1      37.856  33.892  34.329  1.00  0.00     0.029 A 
ATOM     51  C   UNL A   1      38.948  32.935  34.472  1.00  0.00     0.049 A 
ATOM     52  H   UNL A   1      39.615  31.555  33.060  1.00  0.00     0.167 HD
ATOM     53  C   UNL A   1      40.635  28.407  30.185  1.00  0.00     0.034 A 
ATOM     54  C   UNL A   1      39.724  32.796  35.565  1.00  0.00     0.034 A 
ATOM     55  C   UNL A   1      41.607  28.291  31.237  1.00  0.00     0.049 A 
ATOM     56  C   UNL A   1      40.831  31.775  35.547  1.00  0.00     0.074 A 
ATOM     57  C   UNL A   1      42.684  27.425  31.322  1.00  0.00     0.029 A 
ATOM     58  N   UNL A   1      41.622  29.062  32.389  1.00  0.00    -0.354 N 
ATOM     59  N   UNL A   1      41.171  30.943  34.593  1.00  0.00    -0.248 NA
ATOM     60  C   UNL A   1      41.688  31.702  36.739  1.00  0.00     0.031 C 
ATOM     61  C   UNL A   1      43.341  27.663  32.533  1.00  0.00     0.029 A 
ATOM     62  C   UNL A   1      42.691  28.695  33.189  1.00  0.00     0.049 A 
ATOM     63  H   UNL A   1      40.970  29.766  32.607  1.00  0.00     0.167 HD
ATOM     64  C   UNL A   1      42.302  30.278  35.052  1.00  0.00     0.074 A 
ATOM     65  C   UNL A   1      42.605  30.823  36.359  1.00  0.00     0.031 C 
ATOM     66  C   UNL A   1      43.017  29.293  34.457  1.00  0.00     0.034 A 
BRANCH  53  67
ATOM     67  C   UNL A   1      40.770  27.495  28.993  1.00  0.00     0.023 A 
ATOM     68  C   UNL A   1      39.885  26.406  28.855  1.00  0.00     0.012 A 
ATOM     69  C   UNL A   1      41.704  27.759  27.972  1.00  0.00     0.148 A 
ATOM     70  C   UNL A   1      39.943  25.578  27.735  1.00  0.00     0.002 A 
ATOM     71  C   UNL A   1      41.726  26.957  26.837  1.00  0.00     0.091 A 
ATOM     72  F   UNL A   1      42.545  28.791  28.128  1.00  0.00    -0.205 F 
ATOM     73  C   UNL A   1      40.854  25.861  26.723  1.00  0.00     0.022 A 
BRANCH  71  74
ATOM     74  S   UNL A   1      42.805  27.278  25.437  1.00  0.00     0.127 S 
ATOM     75  O   UNL A   1      44.088  27.509  26.099  1.00  0.00    -0.237 OA
ATOM     76  O   UNL A   1      42.721  26.020  24.693  1.00  0.00    -0.237 OA
ATOM     77  O   UNL A   1      42.245  28.433  24.751  1.00  0.00    -0.744 OA
ENDBRANCH  71  74
ENDBRANCH  53  67
BRANCH  54  78
ATOM     78  C   UNL A   1      39.513  33.666  36.757  1.00  0.00     0.023 A 
ATOM     79  C   UNL A   1      39.978  34.996  36.740  1.00  0.00     0.012 A 
ATOM     80  C   UNL A   1      38.871  33.181  37.913  1.00  0.00     0.148 A 
ATOM     81  C   UNL A   1      39.854  35.809  37.869  1.00  0.00     0.002 A 
ATOM     82  C   UNL A   1      38.696  34.015  39.011  1.00  0.00     0.091 A 
ATOM     83  F   UNL A   1      38.445  31.910  37.918  1.00  0.00    -0.205 F 
ATOM     84  C   UNL A   1      39.207  35.321  39.000  1.00  0.00     0.022 A 
BRANCH  82  85
ATOM     85  S   UNL A   1      37.756  33.506  40.455  1.00  0.00     0.127 S 
ATOM     86  O   UNL A   1      36.528  32.999  39.852  1.00  0.00    -0.237 OA
ATOM     87  O   UNL A   1      38.625  32.484  41.040  1.00  0.00    -0.237 OA
ATOM     88  O   UNL A   1      37.617  34.706  41.272  1.00  0.00    -0.744 OA
ENDBRANCH  82  85
ENDBRANCH  54  78
BRANCH  66  89
ATOM     89  C   UNL A   1      44.232  28.774  35.181  1.00  0.00     0.023 A 
ATOM     90  C   UNL A   1      45.491  29.365  34.959  1.00  0.00     0.012 A 
ATOM     91  C   UNL A   1      44.108  27.743  36.134  1.00  0.00     0.148 A 
ATOM     92  C   UNL A   1      46.616  28.913  35.647  1.00  0.00     0.002 A 
ATOM     93  C   UNL A   1      45.224  27.334  36.855  1.00  0.00     0.091 A 
ATOM     94  F   UNL A   1      42.904  27.183  36.319  1.00  0.00    -0.205 F 
ATOM     95  C   UNL A   1      46.480  27.908  36.602  1.00  0.00     0.022 A 
BRANCH  93  96
ATOM     96  S   UNL A   1      45.128  26.117  38.171  1.00  0.00     0.127 S 
ATOM     97  O   UNL A   1      46.473  26.189  38.741  1.00  0.00    -0.237 OA
ATOM     98  O   UNL A   1      44.073  26.665  39.023  1.00  0.00    -0.237 OA
ATOM     99  O   UNL A   1      44.792  24.853  37.528  1.00  0.00    -0.744 OA
ENDBRANCH  93  96
ENDBRANCH  66  89
ENDBRANCH  40  41
ENDBRANCH  32  35
ENDBRANCH  30  31
ENDBRANCH  29  30
ENDBRANCH  28  29
ENDBRANCH  27  28
ENDBRANCH   1  27
TORSDOF 24
ENDMDL
MODEL 2
REMARK VINA RESULT:     -10.4      5.417      8.711
REMARK SMILES CC(C)CCN(C(=O)N[C@H](C(=O)NCCCCCCNC(=O)c1ccc(-c2c3nc(c(-c4cccc(S(=O)(=O)[O-])c4F)c4ccc([nH]4)c(-c4cccc(S(=O)(=O)[O-])c4F)c4nc(c(-c5cccc(S(=O)(=O)[O-])c5F)c5ccc2[nH]5)C=C4)C=C3)cc1)[C@H](C)O)C1CCCC1
REMARK SMILES IDX 15 1 14 2 13 3 11 4 12 5 10 7 9 8 7 9 8 10 6 12 5 13 4 14
REMARK SMILES IDX 2 15 1 16 3 17 89 18 90 19 93 20 91 21 92 22 86 23 87 24
REMARK SMILES IDX 88 25 16 27 17 28 18 29 19 30 20 31 21 32 22 34 23 35 24 36
REMARK SMILES IDX 85 37 25 38 84 39 26 40 27 41 28 42 78 43 29 44 83 45 77 46
REMARK SMILES IDX 79 47 30 48 82 49 76 50 75 51 31 53 63 54 43 55 62 56 44 57
REMARK SMILES IDX 47 58 61 59 80 60 45 61 46 62 60 64 81 65 48 66 32 67 33 68
REMARK SMILES IDX 41 69 34 70 36 71 42 72 35 73 37 74 38 75 39 76 40 77 64 78
REMARK SMILES IDX 65 79 73 80 66 81 68 82 74 83 67 84 69 85 70 86 71 87 72 88
REMARK SMILES IDX 49 89 50 90 58 91 51 92 53 93 59 94 52 95 54 96 55 97 56 98
REMARK SMILES IDX 57 99
REMARK H PARENT 13 6 9 11 88 26 20 33 79 52 47 63
REMARK Flexibility Score: inf
ROOT
ATOM      1  C   UNL A   1      35.003  24.280  24.972  1.00  0.00     0.021 C 
ENDROOT
BRANCH   1   2
ATOM      2  C   UNL A   1      33.969  23.437  25.700  1.00  0.00     0.116 C 
BRANCH   2   3
ATOM      3  N   UNL A   1      32.946  24.211  26.358  1.00  0.00    -0.354 N 
ATOM      4  C   UNL A   1      31.743  24.675  25.926  1.00  0.00     0.245 C 
ATOM      5  O   UNL A   1      30.984  25.059  26.824  1.00  0.00    -0.273 OA
ATOM      6  H   UNL A   1      33.157  24.447  27.291  1.00  0.00     0.163 HD
BRANCH   4   7
ATOM      7  C   UNL A   1      31.324  24.779  24.426  1.00  0.00     0.201 C 
BRANCH   7   8
ATOM      8  N   UNL A   1      32.044  25.690  23.531  1.00  0.00    -0.324 N 
ATOM      9  C   UNL A   1      32.479  26.949  23.435  1.00  0.00     0.318 C 
ATOM     10  O   UNL A   1      33.330  27.064  22.546  1.00  0.00    -0.249 OA
ATOM     11  H   UNL A   1      32.294  25.202  22.714  1.00  0.00     0.166 HD
BRANCH   9  12
ATOM     12  N   UNL A   1      32.057  28.007  24.196  1.00  0.00    -0.322 N 
BRANCH  12  13
ATOM     13  C   UNL A   1      30.751  28.701  24.171  1.00  0.00     0.122 C 
BRANCH  13  14
ATOM     14  C   UNL A   1      30.065  28.831  22.794  1.00  0.00     0.024 C 
BRANCH  14  15
ATOM     15  C   UNL A   1      29.429  30.175  22.396  1.00  0.00    -0.016 C 
ATOM     16  C   UNL A   1      28.063  30.006  21.735  1.00  0.00     0.007 C 
ATOM     17  C   UNL A   1      29.311  31.073  23.632  1.00  0.00     0.007 C 
ENDBRANCH  14  15
ENDBRANCH  13  14
ENDBRANCH  12  13
BRANCH  12  18
ATOM     18  C   UNL A   1      33.058  28.639  25.071  1.00  0.00     0.087 C 
ATOM     19  C   UNL A   1      32.557  29.899  25.774  1.00  0.00     0.025 C 
ATOM     20  C   UNL A   1      33.687  27.824  26.209  1.00  0.00     0.025 C 
ATOM     21  C   UNL A   1      33.718  30.238  26.695  1.00  0.00     0.002 C 
ATOM     22  C   UNL A   1      34.297  28.888  27.131  1.00  0.00     0.002 C 
ENDBRANCH  12  18
ENDBRANCH   9  12
ENDBRANCH   7   8
BRANCH   7  23
ATOM     23  C   UNL A   1      30.899  23.418  23.813  1.00  0.00     0.143 C 
ATOM     24  C   UNL A   1      32.005  22.743  22.999  1.00  0.00     0.041 C 
BRANCH  23  25
ATOM     25  O   UNL A   1      29.818  23.598  22.883  1.00  0.00    -0.391 OA
ATOM     26  H   UNL A   1      29.334  24.409  23.103  1.00  0.00     0.211 HD
ENDBRANCH  23  25
ENDBRANCH   7  23
ENDBRANCH   4   7
ENDBRANCH   2   3
ENDBRANCH   1   2
BRANCH   1  27
ATOM     27  C   UNL A   1      35.379  23.746  23.590  1.00  0.00     0.002 C 
BRANCH  27  28
ATOM     28  C   UNL A   1      36.769  23.103  23.494  1.00  0.00     0.002 C 
BRANCH  28  29
ATOM     29  C   UNL A   1      36.938  21.781  24.250  1.00  0.00     0.021 C 
BRANCH  29  30
ATOM     30  C   UNL A   1      37.399  21.928  25.696  1.00  0.00     0.116 C 
BRANCH  30  31
ATOM     31  N   UNL A   1      38.430  20.959  26.034  1.00  0.00    -0.352 N 
ATOM     32  C   UNL A   1      39.722  21.168  26.444  1.00  0.00     0.251 C 
ATOM     33  H   UNL A   1      38.161  20.016  25.956  1.00  0.00     0.163 HD
ATOM     34  O   UNL A   1      40.514  20.231  26.469  1.00  0.00    -0.269 OA
BRANCH  32  35
ATOM     35  C   UNL A   1      40.159  22.522  26.848  1.00  0.00     0.039 A 
ATOM     36  C   UNL A   1      41.055  22.654  27.911  1.00  0.00     0.014 A 
ATOM     37  C   UNL A   1      39.673  23.657  26.193  1.00  0.00     0.014 A 
ATOM     38  C   UNL A   1      41.503  23.922  28.284  1.00  0.00     0.010 A 
ATOM     39  C   UNL A   1      40.177  24.913  26.518  1.00  0.00     0.010 A 
ATOM     40  C   UNL A   1      41.090  25.061  27.572  1.00  0.00    -0.014 A 
BRANCH  40  41
ATOM     41  C   UNL A   1      41.607  26.411  27.912  1.00  0.00     0.031 A 
ATOM     42  C   UNL A   1      43.031  26.781  27.591  1.00  0.00     0.074 A 
ATOM     43  C   UNL A   1      40.815  27.279  28.575  1.00  0.00     0.049 A 
ATOM     44  N   UNL A   1      43.680  27.881  27.873  1.00  0.00    -0.248 NA
ATOM     45  C   UNL A   1      43.840  25.775  26.881  1.00  0.00     0.031 C 
ATOM     46  C   UNL A   1      39.440  27.011  29.005  1.00  0.00     0.029 A 
ATOM     47  N   UNL A   1      41.062  28.550  29.029  1.00  0.00    -0.354 N 
ATOM     48  C   UNL A   1      44.973  27.695  27.396  1.00  0.00     0.074 A 
ATOM     49  C   UNL A   1      45.031  26.359  26.845  1.00  0.00     0.031 C 
ATOM     50  C   UNL A   1      38.968  28.082  29.663  1.00  0.00     0.029 A 
ATOM     51  C   UNL A   1      40.013  29.098  29.731  1.00  0.00     0.049 A 
ATOM     52  H   UNL A   1      41.909  29.026  28.868  1.00  0.00     0.167 HD
ATOM     53  C   UNL A   1      46.008  28.568  27.385  1.00  0.00     0.034 A 
ATOM     54  C   UNL A   1      39.910  30.280  30.372  1.00  0.00     0.034 A 
ATOM     55  C   UNL A   1      45.938  29.906  27.904  1.00  0.00     0.049 A 
ATOM     56  C   UNL A   1      41.073  31.236  30.327  1.00  0.00     0.074 A 
ATOM     57  C   UNL A   1      46.917  30.886  27.893  1.00  0.00     0.029 A 
ATOM     58  N   UNL A   1      44.829  30.457  28.527  1.00  0.00    -0.354 N 
ATOM     59  N   UNL A   1      42.240  31.090  29.748  1.00  0.00    -0.248 NA
ATOM     60  C   UNL A   1      40.891  32.535  30.990  1.00  0.00     0.031 C 
ATOM     61  C   UNL A   1      46.404  32.023  28.524  1.00  0.00     0.029 A 
ATOM     62  C   UNL A   1      45.098  31.762  28.903  1.00  0.00     0.049 A 
ATOM     63  H   UNL A   1      43.977  29.989  28.681  1.00  0.00     0.167 HD
ATOM     64  C   UNL A   1      42.913  32.291  29.941  1.00  0.00     0.074 A 
ATOM     65  C   UNL A   1      42.014  33.162  30.668  1.00  0.00     0.031 C 
ATOM     66  C   UNL A   1      44.168  32.638  29.567  1.00  0.00     0.034 A 
BRANCH  53  67
ATOM     67  C   UNL A   1      47.290  28.131  26.725  1.00  0.00     0.023 A 
ATOM     68  C   UNL A   1      48.373  27.720  27.530  1.00  0.00     0.012 A 
ATOM     69  C   UNL A   1      47.399  28.042  25.324  1.00  0.00     0.148 A 
ATOM     70  C   UNL A   1      49.553  27.252  26.952  1.00  0.00     0.002 A 
ATOM     71  C   UNL A   1      48.561  27.532  24.756  1.00  0.00     0.091 A 
ATOM     72  F   UNL A   1      46.364  28.450  24.576  1.00  0.00    -0.205 F 
ATOM     73  C   UNL A   1      49.641  27.148  25.568  1.00  0.00     0.022 A 
BRANCH  71  74
ATOM     74  S   UNL A   1      48.753  27.280  22.987  1.00  0.00     0.127 S 
ATOM     75  O   UNL A   1      48.209  25.933  22.820  1.00  0.00    -0.237 OA
ATOM     76  O   UNL A   1      47.918  28.347  22.435  1.00  0.00    -0.237 OA
ATOM     77  O   UNL A   1      50.176  27.411  22.712  1.00  0.00    -0.744 OA
ENDBRANCH  71  74
ENDBRANCH  53  67
BRANCH  54  78
ATOM     78  C   UNL A   1      38.651  30.649  31.079  1.00  0.00     0.023 A 
ATOM     79  C   UNL A   1      38.454  30.239  32.413  1.00  0.00     0.012 A 
ATOM     80  C   UNL A   1      37.640  31.389  30.435  1.00  0.00     0.148 A 
ATOM     81  C   UNL A   1      37.255  30.514  33.073  1.00  0.00     0.002 A 
ATOM     82  C   UNL A   1      36.474  31.712  31.119  1.00  0.00     0.091 A 
ATOM     83  F   UNL A   1      37.836  31.762  29.163  1.00  0.00    -0.205 F 
ATOM     84  C   UNL A   1      36.269  31.256  32.430  1.00  0.00     0.022 A 
BRANCH  82  85
ATOM     85  S   UNL A   1      35.214  32.777  30.408  1.00  0.00     0.127 S 
ATOM     86  O   UNL A   1      34.230  32.839  31.483  1.00  0.00    -0.237 OA
ATOM     87  O   UNL A   1      35.957  34.018  30.180  1.00  0.00    -0.237 OA
ATOM     88  O   UNL A   1      34.784  32.109  29.186  1.00  0.00    -0.744 OA
ENDBRANCH  82  85
ENDBRANCH  54  78
BRANCH  66  89
ATOM     89  C   UNL A   1      44.632  34.036  29.884  1.00  0.00     0.023 A 
ATOM     90  C   UNL A   1      45.379  34.282  31.053  1.00  0.00     0.012 A 
ATOM     91  C   UNL A   1      44.385  35.092  28.984  1.00  0.00     0.148 A 
ATOM     92  C   UNL A   1      45.841  35.566  31.340  1.00  0.00     0.002 A 
ATOM     93  C   UNL A   1      44.894  36.357  29.251  1.00  0.00     0.091 A 
ATOM     94  F   UNL A   1      43.658  34.839  27.885  1.00  0.00    -0.205 F 
ATOM     95  C   UNL A   1      45.608  36.599  30.435  1.00  0.00     0.022 A 
BRANCH  93  96
ATOM     96  S   UNL A   1      44.729  37.725  28.099  1.00  0.00     0.127 S 
ATOM     97  O   UNL A   1      43.277  37.868  28.012  1.00  0.00    -0.237 OA
ATOM     98  O   UNL A   1      45.408  38.809  28.808  1.00  0.00    -0.237 OA
ATOM     99  O   UNL A   1      45.388  37.299  26.871  1.00  0.00    -0.744 OA
ENDBRANCH  93  96
ENDBRANCH  66  89
ENDBRANCH  40  41
ENDBRANCH  32  35
ENDBRANCH  30  31
ENDBRANCH  29  30
ENDBRANCH  28  29
ENDBRANCH  27  28
ENDBRANCH   1  27
TORSDOF 24
ENDMDL
MODEL 3
REMARK VINA RESULT:     -10.3      2.128      7.896
REMARK SMILES CC(C)CCN(C(=O)N[C@H](C(=O)NCCCCCCNC(=O)c1ccc(-c2c3nc(c(-c4cccc(S(=O)(=O)[O-])c4F)c4ccc([nH]4)c(-c4cccc(S(=O)(=O)[O-])c4F)c4nc(c(-c5cccc(S(=O)(=O)[O-])c5F)c5ccc2[nH]5)C=C4)C=C3)cc1)[C@H](C)O)C1CCCC1
REMARK SMILES IDX 15 1 14 2 13 3 11 4 12 5 10 7 9 8 7 9 8 10 6 12 5 13 4 14
REMARK SMILES IDX 2 15 1 16 3 17 89 18 90 19 93 20 91 21 92 22 86 23 87 24
REMARK SMILES IDX 88 25 16 27 17 28 18 29 19 30 20 31 21 32 22 34 23 35 24 36
REMARK SMILES IDX 85 37 25 38 84 39 26 40 27 41 28 42 78 43 29 44 83 45 77 46
REMARK SMILES IDX 79 47 30 48 82 49 76 50 75 51 31 53 63 54 43 55 62 56 44 57
REMARK SMILES IDX 47 58 61 59 80 60 45 61 46 62 60 64 81 65 48 66 32 67 33 68
REMARK SMILES IDX 41 69 34 70 36 71 42 72 35 73 37 74 38 75 39 76 40 77 64 78
REMARK SMILES IDX 65 79 73 80 66 81 68 82 74 83 67 84 69 85 70 86 71 87 72 88
REMARK SMILES IDX 49 89 50 90 58 91 51 92 53 93 59 94 52 95 54 96 55 97 56 98
REMARK SMILES IDX 57 99
REMARK H PARENT 13 6 9 11 88 26 20 33 79 52 47 63
REMARK Flexibility Score: inf
ROOT
ATOM      1  C   UNL A   1      35.235  29.195  27.446  1.00  0.00     0.021 C 
ENDROOT
BRANCH   1   2
ATOM      2  C   UNL A   1      34.070  28.987  26.494  1.00  0.00     0.116 C 
BRANCH   2   3
ATOM      3  N   UNL A   1      32.798  28.833  27.156  1.00  0.00    -0.354 N 
ATOM      4  C   UNL A   1      31.918  27.796  27.194  1.00  0.00     0.245 C 
ATOM      5  O   UNL A   1      31.061  27.879  28.083  1.00  0.00    -0.273 OA
ATOM      6  H   UNL A   1      32.516  29.620  27.676  1.00  0.00     0.163 HD
BRANCH   4   7
ATOM      7  C   UNL A   1      31.917  26.601  26.191  1.00  0.00     0.201 C 
BRANCH   7   8
ATOM      8  N   UNL A   1      31.200  25.368  26.530  1.00  0.00    -0.324 N 
ATOM      9  C   UNL A   1      31.383  24.057  26.711  1.00  0.00     0.318 C 
ATOM     10  O   UNL A   1      30.431  23.549  27.314  1.00  0.00    -0.249 OA
ATOM     11  H   UNL A   1      30.250  25.581  26.675  1.00  0.00     0.166 HD
BRANCH   9  12
ATOM     12  N   UNL A   1      32.465  23.329  26.291  1.00  0.00    -0.322 N 
BRANCH  12  13
ATOM     13  C   UNL A   1      33.895  23.535  26.607  1.00  0.00     0.122 C 
BRANCH  13  14
ATOM     14  C   UNL A   1      34.782  24.075  25.464  1.00  0.00     0.024 C 
BRANCH  14  15
ATOM     15  C   UNL A   1      35.996  23.247  25.001  1.00  0.00    -0.016 C 
ATOM     16  C   UNL A   1      36.111  23.175  23.480  1.00  0.00     0.007 C 
ATOM     17  C   UNL A   1      37.276  23.834  25.602  1.00  0.00     0.007 C 
ENDBRANCH  14  15
ENDBRANCH  13  14
ENDBRANCH  12  13
BRANCH  12  18
ATOM     18  C   UNL A   1      32.214  22.276  25.293  1.00  0.00     0.087 C 
ATOM     19  C   UNL A   1      32.395  22.737  23.849  1.00  0.00     0.025 C 
ATOM     20  C   UNL A   1      33.021  20.971  25.354  1.00  0.00     0.025 C 
ATOM     21  C   UNL A   1      32.221  21.442  23.073  1.00  0.00     0.002 C 
ATOM     22  C   UNL A   1      32.821  20.351  23.965  1.00  0.00     0.002 C 
ENDBRANCH  12  18
ENDBRANCH   9  12
ENDBRANCH   7   8
BRANCH   7  23
ATOM     23  C   UNL A   1      31.838  27.047  24.707  1.00  0.00     0.143 C 
ATOM     24  C   UNL A   1      30.411  27.314  24.224  1.00  0.00     0.041 C 
BRANCH  23  25
ATOM     25  O   UNL A   1      32.330  26.011  23.841  1.00  0.00    -0.391 OA
ATOM     26  H   UNL A   1      32.655  26.405  23.017  1.00  0.00     0.211 HD
ENDBRANCH  23  25
ENDBRANCH   7  23
ENDBRANCH   4   7
ENDBRANCH   2   3
ENDBRANCH   1   2
BRANCH   1  27
ATOM     27  C   UNL A   1      35.035  30.345  28.433  1.00  0.00     0.002 C 
BRANCH  27  28
ATOM     28  C   UNL A   1      35.040  31.748  27.812  1.00  0.00     0.002 C 
BRANCH  28  29
ATOM     29  C   UNL A   1      33.745  32.549  27.980  1.00  0.00     0.021 C 
BRANCH  29  30
ATOM     30  C   UNL A   1      33.902  34.057  27.815  1.00  0.00     0.116 C 
BRANCH  30  31
ATOM     31  N   UNL A   1      33.244  34.788  28.886  1.00  0.00    -0.352 N 
ATOM     32  C   UNL A   1      33.456  34.730  30.240  1.00  0.00     0.251 C 
ATOM     33  H   UNL A   1      32.542  35.415  28.597  1.00  0.00     0.163 HD
ATOM     34  O   UNL A   1      32.654  35.254  31.007  1.00  0.00    -0.269 OA
BRANCH  32  35
ATOM     35  C   UNL A   1      34.646  34.031  30.771  1.00  0.00     0.039 A 
ATOM     36  C   UNL A   1      34.465  32.953  31.639  1.00  0.00     0.014 A 
ATOM     37  C   UNL A   1      35.935  34.450  30.430  1.00  0.00     0.014 A 
ATOM     38  C   UNL A   1      35.577  32.262  32.124  1.00  0.00     0.010 A 
ATOM     39  C   UNL A   1      37.038  33.715  30.855  1.00  0.00     0.010 A 
ATOM     40  C   UNL A   1      36.872  32.618  31.713  1.00  0.00    -0.014 A 
BRANCH  40  41
ATOM     41  C   UNL A   1      38.062  31.853  32.166  1.00  0.00     0.031 A 
ATOM     42  C   UNL A   1      38.769  32.235  33.439  1.00  0.00     0.074 A 
ATOM     43  C   UNL A   1      38.548  30.860  31.393  1.00  0.00     0.049 A 
ATOM     44  N   UNL A   1      39.860  31.733  33.958  1.00  0.00    -0.248 NA
ATOM     45  C   UNL A   1      38.189  33.341  34.221  1.00  0.00     0.031 C 
ATOM     46  C   UNL A   1      37.994  30.444  30.102  1.00  0.00     0.029 A 
ATOM     47  N   UNL A   1      39.636  30.042  31.565  1.00  0.00    -0.354 N 
ATOM     48  C   UNL A   1      40.108  32.471  35.110  1.00  0.00     0.074 A 
ATOM     49  C   UNL A   1      39.079  33.484  35.194  1.00  0.00     0.031 C 
ATOM     50  C   UNL A   1      38.746  29.452  29.599  1.00  0.00     0.029 A 
ATOM     51  C   UNL A   1      39.853  29.184  30.511  1.00  0.00     0.049 A 
ATOM     52  H   UNL A   1      40.207  30.064  32.367  1.00  0.00     0.167 HD
ATOM     53  C   UNL A   1      41.082  32.298  36.035  1.00  0.00     0.034 A 
ATOM     54  C   UNL A   1      40.841  28.293  30.296  1.00  0.00     0.034 A 
ATOM     55  C   UNL A   1      42.085  31.270  35.967  1.00  0.00     0.049 A 
ATOM     56  C   UNL A   1      41.902  28.113  31.351  1.00  0.00     0.074 A 
ATOM     57  C   UNL A   1      43.084  30.981  36.881  1.00  0.00     0.029 A 
ATOM     58  N   UNL A   1      42.218  30.362  34.928  1.00  0.00    -0.354 N 
ATOM     59  N   UNL A   1      42.035  28.728  32.500  1.00  0.00    -0.248 NA
ATOM     60  C   UNL A   1      42.925  27.088  31.097  1.00  0.00     0.031 C 
ATOM     61  C   UNL A   1      43.831  29.908  36.386  1.00  0.00     0.029 A 
ATOM     62  C   UNL A   1      43.280  29.510  35.179  1.00  0.00     0.049 A 
ATOM     63  H   UNL A   1      41.643  30.328  34.131  1.00  0.00     0.167 HD
ATOM     64  C   UNL A   1      43.129  28.138  33.123  1.00  0.00     0.074 A 
ATOM     65  C   UNL A   1      43.606  27.099  32.234  1.00  0.00     0.031 C 
ATOM     66  C   UNL A   1      43.700  28.438  34.315  1.00  0.00     0.034 A 
BRANCH  53  67
ATOM     67  C   UNL A   1      41.073  33.197  37.244  1.00  0.00     0.023 A 
ATOM     68  C   UNL A   1      40.282  32.846  38.358  1.00  0.00     0.012 A 
ATOM     69  C   UNL A   1      41.903  34.333  37.318  1.00  0.00     0.148 A 
ATOM     70  C   UNL A   1      40.296  33.622  39.516  1.00  0.00     0.002 A 
ATOM     71  C   UNL A   1      41.946  35.077  38.491  1.00  0.00     0.091 A 
ATOM     72  F   UNL A   1      42.637  34.658  36.244  1.00  0.00    -0.205 F 
ATOM     73  C   UNL A   1      41.137  34.729  39.586  1.00  0.00     0.022 A 
BRANCH  71  74
ATOM     74  S   UNL A   1      43.051  36.475  38.719  1.00  0.00     0.127 S 
ATOM     75  O   UNL A   1      44.341  35.808  38.894  1.00  0.00    -0.237 OA
ATOM     76  O   UNL A   1      42.902  37.192  37.452  1.00  0.00    -0.237 OA
ATOM     77  O   UNL A   1      42.562  37.192  39.888  1.00  0.00    -0.744 OA
ENDBRANCH  71  74
ENDBRANCH  53  67
BRANCH  54  78
ATOM     78  C   UNL A   1      40.861  27.472  29.052  1.00  0.00     0.023 A 
ATOM     79  C   UNL A   1      39.967  26.392  28.915  1.00  0.00     0.012 A 
ATOM     80  C   UNL A   1      41.771  27.742  28.011  1.00  0.00     0.148 A 
ATOM     81  C   UNL A   1      40.013  25.567  27.790  1.00  0.00     0.002 A 
ATOM     82  C   UNL A   1      41.770  26.954  26.866  1.00  0.00     0.091 A 
ATOM     83  F   UNL A   1      42.624  28.766  28.161  1.00  0.00    -0.205 F 
ATOM     84  C   UNL A   1      40.908  25.852  26.763  1.00  0.00     0.022 A 
BRANCH  82  85
ATOM     85  S   UNL A   1      42.798  27.336  25.444  1.00  0.00     0.127 S 
ATOM     86  O   UNL A   1      44.084  27.626  26.071  1.00  0.00    -0.237 OA
ATOM     87  O   UNL A   1      42.749  26.084  24.687  1.00  0.00    -0.237 OA
ATOM     88  O   UNL A   1      42.145  28.458  24.780  1.00  0.00    -0.744 OA
ENDBRANCH  82  85
ENDBRANCH  54  78
BRANCH  66  89
ATOM     89  C   UNL A   1      44.871  27.601  34.761  1.00  0.00     0.023 A 
ATOM     90  C   UNL A   1      46.186  28.035  34.502  1.00  0.00     0.012 A 
ATOM     91  C   UNL A   1      44.664  26.418  35.498  1.00  0.00     0.148 A 
ATOM     92  C   UNL A   1      47.277  27.285  34.937  1.00  0.00     0.002 A 
ATOM     93  C   UNL A   1      45.756  25.704  35.974  1.00  0.00     0.091 A 
ATOM     94  F   UNL A   1      43.404  26.015  35.719  1.00  0.00    -0.205 F 
ATOM     95  C   UNL A   1      47.063  26.128  35.683  1.00  0.00     0.022 A 
BRANCH  93  96
ATOM     96  S   UNL A   1      45.579  24.258  37.024  1.00  0.00     0.127 S 
ATOM     97  O   UNL A   1      44.832  24.802  38.157  1.00  0.00    -0.237 OA
ATOM     98  O   UNL A   1      44.815  23.348  36.169  1.00  0.00    -0.237 OA
ATOM     99  O   UNL A   1      46.932  23.811  37.327  1.00  0.00    -0.744 OA
ENDBRANCH  93  96
ENDBRANCH  66  89
ENDBRANCH  40  41
ENDBRANCH  32  35
ENDBRANCH  30  31
ENDBRANCH  29  30
ENDBRANCH  28  29
ENDBRANCH  27  28
ENDBRANCH   1  27
TORSDOF 24
ENDMDL
