MODEL 1
REMARK VINA RESULT:     -12.4      0.000      0.000
REMARK SMILES COC(=O)c1c(NC(=O)[C@@H]2[C@H]3CC[C@H](CC3)[C@H]2C(=O)NCCCCCCNC(=O)c2ccc(-c3c4nc(c(-c5cccc(S(=O)(=O)[O-])c5F)c5ccc([nH]5)c(-c5cccc(S(=O)(=O)[O-])c5F)c5nc(c(-c6cccc(S(=O)(=O)[O-])c6F)c6ccc3[nH]6)C=C5)C=C4)cc2)sc(C)c1-c1ccc(C)cc1
REMARK SMILES IDX 23 1 22 2 21 3 20 4 18 5 19 6 17 8 10 9 11 10 16 11 12 12
REMARK SMILES IDX 14 13 15 14 13 15 8 16 7 17 9 19 6 20 5 21 96 22 93 23 94 24
REMARK SMILES IDX 95 25 3 26 4 27 2 28 1 29 97 30 98 31 103 32 99 33 102 34
REMARK SMILES IDX 100 35 101 36 24 37 25 38 26 39 27 40 28 41 29 43 30 44
REMARK SMILES IDX 31 45 92 46 32 47 91 48 33 49 34 50 35 51 85 52 36 53 90 54
REMARK SMILES IDX 84 55 86 56 37 57 89 58 83 59 82 60 38 62 70 63 50 64 69 65
REMARK SMILES IDX 51 66 54 67 68 68 87 69 52 70 53 71 67 73 88 74 55 75 39 76
REMARK SMILES IDX 40 77 48 78 41 79 43 80 49 81 42 82 44 83 45 84 46 85 47 86
REMARK SMILES IDX 71 87 72 88 80 89 73 90 75 91 81 92 74 93 76 94 77 95 78 96
REMARK SMILES IDX 79 97 56 98 57 99 65 100 58 101 60 102 66 103 59 104 61 105
REMARK SMILES IDX 62 106 63 107 64 108
REMARK H PARENT 20 7 7 18 27 42 86 61 54 72
REMARK Flexibility Score: inf
ROOT
ATOM      1  C   UNL A   1      33.946  29.768  26.717  1.00  0.00     0.002 C 
ENDROOT
BRANCH   1   2
ATOM      2  C   UNL A   1      33.239  28.624  27.447  1.00  0.00     0.021 C 
BRANCH   2   3
ATOM      3  C   UNL A   1      31.725  28.764  27.514  1.00  0.00     0.116 C 
BRANCH   3   4
ATOM      4  N   UNL A   1      31.029  27.502  27.456  1.00  0.00    -0.356 N 
ATOM      5  C   UNL A   1      30.779  26.652  26.430  1.00  0.00     0.224 C 
ATOM      6  O   UNL A   1      30.276  25.566  26.754  1.00  0.00    -0.275 OA
ATOM      7  H   UNL A   1      30.669  27.203  28.322  1.00  0.00     0.163 HD
BRANCH   5   8
ATOM      8  C   UNL A   1      31.176  26.880  24.965  1.00  0.00     0.094 C 
ATOM      9  C   UNL A   1      32.009  25.794  24.189  1.00  0.00     0.094 C 
ATOM     10  C   UNL A   1      31.303  25.633  22.826  1.00  0.00     0.002 C 
ATOM     11  C   UNL A   1      29.846  25.168  22.969  1.00  0.00     0.005 C 
ATOM     12  C   UNL A   1      31.325  26.970  22.069  1.00  0.00     0.005 C 
ATOM     13  C   UNL A   1      29.950  27.375  24.127  1.00  0.00     0.002 C 
ATOM     14  C   UNL A   1      29.030  26.227  23.692  1.00  0.00     0.005 C 
ATOM     15  C   UNL A   1      30.494  28.006  22.828  1.00  0.00     0.005 C 
BRANCH   9  16
ATOM     16  C   UNL A   1      33.532  26.144  24.227  1.00  0.00     0.229 C 
ATOM     17  N   UNL A   1      34.533  25.475  24.886  1.00  0.00    -0.317 N 
ATOM     18  H   UNL A   1      35.322  26.009  25.138  1.00  0.00     0.170 HD
ATOM     19  O   UNL A   1      33.900  27.199  23.683  1.00  0.00    -0.274 OA
BRANCH  17  20
ATOM     20  C   UNL A   1      34.564  24.146  25.237  1.00  0.00     0.111 A 
ATOM     21  C   UNL A   1      34.575  23.013  24.433  1.00  0.00     0.102 A 
ATOM     22  C   UNL A   1      34.277  21.859  25.258  1.00  0.00     0.012 A 
ATOM     23  S   UNL A   1      35.020  23.711  26.823  1.00  0.00    -0.122 S 
ATOM     24  C   UNL A   1      34.195  22.211  26.599  1.00  0.00     0.012 A 
ATOM     25  C   UNL A   1      33.582  21.488  27.755  1.00  0.00     0.057 C 
BRANCH  21  26
ATOM     26  C   UNL A   1      34.747  23.085  22.984  1.00  0.00     0.341 C 
ATOM     27  O   UNL A   1      33.819  22.951  22.203  1.00  0.00    -0.246 OA
BRANCH  26  28
ATOM     28  O   UNL A   1      36.034  23.333  22.608  1.00  0.00    -0.465 OA
ATOM     29  C   UNL A   1      37.021  22.533  23.256  1.00  0.00     0.282 C 
ENDBRANCH  26  28
ENDBRANCH  21  26
BRANCH  22  30
ATOM     30  C   UNL A   1      34.145  20.465  24.871  1.00  0.00    -0.016 A 
ATOM     31  C   UNL A   1      32.909  20.050  24.363  1.00  0.00     0.009 A 
ATOM     32  C   UNL A   1      35.219  19.571  24.898  1.00  0.00     0.009 A 
ATOM     33  C   UNL A   1      32.753  18.764  23.856  1.00  0.00     0.004 A 
ATOM     34  C   UNL A   1      35.059  18.277  24.389  1.00  0.00     0.004 A 
ATOM     35  C   UNL A   1      33.828  17.870  23.852  1.00  0.00    -0.051 A 
ATOM     36  C   UNL A   1      33.649  16.514  23.236  1.00  0.00     0.044 C 
ENDBRANCH  22  30
ENDBRANCH  17  20
ENDBRANCH   9  16
ENDBRANCH   5   8
ENDBRANCH   3   4
ENDBRANCH   2   3
ENDBRANCH   1   2
BRANCH   1  37
ATOM     37  C   UNL A   1      34.726  30.752  27.601  1.00  0.00     0.002 C 
BRANCH  37  38
ATOM     38  C   UNL A   1      34.361  32.231  27.451  1.00  0.00     0.021 C 
BRANCH  38  39
ATOM     39  C   UNL A   1      32.868  32.533  27.394  1.00  0.00     0.116 C 
BRANCH  39  40
ATOM     40  N   UNL A   1      32.565  33.910  27.748  1.00  0.00    -0.352 N 
ATOM     41  C   UNL A   1      33.120  34.697  28.724  1.00  0.00     0.251 C 
ATOM     42  H   UNL A   1      31.860  34.338  27.210  1.00  0.00     0.163 HD
ATOM     43  O   UNL A   1      32.632  35.792  28.986  1.00  0.00    -0.269 OA
BRANCH  41  44
ATOM     44  C   UNL A   1      34.300  34.212  29.470  1.00  0.00     0.039 A 
ATOM     45  C   UNL A   1      34.110  33.359  30.560  1.00  0.00     0.014 A 
ATOM     46  C   UNL A   1      35.587  34.601  29.093  1.00  0.00     0.014 A 
ATOM     47  C   UNL A   1      35.218  32.852  31.244  1.00  0.00     0.010 A 
ATOM     48  C   UNL A   1      36.690  34.044  29.732  1.00  0.00     0.010 A 
ATOM     49  C   UNL A   1      36.516  33.170  30.817  1.00  0.00    -0.014 A 
BRANCH  49  50
ATOM     50  C   UNL A   1      37.722  32.631  31.494  1.00  0.00     0.031 A 
ATOM     51  C   UNL A   1      38.467  31.484  30.865  1.00  0.00     0.074 A 
ATOM     52  C   UNL A   1      38.073  33.088  32.712  1.00  0.00     0.049 A 
ATOM     53  N   UNL A   1      39.422  30.746  31.365  1.00  0.00    -0.248 NA
ATOM     54  C   UNL A   1      38.061  31.098  29.502  1.00  0.00     0.031 C 
ATOM     55  C   UNL A   1      37.397  34.162  33.443  1.00  0.00     0.029 A 
ATOM     56  N   UNL A   1      39.063  32.675  33.570  1.00  0.00    -0.354 N 
ATOM     57  C   UNL A   1      39.702  29.785  30.401  1.00  0.00     0.074 A 
ATOM     58  C   UNL A   1      38.798  30.015  29.296  1.00  0.00     0.031 C 
ATOM     59  C   UNL A   1      37.979  34.310  34.645  1.00  0.00     0.029 A 
ATOM     60  C   UNL A   1      39.043  33.321  34.786  1.00  0.00     0.049 A 
ATOM     61  H   UNL A   1      39.723  31.983  33.338  1.00  0.00     0.167 HD
ATOM     62  C   UNL A   1      40.646  28.816  30.422  1.00  0.00     0.034 A 
ATOM     63  C   UNL A   1      39.783  33.119  35.895  1.00  0.00     0.034 A 
ATOM     64  C   UNL A   1      41.574  28.624  31.502  1.00  0.00     0.049 A 
ATOM     65  C   UNL A   1      40.848  32.053  35.875  1.00  0.00     0.074 A 
ATOM     66  C   UNL A   1      42.600  27.701  31.601  1.00  0.00     0.029 A 
ATOM     67  N   UNL A   1      41.599  29.379  32.663  1.00  0.00    -0.354 N 
ATOM     68  N   UNL A   1      41.169  31.227  34.910  1.00  0.00    -0.248 NA
ATOM     69  C   UNL A   1      41.676  31.914  37.083  1.00  0.00     0.031 C 
ATOM     70  C   UNL A   1      43.243  27.896  32.826  1.00  0.00     0.029 A 
ATOM     71  C   UNL A   1      42.631  28.954  33.478  1.00  0.00     0.049 A 
ATOM     72  H   UNL A   1      40.975  30.110  32.876  1.00  0.00     0.167 HD
ATOM     73  C   UNL A   1      42.268  30.511  35.371  1.00  0.00     0.074 A 
ATOM     74  C   UNL A   1      42.563  31.006  36.700  1.00  0.00     0.031 C 
ATOM     75  C   UNL A   1      42.964  29.524  34.756  1.00  0.00     0.034 A 
BRANCH  62  76
ATOM     76  C   UNL A   1      40.772  27.926  29.213  1.00  0.00     0.023 A 
ATOM     77  C   UNL A   1      39.976  26.766  29.127  1.00  0.00     0.012 A 
ATOM     78  C   UNL A   1      41.604  28.276  28.133  1.00  0.00     0.148 A 
ATOM     79  C   UNL A   1      40.027  25.952  27.996  1.00  0.00     0.002 A 
ATOM     80  C   UNL A   1      41.617  27.485  26.991  1.00  0.00     0.091 A 
ATOM     81  F   UNL A   1      42.365  29.375  28.243  1.00  0.00    -0.205 F 
ATOM     82  C   UNL A   1      40.837  26.318  26.924  1.00  0.00     0.022 A 
BRANCH  80  83
ATOM     83  S   UNL A   1      42.564  27.907  25.523  1.00  0.00     0.127 S 
ATOM     84  O   UNL A   1      42.305  26.752  24.663  1.00  0.00    -0.237 OA
ATOM     85  O   UNL A   1      41.920  29.147  25.090  1.00  0.00    -0.237 OA
ATOM     86  O   UNL A   1      43.944  28.057  25.963  1.00  0.00    -0.744 OA
ENDBRANCH  80  83
ENDBRANCH  62  76
BRANCH  63  87
ATOM     87  C   UNL A   1      39.586  33.974  37.100  1.00  0.00     0.023 A 
ATOM     88  C   UNL A   1      40.068  35.299  37.091  1.00  0.00     0.012 A 
ATOM     89  C   UNL A   1      38.937  33.490  38.252  1.00  0.00     0.148 A 
ATOM     90  C   UNL A   1      39.949  36.108  38.222  1.00  0.00     0.002 A 
ATOM     91  C   UNL A   1      38.773  34.320  39.356  1.00  0.00     0.091 A 
ATOM     92  F   UNL A   1      38.496  32.224  38.251  1.00  0.00    -0.205 F 
ATOM     93  C   UNL A   1      39.295  35.622  39.351  1.00  0.00     0.022 A 
BRANCH  91  94
ATOM     94  S   UNL A   1      37.829  33.811  40.798  1.00  0.00     0.127 S 
ATOM     95  O   UNL A   1      38.779  32.945  41.490  1.00  0.00    -0.237 OA
ATOM     96  O   UNL A   1      37.563  35.088  41.461  1.00  0.00    -0.237 OA
ATOM     97  O   UNL A   1      36.638  33.158  40.269  1.00  0.00    -0.744 OA
ENDBRANCH  91  94
ENDBRANCH  63  87
BRANCH  75  98
ATOM     98  C   UNL A   1      44.167  28.961  35.464  1.00  0.00     0.023 A 
ATOM     99  C   UNL A   1      45.433  29.547  35.277  1.00  0.00     0.012 A 
ATOM    100  C   UNL A   1      44.013  27.921  36.402  1.00  0.00     0.148 A 
ATOM    101  C   UNL A   1      46.534  29.092  36.001  1.00  0.00     0.002 A 
ATOM    102  C   UNL A   1      45.104  27.506  37.154  1.00  0.00     0.091 A 
ATOM    103  F   UNL A   1      42.800  27.368  36.548  1.00  0.00    -0.205 F 
ATOM    104  C   UNL A   1      46.368  28.083  36.947  1.00  0.00     0.022 A 
BRANCH 102 105
ATOM    105  S   UNL A   1      44.963  26.285  38.463  1.00  0.00     0.127 S 
ATOM    106  O   UNL A   1      46.358  25.892  38.655  1.00  0.00    -0.237 OA
ATOM    107  O   UNL A   1      44.395  27.072  39.558  1.00  0.00    -0.237 OA
ATOM    108  O   UNL A   1      44.087  25.241  37.949  1.00  0.00    -0.744 OA
ENDBRANCH 102 105
ENDBRANCH  75  98
ENDBRANCH  49  50
ENDBRANCH  41  44
ENDBRANCH  39  40
ENDBRANCH  38  39
ENDBRANCH  37  38
ENDBRANCH   1  37
TORSDOF 21
ENDMDL
MODEL 2
REMARK VINA RESULT:     -11.5      1.650      7.468
REMARK SMILES COC(=O)c1c(NC(=O)[C@@H]2[C@H]3CC[C@H](CC3)[C@H]2C(=O)NCCCCCCNC(=O)c2ccc(-c3c4nc(c(-c5cccc(S(=O)(=O)[O-])c5F)c5ccc([nH]5)c(-c5cccc(S(=O)(=O)[O-])c5F)c5nc(c(-c6cccc(S(=O)(=O)[O-])c6F)c6ccc3[nH]6)C=C5)C=C4)cc2)sc(C)c1-c1ccc(C)cc1
REMARK SMILES IDX 23 1 22 2 21 3 20 4 18 5 19 6 17 8 10 9 11 10 16 11 12 12
REMARK SMILES IDX 14 13 15 14 13 15 8 16 7 17 9 19 6 20 5 21 96 22 93 23 94 24
REMARK SMILES IDX 95 25 3 26 4 27 2 28 1 29 97 30 98 31 103 32 99 33 102 34
REMARK SMILES IDX 100 35 101 36 24 37 25 38 26 39 27 40 28 41 29 43 30 44
REMARK SMILES IDX 31 45 92 46 32 47 91 48 33 49 34 50 35 51 85 52 36 53 90 54
REMARK SMILES IDX 84 55 86 56 37 57 89 58 83 59 82 60 38 62 70 63 50 64 69 65
REMARK SMILES IDX 51 66 54 67 68 68 87 69 52 70 53 71 67 73 88 74 55 75 39 76
REMARK SMILES IDX 40 77 48 78 41 79 43 80 49 81 42 82 44 83 45 84 46 85 47 86
REMARK SMILES IDX 71 87 72 88 80 89 73 90 75 91 81 92 74 93 76 94 77 95 78 96
REMARK SMILES IDX 79 97 56 98 57 99 65 100 58 101 60 102 66 103 59 104 61 105
REMARK SMILES IDX 62 106 63 107 64 108
REMARK H PARENT 20 7 7 18 27 42 86 61 54 72
REMARK Flexibility Score: inf
ROOT
ATOM      1  C   UNL A   1      33.993  29.819  26.871  1.00  0.00     0.002 C 
ENDROOT
BRANCH   1   2
ATOM      2  C   UNL A   1      33.386  28.589  27.550  1.00  0.00     0.021 C 
BRANCH   2   3
ATOM      3  C   UNL A   1      31.892  28.697  27.821  1.00  0.00     0.116 C 
BRANCH   3   4
ATOM      4  N   UNL A   1      31.183  27.456  27.621  1.00  0.00    -0.356 N 
ATOM      5  C   UNL A   1      31.018  26.672  26.528  1.00  0.00     0.224 C 
ATOM      6  O   UNL A   1      30.467  25.582  26.737  1.00  0.00    -0.275 OA
ATOM      7  H   UNL A   1      30.735  27.117  28.430  1.00  0.00     0.163 HD
BRANCH   5   8
ATOM      8  C   UNL A   1      31.560  26.974  25.124  1.00  0.00     0.094 C 
ATOM      9  C   UNL A   1      31.957  25.800  24.156  1.00  0.00     0.094 C 
ATOM     10  C   UNL A   1      31.328  26.160  22.794  1.00  0.00     0.002 C 
ATOM     11  C   UNL A   1      29.798  26.283  22.866  1.00  0.00     0.005 C 
ATOM     12  C   UNL A   1      31.907  27.491  22.291  1.00  0.00     0.005 C 
ATOM     13  C   UNL A   1      30.672  28.042  24.402  1.00  0.00     0.002 C 
ATOM     14  C   UNL A   1      29.409  27.435  23.778  1.00  0.00     0.005 C 
ATOM     15  C   UNL A   1      31.494  28.623  23.233  1.00  0.00     0.005 C 
BRANCH   9  16
ATOM     16  C   UNL A   1      33.492  25.517  24.240  1.00  0.00     0.229 C 
ATOM     17  N   UNL A   1      34.115  24.342  24.583  1.00  0.00    -0.317 N 
ATOM     18  H   UNL A   1      35.019  24.424  24.965  1.00  0.00     0.170 HD
ATOM     19  O   UNL A   1      34.270  26.472  24.072  1.00  0.00    -0.274 OA
BRANCH  17  20
ATOM     20  C   UNL A   1      33.623  23.065  24.456  1.00  0.00     0.111 A 
ATOM     21  C   UNL A   1      33.960  21.909  25.148  1.00  0.00     0.102 A 
ATOM     22  C   UNL A   1      33.414  20.770  24.438  1.00  0.00     0.012 A 
ATOM     23  S   UNL A   1      32.149  22.815  23.633  1.00  0.00    -0.122 S 
ATOM     24  C   UNL A   1      32.628  21.178  23.367  1.00  0.00     0.012 A 
ATOM     25  C   UNL A   1      32.161  20.423  22.165  1.00  0.00     0.057 C 
BRANCH  21  26
ATOM     26  C   UNL A   1      34.828  21.926  26.324  1.00  0.00     0.341 C 
ATOM     27  O   UNL A   1      34.500  21.436  27.391  1.00  0.00    -0.246 OA
BRANCH  26  28
ATOM     28  O   UNL A   1      36.032  22.523  26.093  1.00  0.00    -0.465 OA
ATOM     29  C   UNL A   1      36.971  21.735  25.364  1.00  0.00     0.282 C 
ENDBRANCH  26  28
ENDBRANCH  21  26
BRANCH  22  30
ATOM     30  C   UNL A   1      33.526  19.354  24.749  1.00  0.00    -0.016 A 
ATOM     31  C   UNL A   1      32.440  18.746  25.387  1.00  0.00     0.009 A 
ATOM     32  C   UNL A   1      34.620  18.581  24.352  1.00  0.00     0.009 A 
ATOM     33  C   UNL A   1      32.429  17.371  25.600  1.00  0.00     0.004 A 
ATOM     34  C   UNL A   1      34.607  17.198  24.568  1.00  0.00     0.004 A 
ATOM     35  C   UNL A   1      33.505  16.583  25.181  1.00  0.00    -0.051 A 
ATOM     36  C   UNL A   1      33.435  15.095  25.360  1.00  0.00     0.044 C 
ENDBRANCH  22  30
ENDBRANCH  17  20
ENDBRANCH   9  16
ENDBRANCH   5   8
ENDBRANCH   3   4
ENDBRANCH   2   3
ENDBRANCH   1   2
BRANCH   1  37
ATOM     37  C   UNL A   1      34.106  31.081  27.738  1.00  0.00     0.002 C 
BRANCH  37  38
ATOM     38  C   UNL A   1      33.007  32.131  27.549  1.00  0.00     0.021 C 
BRANCH  38  39
ATOM     39  C   UNL A   1      33.492  33.527  27.178  1.00  0.00     0.116 C 
BRANCH  39  40
ATOM     40  N   UNL A   1      32.954  34.554  28.055  1.00  0.00    -0.352 N 
ATOM     41  C   UNL A   1      33.236  34.804  29.373  1.00  0.00     0.251 C 
ATOM     42  H   UNL A   1      32.293  35.156  27.643  1.00  0.00     0.163 HD
ATOM     43  O   UNL A   1      32.569  35.620  30.002  1.00  0.00    -0.269 OA
BRANCH  41  44
ATOM     44  C   UNL A   1      34.336  34.073  30.036  1.00  0.00     0.039 A 
ATOM     45  C   UNL A   1      34.028  33.119  31.008  1.00  0.00     0.014 A 
ATOM     46  C   UNL A   1      35.666  34.334  29.698  1.00  0.00     0.014 A 
ATOM     47  C   UNL A   1      35.054  32.384  31.607  1.00  0.00     0.010 A 
ATOM     48  C   UNL A   1      36.681  33.557  30.246  1.00  0.00     0.010 A 
ATOM     49  C   UNL A   1      36.386  32.580  31.211  1.00  0.00    -0.014 A 
BRANCH  49  50
ATOM     50  C   UNL A   1      37.506  31.801  31.797  1.00  0.00     0.031 A 
ATOM     51  C   UNL A   1      38.073  32.217  33.127  1.00  0.00     0.074 A 
ATOM     52  C   UNL A   1      38.079  30.808  31.090  1.00  0.00     0.049 A 
ATOM     53  N   UNL A   1      39.156  31.802  33.730  1.00  0.00    -0.248 NA
ATOM     54  C   UNL A   1      37.340  33.262  33.864  1.00  0.00     0.031 C 
ATOM     55  C   UNL A   1      37.647  30.348  29.768  1.00  0.00     0.029 A 
ATOM     56  N   UNL A   1      39.178  30.034  31.367  1.00  0.00    -0.354 N 
ATOM     57  C   UNL A   1      39.258  32.560  34.890  1.00  0.00     0.074 A 
ATOM     58  C   UNL A   1      38.142  33.481  34.896  1.00  0.00     0.031 C 
ATOM     59  C   UNL A   1      38.483  29.386  29.342  1.00  0.00     0.029 A 
ATOM     60  C   UNL A   1      39.529  29.186  30.340  1.00  0.00     0.049 A 
ATOM     61  H   UNL A   1      39.670  30.080  32.219  1.00  0.00     0.167 HD
ATOM     62  C   UNL A   1      40.181  32.478  35.876  1.00  0.00     0.034 A 
ATOM     63  C   UNL A   1      40.587  28.361  30.210  1.00  0.00     0.034 A 
ATOM     64  C   UNL A   1      41.258  31.526  35.888  1.00  0.00     0.049 A 
ATOM     65  C   UNL A   1      41.581  28.268  31.339  1.00  0.00     0.074 A 
ATOM     66  C   UNL A   1      42.220  31.329  36.862  1.00  0.00     0.029 A 
ATOM     67  N   UNL A   1      41.505  30.603  34.885  1.00  0.00    -0.354 N 
ATOM     68  N   UNL A   1      41.597  28.917  32.478  1.00  0.00    -0.248 NA
ATOM     69  C   UNL A   1      42.681  27.305  31.183  1.00  0.00     0.031 C 
ATOM     70  C   UNL A   1      43.053  30.288  36.445  1.00  0.00     0.029 A 
ATOM     71  C   UNL A   1      42.595  29.823  35.223  1.00  0.00     0.049 A 
ATOM     72  H   UNL A   1      40.982  30.516  34.056  1.00  0.00     0.167 HD
ATOM     73  C   UNL A   1      42.672  28.403  33.194  1.00  0.00     0.074 A 
ATOM     74  C   UNL A   1      43.278  27.383  32.364  1.00  0.00     0.031 C 
ATOM     75  C   UNL A   1      43.125  28.751  34.423  1.00  0.00     0.034 A 
BRANCH  62  76
ATOM     76  C   UNL A   1      40.033  33.396  37.060  1.00  0.00     0.023 A 
ATOM     77  C   UNL A   1      40.630  34.672  37.021  1.00  0.00     0.012 A 
ATOM     78  C   UNL A   1      39.240  33.036  38.167  1.00  0.00     0.148 A 
ATOM     79  C   UNL A   1      40.464  35.567  38.077  1.00  0.00     0.002 A 
ATOM     80  C   UNL A   1      39.042  33.949  39.196  1.00  0.00     0.091 A 
ATOM     81  F   UNL A   1      38.695  31.812  38.192  1.00  0.00    -0.205 F 
ATOM     82  C   UNL A   1      39.661  35.211  39.158  1.00  0.00     0.022 A 
BRANCH  80  83
ATOM     83  S   UNL A   1      37.964  33.622  40.596  1.00  0.00     0.127 S 
ATOM     84  O   UNL A   1      36.761  33.121  39.931  1.00  0.00    -0.237 OA
ATOM     85  O   UNL A   1      38.720  32.610  41.334  1.00  0.00    -0.237 OA
ATOM     86  O   UNL A   1      37.807  34.893  41.290  1.00  0.00    -0.744 OA
ENDBRANCH  80  83
ENDBRANCH  62  76
BRANCH  63  87
ATOM     87  C   UNL A   1      40.741  27.514  28.992  1.00  0.00     0.023 A 
ATOM     88  C   UNL A   1      39.982  26.332  28.875  1.00  0.00     0.012 A 
ATOM     89  C   UNL A   1      41.629  27.862  27.957  1.00  0.00     0.148 A 
ATOM     90  C   UNL A   1      40.142  25.489  27.775  1.00  0.00     0.002 A 
ATOM     91  C   UNL A   1      41.742  27.046  26.837  1.00  0.00     0.091 A 
ATOM     92  F   UNL A   1      42.353  28.984  28.088  1.00  0.00    -0.205 F 
ATOM     93  C   UNL A   1      41.016  25.850  26.752  1.00  0.00     0.022 A 
BRANCH  91  94
ATOM     94  S   UNL A   1      42.748  27.507  25.420  1.00  0.00     0.127 S 
ATOM     95  O   UNL A   1      42.732  26.281  24.628  1.00  0.00    -0.237 OA
ATOM     96  O   UNL A   1      41.989  28.620  24.850  1.00  0.00    -0.237 OA
ATOM     97  O   UNL A   1      44.040  27.893  25.974  1.00  0.00    -0.744 OA
ENDBRANCH  91  94
ENDBRANCH  63  87
BRANCH  75  98
ATOM     98  C   UNL A   1      44.281  27.977  34.996  1.00  0.00     0.023 A 
ATOM     99  C   UNL A   1      44.044  26.818  35.759  1.00  0.00     0.012 A 
ATOM    100  C   UNL A   1      45.603  28.342  34.677  1.00  0.00     0.148 A 
ATOM    101  C   UNL A   1      45.110  26.042  36.212  1.00  0.00     0.002 A 
ATOM    102  C   UNL A   1      46.658  27.539  35.091  1.00  0.00     0.091 A 
ATOM    103  F   UNL A   1      45.803  29.461  33.964  1.00  0.00    -0.205 F 
ATOM    104  C   UNL A   1      46.414  26.394  35.868  1.00  0.00     0.022 A 
BRANCH 102 105
ATOM    105  S   UNL A   1      48.359  27.859  34.612  1.00  0.00     0.127 S 
ATOM    106  O   UNL A   1      48.636  29.109  35.316  1.00  0.00    -0.237 OA
ATOM    107  O   UNL A   1      49.055  26.689  35.148  1.00  0.00    -0.237 OA
ATOM    108  O   UNL A   1      48.358  27.950  33.158  1.00  0.00    -0.744 OA
ENDBRANCH 102 105
ENDBRANCH  75  98
ENDBRANCH  49  50
ENDBRANCH  41  44
ENDBRANCH  39  40
ENDBRANCH  38  39
ENDBRANCH  37  38
ENDBRANCH   1  37
TORSDOF 21
ENDMDL
MODEL 3
REMARK VINA RESULT:     -11.5      1.730      2.158
REMARK SMILES COC(=O)c1c(NC(=O)[C@@H]2[C@H]3CC[C@H](CC3)[C@H]2C(=O)NCCCCCCNC(=O)c2ccc(-c3c4nc(c(-c5cccc(S(=O)(=O)[O-])c5F)c5ccc([nH]5)c(-c5cccc(S(=O)(=O)[O-])c5F)c5nc(c(-c6cccc(S(=O)(=O)[O-])c6F)c6ccc3[nH]6)C=C5)C=C4)cc2)sc(C)c1-c1ccc(C)cc1
REMARK SMILES IDX 23 1 22 2 21 3 20 4 18 5 19 6 17 8 10 9 11 10 16 11 12 12
REMARK SMILES IDX 14 13 15 14 13 15 8 16 7 17 9 19 6 20 5 21 96 22 93 23 94 24
REMARK SMILES IDX 95 25 3 26 4 27 2 28 1 29 97 30 98 31 103 32 99 33 102 34
REMARK SMILES IDX 100 35 101 36 24 37 25 38 26 39 27 40 28 41 29 43 30 44
REMARK SMILES IDX 31 45 92 46 32 47 91 48 33 49 34 50 35 51 85 52 36 53 90 54
REMARK SMILES IDX 84 55 86 56 37 57 89 58 83 59 82 60 38 62 70 63 50 64 69 65
REMARK SMILES IDX 51 66 54 67 68 68 87 69 52 70 53 71 67 73 88 74 55 75 39 76
REMARK SMILES IDX 40 77 48 78 41 79 43 80 49 81 42 82 44 83 45 84 46 85 47 86
REMARK SMILES IDX 71 87 72 88 80 89 73 90 75 91 81 92 74 93 76 94 77 95 78 96
REMARK SMILES IDX 79 97 56 98 57 99 65 100 58 101 60 102 66 103 59 104 61 105
REMARK SMILES IDX 62 106 63 107 64 108
REMARK H PARENT 20 7 7 18 27 42 86 61 54 72
REMARK Flexibility Score: inf
ROOT
ATOM      1  C   UNL A   1      34.238  30.180  26.878  1.00  0.00     0.002 C 
ENDROOT
BRANCH   1   2
ATOM      2  C   UNL A   1      33.636  28.806  27.177  1.00  0.00     0.021 C 
BRANCH   2   3
ATOM      3  C   UNL A   1      32.171  28.838  27.587  1.00  0.00     0.116 C 
BRANCH   3   4
ATOM      4  N   UNL A   1      31.539  27.541  27.563  1.00  0.00    -0.356 N 
ATOM      5  C   UNL A   1      31.322  26.658  26.558  1.00  0.00     0.224 C 
ATOM      6  O   UNL A   1      30.879  25.555  26.910  1.00  0.00    -0.275 OA
ATOM      7  H   UNL A   1      31.204  27.244  28.439  1.00  0.00     0.163 HD
BRANCH   5   8
ATOM      8  C   UNL A   1      31.693  26.874  25.084  1.00  0.00     0.094 C 
ATOM      9  C   UNL A   1      31.963  25.643  24.144  1.00  0.00     0.094 C 
ATOM     10  C   UNL A   1      31.176  25.935  22.849  1.00  0.00     0.002 C 
ATOM     11  C   UNL A   1      29.666  26.079  23.097  1.00  0.00     0.005 C 
ATOM     12  C   UNL A   1      31.697  27.228  22.205  1.00  0.00     0.005 C 
ATOM     13  C   UNL A   1      30.729  27.911  24.415  1.00  0.00     0.002 C 
ATOM     14  C   UNL A   1      29.397  27.285  23.982  1.00  0.00     0.005 C 
ATOM     15  C   UNL A   1      31.407  28.416  23.125  1.00  0.00     0.005 C 
BRANCH   9  16
ATOM     16  C   UNL A   1      33.496  25.346  24.058  1.00  0.00     0.229 C 
ATOM     17  N   UNL A   1      34.142  24.167  24.335  1.00  0.00    -0.317 N 
ATOM     18  H   UNL A   1      35.083  24.242  24.614  1.00  0.00     0.170 HD
ATOM     19  O   UNL A   1      34.258  26.294  23.802  1.00  0.00    -0.274 OA
BRANCH  17  20
ATOM     20  C   UNL A   1      33.628  22.894  24.269  1.00  0.00     0.111 A 
ATOM     21  C   UNL A   1      33.996  21.748  24.962  1.00  0.00     0.102 A 
ATOM     22  C   UNL A   1      33.391  20.602  24.314  1.00  0.00     0.012 A 
ATOM     23  S   UNL A   1      32.100  22.646  23.549  1.00  0.00    -0.122 S 
ATOM     24  C   UNL A   1      32.542  20.998  23.288  1.00  0.00     0.012 A 
ATOM     25  C   UNL A   1      31.987  20.223  22.136  1.00  0.00     0.057 C 
BRANCH  21  26
ATOM     26  C   UNL A   1      34.939  21.779  26.078  1.00  0.00     0.341 C 
ATOM     27  O   UNL A   1      34.611  21.524  27.225  1.00  0.00    -0.246 OA
BRANCH  26  28
ATOM     28  O   UNL A   1      36.210  22.099  25.698  1.00  0.00    -0.465 OA
ATOM     29  C   UNL A   1      37.081  20.988  25.496  1.00  0.00     0.282 C 
ENDBRANCH  26  28
ENDBRANCH  21  26
BRANCH  22  30
ATOM     30  C   UNL A   1      33.507  19.192  24.649  1.00  0.00    -0.016 A 
ATOM     31  C   UNL A   1      32.508  18.636  25.453  1.00  0.00     0.009 A 
ATOM     32  C   UNL A   1      34.510  18.374  24.122  1.00  0.00     0.009 A 
ATOM     33  C   UNL A   1      32.489  17.267  25.706  1.00  0.00     0.004 A 
ATOM     34  C   UNL A   1      34.490  16.998  24.378  1.00  0.00     0.004 A 
ATOM     35  C   UNL A   1      33.471  16.434  25.161  1.00  0.00    -0.051 A 
ATOM     36  C   UNL A   1      33.385  14.955  25.393  1.00  0.00     0.044 C 
ENDBRANCH  22  30
ENDBRANCH  17  20
ENDBRANCH   9  16
ENDBRANCH   5   8
ENDBRANCH   3   4
ENDBRANCH   2   3
ENDBRANCH   1   2
BRANCH   1  37
ATOM     37  C   UNL A   1      34.006  31.264  27.940  1.00  0.00     0.002 C 
BRANCH  37  38
ATOM     38  C   UNL A   1      33.004  32.364  27.576  1.00  0.00     0.021 C 
BRANCH  38  39
ATOM     39  C   UNL A   1      33.574  33.776  27.522  1.00  0.00     0.116 C 
BRANCH  39  40
ATOM     40  N   UNL A   1      33.015  34.641  28.549  1.00  0.00    -0.352 N 
ATOM     41  C   UNL A   1      33.392  34.789  29.859  1.00  0.00     0.251 C 
ATOM     42  H   UNL A   1      32.257  35.199  28.262  1.00  0.00     0.163 HD
ATOM     43  O   UNL A   1      32.705  35.453  30.627  1.00  0.00    -0.269 OA
BRANCH  41  44
ATOM     44  C   UNL A   1      34.623  34.128  30.343  1.00  0.00     0.039 A 
ATOM     45  C   UNL A   1      35.860  34.554  29.853  1.00  0.00     0.014 A 
ATOM     46  C   UNL A   1      34.551  33.090  31.274  1.00  0.00     0.014 A 
ATOM     47  C   UNL A   1      37.034  33.974  30.339  1.00  0.00     0.010 A 
ATOM     48  C   UNL A   1      35.721  32.559  31.805  1.00  0.00     0.010 A 
ATOM     49  C   UNL A   1      36.973  32.990  31.338  1.00  0.00    -0.014 A 
BRANCH  49  50
ATOM     50  C   UNL A   1      38.196  32.367  31.905  1.00  0.00     0.031 A 
ATOM     51  C   UNL A   1      38.842  31.219  31.178  1.00  0.00     0.074 A 
ATOM     52  C   UNL A   1      38.648  32.751  33.115  1.00  0.00     0.049 A 
ATOM     53  N   UNL A   1      39.792  30.417  31.579  1.00  0.00    -0.248 NA
ATOM     54  C   UNL A   1      38.328  30.915  29.830  1.00  0.00     0.031 C 
ATOM     55  C   UNL A   1      38.074  33.819  33.937  1.00  0.00     0.029 A 
ATOM     56  N   UNL A   1      39.672  32.256  33.884  1.00  0.00    -0.354 N 
ATOM     57  C   UNL A   1      39.962  29.490  30.557  1.00  0.00     0.074 A 
ATOM     58  C   UNL A   1      38.997  29.812  29.527  1.00  0.00     0.031 C 
ATOM     59  C   UNL A   1      38.741  33.885  35.101  1.00  0.00     0.029 A 
ATOM     60  C   UNL A   1      39.764  32.845  35.125  1.00  0.00     0.049 A 
ATOM     61  H   UNL A   1      40.283  31.547  33.577  1.00  0.00     0.167 HD
ATOM     62  C   UNL A   1      40.858  28.481  30.471  1.00  0.00     0.034 A 
ATOM     63  C   UNL A   1      40.566  32.560  36.171  1.00  0.00     0.034 A 
ATOM     64  C   UNL A   1      41.847  28.199  31.475  1.00  0.00     0.049 A 
ATOM     65  C   UNL A   1      41.576  31.450  36.032  1.00  0.00     0.074 A 
ATOM     66  C   UNL A   1      42.832  27.228  31.463  1.00  0.00     0.029 A 
ATOM     67  N   UNL A   1      41.984  28.897  32.663  1.00  0.00    -0.354 N 
ATOM     68  N   UNL A   1      41.793  30.656  35.012  1.00  0.00    -0.248 NA
ATOM     69  C   UNL A   1      42.476  31.219  37.172  1.00  0.00     0.031 C 
ATOM     70  C   UNL A   1      43.564  27.337  32.649  1.00  0.00     0.029 A 
ATOM     71  C   UNL A   1      43.048  28.390  33.386  1.00  0.00     0.049 A 
ATOM     72  H   UNL A   1      41.411  29.644  32.950  1.00  0.00     0.167 HD
ATOM     73  C   UNL A   1      42.885  29.872  35.365  1.00  0.00     0.074 A 
ATOM     74  C   UNL A   1      43.291  30.292  36.690  1.00  0.00     0.031 C 
ATOM     75  C   UNL A   1      43.492  28.885  34.662  1.00  0.00     0.034 A 
BRANCH  62  76
ATOM     76  C   UNL A   1      40.861  27.644  29.219  1.00  0.00     0.023 A 
ATOM     77  C   UNL A   1      39.904  26.619  29.074  1.00  0.00     0.012 A 
ATOM     78  C   UNL A   1      41.744  27.920  28.158  1.00  0.00     0.148 A 
ATOM     79  C   UNL A   1      39.843  25.864  27.904  1.00  0.00     0.002 A 
ATOM     80  C   UNL A   1      41.649  27.194  26.977  1.00  0.00     0.091 A 
ATOM     81  F   UNL A   1      42.657  28.888  28.322  1.00  0.00    -0.205 F 
ATOM     82  C   UNL A   1      40.706  26.159  26.852  1.00  0.00     0.022 A 
BRANCH  80  83
ATOM     83  S   UNL A   1      42.659  27.543  25.533  1.00  0.00     0.127 S 
ATOM     84  O   UNL A   1      42.103  28.821  25.087  1.00  0.00    -0.237 OA
ATOM     85  O   UNL A   1      43.999  27.630  26.111  1.00  0.00    -0.237 OA
ATOM     86  O   UNL A   1      42.459  26.426  24.620  1.00  0.00    -0.744 OA
ENDBRANCH  80  83
ENDBRANCH  62  76
BRANCH  63  87
ATOM     87  C   UNL A   1      40.491  33.366  37.423  1.00  0.00     0.023 A 
ATOM     88  C   UNL A   1      39.546  33.020  38.409  1.00  0.00     0.012 A 
ATOM     89  C   UNL A   1      41.338  34.468  37.644  1.00  0.00     0.148 A 
ATOM     90  C   UNL A   1      39.412  33.786  39.568  1.00  0.00     0.002 A 
ATOM     91  C   UNL A   1      41.237  35.194  38.826  1.00  0.00     0.091 A 
ATOM     92  F   UNL A   1      42.224  34.794  36.691  1.00  0.00    -0.205 F 
ATOM     93  C   UNL A   1      40.262  34.867  39.780  1.00  0.00     0.022 A 
BRANCH  91  94
ATOM     94  S   UNL A   1      42.381  36.520  39.231  1.00  0.00     0.127 S 
ATOM     95  O   UNL A   1      43.544  35.778  39.712  1.00  0.00    -0.237 OA
ATOM     96  O   UNL A   1      42.563  37.179  37.937  1.00  0.00    -0.237 OA
ATOM     97  O   UNL A   1      41.690  37.337  40.221  1.00  0.00    -0.744 OA
ENDBRANCH  91  94
ENDBRANCH  63  87
BRANCH  75  98
ATOM     98  C   UNL A   1      44.711  28.237  35.259  1.00  0.00     0.023 A 
ATOM     99  C   UNL A   1      45.980  28.817  35.073  1.00  0.00     0.012 A 
ATOM    100  C   UNL A   1      44.575  27.116  36.101  1.00  0.00     0.148 A 
ATOM    101  C   UNL A   1      47.101  28.277  35.702  1.00  0.00     0.002 A 
ATOM    102  C   UNL A   1      45.688  26.612  36.763  1.00  0.00     0.091 A 
ATOM    103  F   UNL A   1      43.358  26.571  36.248  1.00  0.00    -0.205 F 
ATOM    104  C   UNL A   1      46.954  27.186  36.556  1.00  0.00     0.022 A 
BRANCH 102 105
ATOM    105  S   UNL A   1      45.577  25.275  37.955  1.00  0.00     0.127 S 
ATOM    106  O   UNL A   1      45.111  24.169  37.120  1.00  0.00    -0.237 OA
ATOM    107  O   UNL A   1      46.962  25.152  38.411  1.00  0.00    -0.237 OA
ATOM    108  O   UNL A   1      44.640  25.721  38.977  1.00  0.00    -0.744 OA
ENDBRANCH 102 105
ENDBRANCH  75  98
ENDBRANCH  49  50
ENDBRANCH  41  44
ENDBRANCH  39  40
ENDBRANCH  38  39
ENDBRANCH  37  38
ENDBRANCH   1  37
TORSDOF 21
ENDMDL
