MODEL 1
REMARK VINA RESULT:     -12.1      0.000      0.000
REMARK SMILES O=C(NCCCCCCNC(=O)[C@@H](Cc1ccc(O)cc1)Nc1c2ccccc2nc2ccccc12)c1ccc(-c2c3nc(c(-c4cccc(S(=O)(=O)[O-])c4F)c4ccc([nH]4)c(-c4cccc(S(=O)(=O)[O-])c4F)c4nc(c(-c5cccc(S(=O)(=O)[O-])c5F)c5ccc2[nH]5)C=C4)C=C3)cc1
REMARK SMILES IDX 6 1 5 2 4 3 3 4 1 5 2 6 37 8 38 9 99 10 39 11 98 12 40 13
REMARK SMILES IDX 41 14 42 15 92 16 43 17 97 18 91 19 93 20 44 21 96 22 90 23
REMARK SMILES IDX 89 24 45 26 77 27 57 28 76 29 58 30 61 31 75 32 94 33 59 34
REMARK SMILES IDX 60 35 74 37 95 38 62 39 46 40 47 41 55 42 48 43 50 44 56 45
REMARK SMILES IDX 49 46 51 47 52 48 53 49 54 50 78 51 79 52 87 53 80 54 82 55
REMARK SMILES IDX 88 56 81 57 83 58 84 59 85 60 86 61 63 62 64 63 72 64 65 65
REMARK SMILES IDX 67 66 73 67 66 68 68 69 69 70 70 71 71 72 7 73 8 74 9 75
REMARK SMILES IDX 10 76 11 77 12 79 13 80 14 81 15 82 16 83 21 84 17 85 20 86
REMARK SMILES IDX 18 87 19 88 22 90 23 92 24 93 36 94 25 95 29 96 31 97 35 98
REMARK SMILES IDX 26 99 28 100 30 101 32 102 34 103 27 104 33 105
REMARK H PARENT 3 7 93 25 61 36 10 78 19 89 22 91
REMARK Flexibility Score: inf
ROOT
ATOM      1  C   UNL A   1      33.073  27.847  25.113  1.00  0.00     0.002 C 
ENDROOT
BRANCH   1   2
ATOM      2  C   UNL A   1      33.988  27.995  26.333  1.00  0.00     0.021 C 
BRANCH   2   3
ATOM      3  C   UNL A   1      33.351  28.717  27.516  1.00  0.00     0.116 C 
BRANCH   3   4
ATOM      4  N   UNL A   1      33.577  30.150  27.435  1.00  0.00    -0.352 N 
ATOM      5  O   UNL A   1      34.485  32.110  28.053  1.00  0.00    -0.269 OA
ATOM      6  C   UNL A   1      34.612  30.895  27.942  1.00  0.00     0.251 C 
ATOM      7  H   UNL A   1      32.889  30.660  26.948  1.00  0.00     0.163 HD
BRANCH   6   8
ATOM      8  C   UNL A   1      35.875  30.233  28.344  1.00  0.00     0.039 A 
ATOM      9  C   UNL A   1      36.994  30.267  27.505  1.00  0.00     0.014 A 
ATOM     10  C   UNL A   1      35.966  29.643  29.608  1.00  0.00     0.014 A 
ATOM     11  C   UNL A   1      38.174  29.641  27.892  1.00  0.00     0.010 A 
ATOM     12  C   UNL A   1      37.176  29.081  30.027  1.00  0.00     0.010 A 
ATOM     13  C   UNL A   1      38.289  29.078  29.172  1.00  0.00    -0.014 A 
BRANCH  13  14
ATOM     14  C   UNL A   1      39.623  28.644  29.655  1.00  0.00     0.031 A 
ATOM     15  C   UNL A   1      40.348  29.381  30.742  1.00  0.00     0.074 A 
ATOM     16  C   UNL A   1      40.191  27.576  29.058  1.00  0.00     0.049 A 
ATOM     17  N   UNL A   1      41.516  29.117  31.268  1.00  0.00    -0.248 NA
ATOM     18  C   UNL A   1      39.691  30.570  31.309  1.00  0.00     0.031 C 
ATOM     19  C   UNL A   1      39.600  26.823  27.946  1.00  0.00     0.029 A 
ATOM     20  N   UNL A   1      41.390  26.950  29.278  1.00  0.00    -0.354 N 
ATOM     21  C   UNL A   1      41.755  30.121  32.198  1.00  0.00     0.074 A 
ATOM     22  C   UNL A   1      40.605  31.000  32.170  1.00  0.00     0.031 C 
ATOM     23  C   UNL A   1      40.434  25.838  27.586  1.00  0.00     0.029 A 
ATOM     24  C   UNL A   1      41.639  25.919  28.401  1.00  0.00     0.049 A 
ATOM     25  H   UNL A   1      42.013  27.212  29.993  1.00  0.00     0.167 HD
ATOM     26  C   UNL A   1      42.833  30.284  33.002  1.00  0.00     0.034 A 
ATOM     27  C   UNL A   1      42.728  25.144  28.245  1.00  0.00     0.034 A 
ATOM     28  C   UNL A   1      43.956  29.383  33.042  1.00  0.00     0.049 A 
ATOM     29  C   UNL A   1      43.896  25.345  29.167  1.00  0.00     0.074 A 
ATOM     30  C   UNL A   1      45.043  29.406  33.898  1.00  0.00     0.029 A 
ATOM     31  N   UNL A   1      44.152  28.318  32.177  1.00  0.00    -0.354 N 
ATOM     32  N   UNL A   1      44.021  26.186  30.164  1.00  0.00    -0.248 NA
ATOM     33  C   UNL A   1      45.062  24.476  28.960  1.00  0.00     0.031 C 
ATOM     34  C   UNL A   1      45.914  28.377  33.527  1.00  0.00     0.029 A 
ATOM     35  C   UNL A   1      45.357  27.696  32.457  1.00  0.00     0.049 A 
ATOM     36  H   UNL A   1      43.527  28.044  31.467  1.00  0.00     0.167 HD
ATOM     37  C   UNL A   1      45.273  25.940  30.712  1.00  0.00     0.074 A 
ATOM     38  C   UNL A   1      45.849  24.843  29.962  1.00  0.00     0.031 C 
ATOM     39  C   UNL A   1      45.900  26.580  31.728  1.00  0.00     0.034 A 
BRANCH  26  40
ATOM     40  C   UNL A   1      42.855  31.459  33.943  1.00  0.00     0.023 A 
ATOM     41  C   UNL A   1      43.353  32.699  33.496  1.00  0.00     0.012 A 
ATOM     42  C   UNL A   1      42.264  31.367  35.219  1.00  0.00     0.148 A 
ATOM     43  C   UNL A   1      43.273  33.829  34.310  1.00  0.00     0.002 A 
ATOM     44  C   UNL A   1      42.154  32.506  36.010  1.00  0.00     0.091 A 
ATOM     45  F   UNL A   1      41.811  30.175  35.628  1.00  0.00    -0.205 F 
ATOM     46  C   UNL A   1      42.663  33.736  35.559  1.00  0.00     0.022 A 
BRANCH  44  47
ATOM     47  S   UNL A   1      41.319  32.510  37.601  1.00  0.00     0.127 S 
ATOM     48  O   UNL A   1      42.151  31.584  38.369  1.00  0.00    -0.237 OA
ATOM     49  O   UNL A   1      41.436  33.911  38.004  1.00  0.00    -0.237 OA
ATOM     50  O   UNL A   1      39.960  32.057  37.345  1.00  0.00    -0.744 OA
ENDBRANCH  44  47
ENDBRANCH  26  40
BRANCH  27  51
ATOM     51  C   UNL A   1      42.756  24.103  27.180  1.00  0.00     0.023 A 
ATOM     52  C   UNL A   1      43.449  24.350  25.980  1.00  0.00     0.012 A 
ATOM     53  C   UNL A   1      42.116  22.861  27.360  1.00  0.00     0.148 A 
ATOM     54  C   UNL A   1      43.476  23.393  24.966  1.00  0.00     0.002 A 
ATOM     55  C   UNL A   1      42.200  21.888  26.372  1.00  0.00     0.091 A 
ATOM     56  F   UNL A   1      41.443  22.649  28.500  1.00  0.00    -0.205 F 
ATOM     57  C   UNL A   1      42.862  22.158  25.165  1.00  0.00     0.022 A 
BRANCH  55  58
ATOM     58  S   UNL A   1      41.561  20.228  26.620  1.00  0.00     0.127 S 
ATOM     59  O   UNL A   1      41.962  19.564  25.383  1.00  0.00    -0.237 OA
ATOM     60  O   UNL A   1      42.287  19.794  27.815  1.00  0.00    -0.237 OA
ATOM     61  O   UNL A   1      40.128  20.396  26.824  1.00  0.00    -0.744 OA
ENDBRANCH  55  58
ENDBRANCH  27  51
BRANCH  39  62
ATOM     62  C   UNL A   1      47.282  26.108  32.092  1.00  0.00     0.023 A 
ATOM     63  C   UNL A   1      48.397  26.635  31.410  1.00  0.00     0.012 A 
ATOM     64  C   UNL A   1      47.481  25.192  33.142  1.00  0.00     0.148 A 
ATOM     65  C   UNL A   1      49.689  26.232  31.745  1.00  0.00     0.002 A 
ATOM     66  C   UNL A   1      48.773  24.831  33.504  1.00  0.00     0.091 A 
ATOM     67  F   UNL A   1      46.406  24.689  33.766  1.00  0.00    -0.205 F 
ATOM     68  C   UNL A   1      49.877  25.339  32.799  1.00  0.00     0.022 A 
BRANCH  66  69
ATOM     69  S   UNL A   1      49.120  23.762  34.905  1.00  0.00     0.127 S 
ATOM     70  O   UNL A   1      48.499  24.500  36.003  1.00  0.00    -0.237 OA
ATOM     71  O   UNL A   1      48.430  22.528  34.531  1.00  0.00    -0.237 OA
ATOM     72  O   UNL A   1      50.571  23.646  34.972  1.00  0.00    -0.744 OA
ENDBRANCH  66  69
ENDBRANCH  39  62
ENDBRANCH  13  14
ENDBRANCH   6   8
ENDBRANCH   3   4
ENDBRANCH   2   3
ENDBRANCH   1   2
BRANCH   1  73
ATOM     73  C   UNL A   1      33.661  28.346  23.784  1.00  0.00     0.002 C 
BRANCH  73  74
ATOM     74  C   UNL A   1      32.638  28.520  22.660  1.00  0.00     0.021 C 
BRANCH  74  75
ATOM     75  C   UNL A   1      31.746  27.299  22.439  1.00  0.00     0.116 C 
BRANCH  75  76
ATOM     76  N   UNL A   1      32.046  26.663  21.176  1.00  0.00    -0.354 N 
ATOM     77  C   UNL A   1      32.710  25.519  20.867  1.00  0.00     0.242 C 
ATOM     78  H   UNL A   1      31.705  27.151  20.392  1.00  0.00     0.163 HD
ATOM     79  O   UNL A   1      32.950  25.350  19.663  1.00  0.00    -0.273 OA
BRANCH  77  80
ATOM     80  C   UNL A   1      33.156  24.445  21.901  1.00  0.00     0.173 C 
BRANCH  80  81
ATOM     81  C   UNL A   1      34.106  24.972  23.008  1.00  0.00     0.070 C 
BRANCH  81  82
ATOM     82  C   UNL A   1      35.102  24.118  23.770  1.00  0.00    -0.045 A 
ATOM     83  C   UNL A   1      35.910  23.135  23.183  1.00  0.00     0.007 A 
ATOM     84  C   UNL A   1      35.308  24.403  25.134  1.00  0.00     0.007 A 
ATOM     85  C   UNL A   1      36.769  22.346  23.962  1.00  0.00     0.046 A 
ATOM     86  C   UNL A   1      36.191  23.644  25.906  1.00  0.00     0.046 A 
ATOM     87  C   UNL A   1      36.882  22.594  25.323  1.00  0.00     0.115 A 
BRANCH  87  88
ATOM     88  O   UNL A   1      37.657  21.819  26.132  1.00  0.00    -0.508 OA
ATOM     89  H   UNL A   1      37.812  22.077  27.020  1.00  0.00     0.293 HD
ENDBRANCH  87  88
ENDBRANCH  81  82
ENDBRANCH  80  81
BRANCH  80  90
ATOM     90  N   UNL A   1      32.027  23.641  22.380  1.00  0.00    -0.372 N 
ATOM     91  H   UNL A   1      31.334  23.458  21.706  1.00  0.00     0.161 HD
BRANCH  90  92
ATOM     92  C   UNL A   1      31.778  23.094  23.647  1.00  0.00     0.054 A 
ATOM     93  C   UNL A   1      32.247  21.808  24.101  1.00  0.00     0.024 A 
ATOM     94  C   UNL A   1      30.989  23.891  24.557  1.00  0.00     0.024 A 
ATOM     95  C   UNL A   1      33.059  20.876  23.393  1.00  0.00     0.012 A 
ATOM     96  C   UNL A   1      31.902  21.427  25.418  1.00  0.00     0.073 A 
ATOM     97  C   UNL A   1      30.757  23.376  25.848  1.00  0.00     0.073 A 
ATOM     98  C   UNL A   1      30.408  25.159  24.263  1.00  0.00     0.012 A 
ATOM     99  C   UNL A   1      33.455  19.644  23.919  1.00  0.00     0.001 A 
ATOM    100  C   UNL A   1      32.310  20.203  25.933  1.00  0.00     0.029 A 
ATOM    101  N   UNL A   1      31.194  22.185  26.252  1.00  0.00    -0.248 NA
ATOM    102  C   UNL A   1      30.036  24.114  26.777  1.00  0.00     0.029 A 
ATOM    103  C   UNL A   1      29.678  25.885  25.209  1.00  0.00     0.001 A 
ATOM    104  C   UNL A   1      33.075  19.302  25.199  1.00  0.00     0.002 A 
ATOM    105  C   UNL A   1      29.500  25.363  26.476  1.00  0.00     0.002 A 
ENDBRANCH  90  92
ENDBRANCH  80  90
ENDBRANCH  77  80
ENDBRANCH  75  76
ENDBRANCH  74  75
ENDBRANCH  73  74
ENDBRANCH   1  73
TORSDOF 21
ENDMDL
MODEL 2
REMARK VINA RESULT:     -11.9      4.940      8.272
REMARK SMILES O=C(NCCCCCCNC(=O)[C@@H](Cc1ccc(O)cc1)Nc1c2ccccc2nc2ccccc12)c1ccc(-c2c3nc(c(-c4cccc(S(=O)(=O)[O-])c4F)c4ccc([nH]4)c(-c4cccc(S(=O)(=O)[O-])c4F)c4nc(c(-c5cccc(S(=O)(=O)[O-])c5F)c5ccc2[nH]5)C=C4)C=C3)cc1
REMARK SMILES IDX 6 1 5 2 4 3 3 4 1 5 2 6 37 8 38 9 99 10 39 11 98 12 40 13
REMARK SMILES IDX 41 14 42 15 92 16 43 17 97 18 91 19 93 20 44 21 96 22 90 23
REMARK SMILES IDX 89 24 45 26 77 27 57 28 76 29 58 30 61 31 75 32 94 33 59 34
REMARK SMILES IDX 60 35 74 37 95 38 62 39 46 40 47 41 55 42 48 43 50 44 56 45
REMARK SMILES IDX 49 46 51 47 52 48 53 49 54 50 78 51 79 52 87 53 80 54 82 55
REMARK SMILES IDX 88 56 81 57 83 58 84 59 85 60 86 61 63 62 64 63 72 64 65 65
REMARK SMILES IDX 67 66 73 67 66 68 68 69 69 70 70 71 71 72 7 73 8 74 9 75
REMARK SMILES IDX 10 76 11 77 12 79 13 80 14 81 15 82 16 83 21 84 17 85 20 86
REMARK SMILES IDX 18 87 19 88 22 90 23 92 24 93 36 94 25 95 29 96 31 97 35 98
REMARK SMILES IDX 26 99 28 100 30 101 32 102 34 103 27 104 33 105
REMARK H PARENT 3 7 93 25 61 36 10 78 19 89 22 91
REMARK Flexibility Score: inf
ROOT
ATOM      1  C   UNL A   1      36.572  20.656  24.599  1.00  0.00     0.002 C 
ENDROOT
BRANCH   1   2
ATOM      2  C   UNL A   1      37.643  19.632  24.986  1.00  0.00     0.021 C 
BRANCH   2   3
ATOM      3  C   UNL A   1      38.879  20.231  25.649  1.00  0.00     0.116 C 
BRANCH   3   4
ATOM      4  N   UNL A   1      39.884  19.211  25.899  1.00  0.00    -0.352 N 
ATOM      5  O   UNL A   1      41.964  18.364  25.947  1.00  0.00    -0.269 OA
ATOM      6  C   UNL A   1      41.239  19.348  26.058  1.00  0.00     0.251 C 
ATOM      7  H   UNL A   1      39.543  18.288  25.962  1.00  0.00     0.163 HD
BRANCH   6   8
ATOM      8  C   UNL A   1      41.819  20.676  26.367  1.00  0.00     0.039 A 
ATOM      9  C   UNL A   1      42.012  21.620  25.353  1.00  0.00     0.014 A 
ATOM     10  C   UNL A   1      42.095  21.010  27.696  1.00  0.00     0.014 A 
ATOM     11  C   UNL A   1      42.558  22.863  25.654  1.00  0.00     0.010 A 
ATOM     12  C   UNL A   1      42.572  22.287  28.006  1.00  0.00     0.010 A 
ATOM     13  C   UNL A   1      42.805  23.223  26.987  1.00  0.00    -0.014 A 
BRANCH  13  14
ATOM     14  C   UNL A   1      43.145  24.632  27.306  1.00  0.00     0.031 A 
ATOM     15  C   UNL A   1      42.156  25.557  27.951  1.00  0.00     0.074 A 
ATOM     16  C   UNL A   1      44.372  25.076  26.962  1.00  0.00     0.049 A 
ATOM     17  N   UNL A   1      42.313  26.810  28.291  1.00  0.00    -0.248 NA
ATOM     18  C   UNL A   1      40.819  25.019  28.248  1.00  0.00     0.031 C 
ATOM     19  C   UNL A   1      45.391  24.277  26.272  1.00  0.00     0.029 A 
ATOM     20  N   UNL A   1      44.966  26.300  27.120  1.00  0.00    -0.354 N 
ATOM     21  C   UNL A   1      41.091  27.226  28.805  1.00  0.00     0.074 A 
ATOM     22  C   UNL A   1      40.200  26.086  28.738  1.00  0.00     0.031 C 
ATOM     23  C   UNL A   1      46.481  25.028  26.071  1.00  0.00     0.029 A 
ATOM     24  C   UNL A   1      46.225  26.373  26.568  1.00  0.00     0.049 A 
ATOM     25  H   UNL A   1      44.536  27.053  27.585  1.00  0.00     0.167 HD
ATOM     26  C   UNL A   1      40.753  28.443  29.292  1.00  0.00     0.034 A 
ATOM     27  C   UNL A   1      47.068  27.415  26.444  1.00  0.00     0.034 A 
ATOM     28  C   UNL A   1      41.659  29.559  29.381  1.00  0.00     0.049 A 
ATOM     29  C   UNL A   1      46.663  28.745  27.010  1.00  0.00     0.074 A 
ATOM     30  C   UNL A   1      41.439  30.798  29.957  1.00  0.00     0.029 A 
ATOM     31  N   UNL A   1      42.944  29.584  28.860  1.00  0.00    -0.354 N 
ATOM     32  N   UNL A   1      45.570  29.064  27.659  1.00  0.00    -0.248 NA
ATOM     33  C   UNL A   1      47.616  29.852  26.852  1.00  0.00     0.031 C 
ATOM     34  C   UNL A   1      42.577  31.584  29.753  1.00  0.00     0.029 A 
ATOM     35  C   UNL A   1      43.516  30.827  29.072  1.00  0.00     0.049 A 
ATOM     36  H   UNL A   1      43.383  28.829  28.406  1.00  0.00     0.167 HD
ATOM     37  C   UNL A   1      45.707  30.403  27.998  1.00  0.00     0.074 A 
ATOM     38  C   UNL A   1      47.008  30.823  27.519  1.00  0.00     0.031 C 
ATOM     39  C   UNL A   1      44.827  31.219  28.625  1.00  0.00     0.034 A 
BRANCH  26  40
ATOM     40  C   UNL A   1      39.352  28.647  29.806  1.00  0.00     0.023 A 
ATOM     41  C   UNL A   1      39.054  28.347  31.150  1.00  0.00     0.012 A 
ATOM     42  C   UNL A   1      38.373  29.256  28.996  1.00  0.00     0.148 A 
ATOM     43  C   UNL A   1      37.797  28.640  31.678  1.00  0.00     0.002 A 
ATOM     44  C   UNL A   1      37.134  29.579  29.541  1.00  0.00     0.091 A 
ATOM     45  F   UNL A   1      38.674  29.518  27.718  1.00  0.00    -0.205 F 
ATOM     46  C   UNL A   1      36.843  29.267  30.880  1.00  0.00     0.022 A 
BRANCH  44  47
ATOM     47  S   UNL A   1      35.864  30.454  28.620  1.00  0.00     0.127 S 
ATOM     48  O   UNL A   1      35.068  29.346  28.094  1.00  0.00    -0.237 OA
ATOM     49  O   UNL A   1      35.207  31.232  29.670  1.00  0.00    -0.237 OA
ATOM     50  O   UNL A   1      36.564  31.245  27.618  1.00  0.00    -0.744 OA
ENDBRANCH  44  47
ENDBRANCH  26  40
BRANCH  27  51
ATOM     51  C   UNL A   1      48.381  27.234  25.762  1.00  0.00     0.023 A 
ATOM     52  C   UNL A   1      49.502  26.820  26.504  1.00  0.00     0.012 A 
ATOM     53  C   UNL A   1      48.516  27.452  24.377  1.00  0.00     0.148 A 
ATOM     54  C   UNL A   1      50.742  26.658  25.886  1.00  0.00     0.002 A 
ATOM     55  C   UNL A   1      49.739  27.228  23.756  1.00  0.00     0.091 A 
ATOM     56  F   UNL A   1      47.444  27.867  23.687  1.00  0.00    -0.205 F 
ATOM     57  C   UNL A   1      50.859  26.850  24.512  1.00  0.00     0.022 A 
BRANCH  55  58
ATOM     58  S   UNL A   1      49.926  27.313  21.972  1.00  0.00     0.127 S 
ATOM     59  O   UNL A   1      49.066  26.219  21.528  1.00  0.00    -0.237 OA
ATOM     60  O   UNL A   1      49.421  28.654  21.673  1.00  0.00    -0.237 OA
ATOM     61  O   UNL A   1      51.353  27.148  21.728  1.00  0.00    -0.744 OA
ENDBRANCH  55  58
ENDBRANCH  27  51
BRANCH  39  62
ATOM     62  C   UNL A   1      45.242  32.650  28.835  1.00  0.00     0.023 A 
ATOM     63  C   UNL A   1      45.953  33.001  30.001  1.00  0.00     0.012 A 
ATOM     64  C   UNL A   1      44.984  33.630  27.859  1.00  0.00     0.148 A 
ATOM     65  C   UNL A   1      46.370  34.316  30.208  1.00  0.00     0.002 A 
ATOM     66  C   UNL A   1      45.445  34.928  28.048  1.00  0.00     0.091 A 
ATOM     67  F   UNL A   1      44.292  33.278  26.766  1.00  0.00    -0.205 F 
ATOM     68  C   UNL A   1      46.126  35.275  29.227  1.00  0.00     0.022 A 
BRANCH  66  69
ATOM     69  S   UNL A   1      45.261  36.208  26.802  1.00  0.00     0.127 S 
ATOM     70  O   UNL A   1      45.865  37.360  27.469  1.00  0.00    -0.237 OA
ATOM     71  O   UNL A   1      46.039  35.670  25.687  1.00  0.00    -0.237 OA
ATOM     72  O   UNL A   1      43.830  36.315  26.545  1.00  0.00    -0.744 OA
ENDBRANCH  66  69
ENDBRANCH  39  62
ENDBRANCH  13  14
ENDBRANCH   6   8
ENDBRANCH   3   4
ENDBRANCH   2   3
ENDBRANCH   1   2
BRANCH   1  73
ATOM     73  C   UNL A   1      37.094  22.062  24.267  1.00  0.00     0.002 C 
BRANCH  73  74
ATOM     74  C   UNL A   1      36.013  23.143  24.193  1.00  0.00     0.021 C 
BRANCH  74  75
ATOM     75  C   UNL A   1      35.968  24.058  25.416  1.00  0.00     0.116 C 
BRANCH  75  76
ATOM     76  N   UNL A   1      35.417  23.364  26.559  1.00  0.00    -0.354 N 
ATOM     77  C   UNL A   1      34.163  22.926  26.840  1.00  0.00     0.242 C 
ATOM     78  H   UNL A   1      36.076  23.172  27.265  1.00  0.00     0.163 HD
ATOM     79  O   UNL A   1      33.987  22.522  27.999  1.00  0.00    -0.273 OA
BRANCH  77  80
ATOM     80  C   UNL A   1      32.985  22.892  25.824  1.00  0.00     0.173 C 
BRANCH  80  81
ATOM     81  C   UNL A   1      32.141  21.590  25.860  1.00  0.00     0.070 C 
BRANCH  81  82
ATOM     82  C   UNL A   1      32.448  20.340  25.059  1.00  0.00    -0.045 A 
ATOM     83  C   UNL A   1      32.873  19.128  25.619  1.00  0.00     0.007 A 
ATOM     84  C   UNL A   1      32.188  20.363  23.675  1.00  0.00     0.007 A 
ATOM     85  C   UNL A   1      33.192  18.029  24.808  1.00  0.00     0.046 A 
ATOM     86  C   UNL A   1      32.468  19.257  22.867  1.00  0.00     0.046 A 
ATOM     87  C   UNL A   1      33.009  18.114  23.434  1.00  0.00     0.115 A 
BRANCH  87  88
ATOM     88  O   UNL A   1      33.357  17.096  22.599  1.00  0.00    -0.508 OA
ATOM     89  H   UNL A   1      33.121  16.214  22.811  1.00  0.00     0.293 HD
ENDBRANCH  87  88
ENDBRANCH  81  82
ENDBRANCH  80  81
BRANCH  80  90
ATOM     90  N   UNL A   1      32.210  24.137  25.839  1.00  0.00    -0.372 N 
ATOM     91  H   UNL A   1      31.531  24.192  26.548  1.00  0.00     0.161 HD
BRANCH  90  92
ATOM     92  C   UNL A   1      32.282  25.259  25.001  1.00  0.00     0.054 A 
ATOM     93  C   UNL A   1      32.493  25.216  23.575  1.00  0.00     0.024 A 
ATOM     94  C   UNL A   1      32.131  26.551  25.629  1.00  0.00     0.024 A 
ATOM     95  C   UNL A   1      32.636  24.065  22.749  1.00  0.00     0.012 A 
ATOM     96  C   UNL A   1      32.529  26.455  22.894  1.00  0.00     0.073 A 
ATOM     97  C   UNL A   1      32.163  27.690  24.801  1.00  0.00     0.073 A 
ATOM     98  C   UNL A   1      31.960  26.783  27.026  1.00  0.00     0.012 A 
ATOM     99  C   UNL A   1      32.848  24.129  21.369  1.00  0.00     0.001 A 
ATOM    100  C   UNL A   1      32.732  26.505  21.521  1.00  0.00     0.029 A 
ATOM    101  N   UNL A   1      32.362  27.636  23.486  1.00  0.00    -0.248 NA
ATOM    102  C   UNL A   1      31.987  28.956  25.344  1.00  0.00     0.029 A 
ATOM    103  C   UNL A   1      31.791  28.065  27.556  1.00  0.00     0.001 A 
ATOM    104  C   UNL A   1      32.901  25.359  20.749  1.00  0.00     0.002 A 
ATOM    105  C   UNL A   1      31.795  29.157  26.708  1.00  0.00     0.002 A 
ENDBRANCH  90  92
ENDBRANCH  80  90
ENDBRANCH  77  80
ENDBRANCH  75  76
ENDBRANCH  74  75
ENDBRANCH  73  74
ENDBRANCH   1  73
TORSDOF 21
ENDMDL
MODEL 3
REMARK VINA RESULT:     -11.8      2.315      7.496
REMARK SMILES O=C(NCCCCCCNC(=O)[C@@H](Cc1ccc(O)cc1)Nc1c2ccccc2nc2ccccc12)c1ccc(-c2c3nc(c(-c4cccc(S(=O)(=O)[O-])c4F)c4ccc([nH]4)c(-c4cccc(S(=O)(=O)[O-])c4F)c4nc(c(-c5cccc(S(=O)(=O)[O-])c5F)c5ccc2[nH]5)C=C4)C=C3)cc1
REMARK SMILES IDX 6 1 5 2 4 3 3 4 1 5 2 6 37 8 38 9 99 10 39 11 98 12 40 13
REMARK SMILES IDX 41 14 42 15 92 16 43 17 97 18 91 19 93 20 44 21 96 22 90 23
REMARK SMILES IDX 89 24 45 26 77 27 57 28 76 29 58 30 61 31 75 32 94 33 59 34
REMARK SMILES IDX 60 35 74 37 95 38 62 39 46 40 47 41 55 42 48 43 50 44 56 45
REMARK SMILES IDX 49 46 51 47 52 48 53 49 54 50 78 51 79 52 87 53 80 54 82 55
REMARK SMILES IDX 88 56 81 57 83 58 84 59 85 60 86 61 63 62 64 63 72 64 65 65
REMARK SMILES IDX 67 66 73 67 66 68 68 69 69 70 70 71 71 72 7 73 8 74 9 75
REMARK SMILES IDX 10 76 11 77 12 79 13 80 14 81 15 82 16 83 21 84 17 85 20 86
REMARK SMILES IDX 18 87 19 88 22 90 23 92 24 93 36 94 25 95 29 96 31 97 35 98
REMARK SMILES IDX 26 99 28 100 30 101 32 102 34 103 27 104 33 105
REMARK H PARENT 3 7 93 25 61 36 10 78 19 89 22 91
REMARK Flexibility Score: inf
ROOT
ATOM      1  C   UNL A   1      31.399  29.249  25.111  1.00  0.00     0.002 C 
ENDROOT
BRANCH   1   2
ATOM      2  C   UNL A   1      31.246  30.676  25.647  1.00  0.00     0.021 C 
BRANCH   2   3
ATOM      3  C   UNL A   1      32.209  31.034  26.774  1.00  0.00     0.116 C 
BRANCH   3   4
ATOM      4  N   UNL A   1      32.346  32.475  26.906  1.00  0.00    -0.352 N 
ATOM      5  O   UNL A   1      33.022  34.379  27.888  1.00  0.00    -0.269 OA
ATOM      6  C   UNL A   1      33.247  33.198  27.647  1.00  0.00     0.251 C 
ATOM      7  H   UNL A   1      31.698  33.010  26.390  1.00  0.00     0.163 HD
BRANCH   6   8
ATOM      8  C   UNL A   1      34.483  32.552  28.145  1.00  0.00     0.039 A 
ATOM      9  C   UNL A   1      35.673  33.280  28.248  1.00  0.00     0.014 A 
ATOM     10  C   UNL A   1      34.433  31.228  28.590  1.00  0.00     0.014 A 
ATOM     11  C   UNL A   1      36.829  32.664  28.715  1.00  0.00     0.010 A 
ATOM     12  C   UNL A   1      35.577  30.633  29.132  1.00  0.00     0.010 A 
ATOM     13  C   UNL A   1      36.783  31.348  29.199  1.00  0.00    -0.014 A 
BRANCH  13  14
ATOM     14  C   UNL A   1      37.957  30.800  29.921  1.00  0.00     0.031 A 
ATOM     15  C   UNL A   1      38.879  29.800  29.288  1.00  0.00     0.074 A 
ATOM     16  C   UNL A   1      38.156  31.201  31.194  1.00  0.00     0.049 A 
ATOM     17  N   UNL A   1      39.945  29.238  29.795  1.00  0.00    -0.248 NA
ATOM     18  C   UNL A   1      38.567  29.366  27.916  1.00  0.00     0.031 C 
ATOM     19  C   UNL A   1      37.284  32.124  31.929  1.00  0.00     0.029 A 
ATOM     20  N   UNL A   1      39.132  30.879  32.101  1.00  0.00    -0.354 N 
ATOM     21  C   UNL A   1      40.412  28.356  28.827  1.00  0.00     0.074 A 
ATOM     22  C   UNL A   1      39.515  28.463  27.696  1.00  0.00     0.031 C 
ATOM     23  C   UNL A   1      37.764  32.294  33.168  1.00  0.00     0.029 A 
ATOM     24  C   UNL A   1      38.945  31.457  33.335  1.00  0.00     0.049 A 
ATOM     25  H   UNL A   1      39.892  30.291  31.889  1.00  0.00     0.167 HD
ATOM     26  C   UNL A   1      41.493  27.543  28.882  1.00  0.00     0.034 A 
ATOM     27  C   UNL A   1      39.627  31.308  34.486  1.00  0.00     0.034 A 
ATOM     28  C   UNL A   1      42.395  27.471  30.003  1.00  0.00     0.049 A 
ATOM     29  C   UNL A   1      40.829  30.409  34.501  1.00  0.00     0.074 A 
ATOM     30  C   UNL A   1      43.576  26.756  30.108  1.00  0.00     0.029 A 
ATOM     31  N   UNL A   1      42.207  28.109  31.218  1.00  0.00    -0.354 N 
ATOM     32  N   UNL A   1      41.360  29.728  33.515  1.00  0.00    -0.248 NA
ATOM     33  C   UNL A   1      41.543  30.276  35.779  1.00  0.00     0.031 C 
ATOM     34  C   UNL A   1      44.083  26.935  31.399  1.00  0.00     0.029 A 
ATOM     35  C   UNL A   1      43.231  27.781  32.090  1.00  0.00     0.049 A 
ATOM     36  H   UNL A   1      41.454  28.708  31.431  1.00  0.00     0.167 HD
ATOM     37  C   UNL A   1      42.476  29.096  34.048  1.00  0.00     0.074 A 
ATOM     38  C   UNL A   1      42.568  29.510  35.433  1.00  0.00     0.031 C 
ATOM     39  C   UNL A   1      43.332  28.232  33.453  1.00  0.00     0.034 A 
BRANCH  26  40
ATOM     40  C   UNL A   1      41.802  26.679  27.688  1.00  0.00     0.023 A 
ATOM     41  C   UNL A   1      42.564  27.205  26.627  1.00  0.00     0.012 A 
ATOM     42  C   UNL A   1      41.450  25.314  27.681  1.00  0.00     0.148 A 
ATOM     43  C   UNL A   1      42.963  26.387  25.569  1.00  0.00     0.002 A 
ATOM     44  C   UNL A   1      41.883  24.498  26.642  1.00  0.00     0.091 A 
ATOM     45  F   UNL A   1      40.713  24.840  28.694  1.00  0.00    -0.205 F 
ATOM     46  C   UNL A   1      42.635  25.034  25.583  1.00  0.00     0.022 A 
BRANCH  44  47
ATOM     47  S   UNL A   1      41.578  22.727  26.603  1.00  0.00     0.127 S 
ATOM     48  O   UNL A   1      40.119  22.683  26.522  1.00  0.00    -0.237 OA
ATOM     49  O   UNL A   1      42.268  22.326  25.377  1.00  0.00    -0.237 OA
ATOM     50  O   UNL A   1      42.148  22.192  27.830  1.00  0.00    -0.744 OA
ENDBRANCH  44  47
ENDBRANCH  26  40
BRANCH  27  51
ATOM     51  C   UNL A   1      39.191  32.034  35.711  1.00  0.00     0.023 A 
ATOM     52  C   UNL A   1      39.515  33.394  35.869  1.00  0.00     0.012 A 
ATOM     53  C   UNL A   1      38.438  31.387  36.711  1.00  0.00     0.148 A 
ATOM     54  C   UNL A   1      39.127  34.088  37.015  1.00  0.00     0.002 A 
ATOM     55  C   UNL A   1      38.001  32.100  37.820  1.00  0.00     0.091 A 
ATOM     56  F   UNL A   1      38.156  30.086  36.555  1.00  0.00    -0.205 F 
ATOM     57  C   UNL A   1      38.361  33.445  37.985  1.00  0.00     0.022 A 
BRANCH  55  58
ATOM     58  S   UNL A   1      36.890  31.377  39.033  1.00  0.00     0.127 S 
ATOM     59  O   UNL A   1      37.715  31.387  40.238  1.00  0.00    -0.237 OA
ATOM     60  O   UNL A   1      35.779  32.330  39.039  1.00  0.00    -0.237 OA
ATOM     61  O   UNL A   1      36.545  30.065  38.501  1.00  0.00    -0.744 OA
ENDBRANCH  55  58
ENDBRANCH  27  51
BRANCH  39  62
ATOM     62  C   UNL A   1      44.449  27.678  34.296  1.00  0.00     0.023 A 
ATOM     63  C   UNL A   1      45.660  28.391  34.397  1.00  0.00     0.012 A 
ATOM     64  C   UNL A   1      44.281  26.489  35.030  1.00  0.00     0.148 A 
ATOM     65  C   UNL A   1      46.701  27.911  35.191  1.00  0.00     0.002 A 
ATOM     66  C   UNL A   1      45.303  26.041  35.858  1.00  0.00     0.091 A 
ATOM     67  F   UNL A   1      43.127  25.817  34.906  1.00  0.00    -0.205 F 
ATOM     68  C   UNL A   1      46.518  26.743  35.930  1.00  0.00     0.022 A 
BRANCH  66  69
ATOM     69  S   UNL A   1      45.128  24.602  36.917  1.00  0.00     0.127 S 
ATOM     70  O   UNL A   1      44.884  23.542  35.940  1.00  0.00    -0.237 OA
ATOM     71  O   UNL A   1      46.433  24.539  37.574  1.00  0.00    -0.237 OA
ATOM     72  O   UNL A   1      44.014  24.894  37.811  1.00  0.00    -0.744 OA
ENDBRANCH  66  69
ENDBRANCH  39  62
ENDBRANCH  13  14
ENDBRANCH   6   8
ENDBRANCH   3   4
ENDBRANCH   2   3
ENDBRANCH   1   2
BRANCH   1  73
ATOM     73  C   UNL A   1      31.009  29.053  23.639  1.00  0.00     0.002 C 
BRANCH  73  74
ATOM     74  C   UNL A   1      31.879  28.051  22.877  1.00  0.00     0.021 C 
BRANCH  74  75
ATOM     75  C   UNL A   1      31.087  26.942  22.185  1.00  0.00     0.116 C 
BRANCH  75  76
ATOM     76  N   UNL A   1      31.783  26.471  21.008  1.00  0.00    -0.354 N 
ATOM     77  C   UNL A   1      32.694  25.480  20.824  1.00  0.00     0.242 C 
ATOM     78  H   UNL A   1      31.552  26.959  20.185  1.00  0.00     0.163 HD
ATOM     79  O   UNL A   1      33.234  25.452  19.709  1.00  0.00    -0.273 OA
BRANCH  77  80
ATOM     80  C   UNL A   1      33.070  24.412  21.891  1.00  0.00     0.173 C 
BRANCH  80  81
ATOM     81  C   UNL A   1      34.013  24.925  23.011  1.00  0.00     0.070 C 
BRANCH  81  82
ATOM     82  C   UNL A   1      35.002  24.061  23.770  1.00  0.00    -0.045 A 
ATOM     83  C   UNL A   1      35.800  23.071  23.180  1.00  0.00     0.007 A 
ATOM     84  C   UNL A   1      35.215  24.343  25.133  1.00  0.00     0.007 A 
ATOM     85  C   UNL A   1      36.653  22.273  23.956  1.00  0.00     0.046 A 
ATOM     86  C   UNL A   1      36.093  23.575  25.902  1.00  0.00     0.046 A 
ATOM     87  C   UNL A   1      36.773  22.518  25.317  1.00  0.00     0.115 A 
BRANCH  87  88
ATOM     88  O   UNL A   1      37.543  21.736  26.123  1.00  0.00    -0.508 OA
ATOM     89  H   UNL A   1      37.358  20.821  26.203  1.00  0.00     0.293 HD
ENDBRANCH  87  88
ENDBRANCH  81  82
ENDBRANCH  80  81
BRANCH  80  90
ATOM     90  N   UNL A   1      31.899  23.663  22.357  1.00  0.00    -0.372 N 
ATOM     91  H   UNL A   1      31.138  23.655  21.733  1.00  0.00     0.161 HD
BRANCH  90  92
ATOM     92  C   UNL A   1      31.689  22.959  23.552  1.00  0.00     0.054 A 
ATOM     93  C   UNL A   1      32.093  21.596  23.792  1.00  0.00     0.024 A 
ATOM     94  C   UNL A   1      31.018  23.668  24.616  1.00  0.00     0.024 A 
ATOM     95  C   UNL A   1      32.789  20.724  22.907  1.00  0.00     0.012 A 
ATOM     96  C   UNL A   1      31.803  21.055  25.065  1.00  0.00     0.073 A 
ATOM     97  C   UNL A   1      30.830  22.992  25.838  1.00  0.00     0.073 A 
ATOM     98  C   UNL A   1      30.512  24.999  24.541  1.00  0.00     0.012 A 
ATOM     99  C   UNL A   1      33.128  19.408  23.231  1.00  0.00     0.001 A 
ATOM    100  C   UNL A   1      32.153  19.748  25.379  1.00  0.00     0.029 A 
ATOM    101  N   UNL A   1      31.205  21.731  26.044  1.00  0.00    -0.248 NA
ATOM    102  C   UNL A   1      30.223  23.636  26.909  1.00  0.00     0.029 A 
ATOM    103  C   UNL A   1      29.897  25.629  25.626  1.00  0.00     0.001 A 
ATOM    104  C   UNL A   1      32.804  18.913  24.476  1.00  0.00     0.002 A 
ATOM    105  C   UNL A   1      29.761  24.946  26.820  1.00  0.00     0.002 A 
ENDBRANCH  90  92
ENDBRANCH  80  90
ENDBRANCH  77  80
ENDBRANCH  75  76
ENDBRANCH  74  75
ENDBRANCH  73  74
ENDBRANCH   1  73
TORSDOF 21
ENDMDL
