MODEL 1
REMARK VINA RESULT:     -11.7      0.000      0.000
REMARK SMILES Cc1cc(N2CCCC[C@@H]2C)cc(C(=O)NCCCCCCNC(=O)c2ccc(-c3c4nc(c(-c5cccc(S(=O)(=O)[O-])c5F)c5ccc([nH]5)c(-c5cccc(S(=O)(=O)[O-])c5F)c5nc(c(-c6cccc(S(=O)(=O)[O-])c6F)c6ccc3[nH]6)C=C5)C=C4)cc2)c1N
REMARK SMILES IDX 20 1 19 2 18 3 17 4 16 5 14 6 15 7 13 9 1 10 2 11 3 12 89 13
REMARK SMILES IDX 4 14 12 15 90 16 5 19 6 20 10 21 7 22 9 23 11 24 8 25 21 26
REMARK SMILES IDX 22 27 23 28 24 29 25 31 26 32 27 33 88 34 28 35 87 36 29 37
REMARK SMILES IDX 30 38 31 39 81 40 32 41 86 42 80 43 82 44 33 45 85 46 79 47
REMARK SMILES IDX 78 48 34 50 66 51 46 52 65 53 47 54 50 55 64 56 83 57 48 58
REMARK SMILES IDX 49 59 63 61 84 62 51 63 35 64 36 65 44 66 37 67 39 68 45 69
REMARK SMILES IDX 38 70 40 71 41 72 42 73 43 74 67 75 68 76 76 77 69 78 71 79
REMARK SMILES IDX 77 80 70 81 72 82 73 83 74 84 75 85 52 86 53 87 61 88 54 89
REMARK SMILES IDX 56 90 62 91 55 92 57 93 58 94 59 95 60 96
REMARK H PARENT 16 8 90 17 90 18 23 30 82 49 50 60
REMARK Flexibility Score: inf
ROOT
ATOM      1  C   UNL A   1      31.255  30.593  25.717  1.00  0.00     0.002 C 
ENDROOT
BRANCH   1   2
ATOM      2  C   UNL A   1      32.634  29.920  25.730  1.00  0.00     0.002 C 
BRANCH   2   3
ATOM      3  C   UNL A   1      32.714  28.651  26.591  1.00  0.00     0.021 C 
BRANCH   3   4
ATOM      4  C   UNL A   1      31.427  28.397  27.384  1.00  0.00     0.116 C 
BRANCH   4   5
ATOM      5  N   UNL A   1      31.021  27.016  27.205  1.00  0.00    -0.352 N 
ATOM      6  C   UNL A   1      30.590  26.282  26.129  1.00  0.00     0.253 C 
ATOM      7  O   UNL A   1      30.185  25.144  26.393  1.00  0.00    -0.269 OA
ATOM      8  H   UNL A   1      31.063  26.492  28.037  1.00  0.00     0.163 HD
BRANCH   6   9
ATOM      9  C   UNL A   1      30.641  26.748  24.701  1.00  0.00     0.065 A 
ATOM     10  C   UNL A   1      32.916  26.387  21.633  1.00  0.00     0.046 C 
ATOM     11  C   UNL A   1      31.812  26.820  22.558  1.00  0.00    -0.025 A 
ATOM     12  C   UNL A   1      30.880  27.768  22.101  1.00  0.00     0.031 A 
ATOM     13  C   UNL A   1      31.708  26.312  23.870  1.00  0.00     0.047 A 
ATOM     14  C   UNL A   1      29.809  28.175  22.893  1.00  0.00     0.038 A 
ATOM     15  C   UNL A   1      29.665  27.589  24.152  1.00  0.00     0.042 A 
BRANCH  13  16
ATOM     16  N   UNL A   1      32.745  25.513  24.374  1.00  0.00    -0.398 N 
ATOM     17  H   UNL A   1      33.065  25.645  25.295  1.00  0.00     0.156 HD
ATOM     18  H   UNL A   1      33.154  24.820  23.806  1.00  0.00     0.156 HD
ENDBRANCH  13  16
BRANCH  14  19
ATOM     19  N   UNL A   1      28.966  29.187  22.489  1.00  0.00    -0.369 N 
ATOM     20  C   UNL A   1      29.567  30.348  21.821  1.00  0.00     0.117 C 
ATOM     21  C   UNL A   1      27.534  29.281  22.807  1.00  0.00     0.079 C 
ATOM     22  C   UNL A   1      29.355  31.605  22.662  1.00  0.00     0.021 C 
ATOM     23  C   UNL A   1      27.310  30.535  23.673  1.00  0.00     0.025 C 
ATOM     24  C   UNL A   1      26.956  28.053  23.506  1.00  0.00     0.031 C 
ATOM     25  C   UNL A   1      27.882  31.790  23.010  1.00  0.00     0.004 C 
ENDBRANCH  14  19
ENDBRANCH   6   9
ENDBRANCH   4   5
ENDBRANCH   3   4
ENDBRANCH   2   3
ENDBRANCH   1   2
BRANCH   1  26
ATOM     26  C   UNL A   1      31.187  31.920  26.477  1.00  0.00     0.021 C 
BRANCH  26  27
ATOM     27  C   UNL A   1      32.551  32.533  26.769  1.00  0.00     0.116 C 
BRANCH  27  28
ATOM     28  N   UNL A   1      32.421  33.878  27.311  1.00  0.00    -0.352 N 
ATOM     29  C   UNL A   1      33.049  34.435  28.396  1.00  0.00     0.251 C 
ATOM     30  H   UNL A   1      31.797  34.470  26.832  1.00  0.00     0.163 HD
ATOM     31  O   UNL A   1      32.637  35.488  28.873  1.00  0.00    -0.269 OA
BRANCH  29  32
ATOM     32  C   UNL A   1      34.222  33.758  28.986  1.00  0.00     0.039 A 
ATOM     33  C   UNL A   1      35.499  34.257  28.724  1.00  0.00     0.014 A 
ATOM     34  C   UNL A   1      34.057  32.624  29.786  1.00  0.00     0.014 A 
ATOM     35  C   UNL A   1      36.610  33.644  29.306  1.00  0.00     0.010 A 
ATOM     36  C   UNL A   1      35.157  32.061  30.424  1.00  0.00     0.010 A 
ATOM     37  C   UNL A   1      36.446  32.557  30.181  1.00  0.00    -0.014 A 
BRANCH  37  38
ATOM     38  C   UNL A   1      37.610  31.927  30.854  1.00  0.00     0.031 A 
ATOM     39  C   UNL A   1      38.436  30.898  30.131  1.00  0.00     0.074 A 
ATOM     40  C   UNL A   1      37.870  32.220  32.144  1.00  0.00     0.049 A 
ATOM     41  N   UNL A   1      39.451  30.199  30.570  1.00  0.00    -0.248 NA
ATOM     42  C   UNL A   1      38.060  30.594  28.739  1.00  0.00     0.031 C 
ATOM     43  C   UNL A   1      37.093  33.142  32.975  1.00  0.00     0.029 A 
ATOM     44  N   UNL A   1      38.843  31.753  32.990  1.00  0.00    -0.354 N 
ATOM     45  C   UNL A   1      39.808  29.351  29.529  1.00  0.00     0.074 A 
ATOM     46  C   UNL A   1      38.883  29.598  28.445  1.00  0.00     0.031 C 
ATOM     47  C   UNL A   1      37.621  33.174  34.209  1.00  0.00     0.029 A 
ATOM     48  C   UNL A   1      38.751  32.253  34.268  1.00  0.00     0.049 A 
ATOM     49  H   UNL A   1      39.543  31.118  32.709  1.00  0.00     0.167 HD
ATOM     50  C   UNL A   1      40.831  28.465  29.471  1.00  0.00     0.034 A 
ATOM     51  C   UNL A   1      39.487  31.991  35.366  1.00  0.00     0.034 A 
ATOM     52  C   UNL A   1      41.774  28.255  30.535  1.00  0.00     0.049 A 
ATOM     53  C   UNL A   1      40.641  31.032  35.259  1.00  0.00     0.074 A 
ATOM     54  C   UNL A   1      42.898  27.449  30.539  1.00  0.00     0.029 A 
ATOM     55  N   UNL A   1      41.702  28.847  31.785  1.00  0.00    -0.354 N 
ATOM     56  N   UNL A   1      41.060  30.359  34.214  1.00  0.00    -0.248 NA
ATOM     57  C   UNL A   1      41.448  30.825  36.470  1.00  0.00     0.031 C 
ATOM     58  C   UNL A   1      43.489  27.531  31.803  1.00  0.00     0.029 A 
ATOM     59  C   UNL A   1      42.753  28.416  32.574  1.00  0.00     0.049 A 
ATOM     60  H   UNL A   1      41.005  29.482  32.070  1.00  0.00     0.167 HD
ATOM     61  C   UNL A   1      42.201  29.681  34.632  1.00  0.00     0.074 A 
ATOM     62  C   UNL A   1      42.418  30.041  36.016  1.00  0.00     0.031 C 
ATOM     63  C   UNL A   1      42.989  28.827  33.934  1.00  0.00     0.034 A 
BRANCH  50  64
ATOM     64  C   UNL A   1      41.018  27.688  28.194  1.00  0.00     0.023 A 
ATOM     65  C   UNL A   1      41.646  28.300  27.090  1.00  0.00     0.012 A 
ATOM     66  C   UNL A   1      40.645  26.332  28.111  1.00  0.00     0.148 A 
ATOM     67  C   UNL A   1      41.873  27.586  25.914  1.00  0.00     0.002 A 
ATOM     68  C   UNL A   1      40.917  25.613  26.953  1.00  0.00     0.091 A 
ATOM     69  F   UNL A   1      40.032  25.773  29.165  1.00  0.00    -0.205 F 
ATOM     70  C   UNL A   1      41.519  26.240  25.850  1.00  0.00     0.022 A 
BRANCH  68  71
ATOM     71  S   UNL A   1      40.576  23.856  26.799  1.00  0.00     0.127 S 
ATOM     72  O   UNL A   1      41.482  23.474  25.716  1.00  0.00    -0.237 OA
ATOM     73  O   UNL A   1      40.959  23.352  28.119  1.00  0.00    -0.237 OA
ATOM     74  O   UNL A   1      39.158  23.745  26.492  1.00  0.00    -0.744 OA
ENDBRANCH  68  71
ENDBRANCH  50  64
BRANCH  51  75
ATOM     75  C   UNL A   1      39.189  32.687  36.650  1.00  0.00     0.023 A 
ATOM     76  C   UNL A   1      39.835  33.902  36.947  1.00  0.00     0.012 A 
ATOM     77  C   UNL A   1      38.263  32.160  37.571  1.00  0.00     0.148 A 
ATOM     78  C   UNL A   1      39.597  34.559  38.155  1.00  0.00     0.002 A 
ATOM     79  C   UNL A   1      37.987  32.847  38.746  1.00  0.00     0.091 A 
ATOM     80  F   UNL A   1      37.666  30.996  37.277  1.00  0.00    -0.205 F 
ATOM     81  C   UNL A   1      38.667  34.037  39.049  1.00  0.00     0.022 A 
BRANCH  79  82
ATOM     82  S   UNL A   1      36.709  32.317  39.891  1.00  0.00     0.127 S 
ATOM     83  O   UNL A   1      35.501  32.469  39.083  1.00  0.00    -0.237 OA
ATOM     84  O   UNL A   1      37.099  30.934  40.163  1.00  0.00    -0.237 OA
ATOM     85  O   UNL A   1      36.818  33.206  41.040  1.00  0.00    -0.744 OA
ENDBRANCH  79  82
ENDBRANCH  51  75
BRANCH  63  86
ATOM     86  C   UNL A   1      44.191  28.253  34.636  1.00  0.00     0.023 A 
ATOM     87  C   UNL A   1      45.414  28.953  34.624  1.00  0.00     0.012 A 
ATOM     88  C   UNL A   1      44.085  27.057  35.373  1.00  0.00     0.148 A 
ATOM     89  C   UNL A   1      46.523  28.452  35.307  1.00  0.00     0.002 A 
ATOM     90  C   UNL A   1      45.178  26.592  36.093  1.00  0.00     0.091 A 
ATOM     91  F   UNL A   1      42.918  26.398  35.358  1.00  0.00    -0.205 F 
ATOM     92  C   UNL A   1      46.402  27.280  36.050  1.00  0.00     0.022 A 
BRANCH  90  93
ATOM     93  S   UNL A   1      45.087  25.148  37.158  1.00  0.00     0.127 S 
ATOM     94  O   UNL A   1      44.084  25.564  38.138  1.00  0.00    -0.237 OA
ATOM     95  O   UNL A   1      44.640  24.108  36.232  1.00  0.00    -0.237 OA
ATOM     96  O   UNL A   1      46.431  24.952  37.685  1.00  0.00    -0.744 OA
ENDBRANCH  90  93
ENDBRANCH  63  86
ENDBRANCH  37  38
ENDBRANCH  29  32
ENDBRANCH  27  28
ENDBRANCH  26  27
ENDBRANCH   1  26
TORSDOF 18
ENDMDL
MODEL 2
REMARK VINA RESULT:     -11.6      2.156      3.673
REMARK SMILES Cc1cc(N2CCCC[C@@H]2C)cc(C(=O)NCCCCCCNC(=O)c2ccc(-c3c4nc(c(-c5cccc(S(=O)(=O)[O-])c5F)c5ccc([nH]5)c(-c5cccc(S(=O)(=O)[O-])c5F)c5nc(c(-c6cccc(S(=O)(=O)[O-])c6F)c6ccc3[nH]6)C=C5)C=C4)cc2)c1N
REMARK SMILES IDX 20 1 19 2 18 3 17 4 16 5 14 6 15 7 13 9 1 10 2 11 3 12 89 13
REMARK SMILES IDX 4 14 12 15 90 16 5 19 6 20 10 21 7 22 9 23 11 24 8 25 21 26
REMARK SMILES IDX 22 27 23 28 24 29 25 31 26 32 27 33 88 34 28 35 87 36 29 37
REMARK SMILES IDX 30 38 31 39 81 40 32 41 86 42 80 43 82 44 33 45 85 46 79 47
REMARK SMILES IDX 78 48 34 50 66 51 46 52 65 53 47 54 50 55 64 56 83 57 48 58
REMARK SMILES IDX 49 59 63 61 84 62 51 63 35 64 36 65 44 66 37 67 39 68 45 69
REMARK SMILES IDX 38 70 40 71 41 72 42 73 43 74 67 75 68 76 76 77 69 78 71 79
REMARK SMILES IDX 77 80 70 81 72 82 73 83 74 84 75 85 52 86 53 87 61 88 54 89
REMARK SMILES IDX 56 90 62 91 55 92 57 93 58 94 59 95 60 96
REMARK H PARENT 16 8 90 17 90 18 23 30 82 49 50 60
REMARK Flexibility Score: inf
ROOT
ATOM      1  C   UNL A   1      31.725  30.625  26.139  1.00  0.00     0.002 C 
ENDROOT
BRANCH   1   2
ATOM      2  C   UNL A   1      32.403  29.659  27.119  1.00  0.00     0.002 C 
BRANCH   2   3
ATOM      3  C   UNL A   1      33.728  29.069  26.614  1.00  0.00     0.021 C 
BRANCH   3   4
ATOM      4  C   UNL A   1      33.565  27.651  26.056  1.00  0.00     0.116 C 
BRANCH   4   5
ATOM      5  N   UNL A   1      32.160  27.395  25.807  1.00  0.00    -0.352 N 
ATOM      6  C   UNL A   1      31.475  26.695  24.846  1.00  0.00     0.253 C 
ATOM      7  O   UNL A   1      30.245  26.822  24.874  1.00  0.00    -0.269 OA
ATOM      8  H   UNL A   1      31.568  27.815  26.472  1.00  0.00     0.163 HD
BRANCH   6   9
ATOM      9  C   UNL A   1      32.111  25.773  23.843  1.00  0.00     0.065 A 
ATOM     10  C   UNL A   1      32.624  25.558  20.047  1.00  0.00     0.046 C 
ATOM     11  C   UNL A   1      32.608  25.228  21.514  1.00  0.00    -0.025 A 
ATOM     12  C   UNL A   1      33.098  23.978  21.930  1.00  0.00     0.031 A 
ATOM     13  C   UNL A   1      32.095  26.132  22.468  1.00  0.00     0.047 A 
ATOM     14  C   UNL A   1      33.152  23.630  23.278  1.00  0.00     0.038 A 
ATOM     15  C   UNL A   1      32.733  24.576  24.216  1.00  0.00     0.042 A 
BRANCH  13  16
ATOM     16  N   UNL A   1      31.442  27.291  22.024  1.00  0.00    -0.398 N 
ATOM     17  H   UNL A   1      30.581  27.553  22.421  1.00  0.00     0.156 HD
ATOM     18  H   UNL A   1      31.846  27.842  21.314  1.00  0.00     0.156 HD
ENDBRANCH  13  16
BRANCH  14  19
ATOM     19  N   UNL A   1      33.523  22.364  23.675  1.00  0.00    -0.369 N 
ATOM     20  C   UNL A   1      32.504  21.309  23.624  1.00  0.00     0.117 C 
ATOM     21  C   UNL A   1      34.808  22.007  24.293  1.00  0.00     0.079 C 
ATOM     22  C   UNL A   1      32.218  20.788  25.031  1.00  0.00     0.021 C 
ATOM     23  C   UNL A   1      34.535  21.500  25.721  1.00  0.00     0.025 C 
ATOM     24  C   UNL A   1      35.833  23.139  24.327  1.00  0.00     0.031 C 
ATOM     25  C   UNL A   1      33.506  20.368  25.732  1.00  0.00     0.004 C 
ENDBRANCH  14  19
ENDBRANCH   6   9
ENDBRANCH   4   5
ENDBRANCH   3   4
ENDBRANCH   2   3
ENDBRANCH   1   2
BRANCH   1  26
ATOM     26  C   UNL A   1      31.531  32.046  26.676  1.00  0.00     0.021 C 
BRANCH  26  27
ATOM     27  C   UNL A   1      32.786  32.645  27.299  1.00  0.00     0.116 C 
BRANCH  27  28
ATOM     28  N   UNL A   1      32.603  34.056  27.603  1.00  0.00    -0.352 N 
ATOM     29  C   UNL A   1      33.161  34.801  28.612  1.00  0.00     0.251 C 
ATOM     30  H   UNL A   1      31.996  34.545  27.002  1.00  0.00     0.163 HD
ATOM     31  O   UNL A   1      32.704  35.906  28.886  1.00  0.00    -0.269 OA
BRANCH  29  32
ATOM     32  C   UNL A   1      34.312  34.261  29.365  1.00  0.00     0.039 A 
ATOM     33  C   UNL A   1      34.082  33.581  30.562  1.00  0.00     0.014 A 
ATOM     34  C   UNL A   1      35.614  34.439  28.891  1.00  0.00     0.014 A 
ATOM     35  C   UNL A   1      35.161  33.037  31.262  1.00  0.00     0.010 A 
ATOM     36  C   UNL A   1      36.678  33.833  29.550  1.00  0.00     0.010 A 
ATOM     37  C   UNL A   1      36.465  33.136  30.747  1.00  0.00    -0.014 A 
BRANCH  37  38
ATOM     38  C   UNL A   1      37.618  32.515  31.447  1.00  0.00     0.031 A 
ATOM     39  C   UNL A   1      38.353  31.363  30.818  1.00  0.00     0.074 A 
ATOM     40  C   UNL A   1      37.947  32.933  32.686  1.00  0.00     0.049 A 
ATOM     41  N   UNL A   1      39.343  30.656  31.299  1.00  0.00    -0.248 NA
ATOM     42  C   UNL A   1      37.903  30.929  29.483  1.00  0.00     0.031 C 
ATOM     43  C   UNL A   1      37.260  33.989  33.433  1.00  0.00     0.029 A 
ATOM     44  N   UNL A   1      38.926  32.504  33.545  1.00  0.00    -0.354 N 
ATOM     45  C   UNL A   1      39.607  29.676  30.349  1.00  0.00     0.074 A 
ATOM     46  C   UNL A   1      38.654  29.857  29.277  1.00  0.00     0.031 C 
ATOM     47  C   UNL A   1      37.838  34.126  34.636  1.00  0.00     0.029 A 
ATOM     48  C   UNL A   1      38.915  33.148  34.761  1.00  0.00     0.049 A 
ATOM     49  H   UNL A   1      39.576  31.800  33.314  1.00  0.00     0.167 HD
ATOM     50  C   UNL A   1      40.575  28.728  30.357  1.00  0.00     0.034 A 
ATOM     51  C   UNL A   1      39.680  32.966  35.856  1.00  0.00     0.034 A 
ATOM     52  C   UNL A   1      41.548  28.580  31.405  1.00  0.00     0.049 A 
ATOM     53  C   UNL A   1      40.771  31.932  35.818  1.00  0.00     0.074 A 
ATOM     54  C   UNL A   1      42.622  27.712  31.462  1.00  0.00     0.029 A 
ATOM     55  N   UNL A   1      41.561  29.311  32.581  1.00  0.00    -0.354 N 
ATOM     56  N   UNL A   1      41.108  31.121  34.844  1.00  0.00    -0.248 NA
ATOM     57  C   UNL A   1      41.615  31.811  37.017  1.00  0.00     0.031 C 
ATOM     58  C   UNL A   1      43.268  27.897  32.688  1.00  0.00     0.029 A 
ATOM     59  C   UNL A   1      42.617  28.907  33.378  1.00  0.00     0.049 A 
ATOM     60  H   UNL A   1      40.913  30.016  32.816  1.00  0.00     0.167 HD
ATOM     61  C   UNL A   1      42.224  30.425  35.296  1.00  0.00     0.074 A 
ATOM     62  C   UNL A   1      42.518  30.924  36.622  1.00  0.00     0.031 C 
ATOM     63  C   UNL A   1      42.932  29.451  34.673  1.00  0.00     0.034 A 
BRANCH  50  64
ATOM     64  C   UNL A   1      40.664  27.802  29.171  1.00  0.00     0.023 A 
ATOM     65  C   UNL A   1      39.790  26.700  29.080  1.00  0.00     0.012 A 
ATOM     66  C   UNL A   1      41.556  28.067  28.113  1.00  0.00     0.148 A 
ATOM     67  C   UNL A   1      39.823  25.857  27.970  1.00  0.00     0.002 A 
ATOM     68  C   UNL A   1      41.550  27.250  26.989  1.00  0.00     0.091 A 
ATOM     69  F   UNL A   1      42.392  29.108  28.227  1.00  0.00    -0.205 F 
ATOM     70  C   UNL A   1      40.693  26.139  26.920  1.00  0.00     0.022 A 
BRANCH  68  71
ATOM     71  S   UNL A   1      42.573  27.574  25.548  1.00  0.00     0.127 S 
ATOM     72  O   UNL A   1      43.912  27.589  26.135  1.00  0.00    -0.237 OA
ATOM     73  O   UNL A   1      42.290  26.412  24.704  1.00  0.00    -0.237 OA
ATOM     74  O   UNL A   1      42.116  28.845  25.007  1.00  0.00    -0.744 OA
ENDBRANCH  68  71
ENDBRANCH  50  64
BRANCH  51  75
ATOM     75  C   UNL A   1      39.476  33.818  37.061  1.00  0.00     0.023 A 
ATOM     76  C   UNL A   1      39.895  35.162  37.040  1.00  0.00     0.012 A 
ATOM     77  C   UNL A   1      38.860  33.309  38.221  1.00  0.00     0.148 A 
ATOM     78  C   UNL A   1      39.743  35.973  38.166  1.00  0.00     0.002 A 
ATOM     79  C   UNL A   1      38.659  34.138  39.319  1.00  0.00     0.091 A 
ATOM     80  F   UNL A   1      38.477  32.024  38.227  1.00  0.00    -0.205 F 
ATOM     81  C   UNL A   1      39.117  35.464  39.300  1.00  0.00     0.022 A 
BRANCH  79  82
ATOM     82  S   UNL A   1      37.744  33.604  40.769  1.00  0.00     0.127 S 
ATOM     83  O   UNL A   1      38.568  32.499  41.253  1.00  0.00    -0.237 OA
ATOM     84  O   UNL A   1      37.772  34.806  41.604  1.00  0.00    -0.237 OA
ATOM     85  O   UNL A   1      36.419  33.242  40.287  1.00  0.00    -0.744 OA
ENDBRANCH  79  82
ENDBRANCH  51  75
BRANCH  63  86
ATOM     86  C   UNL A   1      44.127  28.887  35.394  1.00  0.00     0.023 A 
ATOM     87  C   UNL A   1      45.393  29.485  35.236  1.00  0.00     0.012 A 
ATOM     88  C   UNL A   1      43.978  27.809  36.290  1.00  0.00     0.148 A 
ATOM     89  C   UNL A   1      46.499  28.996  35.932  1.00  0.00     0.002 A 
ATOM     90  C   UNL A   1      45.073  27.362  37.019  1.00  0.00     0.091 A 
ATOM     91  F   UNL A   1      42.769  27.243  36.414  1.00  0.00    -0.205 F 
ATOM     92  C   UNL A   1      46.337  27.945  36.831  1.00  0.00     0.022 A 
BRANCH  90  93
ATOM     93  S   UNL A   1      44.939  26.082  38.272  1.00  0.00     0.127 S 
ATOM     94  O   UNL A   1      46.318  25.984  38.746  1.00  0.00    -0.237 OA
ATOM     95  O   UNL A   1      44.006  26.680  39.227  1.00  0.00    -0.237 OA
ATOM     96  O   UNL A   1      44.428  24.902  37.587  1.00  0.00    -0.744 OA
ENDBRANCH  90  93
ENDBRANCH  63  86
ENDBRANCH  37  38
ENDBRANCH  29  32
ENDBRANCH  27  28
ENDBRANCH  26  27
ENDBRANCH   1  26
TORSDOF 18
ENDMDL
MODEL 3
REMARK VINA RESULT:     -11.5      2.665      8.412
REMARK SMILES Cc1cc(N2CCCC[C@@H]2C)cc(C(=O)NCCCCCCNC(=O)c2ccc(-c3c4nc(c(-c5cccc(S(=O)(=O)[O-])c5F)c5ccc([nH]5)c(-c5cccc(S(=O)(=O)[O-])c5F)c5nc(c(-c6cccc(S(=O)(=O)[O-])c6F)c6ccc3[nH]6)C=C5)C=C4)cc2)c1N
REMARK SMILES IDX 20 1 19 2 18 3 17 4 16 5 14 6 15 7 13 9 1 10 2 11 3 12 89 13
REMARK SMILES IDX 4 14 12 15 90 16 5 19 6 20 10 21 7 22 9 23 11 24 8 25 21 26
REMARK SMILES IDX 22 27 23 28 24 29 25 31 26 32 27 33 88 34 28 35 87 36 29 37
REMARK SMILES IDX 30 38 31 39 81 40 32 41 86 42 80 43 82 44 33 45 85 46 79 47
REMARK SMILES IDX 78 48 34 50 66 51 46 52 65 53 47 54 50 55 64 56 83 57 48 58
REMARK SMILES IDX 49 59 63 61 84 62 51 63 35 64 36 65 44 66 37 67 39 68 45 69
REMARK SMILES IDX 38 70 40 71 41 72 42 73 43 74 67 75 68 76 76 77 69 78 71 79
REMARK SMILES IDX 77 80 70 81 72 82 73 83 74 84 75 85 52 86 53 87 61 88 54 89
REMARK SMILES IDX 56 90 62 91 55 92 57 93 58 94 59 95 60 96
REMARK H PARENT 16 8 90 17 90 18 23 30 82 49 50 60
REMARK Flexibility Score: inf
ROOT
ATOM      1  C   UNL A   1      35.726  33.285  28.010  1.00  0.00     0.002 C 
ENDROOT
BRANCH   1   2
ATOM      2  C   UNL A   1      35.164  31.861  28.116  1.00  0.00     0.002 C 
BRANCH   2   3
ATOM      3  C   UNL A   1      36.130  30.762  27.650  1.00  0.00     0.021 C 
BRANCH   3   4
ATOM      4  C   UNL A   1      35.570  29.353  27.875  1.00  0.00     0.116 C 
BRANCH   4   5
ATOM      5  N   UNL A   1      34.120  29.409  27.866  1.00  0.00    -0.352 N 
ATOM      6  C   UNL A   1      33.153  28.900  27.035  1.00  0.00     0.253 C 
ATOM      7  O   UNL A   1      32.001  29.285  27.268  1.00  0.00    -0.269 OA
ATOM      8  H   UNL A   1      33.750  29.924  28.618  1.00  0.00     0.163 HD
BRANCH   6   9
ATOM      9  C   UNL A   1      33.404  27.896  25.946  1.00  0.00     0.065 A 
ATOM     10  C   UNL A   1      33.733  27.816  22.123  1.00  0.00     0.046 C 
ATOM     11  C   UNL A   1      33.631  27.397  23.564  1.00  0.00    -0.025 A 
ATOM     12  C   UNL A   1      33.657  26.026  23.873  1.00  0.00     0.031 A 
ATOM     13  C   UNL A   1      33.488  28.345  24.599  1.00  0.00     0.047 A 
ATOM     14  C   UNL A   1      33.611  25.576  25.191  1.00  0.00     0.038 A 
ATOM     15  C   UNL A   1      33.571  26.532  26.208  1.00  0.00     0.042 A 
BRANCH  13  16
ATOM     16  N   UNL A   1      33.277  29.691  24.265  1.00  0.00    -0.398 N 
ATOM     17  H   UNL A   1      33.712  30.074  23.471  1.00  0.00     0.156 HD
ATOM     18  H   UNL A   1      32.693  30.252  24.826  1.00  0.00     0.156 HD
ENDBRANCH  13  16
BRANCH  14  19
ATOM     19  N   UNL A   1      33.520  24.233  25.484  1.00  0.00    -0.369 N 
ATOM     20  C   UNL A   1      32.180  23.671  25.692  1.00  0.00     0.117 C 
ATOM     21  C   UNL A   1      34.656  23.343  25.763  1.00  0.00     0.079 C 
ATOM     22  C   UNL A   1      32.039  23.167  27.127  1.00  0.00     0.021 C 
ATOM     23  C   UNL A   1      34.537  22.844  27.215  1.00  0.00     0.025 C 
ATOM     24  C   UNL A   1      36.028  23.974  25.538  1.00  0.00     0.031 C 
ATOM     25  C   UNL A   1      33.171  22.209  27.485  1.00  0.00     0.004 C 
ENDBRANCH  14  19
ENDBRANCH   6   9
ENDBRANCH   4   5
ENDBRANCH   3   4
ENDBRANCH   2   3
ENDBRANCH   1   2
BRANCH   1  26
ATOM     26  C   UNL A   1      34.670  34.392  28.074  1.00  0.00     0.021 C 
BRANCH  26  27
ATOM     27  C   UNL A   1      33.390  33.982  28.792  1.00  0.00     0.116 C 
BRANCH  27  28
ATOM     28  N   UNL A   1      32.982  34.987  29.763  1.00  0.00    -0.352 N 
ATOM     29  C   UNL A   1      33.372  35.132  31.070  1.00  0.00     0.251 C 
ATOM     30  H   UNL A   1      32.338  35.655  29.436  1.00  0.00     0.163 HD
ATOM     31  O   UNL A   1      32.742  35.868  31.823  1.00  0.00    -0.269 OA
BRANCH  29  32
ATOM     32  C   UNL A   1      34.554  34.395  31.563  1.00  0.00     0.039 A 
ATOM     33  C   UNL A   1      34.376  33.149  32.165  1.00  0.00     0.014 A 
ATOM     34  C   UNL A   1      35.834  34.944  31.438  1.00  0.00     0.014 A 
ATOM     35  C   UNL A   1      35.491  32.430  32.602  1.00  0.00     0.010 A 
ATOM     36  C   UNL A   1      36.946  34.195  31.806  1.00  0.00     0.010 A 
ATOM     37  C   UNL A   1      36.786  32.937  32.402  1.00  0.00    -0.014 A 
BRANCH  37  38
ATOM     38  C   UNL A   1      37.986  32.162  32.808  1.00  0.00     0.031 A 
ATOM     39  C   UNL A   1      38.725  32.517  34.070  1.00  0.00     0.074 A 
ATOM     40  C   UNL A   1      38.459  31.196  31.996  1.00  0.00     0.049 A 
ATOM     41  N   UNL A   1      39.821  31.996  34.557  1.00  0.00    -0.248 NA
ATOM     42  C   UNL A   1      38.175  33.619  34.881  1.00  0.00     0.031 C 
ATOM     43  C   UNL A   1      37.876  30.812  30.708  1.00  0.00     0.029 A 
ATOM     44  N   UNL A   1      39.553  30.378  32.120  1.00  0.00    -0.354 N 
ATOM     45  C   UNL A   1      40.112  32.727  35.704  1.00  0.00     0.074 A 
ATOM     46  C   UNL A   1      39.096  33.749  35.825  1.00  0.00     0.031 C 
ATOM     47  C   UNL A   1      38.616  29.834  30.163  1.00  0.00     0.029 A 
ATOM     48  C   UNL A   1      39.744  29.543  31.043  1.00  0.00     0.049 A 
ATOM     49  H   UNL A   1      40.148  30.387  32.905  1.00  0.00     0.167 HD
ATOM     50  C   UNL A   1      41.120  32.545  36.591  1.00  0.00     0.034 A 
ATOM     51  C   UNL A   1      40.721  28.650  30.788  1.00  0.00     0.034 A 
ATOM     52  C   UNL A   1      42.102  31.500  36.489  1.00  0.00     0.049 A 
ATOM     53  C   UNL A   1      41.804  28.444  31.812  1.00  0.00     0.074 A 
ATOM     54  C   UNL A   1      43.106  31.177  37.384  1.00  0.00     0.029 A 
ATOM     55  N   UNL A   1      42.209  30.615  35.429  1.00  0.00    -0.354 N 
ATOM     56  N   UNL A   1      41.970  29.038  32.969  1.00  0.00    -0.248 NA
ATOM     57  C   UNL A   1      42.814  27.418  31.513  1.00  0.00     0.031 C 
ATOM     58  C   UNL A   1      43.840  30.114  36.849  1.00  0.00     0.029 A 
ATOM     59  C   UNL A   1      43.270  29.753  35.640  1.00  0.00     0.049 A 
ATOM     60  H   UNL A   1      41.618  30.602  34.642  1.00  0.00     0.167 HD
ATOM     61  C   UNL A   1      43.077  28.431  33.553  1.00  0.00     0.074 A 
ATOM     62  C   UNL A   1      43.528  27.410  32.631  1.00  0.00     0.031 C 
ATOM     63  C   UNL A   1      43.674  28.704  34.739  1.00  0.00     0.034 A 
BRANCH  50  64
ATOM     64  C   UNL A   1      41.186  33.467  37.781  1.00  0.00     0.023 A 
ATOM     65  C   UNL A   1      42.077  34.560  37.767  1.00  0.00     0.012 A 
ATOM     66  C   UNL A   1      40.315  33.299  38.875  1.00  0.00     0.148 A 
ATOM     67  C   UNL A   1      42.122  35.454  38.837  1.00  0.00     0.002 A 
ATOM     68  C   UNL A   1      40.332  34.221  39.916  1.00  0.00     0.091 A 
ATOM     69  F   UNL A   1      39.489  32.243  38.878  1.00  0.00    -0.205 F 
ATOM     70  C   UNL A   1      41.242  35.291  39.904  1.00  0.00     0.022 A 
BRANCH  68  71
ATOM     71  S   UNL A   1      39.186  34.148  41.296  1.00  0.00     0.127 S 
ATOM     72  O   UNL A   1      39.536  35.360  42.035  1.00  0.00    -0.237 OA
ATOM     73  O   UNL A   1      37.889  34.200  40.620  1.00  0.00    -0.237 OA
ATOM     74  O   UNL A   1      39.463  32.897  41.986  1.00  0.00    -0.744 OA
ENDBRANCH  68  71
ENDBRANCH  50  64
BRANCH  51  75
ATOM     75  C   UNL A   1      40.691  27.845  29.535  1.00  0.00     0.023 A 
ATOM     76  C   UNL A   1      39.793  26.767  29.424  1.00  0.00     0.012 A 
ATOM     77  C   UNL A   1      41.537  28.148  28.450  1.00  0.00     0.148 A 
ATOM     78  C   UNL A   1      39.766  25.978  28.273  1.00  0.00     0.002 A 
ATOM     79  C   UNL A   1      41.465  27.395  27.285  1.00  0.00     0.091 A 
ATOM     80  F   UNL A   1      42.393  29.171  28.578  1.00  0.00    -0.205 F 
ATOM     81  C   UNL A   1      40.593  26.297  27.201  1.00  0.00     0.022 A 
BRANCH  79  82
ATOM     82  S   UNL A   1      42.398  27.817  25.809  1.00  0.00     0.127 S 
ATOM     83  O   UNL A   1      43.775  27.697  26.282  1.00  0.00    -0.237 OA
ATOM     84  O   UNL A   1      41.974  26.775  24.874  1.00  0.00    -0.237 OA
ATOM     85  O   UNL A   1      41.968  29.159  25.444  1.00  0.00    -0.744 OA
ENDBRANCH  79  82
ENDBRANCH  51  75
BRANCH  63  86
ATOM     86  C   UNL A   1      44.854  27.858  35.139  1.00  0.00     0.023 A 
ATOM     87  C   UNL A   1      46.163  28.302  34.866  1.00  0.00     0.012 A 
ATOM     88  C   UNL A   1      44.664  26.660  35.855  1.00  0.00     0.148 A 
ATOM     89  C   UNL A   1      47.265  27.547  35.270  1.00  0.00     0.002 A 
ATOM     90  C   UNL A   1      45.766  25.941  36.300  1.00  0.00     0.091 A 
ATOM     91  F   UNL A   1      43.410  26.246  36.090  1.00  0.00    -0.205 F 
ATOM     92  C   UNL A   1      47.066  26.375  35.996  1.00  0.00     0.022 A 
BRANCH  90  93
ATOM     93  S   UNL A   1      45.610  24.475  37.327  1.00  0.00     0.127 S 
ATOM     94  O   UNL A   1      47.010  24.123  37.559  1.00  0.00    -0.237 OA
ATOM     95  O   UNL A   1      44.908  24.993  38.501  1.00  0.00    -0.237 OA
ATOM     96  O   UNL A   1      44.847  23.514  36.542  1.00  0.00    -0.744 OA
ENDBRANCH  90  93
ENDBRANCH  63  86
ENDBRANCH  37  38
ENDBRANCH  29  32
ENDBRANCH  27  28
ENDBRANCH  26  27
ENDBRANCH   1  26
TORSDOF 18
ENDMDL
