MODEL 1
REMARK VINA RESULT:     -11.5      0.000      0.000
REMARK SMILES COc1ccc(COc2cncc(C(=O)NCCCCCCNC(=O)c3ccc(-c4c5nc(c(-c6cccc(S(=O)(=O)[O-])c6F)c6ccc([nH]6)c(-c6cccc(S(=O)(=O)[O-])c6F)c6nc(c(-c7cccc(S(=O)(=O)[O-])c7F)c7ccc4[nH]7)C=C6)C=C5)cc3)n2)cc1
REMARK SMILES IDX 19 1 18 2 17 3 16 4 14 5 15 6 13 8 9 9 10 10 89 11 11 12
REMARK SMILES IDX 12 13 8 14 7 15 6 16 3 17 4 18 91 19 5 20 90 21 2 22 1 23
REMARK SMILES IDX 20 24 21 25 22 26 23 27 24 28 25 30 26 31 27 32 88 33 28 34
REMARK SMILES IDX 87 35 29 36 30 37 31 38 81 39 32 40 86 41 80 42 82 43 33 44
REMARK SMILES IDX 85 45 79 46 78 47 34 49 66 50 46 51 65 52 47 53 50 54 64 55
REMARK SMILES IDX 83 56 48 57 49 58 63 60 84 61 51 62 35 63 36 64 44 65 37 66
REMARK SMILES IDX 39 67 45 68 38 69 40 70 41 71 42 72 43 73 67 74 68 75 76 76
REMARK SMILES IDX 69 77 71 78 77 79 70 80 72 81 73 82 74 83 75 84 52 85 53 86
REMARK SMILES IDX 61 87 54 88 56 89 62 90 55 91 57 92 58 93 59 94 60 95
REMARK H PARENT 16 7 23 29 82 48 50 59
REMARK Flexibility Score: inf
ROOT
ATOM      1  C   UNL A   1      33.300  29.814  25.680  1.00  0.00     0.002 C 
ENDROOT
BRANCH   1   2
ATOM      2  C   UNL A   1      33.405  28.506  24.888  1.00  0.00     0.021 C 
BRANCH   2   3
ATOM      3  C   UNL A   1      33.549  28.715  23.382  1.00  0.00     0.116 C 
BRANCH   3   4
ATOM      4  N   UNL A   1      32.272  29.100  22.802  1.00  0.00    -0.351 N 
ATOM      5  C   UNL A   1      31.099  28.408  22.624  1.00  0.00     0.271 C 
ATOM      6  O   UNL A   1      30.192  28.970  22.005  1.00  0.00    -0.267 OA
ATOM      7  H   UNL A   1      32.243  30.029  22.476  1.00  0.00     0.163 HD
BRANCH   5   8
ATOM      8  C   UNL A   1      30.861  27.049  23.184  1.00  0.00     0.150 A 
ATOM      9  C   UNL A   1      31.244  24.789  23.200  1.00  0.00     0.233 A 
ATOM     10  C   UNL A   1      30.667  24.710  24.463  1.00  0.00     0.179 A 
ATOM     11  N   UNL A   1      31.344  25.958  22.541  1.00  0.00    -0.205 NA
ATOM     12  N   UNL A   1      30.105  25.776  25.085  1.00  0.00    -0.257 NA
ATOM     13  C   UNL A   1      30.231  26.950  24.419  1.00  0.00     0.145 A 
BRANCH   9  14
ATOM     14  O   UNL A   1      31.920  23.746  22.628  1.00  0.00    -0.472 OA
BRANCH  14  15
ATOM     15  C   UNL A   1      33.234  23.561  23.176  1.00  0.00     0.267 C 
BRANCH  15  16
ATOM     16  C   UNL A   1      33.334  22.202  23.826  1.00  0.00    -0.010 A 
ATOM     17  C   UNL A   1      33.754  19.550  24.626  1.00  0.00     0.118 A 
ATOM     18  C   UNL A   1      32.623  19.887  23.883  1.00  0.00     0.047 A 
ATOM     19  C   UNL A   1      34.654  20.545  25.008  1.00  0.00     0.047 A 
ATOM     20  C   UNL A   1      32.399  21.209  23.503  1.00  0.00     0.011 A 
ATOM     21  C   UNL A   1      34.441  21.870  24.618  1.00  0.00     0.011 A 
BRANCH  17  22
ATOM     22  O   UNL A   1      33.921  18.211  24.853  1.00  0.00    -0.497 OA
ATOM     23  C   UNL A   1      32.902  17.376  24.319  1.00  0.00     0.278 C 
ENDBRANCH  17  22
ENDBRANCH  15  16
ENDBRANCH  14  15
ENDBRANCH   9  14
ENDBRANCH   5   8
ENDBRANCH   3   4
ENDBRANCH   2   3
ENDBRANCH   1   2
BRANCH   1  24
ATOM     24  C   UNL A   1      31.908  30.111  26.250  1.00  0.00     0.002 C 
BRANCH  24  25
ATOM     25  C   UNL A   1      31.653  31.581  26.593  1.00  0.00     0.021 C 
BRANCH  25  26
ATOM     26  C   UNL A   1      32.828  32.287  27.263  1.00  0.00     0.116 C 
BRANCH  26  27
ATOM     27  N   UNL A   1      32.543  33.691  27.520  1.00  0.00    -0.352 N 
ATOM     28  C   UNL A   1      33.066  34.523  28.476  1.00  0.00     0.251 C 
ATOM     29  H   UNL A   1      31.880  34.103  26.919  1.00  0.00     0.163 HD
ATOM     30  O   UNL A   1      32.552  35.622  28.681  1.00  0.00    -0.269 OA
BRANCH  28  31
ATOM     31  C   UNL A   1      34.232  34.090  29.272  1.00  0.00     0.039 A 
ATOM     32  C   UNL A   1      34.017  33.376  30.454  1.00  0.00     0.014 A 
ATOM     33  C   UNL A   1      35.534  34.383  28.853  1.00  0.00     0.014 A 
ATOM     34  C   UNL A   1      35.111  32.897  31.178  1.00  0.00     0.010 A 
ATOM     35  C   UNL A   1      36.619  33.843  29.538  1.00  0.00     0.010 A 
ATOM     36  C   UNL A   1      36.420  33.092  30.705  1.00  0.00    -0.014 A 
BRANCH  36  37
ATOM     37  C   UNL A   1      37.582  32.470  31.392  1.00  0.00     0.031 A 
ATOM     38  C   UNL A   1      38.319  31.318  30.766  1.00  0.00     0.074 A 
ATOM     39  C   UNL A   1      37.916  32.891  32.629  1.00  0.00     0.049 A 
ATOM     40  N   UNL A   1      39.323  30.629  31.242  1.00  0.00    -0.248 NA
ATOM     41  C   UNL A   1      37.856  30.866  29.443  1.00  0.00     0.031 C 
ATOM     42  C   UNL A   1      37.225  33.944  33.378  1.00  0.00     0.029 A 
ATOM     43  N   UNL A   1      38.901  32.467  33.486  1.00  0.00    -0.354 N 
ATOM     44  C   UNL A   1      39.591  29.643  30.301  1.00  0.00     0.074 A 
ATOM     45  C   UNL A   1      38.627  29.807  29.235  1.00  0.00     0.031 C 
ATOM     46  C   UNL A   1      37.806  34.083  34.579  1.00  0.00     0.029 A 
ATOM     47  C   UNL A   1      38.884  33.108  34.703  1.00  0.00     0.049 A 
ATOM     48  H   UNL A   1      39.556  31.771  33.252  1.00  0.00     0.167 HD
ATOM     49  C   UNL A   1      40.564  28.701  30.312  1.00  0.00     0.034 A 
ATOM     50  C   UNL A   1      39.638  32.921  35.804  1.00  0.00     0.034 A 
ATOM     51  C   UNL A   1      41.541  28.561  31.360  1.00  0.00     0.049 A 
ATOM     52  C   UNL A   1      40.730  31.887  35.778  1.00  0.00     0.074 A 
ATOM     53  C   UNL A   1      42.626  27.704  31.414  1.00  0.00     0.029 A 
ATOM     54  N   UNL A   1      41.540  29.279  32.547  1.00  0.00    -0.354 N 
ATOM     55  N   UNL A   1      41.078  31.080  34.804  1.00  0.00    -0.248 NA
ATOM     56  C   UNL A   1      41.553  31.758  36.988  1.00  0.00     0.031 C 
ATOM     57  C   UNL A   1      43.258  27.874  32.650  1.00  0.00     0.029 A 
ATOM     58  C   UNL A   1      42.590  28.867  33.349  1.00  0.00     0.049 A 
ATOM     59  H   UNL A   1      40.889  29.978  32.783  1.00  0.00     0.167 HD
ATOM     60  C   UNL A   1      42.177  30.370  35.273  1.00  0.00     0.074 A 
ATOM     61  C   UNL A   1      42.453  30.862  36.607  1.00  0.00     0.031 C 
ATOM     62  C   UNL A   1      42.883  29.388  34.660  1.00  0.00     0.034 A 
BRANCH  49  63
ATOM     63  C   UNL A   1      40.651  27.763  29.136  1.00  0.00     0.023 A 
ATOM     64  C   UNL A   1      39.780  26.658  29.057  1.00  0.00     0.012 A 
ATOM     65  C   UNL A   1      41.539  28.021  28.073  1.00  0.00     0.148 A 
ATOM     66  C   UNL A   1      39.813  25.805  27.954  1.00  0.00     0.002 A 
ATOM     67  C   UNL A   1      41.532  27.194  26.956  1.00  0.00     0.091 A 
ATOM     68  F   UNL A   1      42.372  29.066  28.174  1.00  0.00    -0.205 F 
ATOM     69  C   UNL A   1      40.680  26.079  26.900  1.00  0.00     0.022 A 
BRANCH  67  70
ATOM     70  S   UNL A   1      42.551  27.508  25.510  1.00  0.00     0.127 S 
ATOM     71  O   UNL A   1      43.891  27.545  26.096  1.00  0.00    -0.237 OA
ATOM     72  O   UNL A   1      42.281  26.332  24.683  1.00  0.00    -0.237 OA
ATOM     73  O   UNL A   1      42.082  28.768  24.951  1.00  0.00    -0.744 OA
ENDBRANCH  67  70
ENDBRANCH  49  63
BRANCH  50  74
ATOM     74  C   UNL A   1      39.410  33.761  37.015  1.00  0.00     0.023 A 
ATOM     75  C   UNL A   1      39.818  35.108  37.015  1.00  0.00     0.012 A 
ATOM     76  C   UNL A   1      38.771  33.235  38.154  1.00  0.00     0.148 A 
ATOM     77  C   UNL A   1      39.627  35.908  38.143  1.00  0.00     0.002 A 
ATOM     78  C   UNL A   1      38.530  34.053  39.252  1.00  0.00     0.091 A 
ATOM     79  F   UNL A   1      38.400  31.947  38.137  1.00  0.00    -0.205 F 
ATOM     80  C   UNL A   1      38.974  35.385  39.256  1.00  0.00     0.022 A 
BRANCH  78  81
ATOM     81  S   UNL A   1      37.579  33.501  40.671  1.00  0.00     0.127 S 
ATOM     82  O   UNL A   1      37.471  34.730  41.455  1.00  0.00    -0.237 OA
ATOM     83  O   UNL A   1      36.333  33.056  40.045  1.00  0.00    -0.237 OA
ATOM     84  O   UNL A   1      38.360  32.432  41.278  1.00  0.00    -0.744 OA
ENDBRANCH  78  81
ENDBRANCH  50  74
BRANCH  62  85
ATOM     85  C   UNL A   1      44.046  28.792  35.410  1.00  0.00     0.023 A 
ATOM     86  C   UNL A   1      45.334  29.342  35.264  1.00  0.00     0.012 A 
ATOM     87  C   UNL A   1      43.849  27.726  36.311  1.00  0.00     0.148 A 
ATOM     88  C   UNL A   1      46.414  28.821  35.974  1.00  0.00     0.002 A 
ATOM     89  C   UNL A   1      44.920  27.245  37.054  1.00  0.00     0.091 A 
ATOM     90  F   UNL A   1      42.619  27.204  36.424  1.00  0.00    -0.205 F 
ATOM     91  C   UNL A   1      46.205  27.781  36.877  1.00  0.00     0.022 A 
BRANCH  89  92
ATOM     92  S   UNL A   1      44.730  25.975  38.312  1.00  0.00     0.127 S 
ATOM     93  O   UNL A   1      45.892  26.225  39.163  1.00  0.00    -0.237 OA
ATOM     94  O   UNL A   1      43.445  26.328  38.915  1.00  0.00    -0.237 OA
ATOM     95  O   UNL A   1      44.739  24.702  37.604  1.00  0.00    -0.744 OA
ENDBRANCH  89  92
ENDBRANCH  62  85
ENDBRANCH  36  37
ENDBRANCH  28  31
ENDBRANCH  26  27
ENDBRANCH  25  26
ENDBRANCH  24  25
ENDBRANCH   1  24
TORSDOF 20
ENDMDL
MODEL 2
REMARK VINA RESULT:     -11.2      6.216     11.699
REMARK SMILES COc1ccc(COc2cncc(C(=O)NCCCCCCNC(=O)c3ccc(-c4c5nc(c(-c6cccc(S(=O)(=O)[O-])c6F)c6ccc([nH]6)c(-c6cccc(S(=O)(=O)[O-])c6F)c6nc(c(-c7cccc(S(=O)(=O)[O-])c7F)c7ccc4[nH]7)C=C6)C=C5)cc3)n2)cc1
REMARK SMILES IDX 19 1 18 2 17 3 16 4 14 5 15 6 13 8 9 9 10 10 89 11 11 12
REMARK SMILES IDX 12 13 8 14 7 15 6 16 3 17 4 18 91 19 5 20 90 21 2 22 1 23
REMARK SMILES IDX 20 24 21 25 22 26 23 27 24 28 25 30 26 31 27 32 88 33 28 34
REMARK SMILES IDX 87 35 29 36 30 37 31 38 81 39 32 40 86 41 80 42 82 43 33 44
REMARK SMILES IDX 85 45 79 46 78 47 34 49 66 50 46 51 65 52 47 53 50 54 64 55
REMARK SMILES IDX 83 56 48 57 49 58 63 60 84 61 51 62 35 63 36 64 44 65 37 66
REMARK SMILES IDX 39 67 45 68 38 69 40 70 41 71 42 72 43 73 67 74 68 75 76 76
REMARK SMILES IDX 69 77 71 78 77 79 70 80 72 81 73 82 74 83 75 84 52 85 53 86
REMARK SMILES IDX 61 87 54 88 56 89 62 90 55 91 57 92 58 93 59 94 60 95
REMARK H PARENT 16 7 23 29 82 48 50 59
REMARK Flexibility Score: inf
ROOT
ATOM      1  C   UNL A   1      37.082  22.068  24.697  1.00  0.00     0.002 C 
ENDROOT
BRANCH   1   2
ATOM      2  C   UNL A   1      35.909  23.007  25.000  1.00  0.00     0.021 C 
BRANCH   2   3
ATOM      3  C   UNL A   1      35.239  23.568  23.748  1.00  0.00     0.116 C 
BRANCH   3   4
ATOM      4  N   UNL A   1      34.225  22.646  23.261  1.00  0.00    -0.351 N 
ATOM      5  C   UNL A   1      32.960  22.355  23.709  1.00  0.00     0.271 C 
ATOM      6  O   UNL A   1      32.349  21.443  23.146  1.00  0.00    -0.267 OA
ATOM      7  H   UNL A   1      34.496  22.135  22.465  1.00  0.00     0.163 HD
BRANCH   5   8
ATOM      8  C   UNL A   1      32.282  23.118  24.794  1.00  0.00     0.150 A 
ATOM      9  C   UNL A   1      30.796  24.713  25.501  1.00  0.00     0.233 A 
ATOM     10  C   UNL A   1      30.851  24.181  26.786  1.00  0.00     0.179 A 
ATOM     11  N   UNL A   1      31.514  24.191  24.490  1.00  0.00    -0.205 NA
ATOM     12  N   UNL A   1      31.676  23.159  27.125  1.00  0.00    -0.257 NA
ATOM     13  C   UNL A   1      32.378  22.631  26.094  1.00  0.00     0.145 A 
BRANCH   9  14
ATOM     14  O   UNL A   1      29.877  25.656  25.129  1.00  0.00    -0.472 OA
BRANCH  14  15
ATOM     15  C   UNL A   1      29.989  26.035  23.750  1.00  0.00     0.267 C 
BRANCH  15  16
ATOM     16  C   UNL A   1      29.364  27.394  23.537  1.00  0.00    -0.010 A 
ATOM     17  C   UNL A   1      28.220  29.799  22.669  1.00  0.00     0.118 A 
ATOM     18  C   UNL A   1      29.606  29.674  22.757  1.00  0.00     0.047 A 
ATOM     19  C   UNL A   1      27.402  28.737  23.057  1.00  0.00     0.047 A 
ATOM     20  C   UNL A   1      30.179  28.487  23.210  1.00  0.00     0.011 A 
ATOM     21  C   UNL A   1      27.972  27.539  23.498  1.00  0.00     0.011 A 
BRANCH  17  22
ATOM     22  O   UNL A   1      27.777  30.969  22.115  1.00  0.00    -0.497 OA
ATOM     23  C   UNL A   1      28.217  32.151  22.770  1.00  0.00     0.278 C 
ENDBRANCH  17  22
ENDBRANCH  15  16
ENDBRANCH  14  15
ENDBRANCH   9  14
ENDBRANCH   5   8
ENDBRANCH   3   4
ENDBRANCH   2   3
ENDBRANCH   1   2
BRANCH   1  24
ATOM     24  C   UNL A   1      36.724  20.578  24.669  1.00  0.00     0.002 C 
BRANCH  24  25
ATOM     25  C   UNL A   1      37.909  19.626  24.846  1.00  0.00     0.021 C 
BRANCH  25  26
ATOM     26  C   UNL A   1      38.807  19.949  26.036  1.00  0.00     0.116 C 
BRANCH  26  27
ATOM     27  N   UNL A   1      40.044  19.182  26.006  1.00  0.00    -0.352 N 
ATOM     28  C   UNL A   1      41.340  19.620  26.105  1.00  0.00     0.251 C 
ATOM     29  H   UNL A   1      39.935  18.209  25.901  1.00  0.00     0.163 HD
ATOM     30  O   UNL A   1      42.268  18.854  25.846  1.00  0.00    -0.269 OA
BRANCH  28  31
ATOM     31  C   UNL A   1      41.619  21.015  26.502  1.00  0.00     0.039 A 
ATOM     32  C   UNL A   1      42.257  21.256  27.721  1.00  0.00     0.014 A 
ATOM     33  C   UNL A   1      41.257  22.082  25.674  1.00  0.00     0.014 A 
ATOM     34  C   UNL A   1      42.592  22.564  28.077  1.00  0.00     0.010 A 
ATOM     35  C   UNL A   1      41.657  23.376  25.997  1.00  0.00     0.010 A 
ATOM     36  C   UNL A   1      42.331  23.631  27.199  1.00  0.00    -0.014 A 
BRANCH  36  37
ATOM     37  C   UNL A   1      42.806  25.006  27.504  1.00  0.00     0.031 A 
ATOM     38  C   UNL A   1      41.890  26.012  28.144  1.00  0.00     0.074 A 
ATOM     39  C   UNL A   1      44.045  25.373  27.118  1.00  0.00     0.049 A 
ATOM     40  N   UNL A   1      42.122  27.265  28.439  1.00  0.00    -0.248 NA
ATOM     41  C   UNL A   1      40.528  25.562  28.477  1.00  0.00     0.031 C 
ATOM     42  C   UNL A   1      45.000  24.514  26.412  1.00  0.00     0.029 A 
ATOM     43  N   UNL A   1      44.703  26.572  27.236  1.00  0.00    -0.354 N 
ATOM     44  C   UNL A   1      40.933  27.763  28.957  1.00  0.00     0.074 A 
ATOM     45  C   UNL A   1      39.971  26.683  28.913  1.00  0.00     0.031 C 
ATOM     46  C   UNL A   1      46.118  25.211  26.162  1.00  0.00     0.029 A 
ATOM     47  C   UNL A   1      45.950  26.575  26.653  1.00  0.00     0.049 A 
ATOM     48  H   UNL A   1      44.321  27.355  27.694  1.00  0.00     0.167 HD
ATOM     49  C   UNL A   1      40.672  28.999  29.445  1.00  0.00     0.034 A 
ATOM     50  C   UNL A   1      46.850  27.567  26.511  1.00  0.00     0.034 A 
ATOM     51  C   UNL A   1      41.641  30.061  29.514  1.00  0.00     0.049 A 
ATOM     52  C   UNL A   1      46.544  28.922  27.087  1.00  0.00     0.074 A 
ATOM     53  C   UNL A   1      41.501  31.315  30.082  1.00  0.00     0.029 A 
ATOM     54  N   UNL A   1      42.920  30.005  28.982  1.00  0.00    -0.354 N 
ATOM     55  N   UNL A   1      45.474  29.322  27.731  1.00  0.00    -0.248 NA
ATOM     56  C   UNL A   1      47.581  29.954  26.946  1.00  0.00     0.031 C 
ATOM     57  C   UNL A   1      42.680  32.032  29.858  1.00  0.00     0.029 A 
ATOM     58  C   UNL A   1      43.570  31.210  29.186  1.00  0.00     0.049 A 
ATOM     59  H   UNL A   1      43.308  29.223  28.526  1.00  0.00     0.167 HD
ATOM     60  C   UNL A   1      45.720  30.640  28.097  1.00  0.00     0.074 A 
ATOM     61  C   UNL A   1      47.052  30.962  27.627  1.00  0.00     0.031 C 
ATOM     62  C   UNL A   1      44.910  31.510  28.749  1.00  0.00     0.034 A 
BRANCH  49  63
ATOM     63  C   UNL A   1      39.289  29.268  29.980  1.00  0.00     0.023 A 
ATOM     64  C   UNL A   1      38.951  28.855  31.284  1.00  0.00     0.012 A 
ATOM     65  C   UNL A   1      38.353  29.999  29.222  1.00  0.00     0.148 A 
ATOM     66  C   UNL A   1      37.692  29.136  31.814  1.00  0.00     0.002 A 
ATOM     67  C   UNL A   1      37.118  30.316  29.775  1.00  0.00     0.091 A 
ATOM     68  F   UNL A   1      38.686  30.368  27.977  1.00  0.00    -0.205 F 
ATOM     69  C   UNL A   1      36.781  29.875  31.065  1.00  0.00     0.022 A 
BRANCH  67  70
ATOM     70  S   UNL A   1      35.906  31.334  28.924  1.00  0.00     0.127 S 
ATOM     71  O   UNL A   1      36.741  32.420  28.412  1.00  0.00    -0.237 OA
ATOM     72  O   UNL A   1      35.403  30.418  27.900  1.00  0.00    -0.237 OA
ATOM     73  O   UNL A   1      34.928  31.722  29.930  1.00  0.00    -0.744 OA
ENDBRANCH  67  70
ENDBRANCH  49  63
BRANCH  50  74
ATOM     74  C   UNL A   1      48.146  27.304  25.823  1.00  0.00     0.023 A 
ATOM     75  C   UNL A   1      49.242  26.818  26.562  1.00  0.00     0.012 A 
ATOM     76  C   UNL A   1      48.290  27.512  24.438  1.00  0.00     0.148 A 
ATOM     77  C   UNL A   1      50.469  26.579  25.940  1.00  0.00     0.002 A 
ATOM     78  C   UNL A   1      49.495  27.215  23.813  1.00  0.00     0.091 A 
ATOM     79  F   UNL A   1      47.238  27.985  23.754  1.00  0.00    -0.205 F 
ATOM     80  C   UNL A   1      50.592  26.766  24.566  1.00  0.00     0.022 A 
BRANCH  78  81
ATOM     81  S   UNL A   1      49.703  27.298  22.032  1.00  0.00     0.127 S 
ATOM     82  O   UNL A   1      51.099  26.902  21.875  1.00  0.00    -0.237 OA
ATOM     83  O   UNL A   1      48.724  26.314  21.568  1.00  0.00    -0.237 OA
ATOM     84  O   UNL A   1      49.391  28.673  21.663  1.00  0.00    -0.744 OA
ENDBRANCH  78  81
ENDBRANCH  50  74
BRANCH  62  85
ATOM     85  C   UNL A   1      45.445  32.892  29.023  1.00  0.00     0.023 A 
ATOM     86  C   UNL A   1      46.151  33.149  30.214  1.00  0.00     0.012 A 
ATOM     87  C   UNL A   1      45.305  33.918  28.068  1.00  0.00     0.148 A 
ATOM     88  C   UNL A   1      46.678  34.415  30.468  1.00  0.00     0.002 A 
ATOM     89  C   UNL A   1      45.877  35.162  28.304  1.00  0.00     0.091 A 
ATOM     90  F   UNL A   1      44.615  33.659  26.947  1.00  0.00    -0.205 F 
ATOM     91  C   UNL A   1      46.552  35.417  29.508  1.00  0.00     0.022 A 
BRANCH  89  92
ATOM     92  S   UNL A   1      45.851  36.484  27.086  1.00  0.00     0.127 S 
ATOM     93  O   UNL A   1      46.096  35.750  25.846  1.00  0.00    -0.237 OA
ATOM     94  O   UNL A   1      44.492  37.007  27.228  1.00  0.00    -0.237 OA
ATOM     95  O   UNL A   1      46.903  37.413  27.478  1.00  0.00    -0.744 OA
ENDBRANCH  89  92
ENDBRANCH  62  85
ENDBRANCH  36  37
ENDBRANCH  28  31
ENDBRANCH  26  27
ENDBRANCH  25  26
ENDBRANCH  24  25
ENDBRANCH   1  24
TORSDOF 20
ENDMDL
MODEL 3
REMARK VINA RESULT:     -11.0      6.190     11.533
REMARK SMILES COc1ccc(COc2cncc(C(=O)NCCCCCCNC(=O)c3ccc(-c4c5nc(c(-c6cccc(S(=O)(=O)[O-])c6F)c6ccc([nH]6)c(-c6cccc(S(=O)(=O)[O-])c6F)c6nc(c(-c7cccc(S(=O)(=O)[O-])c7F)c7ccc4[nH]7)C=C6)C=C5)cc3)n2)cc1
REMARK SMILES IDX 19 1 18 2 17 3 16 4 14 5 15 6 13 8 9 9 10 10 89 11 11 12
REMARK SMILES IDX 12 13 8 14 7 15 6 16 3 17 4 18 91 19 5 20 90 21 2 22 1 23
REMARK SMILES IDX 20 24 21 25 22 26 23 27 24 28 25 30 26 31 27 32 88 33 28 34
REMARK SMILES IDX 87 35 29 36 30 37 31 38 81 39 32 40 86 41 80 42 82 43 33 44
REMARK SMILES IDX 85 45 79 46 78 47 34 49 66 50 46 51 65 52 47 53 50 54 64 55
REMARK SMILES IDX 83 56 48 57 49 58 63 60 84 61 51 62 35 63 36 64 44 65 37 66
REMARK SMILES IDX 39 67 45 68 38 69 40 70 41 71 42 72 43 73 67 74 68 75 76 76
REMARK SMILES IDX 69 77 71 78 77 79 70 80 72 81 73 82 74 83 75 84 52 85 53 86
REMARK SMILES IDX 61 87 54 88 56 89 62 90 55 91 57 92 58 93 59 94 60 95
REMARK H PARENT 16 7 23 29 82 48 50 59
REMARK Flexibility Score: inf
ROOT
ATOM      1  C   UNL A   1      37.288  22.322  24.507  1.00  0.00     0.002 C 
ENDROOT
BRANCH   1   2
ATOM      2  C   UNL A   1      37.117  23.087  25.825  1.00  0.00     0.021 C 
BRANCH   2   3
ATOM      3  C   UNL A   1      35.736  23.720  25.986  1.00  0.00     0.116 C 
BRANCH   3   4
ATOM      4  N   UNL A   1      34.979  23.023  27.014  1.00  0.00    -0.351 N 
ATOM      5  C   UNL A   1      33.851  22.243  26.951  1.00  0.00     0.271 C 
ATOM      6  O   UNL A   1      33.366  21.851  28.016  1.00  0.00    -0.267 OA
ATOM      7  H   UNL A   1      35.343  23.131  27.923  1.00  0.00     0.163 HD
BRANCH   5   8
ATOM      8  C   UNL A   1      33.225  21.813  25.670  1.00  0.00     0.150 A 
ATOM      9  C   UNL A   1      32.441  22.273  23.566  1.00  0.00     0.233 A 
ATOM     10  C   UNL A   1      32.443  20.911  23.278  1.00  0.00     0.179 A 
ATOM     11  N   UNL A   1      32.827  22.741  24.766  1.00  0.00    -0.205 NA
ATOM     12  N   UNL A   1      32.760  19.965  24.197  1.00  0.00    -0.257 NA
ATOM     13  C   UNL A   1      33.166  20.452  25.394  1.00  0.00     0.145 A 
BRANCH   9  14
ATOM     14  O   UNL A   1      32.244  23.230  22.609  1.00  0.00    -0.472 OA
BRANCH  14  15
ATOM     15  C   UNL A   1      33.360  24.122  22.469  1.00  0.00     0.267 C 
BRANCH  15  16
ATOM     16  C   UNL A   1      32.948  25.526  22.845  1.00  0.00    -0.010 A 
ATOM     17  C   UNL A   1      31.935  27.914  23.901  1.00  0.00     0.118 A 
ATOM     18  C   UNL A   1      31.202  27.201  22.954  1.00  0.00     0.047 A 
ATOM     19  C   UNL A   1      33.196  27.459  24.289  1.00  0.00     0.047 A 
ATOM     20  C   UNL A   1      31.713  26.024  22.409  1.00  0.00     0.011 A 
ATOM     21  C   UNL A   1      33.706  26.272  23.756  1.00  0.00     0.011 A 
BRANCH  17  22
ATOM     22  O   UNL A   1      31.292  28.995  24.440  1.00  0.00    -0.497 OA
ATOM     23  C   UNL A   1      32.052  29.745  25.377  1.00  0.00     0.278 C 
ENDBRANCH  17  22
ENDBRANCH  15  16
ENDBRANCH  14  15
ENDBRANCH   9  14
ENDBRANCH   5   8
ENDBRANCH   3   4
ENDBRANCH   2   3
ENDBRANCH   1   2
BRANCH   1  24
ATOM     24  C   UNL A   1      36.831  20.860  24.548  1.00  0.00     0.002 C 
BRANCH  24  25
ATOM     25  C   UNL A   1      37.959  19.835  24.695  1.00  0.00     0.021 C 
BRANCH  25  26
ATOM     26  C   UNL A   1      38.676  19.874  26.041  1.00  0.00     0.116 C 
BRANCH  26  27
ATOM     27  N   UNL A   1      39.913  19.107  26.019  1.00  0.00    -0.352 N 
ATOM     28  C   UNL A   1      41.208  19.544  26.126  1.00  0.00     0.251 C 
ATOM     29  H   UNL A   1      39.804  18.134  25.913  1.00  0.00     0.163 HD
ATOM     30  O   UNL A   1      42.137  18.778  25.873  1.00  0.00    -0.269 OA
BRANCH  28  31
ATOM     31  C   UNL A   1      41.485  20.939  26.526  1.00  0.00     0.039 A 
ATOM     32  C   UNL A   1      42.216  21.175  27.693  1.00  0.00     0.014 A 
ATOM     33  C   UNL A   1      41.030  22.010  25.751  1.00  0.00     0.014 A 
ATOM     34  C   UNL A   1      42.548  22.485  28.045  1.00  0.00     0.010 A 
ATOM     35  C   UNL A   1      41.424  23.308  26.065  1.00  0.00     0.010 A 
ATOM     36  C   UNL A   1      42.189  23.560  27.212  1.00  0.00    -0.014 A 
BRANCH  36  37
ATOM     37  C   UNL A   1      42.654  24.941  27.503  1.00  0.00     0.031 A 
ATOM     38  C   UNL A   1      41.732  25.946  28.135  1.00  0.00     0.074 A 
ATOM     39  C   UNL A   1      43.890  25.314  27.111  1.00  0.00     0.049 A 
ATOM     40  N   UNL A   1      41.955  27.203  28.418  1.00  0.00    -0.248 NA
ATOM     41  C   UNL A   1      40.373  25.489  28.474  1.00  0.00     0.031 C 
ATOM     42  C   UNL A   1      44.850  24.455  26.413  1.00  0.00     0.029 A 
ATOM     43  N   UNL A   1      44.539  26.519  27.217  1.00  0.00    -0.354 N 
ATOM     44  C   UNL A   1      40.763  27.697  28.933  1.00  0.00     0.074 A 
ATOM     45  C   UNL A   1      39.809  26.610  28.901  1.00  0.00     0.031 C 
ATOM     46  C   UNL A   1      45.963  25.158  26.154  1.00  0.00     0.029 A 
ATOM     47  C   UNL A   1      45.785  26.525  26.633  1.00  0.00     0.049 A 
ATOM     48  H   UNL A   1      44.152  27.303  27.669  1.00  0.00     0.167 HD
ATOM     49  C   UNL A   1      40.493  28.936  29.410  1.00  0.00     0.034 A 
ATOM     50  C   UNL A   1      46.678  27.523  26.479  1.00  0.00     0.034 A 
ATOM     51  C   UNL A   1      41.454  30.006  29.468  1.00  0.00     0.049 A 
ATOM     52  C   UNL A   1      46.362  28.881  27.043  1.00  0.00     0.074 A 
ATOM     53  C   UNL A   1      41.306  31.264  30.024  1.00  0.00     0.029 A 
ATOM     54  N   UNL A   1      42.733  29.954  28.934  1.00  0.00    -0.354 N 
ATOM     55  N   UNL A   1      45.290  29.279  27.685  1.00  0.00    -0.248 NA
ATOM     56  C   UNL A   1      47.391  29.919  26.891  1.00  0.00     0.031 C 
ATOM     57  C   UNL A   1      42.479  31.988  29.791  1.00  0.00     0.029 A 
ATOM     58  C   UNL A   1      43.374  31.166  29.125  1.00  0.00     0.049 A 
ATOM     59  H   UNL A   1      43.126  29.171  28.485  1.00  0.00     0.167 HD
ATOM     60  C   UNL A   1      45.527  30.602  28.038  1.00  0.00     0.074 A 
ATOM     61  C   UNL A   1      46.855  30.929  27.563  1.00  0.00     0.031 C 
ATOM     62  C   UNL A   1      44.712  31.472  28.684  1.00  0.00     0.034 A 
BRANCH  49  63
ATOM     63  C   UNL A   1      39.109  29.200  29.944  1.00  0.00     0.023 A 
ATOM     64  C   UNL A   1      38.752  28.728  31.224  1.00  0.00     0.012 A 
ATOM     65  C   UNL A   1      38.192  29.981  29.215  1.00  0.00     0.148 A 
ATOM     66  C   UNL A   1      37.492  29.002  31.755  1.00  0.00     0.002 A 
ATOM     67  C   UNL A   1      36.956  30.290  29.771  1.00  0.00     0.091 A 
ATOM     68  F   UNL A   1      38.543  30.406  27.993  1.00  0.00    -0.205 F 
ATOM     69  C   UNL A   1      36.600  29.792  31.035  1.00  0.00     0.022 A 
BRANCH  67  70
ATOM     70  S   UNL A   1      35.768  31.367  28.961  1.00  0.00     0.127 S 
ATOM     71  O   UNL A   1      35.118  30.442  28.033  1.00  0.00    -0.237 OA
ATOM     72  O   UNL A   1      34.931  31.797  30.080  1.00  0.00    -0.237 OA
ATOM     73  O   UNL A   1      36.546  32.429  28.337  1.00  0.00    -0.744 OA
ENDBRANCH  67  70
ENDBRANCH  49  63
BRANCH  50  74
ATOM     74  C   UNL A   1      47.975  27.263  25.791  1.00  0.00     0.023 A 
ATOM     75  C   UNL A   1      49.076  26.795  26.534  1.00  0.00     0.012 A 
ATOM     76  C   UNL A   1      48.113  27.456  24.404  1.00  0.00     0.148 A 
ATOM     77  C   UNL A   1      50.303  26.560  25.913  1.00  0.00     0.002 A 
ATOM     78  C   UNL A   1      49.320  27.162  23.780  1.00  0.00     0.091 A 
ATOM     79  F   UNL A   1      47.055  27.911  23.717  1.00  0.00    -0.205 F 
ATOM     80  C   UNL A   1      50.422  26.732  24.536  1.00  0.00     0.022 A 
BRANCH  78  81
ATOM     81  S   UNL A   1      49.523  27.226  21.998  1.00  0.00     0.127 S 
ATOM     82  O   UNL A   1      49.098  28.591  21.697  1.00  0.00    -0.237 OA
ATOM     83  O   UNL A   1      50.957  26.979  21.849  1.00  0.00    -0.237 OA
ATOM     84  O   UNL A   1      48.674  26.168  21.466  1.00  0.00    -0.744 OA
ENDBRANCH  78  81
ENDBRANCH  50  74
BRANCH  62  85
ATOM     85  C   UNL A   1      45.237  32.860  28.943  1.00  0.00     0.023 A 
ATOM     86  C   UNL A   1      46.121  33.089  30.016  1.00  0.00     0.012 A 
ATOM     87  C   UNL A   1      44.905  33.926  28.083  1.00  0.00     0.148 A 
ATOM     88  C   UNL A   1      46.638  34.361  30.251  1.00  0.00     0.002 A 
ATOM     89  C   UNL A   1      45.465  35.180  28.292  1.00  0.00     0.091 A 
ATOM     90  F   UNL A   1      44.049  33.693  27.077  1.00  0.00    -0.205 F 
ATOM     91  C   UNL A   1      46.321  35.404  29.382  1.00  0.00     0.022 A 
BRANCH  89  92
ATOM     92  S   UNL A   1      45.193  36.559  27.171  1.00  0.00     0.127 S 
ATOM     93  O   UNL A   1      44.820  35.869  25.937  1.00  0.00    -0.237 OA
ATOM     94  O   UNL A   1      44.098  37.276  27.825  1.00  0.00    -0.237 OA
ATOM     95  O   UNL A   1      46.452  37.290  27.119  1.00  0.00    -0.744 OA
ENDBRANCH  89  92
ENDBRANCH  62  85
ENDBRANCH  36  37
ENDBRANCH  28  31
ENDBRANCH  26  27
ENDBRANCH  25  26
ENDBRANCH  24  25
ENDBRANCH   1  24
TORSDOF 20
ENDMDL
