MODEL 1
REMARK VINA RESULT:     -11.1      0.000      0.000
REMARK SMILES CC(C)[N@H+](C)Cc1cc2c(cc1Cl)C=C(C(=O)NCCCCCCNC(=O)c1ccc(-c3c4nc(c(-c5cccc(S(=O)(=O)[O-])c5F)c5ccc([nH]5)c(-c5cccc(S(=O)(=O)[O-])c5F)c5nc(c(-c6cccc(S(=O)(=O)[O-])c6F)c6ccc3[nH]6)C=C5)C=C4)cc1)[C@@H](C(F)(F)F)O2
REMARK SMILES IDX 21 1 20 2 19 3 18 4 16 5 17 6 15 8 7 9 8 10 12 11 9 12 11 13
REMARK SMILES IDX 13 14 10 15 96 16 14 17 91 18 6 19 4 20 5 21 2 23 1 24 3 25
REMARK SMILES IDX 92 26 93 27 94 28 95 29 22 30 23 31 24 32 25 33 26 34 27 36
REMARK SMILES IDX 28 37 29 38 90 39 30 40 89 41 31 42 32 43 33 44 83 45 34 46
REMARK SMILES IDX 88 47 82 48 84 49 35 50 87 51 81 52 80 53 36 55 68 56 48 57
REMARK SMILES IDX 67 58 49 59 52 60 66 61 85 62 50 63 51 64 65 66 86 67 53 68
REMARK SMILES IDX 37 69 38 70 46 71 39 72 41 73 47 74 40 75 42 76 43 77 44 78
REMARK SMILES IDX 45 79 69 80 70 81 78 82 71 83 73 84 79 85 72 86 74 87 75 88
REMARK SMILES IDX 76 89 77 90 54 91 55 92 63 93 56 94 58 95 64 96 57 97 59 98
REMARK SMILES IDX 60 99 61 100 62 101
REMARK H PARENT 18 7 4 22 25 35 84 54 52 65
REMARK Flexibility Score: inf
ROOT
ATOM      1  C   UNL A   1      35.317  30.145  27.648  1.00  0.00     0.002 C 
ENDROOT
BRANCH   1   2
ATOM      2  C   UNL A   1      33.960  29.630  27.171  1.00  0.00     0.021 C 
BRANCH   2   3
ATOM      3  C   UNL A   1      33.976  28.204  26.644  1.00  0.00     0.116 C 
BRANCH   3   4
ATOM      4  N   UNL A   1      33.989  28.138  25.200  1.00  0.00    -0.352 N 
ATOM      5  C   UNL A   1      33.657  27.183  24.301  1.00  0.00     0.251 C 
ATOM      6  O   UNL A   1      33.748  27.485  23.108  1.00  0.00    -0.270 OA
ATOM      7  H   UNL A   1      34.310  28.969  24.779  1.00  0.00     0.163 HD
BRANCH   5   8
ATOM      8  C   UNL A   1      33.247  25.806  24.690  1.00  0.00     0.067 C 
ATOM      9  C   UNL A   1      33.354  20.805  25.367  1.00  0.00     0.029 A 
ATOM     10  C   UNL A   1      32.392  21.812  25.571  1.00  0.00     0.058 A 
ATOM     11  C   UNL A   1      34.642  21.200  24.961  1.00  0.00     0.050 A 
ATOM     12  C   UNL A   1      32.673  23.142  25.278  1.00  0.00     0.128 A 
ATOM     13  C   UNL A   1      34.895  22.530  24.614  1.00  0.00     0.033 A 
ATOM     14  Cl  UNL A   1      36.016  20.152  24.882  1.00  0.00    -0.084 Cl
ATOM     15  C   UNL A   1      33.909  23.500  24.761  1.00  0.00     0.019 A 
ATOM     16  O   UNL A   1      31.663  24.021  25.497  1.00  0.00    -0.475 OA
ATOM     17  C   UNL A   1      34.170  24.877  24.396  1.00  0.00     0.025 C 
ATOM     18  C   UNL A   1      31.931  25.442  25.335  1.00  0.00     0.314 C 
BRANCH   9  19
ATOM     19  C   UNL A   1      32.891  19.387  25.633  1.00  0.00     0.300 C 
BRANCH  19  20
ATOM     20  N   UNL A   1      32.431  18.672  24.451  1.00  0.00    -0.332 N 
ATOM     21  C   UNL A   1      32.405  19.511  23.266  1.00  0.00     0.333 C 
ATOM     22  H   UNL A   1      31.460  18.470  24.688  1.00  0.00     0.348 HD
BRANCH  20  23
ATOM     23  C   UNL A   1      32.857  17.284  24.245  1.00  0.00     0.177 C 
ATOM     24  C   UNL A   1      33.986  17.086  23.232  1.00  0.00     0.075 C 
ATOM     25  C   UNL A   1      33.226  16.590  25.565  1.00  0.00     0.075 C 
ENDBRANCH  20  23
ENDBRANCH  19  20
ENDBRANCH   9  19
BRANCH  18  26
ATOM     26  C   UNL A   1      30.688  26.029  24.648  1.00  0.00     0.429 C 
ATOM     27  F   UNL A   1      29.565  25.461  25.159  1.00  0.00    -0.167 F 
ATOM     28  F   UNL A   1      30.551  27.361  24.821  1.00  0.00    -0.167 F 
ATOM     29  F   UNL A   1      30.688  25.800  23.315  1.00  0.00    -0.167 F 
ENDBRANCH  18  26
ENDBRANCH   5   8
ENDBRANCH   3   4
ENDBRANCH   2   3
ENDBRANCH   1   2
BRANCH   1  30
ATOM     30  C   UNL A   1      35.364  31.632  28.016  1.00  0.00     0.002 C 
BRANCH  30  31
ATOM     31  C   UNL A   1      34.060  32.407  27.817  1.00  0.00     0.021 C 
BRANCH  31  32
ATOM     32  C   UNL A   1      34.226  33.911  27.661  1.00  0.00     0.116 C 
BRANCH  32  33
ATOM     33  N   UNL A   1      33.326  34.659  28.523  1.00  0.00    -0.352 N 
ATOM     34  C   UNL A   1      33.346  34.770  29.891  1.00  0.00     0.251 C 
ATOM     35  H   UNL A   1      32.606  35.151  28.065  1.00  0.00     0.163 HD
ATOM     36  O   UNL A   1      32.414  35.303  30.485  1.00  0.00    -0.269 OA
BRANCH  34  37
ATOM     37  C   UNL A   1      34.492  34.205  30.633  1.00  0.00     0.039 A 
ATOM     38  C   UNL A   1      35.772  34.737  30.456  1.00  0.00     0.014 A 
ATOM     39  C   UNL A   1      34.292  33.091  31.451  1.00  0.00     0.014 A 
ATOM     40  C   UNL A   1      36.873  34.055  30.960  1.00  0.00     0.010 A 
ATOM     41  C   UNL A   1      35.396  32.456  32.024  1.00  0.00     0.010 A 
ATOM     42  C   UNL A   1      36.697  32.902  31.741  1.00  0.00    -0.014 A 
BRANCH  42  43
ATOM     43  C   UNL A   1      37.883  32.163  32.245  1.00  0.00     0.031 A 
ATOM     44  C   UNL A   1      38.467  32.482  33.596  1.00  0.00     0.074 A 
ATOM     45  C   UNL A   1      38.424  31.188  31.489  1.00  0.00     0.049 A 
ATOM     46  N   UNL A   1      39.527  31.976  34.171  1.00  0.00    -0.248 NA
ATOM     47  C   UNL A   1      37.776  33.498  34.408  1.00  0.00     0.031 C 
ATOM     48  C   UNL A   1      37.947  30.786  30.164  1.00  0.00     0.029 A 
ATOM     49  N   UNL A   1      39.490  30.359  31.726  1.00  0.00    -0.354 N 
ATOM     50  C   UNL A   1      39.661  32.643  35.382  1.00  0.00     0.074 A 
ATOM     51  C   UNL A   1      38.571  33.589  35.467  1.00  0.00     0.031 C 
ATOM     52  C   UNL A   1      38.701  29.772  29.716  1.00  0.00     0.029 A 
ATOM     53  C   UNL A   1      39.749  29.493  30.691  1.00  0.00     0.049 A 
ATOM     54  H   UNL A   1      40.018  30.383  32.556  1.00  0.00     0.167 HD
ATOM     55  C   UNL A   1      40.598  32.470  36.344  1.00  0.00     0.034 A 
ATOM     56  C   UNL A   1      40.734  28.589  30.530  1.00  0.00     0.034 A 
ATOM     57  C   UNL A   1      41.648  31.491  36.285  1.00  0.00     0.049 A 
ATOM     58  C   UNL A   1      41.762  28.422  31.608  1.00  0.00     0.074 A 
ATOM     59  C   UNL A   1      42.616  31.214  37.235  1.00  0.00     0.029 A 
ATOM     60  N   UNL A   1      41.870  30.629  35.224  1.00  0.00    -0.354 N 
ATOM     61  N   UNL A   1      41.835  29.023  32.772  1.00  0.00    -0.248 NA
ATOM     62  C   UNL A   1      42.835  27.450  31.360  1.00  0.00     0.031 C 
ATOM     63  C   UNL A   1      43.429  30.187  36.745  1.00  0.00     0.029 A 
ATOM     64  C   UNL A   1      42.959  29.819  35.494  1.00  0.00     0.049 A 
ATOM     65  H   UNL A   1      41.331  30.596  34.400  1.00  0.00     0.167 HD
ATOM     66  C   UNL A   1      42.957  28.496  33.398  1.00  0.00     0.074 A 
ATOM     67  C   UNL A   1      43.517  27.510  32.497  1.00  0.00     0.031 C 
ATOM     68  C   UNL A   1      43.483  28.816  34.605  1.00  0.00     0.034 A 
BRANCH  55  69
ATOM     69  C   UNL A   1      40.515  33.327  37.578  1.00  0.00     0.023 A 
ATOM     70  C   UNL A   1      41.353  34.454  37.694  1.00  0.00     0.012 A 
ATOM     71  C   UNL A   1      39.540  33.081  38.564  1.00  0.00     0.148 A 
ATOM     72  C   UNL A   1      41.227  35.320  38.779  1.00  0.00     0.002 A 
ATOM     73  C   UNL A   1      39.400  33.965  39.626  1.00  0.00     0.091 A 
ATOM     74  F   UNL A   1      38.764  31.995  38.436  1.00  0.00    -0.205 F 
ATOM     75  C   UNL A   1      40.245  35.082  39.738  1.00  0.00     0.022 A 
BRANCH  73  76
ATOM     76  S   UNL A   1      38.134  33.782  40.888  1.00  0.00     0.127 S 
ATOM     77  O   UNL A   1      37.007  33.278  40.104  1.00  0.00    -0.237 OA
ATOM     78  O   UNL A   1      38.739  32.799  41.787  1.00  0.00    -0.237 OA
ATOM     79  O   UNL A   1      37.944  35.105  41.465  1.00  0.00    -0.744 OA
ENDBRANCH  73  76
ENDBRANCH  55  69
BRANCH  56  80
ATOM     80  C   UNL A   1      40.759  27.757  29.298  1.00  0.00     0.023 A 
ATOM     81  C   UNL A   1      39.834  26.706  29.159  1.00  0.00     0.012 A 
ATOM     82  C   UNL A   1      41.634  28.056  28.235  1.00  0.00     0.148 A 
ATOM     83  C   UNL A   1      39.781  25.961  27.981  1.00  0.00     0.002 A 
ATOM     84  C   UNL A   1      41.546  27.339  27.049  1.00  0.00     0.091 A 
ATOM     85  F   UNL A   1      42.505  29.062  28.397  1.00  0.00    -0.205 F 
ATOM     86  C   UNL A   1      40.628  26.284  26.924  1.00  0.00     0.022 A 
BRANCH  84  87
ATOM     87  S   UNL A   1      42.514  27.752  25.594  1.00  0.00     0.127 S 
ATOM     88  O   UNL A   1      42.263  26.600  24.732  1.00  0.00    -0.237 OA
ATOM     89  O   UNL A   1      41.880  28.997  25.159  1.00  0.00    -0.237 OA
ATOM     90  O   UNL A   1      43.886  27.900  26.057  1.00  0.00    -0.744 OA
ENDBRANCH  84  87
ENDBRANCH  56  80
BRANCH  68  91
ATOM     91  C   UNL A   1      44.731  28.098  35.037  1.00  0.00     0.023 A 
ATOM     92  C   UNL A   1      45.985  28.685  34.783  1.00  0.00     0.012 A 
ATOM     93  C   UNL A   1      44.656  26.905  35.779  1.00  0.00     0.148 A 
ATOM     94  C   UNL A   1      47.152  28.085  35.253  1.00  0.00     0.002 A 
ATOM     95  C   UNL A   1      45.819  26.331  36.274  1.00  0.00     0.091 A 
ATOM     96  F   UNL A   1      43.448  26.362  35.996  1.00  0.00    -0.205 F 
ATOM     97  C   UNL A   1      47.069  26.917  36.008  1.00  0.00     0.022 A 
BRANCH  95  98
ATOM     98  S   UNL A   1      45.808  24.867  37.316  1.00  0.00     0.127 S 
ATOM     99  O   UNL A   1      45.274  23.857  36.403  1.00  0.00    -0.237 OA
ATOM    100  O   UNL A   1      47.226  24.707  37.640  1.00  0.00    -0.237 OA
ATOM    101  O   UNL A   1      44.958  25.188  38.453  1.00  0.00    -0.744 OA
ENDBRANCH  95  98
ENDBRANCH  68  91
ENDBRANCH  42  43
ENDBRANCH  34  37
ENDBRANCH  32  33
ENDBRANCH  31  32
ENDBRANCH  30  31
ENDBRANCH   1  30
TORSDOF 20
ENDMDL
MODEL 2
REMARK VINA RESULT:     -11.0      5.873     10.283
REMARK SMILES CC(C)[N@H+](C)Cc1cc2c(cc1Cl)C=C(C(=O)NCCCCCCNC(=O)c1ccc(-c3c4nc(c(-c5cccc(S(=O)(=O)[O-])c5F)c5ccc([nH]5)c(-c5cccc(S(=O)(=O)[O-])c5F)c5nc(c(-c6cccc(S(=O)(=O)[O-])c6F)c6ccc3[nH]6)C=C5)C=C4)cc1)[C@@H](C(F)(F)F)O2
REMARK SMILES IDX 21 1 20 2 19 3 18 4 16 5 17 6 15 8 7 9 8 10 12 11 9 12 11 13
REMARK SMILES IDX 13 14 10 15 96 16 14 17 91 18 6 19 4 20 5 21 2 23 1 24 3 25
REMARK SMILES IDX 92 26 93 27 94 28 95 29 22 30 23 31 24 32 25 33 26 34 27 36
REMARK SMILES IDX 28 37 29 38 90 39 30 40 89 41 31 42 32 43 33 44 83 45 34 46
REMARK SMILES IDX 88 47 82 48 84 49 35 50 87 51 81 52 80 53 36 55 68 56 48 57
REMARK SMILES IDX 67 58 49 59 52 60 66 61 85 62 50 63 51 64 65 66 86 67 53 68
REMARK SMILES IDX 37 69 38 70 46 71 39 72 41 73 47 74 40 75 42 76 43 77 44 78
REMARK SMILES IDX 45 79 69 80 70 81 78 82 71 83 73 84 79 85 72 86 74 87 75 88
REMARK SMILES IDX 76 89 77 90 54 91 55 92 63 93 56 94 58 95 64 96 57 97 59 98
REMARK SMILES IDX 60 99 61 100 62 101
REMARK H PARENT 18 7 4 22 25 35 84 54 52 65
REMARK Flexibility Score: inf
ROOT
ATOM      1  C   UNL A   1      36.609  20.601  25.009  1.00  0.00     0.002 C 
ENDROOT
BRANCH   1   2
ATOM      2  C   UNL A   1      36.893  22.042  24.585  1.00  0.00     0.021 C 
BRANCH   2   3
ATOM      3  C   UNL A   1      36.668  23.076  25.675  1.00  0.00     0.116 C 
BRANCH   3   4
ATOM      4  N   UNL A   1      35.513  22.787  26.495  1.00  0.00    -0.352 N 
ATOM      5  C   UNL A   1      34.208  23.141  26.436  1.00  0.00     0.251 C 
ATOM      6  O   UNL A   1      33.462  22.665  27.296  1.00  0.00    -0.270 OA
ATOM      7  H   UNL A   1      35.720  22.207  27.263  1.00  0.00     0.163 HD
BRANCH   5   8
ATOM      8  C   UNL A   1      33.668  24.097  25.431  1.00  0.00     0.067 C 
ATOM      9  C   UNL A   1      31.556  28.211  23.408  1.00  0.00     0.029 A 
ATOM     10  C   UNL A   1      31.995  26.973  22.903  1.00  0.00     0.058 A 
ATOM     11  C   UNL A   1      31.796  28.488  24.766  1.00  0.00     0.050 A 
ATOM     12  C   UNL A   1      32.552  26.013  23.742  1.00  0.00     0.128 A 
ATOM     13  C   UNL A   1      32.302  27.496  25.611  1.00  0.00     0.033 A 
ATOM     14  Cl  UNL A   1      31.546  30.027  25.518  1.00  0.00    -0.084 Cl
ATOM     15  C   UNL A   1      32.669  26.254  25.102  1.00  0.00     0.019 A 
ATOM     16  O   UNL A   1      32.923  24.852  23.146  1.00  0.00    -0.475 OA
ATOM     17  C   UNL A   1      33.187  25.224  25.978  1.00  0.00     0.025 C 
ATOM     18  C   UNL A   1      33.629  23.858  23.940  1.00  0.00     0.314 C 
BRANCH   9  19
ATOM     19  C   UNL A   1      30.881  29.129  22.408  1.00  0.00     0.300 C 
BRANCH  19  20
ATOM     20  N   UNL A   1      29.427  29.055  22.410  1.00  0.00    -0.332 N 
ATOM     21  C   UNL A   1      28.924  27.967  23.230  1.00  0.00     0.333 C 
ATOM     22  H   UNL A   1      29.225  28.809  21.442  1.00  0.00     0.348 HD
BRANCH  20  23
ATOM     23  C   UNL A   1      28.649  30.297  22.444  1.00  0.00     0.177 C 
ATOM     24  C   UNL A   1      28.183  30.819  21.083  1.00  0.00     0.075 C 
ATOM     25  C   UNL A   1      27.446  30.203  23.395  1.00  0.00     0.075 C 
ENDBRANCH  20  23
ENDBRANCH  19  20
ENDBRANCH   9  19
BRANCH  18  26
ATOM     26  C   UNL A   1      33.055  22.496  23.517  1.00  0.00     0.429 C 
ATOM     27  F   UNL A   1      33.138  22.358  22.169  1.00  0.00    -0.167 F 
ATOM     28  F   UNL A   1      33.711  21.443  24.047  1.00  0.00    -0.167 F 
ATOM     29  F   UNL A   1      31.752  22.365  23.859  1.00  0.00    -0.167 F 
ENDBRANCH  18  26
ENDBRANCH   5   8
ENDBRANCH   3   4
ENDBRANCH   2   3
ENDBRANCH   1   2
BRANCH   1  30
ATOM     30  C   UNL A   1      37.816  19.657  24.985  1.00  0.00     0.002 C 
BRANCH  30  31
ATOM     31  C   UNL A   1      39.161  20.291  25.345  1.00  0.00     0.021 C 
BRANCH  31  32
ATOM     32  C   UNL A   1      39.901  19.614  26.489  1.00  0.00     0.116 C 
BRANCH  32  33
ATOM     33  N   UNL A   1      41.136  18.986  26.053  1.00  0.00    -0.352 N 
ATOM     34  C   UNL A   1      42.359  19.568  25.824  1.00  0.00     0.251 C 
ATOM     35  H   UNL A   1      41.092  18.014  25.901  1.00  0.00     0.163 HD
ATOM     36  O   UNL A   1      43.263  18.928  25.294  1.00  0.00    -0.269 OA
BRANCH  34  37
ATOM     37  C   UNL A   1      42.551  20.985  26.193  1.00  0.00     0.039 A 
ATOM     38  C   UNL A   1      42.663  21.960  25.198  1.00  0.00     0.014 A 
ATOM     39  C   UNL A   1      42.694  21.326  27.540  1.00  0.00     0.014 A 
ATOM     40  C   UNL A   1      43.085  23.240  25.536  1.00  0.00     0.010 A 
ATOM     41  C   UNL A   1      43.036  22.635  27.882  1.00  0.00     0.010 A 
ATOM     42  C   UNL A   1      43.286  23.588  26.881  1.00  0.00    -0.014 A 
BRANCH  42  43
ATOM     43  C   UNL A   1      43.768  24.950  27.228  1.00  0.00     0.031 A 
ATOM     44  C   UNL A   1      42.825  25.976  27.798  1.00  0.00     0.074 A 
ATOM     45  C   UNL A   1      45.067  25.256  27.044  1.00  0.00     0.049 A 
ATOM     46  N   UNL A   1      43.061  27.224  28.107  1.00  0.00    -0.248 NA
ATOM     47  C   UNL A   1      41.439  25.550  28.055  1.00  0.00     0.031 C 
ATOM     48  C   UNL A   1      46.079  24.347  26.500  1.00  0.00     0.029 A 
ATOM     49  N   UNL A   1      45.758  26.414  27.294  1.00  0.00    -0.354 N 
ATOM     50  C   UNL A   1      41.850  27.746  28.544  1.00  0.00     0.074 A 
ATOM     51  C   UNL A   1      40.877  26.679  28.467  1.00  0.00     0.031 C 
ATOM     52  C   UNL A   1      47.265  24.972  26.481  1.00  0.00     0.029 A 
ATOM     53  C   UNL A   1      47.087  26.341  26.952  1.00  0.00     0.049 A 
ATOM     54  H   UNL A   1      45.343  27.217  27.680  1.00  0.00     0.167 HD
ATOM     55  C   UNL A   1      41.578  28.997  28.986  1.00  0.00     0.034 A 
ATOM     56  C   UNL A   1      48.055  27.277  26.989  1.00  0.00     0.034 A 
ATOM     57  C   UNL A   1      42.557  30.040  29.116  1.00  0.00     0.049 A 
ATOM     58  C   UNL A   1      47.724  28.656  27.477  1.00  0.00     0.074 A 
ATOM     59  C   UNL A   1      42.380  31.326  29.599  1.00  0.00     0.029 A 
ATOM     60  N   UNL A   1      43.892  29.923  28.767  1.00  0.00    -0.354 N 
ATOM     61  N   UNL A   1      46.585  29.111  27.941  1.00  0.00    -0.248 NA
ATOM     62  C   UNL A   1      48.808  29.646  27.458  1.00  0.00     0.031 C 
ATOM     63  C   UNL A   1      43.609  31.989  29.534  1.00  0.00     0.029 A 
ATOM     64  C   UNL A   1      44.552  31.113  29.022  1.00  0.00     0.049 A 
ATOM     65  H   UNL A   1      44.310  29.113  28.394  1.00  0.00     0.167 HD
ATOM     66  C   UNL A   1      46.818  30.438  28.277  1.00  0.00     0.074 A 
ATOM     67  C   UNL A   1      48.211  30.707  27.987  1.00  0.00     0.031 C 
ATOM     68  C   UNL A   1      45.947  31.355  28.764  1.00  0.00     0.034 A 
BRANCH  55  69
ATOM     69  C   UNL A   1      40.169  29.308  29.411  1.00  0.00     0.023 A 
ATOM     70  C   UNL A   1      39.196  29.582  28.430  1.00  0.00     0.012 A 
ATOM     71  C   UNL A   1      39.787  29.222  30.765  1.00  0.00     0.148 A 
ATOM     72  C   UNL A   1      37.863  29.776  28.790  1.00  0.00     0.002 A 
ATOM     73  C   UNL A   1      38.452  29.386  31.112  1.00  0.00     0.091 A 
ATOM     74  F   UNL A   1      40.734  28.972  31.680  1.00  0.00    -0.205 F 
ATOM     75  C   UNL A   1      37.489  29.667  30.127  1.00  0.00     0.022 A 
BRANCH  73  76
ATOM     76  S   UNL A   1      37.854  29.214  32.798  1.00  0.00     0.127 S 
ATOM     77  O   UNL A   1      36.618  29.993  32.753  1.00  0.00    -0.237 OA
ATOM     78  O   UNL A   1      37.660  27.768  32.906  1.00  0.00    -0.237 OA
ATOM     79  O   UNL A   1      38.898  29.758  33.655  1.00  0.00    -0.744 OA
ENDBRANCH  73  76
ENDBRANCH  55  69
BRANCH  56  80
ATOM     80  C   UNL A   1      49.434  26.910  26.572  1.00  0.00     0.023 A 
ATOM     81  C   UNL A   1      50.210  26.090  27.412  1.00  0.00     0.012 A 
ATOM     82  C   UNL A   1      49.943  27.300  25.318  1.00  0.00     0.148 A 
ATOM     83  C   UNL A   1      51.476  25.665  27.010  1.00  0.00     0.002 A 
ATOM     84  C   UNL A   1      51.186  26.836  24.907  1.00  0.00     0.091 A 
ATOM     85  F   UNL A   1      49.181  28.083  24.542  1.00  0.00    -0.205 F 
ATOM     86  C   UNL A   1      51.958  26.028  25.755  1.00  0.00     0.022 A 
BRANCH  84  87
ATOM     87  S   UNL A   1      51.844  27.156  23.267  1.00  0.00     0.127 S 
ATOM     88  O   UNL A   1      52.156  28.581  23.344  1.00  0.00    -0.237 OA
ATOM     89  O   UNL A   1      53.009  26.271  23.238  1.00  0.00    -0.237 OA
ATOM     90  O   UNL A   1      50.785  26.796  22.335  1.00  0.00    -0.744 OA
ENDBRANCH  84  87
ENDBRANCH  56  80
BRANCH  68  91
ATOM     91  C   UNL A   1      46.464  32.742  29.022  1.00  0.00     0.023 A 
ATOM     92  C   UNL A   1      47.106  33.021  30.244  1.00  0.00     0.012 A 
ATOM     93  C   UNL A   1      46.408  33.731  28.022  1.00  0.00     0.148 A 
ATOM     94  C   UNL A   1      47.676  34.273  30.471  1.00  0.00     0.002 A 
ATOM     95  C   UNL A   1      47.007  34.964  28.242  1.00  0.00     0.091 A 
ATOM     96  F   UNL A   1      45.780  33.440  26.872  1.00  0.00    -0.205 F 
ATOM     97  C   UNL A   1      47.637  35.238  29.468  1.00  0.00     0.022 A 
BRANCH  95  98
ATOM     98  S   UNL A   1      47.072  36.245  26.984  1.00  0.00     0.127 S 
ATOM     99  O   UNL A   1      45.659  36.588  26.836  1.00  0.00    -0.237 OA
ATOM    100  O   UNL A   1      47.885  37.274  27.633  1.00  0.00    -0.237 OA
ATOM    101  O   UNL A   1      47.689  35.633  25.816  1.00  0.00    -0.744 OA
ENDBRANCH  95  98
ENDBRANCH  68  91
ENDBRANCH  42  43
ENDBRANCH  34  37
ENDBRANCH  32  33
ENDBRANCH  31  32
ENDBRANCH  30  31
ENDBRANCH   1  30
TORSDOF 20
ENDMDL
MODEL 3
REMARK VINA RESULT:     -10.9      1.974      2.622
REMARK SMILES CC(C)[N@H+](C)Cc1cc2c(cc1Cl)C=C(C(=O)NCCCCCCNC(=O)c1ccc(-c3c4nc(c(-c5cccc(S(=O)(=O)[O-])c5F)c5ccc([nH]5)c(-c5cccc(S(=O)(=O)[O-])c5F)c5nc(c(-c6cccc(S(=O)(=O)[O-])c6F)c6ccc3[nH]6)C=C5)C=C4)cc1)[C@@H](C(F)(F)F)O2
REMARK SMILES IDX 21 1 20 2 19 3 18 4 16 5 17 6 15 8 7 9 8 10 12 11 9 12 11 13
REMARK SMILES IDX 13 14 10 15 96 16 14 17 91 18 6 19 4 20 5 21 2 23 1 24 3 25
REMARK SMILES IDX 92 26 93 27 94 28 95 29 22 30 23 31 24 32 25 33 26 34 27 36
REMARK SMILES IDX 28 37 29 38 90 39 30 40 89 41 31 42 32 43 33 44 83 45 34 46
REMARK SMILES IDX 88 47 82 48 84 49 35 50 87 51 81 52 80 53 36 55 68 56 48 57
REMARK SMILES IDX 67 58 49 59 52 60 66 61 85 62 50 63 51 64 65 66 86 67 53 68
REMARK SMILES IDX 37 69 38 70 46 71 39 72 41 73 47 74 40 75 42 76 43 77 44 78
REMARK SMILES IDX 45 79 69 80 70 81 78 82 71 83 73 84 79 85 72 86 74 87 75 88
REMARK SMILES IDX 76 89 77 90 54 91 55 92 63 93 56 94 58 95 64 96 57 97 59 98
REMARK SMILES IDX 60 99 61 100 62 101
REMARK H PARENT 18 7 4 22 25 35 84 54 52 65
REMARK Flexibility Score: inf
ROOT
ATOM      1  C   UNL A   1      34.504  31.287  28.048  1.00  0.00     0.002 C 
ENDROOT
BRANCH   1   2
ATOM      2  C   UNL A   1      33.149  30.758  27.578  1.00  0.00     0.021 C 
BRANCH   2   3
ATOM      3  C   UNL A   1      33.185  30.030  26.244  1.00  0.00     0.116 C 
BRANCH   3   4
ATOM      4  N   UNL A   1      32.006  30.270  25.441  1.00  0.00    -0.352 N 
ATOM      5  C   UNL A   1      31.241  29.491  24.642  1.00  0.00     0.251 C 
ATOM      6  O   UNL A   1      30.252  30.023  24.129  1.00  0.00    -0.270 OA
ATOM      7  H   UNL A   1      31.693  31.203  25.486  1.00  0.00     0.163 HD
BRANCH   5   8
ATOM      8  C   UNL A   1      31.570  28.074  24.328  1.00  0.00     0.067 C 
ATOM      9  C   UNL A   1      31.847  23.047  24.680  1.00  0.00     0.029 A 
ATOM     10  C   UNL A   1      32.382  24.009  23.804  1.00  0.00     0.058 A 
ATOM     11  C   UNL A   1      30.947  23.487  25.668  1.00  0.00     0.050 A 
ATOM     12  C   UNL A   1      32.114  25.363  23.976  1.00  0.00     0.128 A 
ATOM     13  C   UNL A   1      30.731  24.853  25.868  1.00  0.00     0.033 A 
ATOM     14  Cl  UNL A   1      30.009  22.445  26.683  1.00  0.00    -0.084 Cl
ATOM     15  C   UNL A   1      31.323  25.793  25.030  1.00  0.00     0.019 A 
ATOM     16  O   UNL A   1      32.699  26.199  23.081  1.00  0.00    -0.475 OA
ATOM     17  C   UNL A   1      31.105  27.209  25.242  1.00  0.00     0.025 C 
ATOM     18  C   UNL A   1      32.357  27.612  23.125  1.00  0.00     0.314 C 
BRANCH   9  19
ATOM     19  C   UNL A   1      32.292  21.618  24.442  1.00  0.00     0.300 C 
BRANCH  19  20
ATOM     20  N   UNL A   1      33.048  21.032  25.540  1.00  0.00    -0.332 N 
ATOM     21  C   UNL A   1      32.842  19.600  25.659  1.00  0.00     0.333 C 
ATOM     22  H   UNL A   1      32.608  21.461  26.354  1.00  0.00     0.348 HD
BRANCH  20  23
ATOM     23  C   UNL A   1      34.410  21.510  25.802  1.00  0.00     0.177 C 
ATOM     24  C   UNL A   1      35.242  21.837  24.561  1.00  0.00     0.075 C 
ATOM     25  C   UNL A   1      34.429  22.709  26.762  1.00  0.00     0.075 C 
ENDBRANCH  20  23
ENDBRANCH  19  20
ENDBRANCH   9  19
BRANCH  18  26
ATOM     26  C   UNL A   1      33.673  28.371  22.881  1.00  0.00     0.429 C 
ATOM     27  F   UNL A   1      34.312  27.853  21.800  1.00  0.00    -0.167 F 
ATOM     28  F   UNL A   1      33.501  29.685  22.626  1.00  0.00    -0.167 F 
ATOM     29  F   UNL A   1      34.516  28.277  23.934  1.00  0.00    -0.167 F 
ENDBRANCH  18  26
ENDBRANCH   5   8
ENDBRANCH   3   4
ENDBRANCH   2   3
ENDBRANCH   1   2
BRANCH   1  30
ATOM     30  C   UNL A   1      34.700  32.801  27.920  1.00  0.00     0.002 C 
BRANCH  30  31
ATOM     31  C   UNL A   1      33.439  33.650  28.097  1.00  0.00     0.021 C 
BRANCH  31  32
ATOM     32  C   UNL A   1      33.691  35.087  28.531  1.00  0.00     0.116 C 
BRANCH  32  33
ATOM     33  N   UNL A   1      33.049  35.403  29.795  1.00  0.00    -0.352 N 
ATOM     34  C   UNL A   1      33.345  34.927  31.049  1.00  0.00     0.251 C 
ATOM     35  H   UNL A   1      32.302  36.043  29.748  1.00  0.00     0.163 HD
ATOM     36  O   UNL A   1      32.599  35.161  31.995  1.00  0.00    -0.269 OA
BRANCH  34  37
ATOM     37  C   UNL A   1      34.556  34.100  31.227  1.00  0.00     0.039 A 
ATOM     38  C   UNL A   1      34.450  32.799  31.725  1.00  0.00     0.014 A 
ATOM     39  C   UNL A   1      35.809  34.660  30.964  1.00  0.00     0.014 A 
ATOM     40  C   UNL A   1      35.596  32.120  32.119  1.00  0.00     0.010 A 
ATOM     41  C   UNL A   1      36.961  33.939  31.284  1.00  0.00     0.010 A 
ATOM     42  C   UNL A   1      36.863  32.687  31.912  1.00  0.00    -0.014 A 
BRANCH  42  43
ATOM     43  C   UNL A   1      38.079  31.965  32.367  1.00  0.00     0.031 A 
ATOM     44  C   UNL A   1      38.693  32.266  33.708  1.00  0.00     0.074 A 
ATOM     45  C   UNL A   1      38.621  31.021  31.574  1.00  0.00     0.049 A 
ATOM     46  N   UNL A   1      39.779  31.772  34.243  1.00  0.00    -0.248 NA
ATOM     47  C   UNL A   1      38.001  33.247  34.563  1.00  0.00     0.031 C 
ATOM     48  C   UNL A   1      38.118  30.638  30.253  1.00  0.00     0.029 A 
ATOM     49  N   UNL A   1      39.712  30.212  31.762  1.00  0.00    -0.354 N 
ATOM     50  C   UNL A   1      39.931  32.414  35.466  1.00  0.00     0.074 A 
ATOM     51  C   UNL A   1      38.822  33.332  35.602  1.00  0.00     0.031 C 
ATOM     52  C   UNL A   1      38.882  29.652  29.760  1.00  0.00     0.029 A 
ATOM     53  C   UNL A   1      39.963  29.375  30.701  1.00  0.00     0.049 A 
ATOM     54  H   UNL A   1      40.262  30.228  32.578  1.00  0.00     0.167 HD
ATOM     55  C   UNL A   1      40.897  32.241  36.398  1.00  0.00     0.034 A 
ATOM     56  C   UNL A   1      40.963  28.499  30.492  1.00  0.00     0.034 A 
ATOM     57  C   UNL A   1      41.967  31.289  36.288  1.00  0.00     0.049 A 
ATOM     58  C   UNL A   1      42.023  28.331  31.538  1.00  0.00     0.074 A 
ATOM     59  C   UNL A   1      42.967  31.012  37.205  1.00  0.00     0.029 A 
ATOM     60  N   UNL A   1      42.179  30.456  35.201  1.00  0.00    -0.354 N 
ATOM     61  N   UNL A   1      42.115  28.907  32.713  1.00  0.00    -0.248 NA
ATOM     62  C   UNL A   1      43.111  27.391  31.239  1.00  0.00     0.031 C 
ATOM     63  C   UNL A   1      43.789  30.016  36.669  1.00  0.00     0.029 A 
ATOM     64  C   UNL A   1      43.294  29.666  35.422  1.00  0.00     0.049 A 
ATOM     65  H   UNL A   1      41.620  30.430  34.391  1.00  0.00     0.167 HD
ATOM     66  C   UNL A   1      43.265  28.392  33.297  1.00  0.00     0.074 A 
ATOM     67  C   UNL A   1      43.823  27.441  32.358  1.00  0.00     0.031 C 
ATOM     68  C   UNL A   1      43.817  28.697  34.497  1.00  0.00     0.034 A 
BRANCH  55  69
ATOM     69  C   UNL A   1      40.828  33.067  37.653  1.00  0.00     0.023 A 
ATOM     70  C   UNL A   1      40.058  32.607  38.740  1.00  0.00     0.012 A 
ATOM     71  C   UNL A   1      41.606  34.233  37.796  1.00  0.00     0.148 A 
ATOM     72  C   UNL A   1      40.056  33.302  39.949  1.00  0.00     0.002 A 
ATOM     73  C   UNL A   1      41.622  34.902  39.013  1.00  0.00     0.091 A 
ATOM     74  F   UNL A   1      42.320  34.655  36.743  1.00  0.00    -0.205 F 
ATOM     75  C   UNL A   1      40.845  34.441  40.089  1.00  0.00     0.022 A 
BRANCH  73  76
ATOM     76  S   UNL A   1      42.644  36.348  39.317  1.00  0.00     0.127 S 
ATOM     77  O   UNL A   1      41.938  37.374  38.551  1.00  0.00    -0.237 OA
ATOM     78  O   UNL A   1      42.542  36.493  40.769  1.00  0.00    -0.237 OA
ATOM     79  O   UNL A   1      43.973  36.015  38.826  1.00  0.00    -0.744 OA
ENDBRANCH  73  76
ENDBRANCH  55  69
BRANCH  56  80
ATOM     80  C   UNL A   1      40.973  27.697  29.240  1.00  0.00     0.023 A 
ATOM     81  C   UNL A   1      40.080  26.617  29.108  1.00  0.00     0.012 A 
ATOM     82  C   UNL A   1      41.800  28.050  28.156  1.00  0.00     0.148 A 
ATOM     83  C   UNL A   1      40.012  25.898  27.915  1.00  0.00     0.002 A 
ATOM     84  C   UNL A   1      41.696  27.357  26.957  1.00  0.00     0.091 A 
ATOM     85  F   UNL A   1      42.642  29.081  28.312  1.00  0.00    -0.205 F 
ATOM     86  C   UNL A   1      40.811  26.275  26.838  1.00  0.00     0.022 A 
BRANCH  84  87
ATOM     87  S   UNL A   1      42.598  27.836  25.480  1.00  0.00     0.127 S 
ATOM     88  O   UNL A   1      42.453  26.648  24.643  1.00  0.00    -0.237 OA
ATOM     89  O   UNL A   1      41.837  29.003  25.032  1.00  0.00    -0.237 OA
ATOM     90  O   UNL A   1      43.955  28.130  25.920  1.00  0.00    -0.744 OA
ENDBRANCH  84  87
ENDBRANCH  56  80
BRANCH  68  91
ATOM     91  C   UNL A   1      45.092  27.998  34.877  1.00  0.00     0.023 A 
ATOM     92  C   UNL A   1      46.324  28.621  34.605  1.00  0.00     0.012 A 
ATOM     93  C   UNL A   1      45.064  26.786  35.592  1.00  0.00     0.148 A 
ATOM     94  C   UNL A   1      47.517  28.037  35.030  1.00  0.00     0.002 A 
ATOM     95  C   UNL A   1      46.253  26.228  36.042  1.00  0.00     0.091 A 
ATOM     96  F   UNL A   1      43.875  26.210  35.826  1.00  0.00    -0.205 F 
ATOM     97  C   UNL A   1      47.481  26.849  35.758  1.00  0.00     0.022 A 
BRANCH  95  98
ATOM     98  S   UNL A   1      46.304  24.739  37.047  1.00  0.00     0.127 S 
ATOM     99  O   UNL A   1      45.971  23.708  36.066  1.00  0.00    -0.237 OA
ATOM    100  O   UNL A   1      47.693  24.721  37.503  1.00  0.00    -0.237 OA
ATOM    101  O   UNL A   1      45.321  24.933  38.103  1.00  0.00    -0.744 OA
ENDBRANCH  95  98
ENDBRANCH  68  91
ENDBRANCH  42  43
ENDBRANCH  34  37
ENDBRANCH  32  33
ENDBRANCH  31  32
ENDBRANCH  30  31
ENDBRANCH   1  30
TORSDOF 20
ENDMDL
