MODEL 1
REMARK VINA RESULT:     -10.9      0.000      0.000
REMARK SMILES C[C@@H](CC(=O)NCCCCCCNC(=O)c1ccc(-c2c3nc(c(-c4cccc(S(=O)(=O)[O-])c4F)c4ccc([nH]4)c(-c4cccc(S(=O)(=O)[O-])c4F)c4nc(c(-c5cccc(S(=O)(=O)[O-])c5F)c5ccc2[nH]5)C=C4)C=C3)cc1)NC(=O)N[C@H]1CCOC1
REMARK SMILES IDX 9 1 8 2 7 3 6 4 4 5 5 6 3 8 2 9 1 10 79 11 80 12 81 14 82 15
REMARK SMILES IDX 83 17 84 18 87 19 85 20 86 21 10 22 11 23 12 24 13 25 14 26
REMARK SMILES IDX 15 28 16 29 17 30 78 31 18 32 77 33 19 34 20 35 21 36 71 37
REMARK SMILES IDX 22 38 76 39 70 40 72 41 23 42 75 43 69 44 68 45 24 47 56 48
REMARK SMILES IDX 36 49 55 50 37 51 40 52 54 53 73 54 38 55 39 56 53 58 74 59
REMARK SMILES IDX 41 60 25 61 26 62 34 63 27 64 29 65 35 66 28 67 30 68 31 69
REMARK SMILES IDX 32 70 33 71 57 72 58 73 66 74 59 75 61 76 67 77 60 78 62 79
REMARK SMILES IDX 63 80 64 81 65 82 42 83 43 84 51 85 44 86 46 87 52 88 45 89
REMARK SMILES IDX 47 90 48 91 49 92 50 93
REMARK H PARENT 6 7 79 13 82 16 13 27 72 46 40 57
REMARK Flexibility Score: inf
ROOT
ATOM      1  C   UNL A   1      31.007  26.196  25.305  1.00  0.00     0.002 C 
ENDROOT
BRANCH   1   2
ATOM      2  C   UNL A   1      31.140  26.242  23.785  1.00  0.00     0.021 C 
BRANCH   2   3
ATOM      3  C   UNL A   1      30.934  24.881  23.122  1.00  0.00     0.116 C 
BRANCH   3   4
ATOM      4  N   UNL A   1      32.131  24.534  22.383  1.00  0.00    -0.356 N 
ATOM      5  C   UNL A   1      32.934  23.448  22.553  1.00  0.00     0.222 C 
ATOM      6  O   UNL A   1      34.070  23.460  22.081  1.00  0.00    -0.275 OA
ATOM      7  H   UNL A   1      32.396  25.160  21.670  1.00  0.00     0.163 HD
BRANCH   5   8
ATOM      8  C   UNL A   1      32.376  22.225  23.234  1.00  0.00     0.124 C 
BRANCH   8   9
ATOM      9  C   UNL A   1      32.812  21.925  24.668  1.00  0.00     0.090 C 
ATOM     10  C   UNL A   1      32.101  22.617  25.820  1.00  0.00     0.031 C 
BRANCH   9  11
ATOM     11  N   UNL A   1      34.255  22.012  24.862  1.00  0.00    -0.335 N 
ATOM     12  C   UNL A   1      35.193  21.098  25.170  1.00  0.00     0.315 C 
ATOM     13  H   UNL A   1      34.614  22.921  24.742  1.00  0.00     0.165 HD
ATOM     14  O   UNL A   1      36.304  21.492  25.530  1.00  0.00    -0.249 OA
ATOM     15  N   UNL A   1      34.984  19.770  25.093  1.00  0.00    -0.333 N 
ATOM     16  H   UNL A   1      35.729  19.223  25.431  1.00  0.00     0.165 HD
BRANCH  15  17
ATOM     17  C   UNL A   1      33.860  19.005  24.603  1.00  0.00     0.112 C 
ATOM     18  C   UNL A   1      34.245  17.642  24.057  1.00  0.00     0.056 C 
ATOM     19  C   UNL A   1      32.802  18.591  25.618  1.00  0.00     0.185 C 
ATOM     20  C   UNL A   1      32.875  17.036  23.881  1.00  0.00     0.162 C 
ATOM     21  O   UNL A   1      32.122  17.459  25.032  1.00  0.00    -0.379 OA
ENDBRANCH  15  17
ENDBRANCH   9  11
ENDBRANCH   8   9
ENDBRANCH   5   8
ENDBRANCH   3   4
ENDBRANCH   2   3
ENDBRANCH   1   2
BRANCH   1  22
ATOM     22  C   UNL A   1      32.083  26.990  26.045  1.00  0.00     0.002 C 
BRANCH  22  23
ATOM     23  C   UNL A   1      31.766  28.479  26.220  1.00  0.00     0.021 C 
BRANCH  23  24
ATOM     24  C   UNL A   1      32.861  29.415  25.714  1.00  0.00     0.116 C 
BRANCH  24  25
ATOM     25  N   UNL A   1      32.596  30.796  26.089  1.00  0.00    -0.352 N 
ATOM     26  C   UNL A   1      33.184  31.552  27.066  1.00  0.00     0.251 C 
ATOM     27  H   UNL A   1      31.893  31.249  25.569  1.00  0.00     0.163 HD
ATOM     28  O   UNL A   1      32.658  32.603  27.438  1.00  0.00    -0.269 OA
BRANCH  26  29
ATOM     29  C   UNL A   1      34.448  31.097  27.672  1.00  0.00     0.039 A 
ATOM     30  C   UNL A   1      35.476  32.019  27.877  1.00  0.00     0.014 A 
ATOM     31  C   UNL A   1      34.610  29.758  28.045  1.00  0.00     0.014 A 
ATOM     32  C   UNL A   1      36.648  31.609  28.511  1.00  0.00     0.010 A 
ATOM     33  C   UNL A   1      35.748  29.369  28.741  1.00  0.00     0.010 A 
ATOM     34  C   UNL A   1      36.780  30.290  28.980  1.00  0.00    -0.014 A 
BRANCH  34  35
ATOM     35  C   UNL A   1      37.973  29.869  29.754  1.00  0.00     0.031 A 
ATOM     36  C   UNL A   1      38.213  30.402  31.139  1.00  0.00     0.074 A 
ATOM     37  C   UNL A   1      38.889  29.073  29.167  1.00  0.00     0.049 A 
ATOM     38  N   UNL A   1      39.220  30.179  31.942  1.00  0.00    -0.248 NA
ATOM     39  C   UNL A   1      37.203  31.324  31.687  1.00  0.00     0.031 C 
ATOM     40  C   UNL A   1      38.811  28.563  27.795  1.00  0.00     0.029 A 
ATOM     41  N   UNL A   1      40.080  28.577  29.636  1.00  0.00    -0.354 N 
ATOM     42  C   UNL A   1      38.986  30.955  33.071  1.00  0.00     0.074 A 
ATOM     43  C   UNL A   1      37.754  31.677  32.840  1.00  0.00     0.031 C 
ATOM     44  C   UNL A   1      39.904  27.830  27.534  1.00  0.00     0.029 A 
ATOM     45  C   UNL A   1      40.777  27.844  28.704  1.00  0.00     0.049 A 
ATOM     46  H   UNL A   1      40.405  28.732  30.552  1.00  0.00     0.167 HD
ATOM     47  C   UNL A   1      39.719  31.041  34.206  1.00  0.00     0.034 A 
ATOM     48  C   UNL A   1      41.989  27.261  28.776  1.00  0.00     0.034 A 
ATOM     49  C   UNL A   1      40.923  30.291  34.445  1.00  0.00     0.049 A 
ATOM     50  C   UNL A   1      42.762  27.342  30.064  1.00  0.00     0.074 A 
ATOM     51  C   UNL A   1      41.680  30.229  35.602  1.00  0.00     0.029 A 
ATOM     52  N   UNL A   1      41.558  29.490  33.509  1.00  0.00    -0.354 N 
ATOM     53  N   UNL A   1      42.435  27.936  31.186  1.00  0.00    -0.248 NA
ATOM     54  C   UNL A   1      44.055  26.643  30.109  1.00  0.00     0.031 C 
ATOM     55  C   UNL A   1      42.792  29.419  35.354  1.00  0.00     0.029 A 
ATOM     56  C   UNL A   1      42.708  28.946  34.054  1.00  0.00     0.049 A 
ATOM     57  H   UNL A   1      41.237  29.331  32.593  1.00  0.00     0.167 HD
ATOM     58  C   UNL A   1      43.464  27.659  32.078  1.00  0.00     0.074 A 
ATOM     59  C   UNL A   1      44.412  26.819  31.374  1.00  0.00     0.031 C 
ATOM     60  C   UNL A   1      43.621  28.076  33.358  1.00  0.00     0.034 A 
BRANCH  47  61
ATOM     61  C   UNL A   1      39.221  31.945  35.303  1.00  0.00     0.023 A 
ATOM     62  C   UNL A   1      38.303  31.450  36.253  1.00  0.00     0.012 A 
ATOM     63  C   UNL A   1      39.724  33.252  35.444  1.00  0.00     0.148 A 
ATOM     64  C   UNL A   1      37.875  32.250  37.310  1.00  0.00     0.002 A 
ATOM     65  C   UNL A   1      39.328  34.029  36.526  1.00  0.00     0.091 A 
ATOM     66  F   UNL A   1      40.581  33.710  34.520  1.00  0.00    -0.205 F 
ATOM     67  C   UNL A   1      38.395  33.534  37.454  1.00  0.00     0.022 A 
BRANCH  65  68
ATOM     68  S   UNL A   1      40.001  35.663  36.848  1.00  0.00     0.127 S 
ATOM     69  O   UNL A   1      39.344  36.009  38.108  1.00  0.00    -0.237 OA
ATOM     70  O   UNL A   1      41.434  35.387  36.962  1.00  0.00    -0.237 OA
ATOM     71  O   UNL A   1      39.628  36.485  35.706  1.00  0.00    -0.744 OA
ENDBRANCH  65  68
ENDBRANCH  47  61
BRANCH  48  72
ATOM     72  C   UNL A   1      42.529  26.515  27.604  1.00  0.00     0.023 A 
ATOM     73  C   UNL A   1      43.361  27.176  26.681  1.00  0.00     0.012 A 
ATOM     74  C   UNL A   1      42.238  25.151  27.412  1.00  0.00     0.148 A 
ATOM     75  C   UNL A   1      43.863  26.503  25.567  1.00  0.00     0.002 A 
ATOM     76  C   UNL A   1      42.788  24.470  26.332  1.00  0.00     0.091 A 
ATOM     77  F   UNL A   1      41.433  24.542  28.294  1.00  0.00    -0.205 F 
ATOM     78  C   UNL A   1      43.586  25.149  25.397  1.00  0.00     0.022 A 
BRANCH  76  79
ATOM     79  S   UNL A   1      42.598  22.697  26.118  1.00  0.00     0.127 S 
ATOM     80  O   UNL A   1      43.274  22.179  27.305  1.00  0.00    -0.237 OA
ATOM     81  O   UNL A   1      41.143  22.545  26.122  1.00  0.00    -0.237 OA
ATOM     82  O   UNL A   1      43.227  22.386  24.842  1.00  0.00    -0.744 OA
ENDBRANCH  76  79
ENDBRANCH  48  72
BRANCH  60  83
ATOM     83  C   UNL A   1      44.848  27.611  34.098  1.00  0.00     0.023 A 
ATOM     84  C   UNL A   1      46.010  28.407  34.098  1.00  0.00     0.012 A 
ATOM     85  C   UNL A   1      44.824  26.420  34.851  1.00  0.00     0.148 A 
ATOM     86  C   UNL A   1      47.143  28.006  34.806  1.00  0.00     0.002 A 
ATOM     87  C   UNL A   1      45.938  26.054  35.596  1.00  0.00     0.091 A 
ATOM     88  F   UNL A   1      43.713  25.669  34.826  1.00  0.00    -0.205 F 
ATOM     89  C   UNL A   1      47.103  26.838  35.564  1.00  0.00     0.022 A 
BRANCH  87  90
ATOM     90  S   UNL A   1      45.946  24.620  36.677  1.00  0.00     0.127 S 
ATOM     91  O   UNL A   1      45.913  23.521  35.714  1.00  0.00    -0.237 OA
ATOM     92  O   UNL A   1      47.219  24.772  37.384  1.00  0.00    -0.237 OA
ATOM     93  O   UNL A   1      44.766  24.745  37.522  1.00  0.00    -0.744 OA
ENDBRANCH  87  90
ENDBRANCH  60  83
ENDBRANCH  34  35
ENDBRANCH  26  29
ENDBRANCH  24  25
ENDBRANCH  23  24
ENDBRANCH  22  23
ENDBRANCH   1  22
TORSDOF 19
ENDMDL
MODEL 2
REMARK VINA RESULT:     -10.9      5.100     10.512
REMARK SMILES C[C@@H](CC(=O)NCCCCCCNC(=O)c1ccc(-c2c3nc(c(-c4cccc(S(=O)(=O)[O-])c4F)c4ccc([nH]4)c(-c4cccc(S(=O)(=O)[O-])c4F)c4nc(c(-c5cccc(S(=O)(=O)[O-])c5F)c5ccc2[nH]5)C=C4)C=C3)cc1)NC(=O)N[C@H]1CCOC1
REMARK SMILES IDX 9 1 8 2 7 3 6 4 4 5 5 6 3 8 2 9 1 10 79 11 80 12 81 14 82 15
REMARK SMILES IDX 83 17 84 18 87 19 85 20 86 21 10 22 11 23 12 24 13 25 14 26
REMARK SMILES IDX 15 28 16 29 17 30 78 31 18 32 77 33 19 34 20 35 21 36 71 37
REMARK SMILES IDX 22 38 76 39 70 40 72 41 23 42 75 43 69 44 68 45 24 47 56 48
REMARK SMILES IDX 36 49 55 50 37 51 40 52 54 53 73 54 38 55 39 56 53 58 74 59
REMARK SMILES IDX 41 60 25 61 26 62 34 63 27 64 29 65 35 66 28 67 30 68 31 69
REMARK SMILES IDX 32 70 33 71 57 72 58 73 66 74 59 75 61 76 67 77 60 78 62 79
REMARK SMILES IDX 63 80 64 81 65 82 42 83 43 84 51 85 44 86 46 87 52 88 45 89
REMARK SMILES IDX 47 90 48 91 49 92 50 93
REMARK H PARENT 6 7 79 13 82 16 13 27 72 46 40 57
REMARK Flexibility Score: inf
ROOT
ATOM      1  C   UNL A   1      34.406  20.478  24.660  1.00  0.00     0.002 C 
ENDROOT
BRANCH   1   2
ATOM      2  C   UNL A   1      33.058  21.037  25.109  1.00  0.00     0.021 C 
BRANCH   2   3
ATOM      3  C   UNL A   1      33.168  21.990  26.298  1.00  0.00     0.116 C 
BRANCH   3   4
ATOM      4  N   UNL A   1      31.845  22.217  26.841  1.00  0.00    -0.356 N 
ATOM      5  C   UNL A   1      31.017  23.274  26.613  1.00  0.00     0.222 C 
ATOM      6  O   UNL A   1      30.082  23.482  27.385  1.00  0.00    -0.275 OA
ATOM      7  H   UNL A   1      31.502  21.523  27.449  1.00  0.00     0.163 HD
BRANCH   5   8
ATOM      8  C   UNL A   1      31.212  24.102  25.369  1.00  0.00     0.124 C 
BRANCH   8   9
ATOM      9  C   UNL A   1      31.917  25.452  25.495  1.00  0.00     0.090 C 
ATOM     10  C   UNL A   1      33.430  25.516  25.354  1.00  0.00     0.031 C 
BRANCH   9  11
ATOM     11  N   UNL A   1      31.504  26.211  26.670  1.00  0.00    -0.335 N 
ATOM     12  C   UNL A   1      31.440  27.529  26.931  1.00  0.00     0.315 C 
ATOM     13  H   UNL A   1      31.213  25.645  27.421  1.00  0.00     0.165 HD
ATOM     14  O   UNL A   1      31.301  27.892  28.100  1.00  0.00    -0.249 OA
ATOM     15  N   UNL A   1      31.506  28.475  25.975  1.00  0.00    -0.333 N 
ATOM     16  H   UNL A   1      31.533  29.397  26.320  1.00  0.00     0.165 HD
BRANCH  15  17
ATOM     17  C   UNL A   1      31.546  28.379  24.534  1.00  0.00     0.112 C 
ATOM     18  C   UNL A   1      30.553  29.291  23.837  1.00  0.00     0.056 C 
ATOM     19  C   UNL A   1      32.832  28.814  23.841  1.00  0.00     0.185 C 
ATOM     20  C   UNL A   1      31.019  29.140  22.410  1.00  0.00     0.162 C 
ATOM     21  O   UNL A   1      32.455  29.120  22.480  1.00  0.00    -0.379 OA
ENDBRANCH  15  17
ENDBRANCH   9  11
ENDBRANCH   8   9
ENDBRANCH   5   8
ENDBRANCH   3   4
ENDBRANCH   2   3
ENDBRANCH   1   2
BRANCH   1  22
ATOM     22  C   UNL A   1      35.603  21.080  25.396  1.00  0.00     0.002 C 
BRANCH  22  23
ATOM     23  C   UNL A   1      36.960  20.776  24.755  1.00  0.00     0.021 C 
BRANCH  23  24
ATOM     24  C   UNL A   1      38.134  21.512  25.397  1.00  0.00     0.116 C 
BRANCH  24  25
ATOM     25  N   UNL A   1      39.049  20.587  26.049  1.00  0.00    -0.352 N 
ATOM     26  C   UNL A   1      40.233  20.849  26.684  1.00  0.00     0.251 C 
ATOM     27  H   UNL A   1      38.781  19.640  26.030  1.00  0.00     0.163 HD
ATOM     28  O   UNL A   1      41.017  19.932  26.936  1.00  0.00    -0.269 OA
BRANCH  26  29
ATOM     29  C   UNL A   1      40.563  22.235  27.058  1.00  0.00     0.039 A 
ATOM     30  C   UNL A   1      41.480  22.464  28.084  1.00  0.00     0.014 A 
ATOM     31  C   UNL A   1      39.970  23.308  26.384  1.00  0.00     0.014 A 
ATOM     32  C   UNL A   1      41.847  23.772  28.398  1.00  0.00     0.010 A 
ATOM     33  C   UNL A   1      40.391  24.606  26.647  1.00  0.00     0.010 A 
ATOM     34  C   UNL A   1      41.333  24.852  27.659  1.00  0.00    -0.014 A 
BRANCH  34  35
ATOM     35  C   UNL A   1      41.798  26.239  27.905  1.00  0.00     0.031 A 
ATOM     36  C   UNL A   1      43.201  26.648  27.554  1.00  0.00     0.074 A 
ATOM     37  C   UNL A   1      40.977  27.105  28.533  1.00  0.00     0.049 A 
ATOM     38  N   UNL A   1      43.792  27.800  27.738  1.00  0.00    -0.248 NA
ATOM     39  C   UNL A   1      44.064  25.625  26.936  1.00  0.00     0.031 C 
ATOM     40  C   UNL A   1      39.624  26.797  29.003  1.00  0.00     0.029 A 
ATOM     41  N   UNL A   1      41.170  28.410  28.912  1.00  0.00    -0.354 N 
ATOM     42  C   UNL A   1      45.098  27.633  27.294  1.00  0.00     0.074 A 
ATOM     43  C   UNL A   1      45.224  26.261  26.854  1.00  0.00     0.031 C 
ATOM     44  C   UNL A   1      39.110  27.880  29.606  1.00  0.00     0.029 A 
ATOM     45  C   UNL A   1      40.105  28.947  29.598  1.00  0.00     0.049 A 
ATOM     46  H   UNL A   1      41.991  28.913  28.711  1.00  0.00     0.167 HD
ATOM     47  C   UNL A   1      46.095  28.548  27.237  1.00  0.00     0.034 A 
ATOM     48  C   UNL A   1      39.953  30.156  30.170  1.00  0.00     0.034 A 
ATOM     49  C   UNL A   1      45.953  29.921  27.639  1.00  0.00     0.049 A 
ATOM     50  C   UNL A   1      41.064  31.163  30.055  1.00  0.00     0.074 A 
ATOM     51  C   UNL A   1      46.871  30.950  27.522  1.00  0.00     0.029 A 
ATOM     52  N   UNL A   1      44.830  30.455  28.253  1.00  0.00    -0.354 N 
ATOM     53  N   UNL A   1      42.231  31.041  29.469  1.00  0.00    -0.248 NA
ATOM     54  C   UNL A   1      40.827  32.487  30.650  1.00  0.00     0.031 C 
ATOM     55  C   UNL A   1      46.318  32.097  28.098  1.00  0.00     0.029 A 
ATOM     56  C   UNL A   1      45.040  31.793  28.541  1.00  0.00     0.049 A 
ATOM     57  H   UNL A   1      44.006  29.957  28.455  1.00  0.00     0.167 HD
ATOM     58  C   UNL A   1      42.853  32.277  29.597  1.00  0.00     0.074 A 
ATOM     59  C   UNL A   1      41.923  33.143  30.292  1.00  0.00     0.031 C 
ATOM     60  C   UNL A   1      44.090  32.656  29.193  1.00  0.00     0.034 A 
BRANCH  47  61
ATOM     61  C   UNL A   1      47.423  28.111  26.676  1.00  0.00     0.023 A 
ATOM     62  C   UNL A   1      48.461  27.731  27.553  1.00  0.00     0.012 A 
ATOM     63  C   UNL A   1      47.615  27.993  25.286  1.00  0.00     0.148 A 
ATOM     64  C   UNL A   1      49.677  27.266  27.055  1.00  0.00     0.002 A 
ATOM     65  C   UNL A   1      48.813  27.486  24.797  1.00  0.00     0.091 A 
ATOM     66  F   UNL A   1      46.623  28.377  24.469  1.00  0.00    -0.205 F 
ATOM     67  C   UNL A   1      49.849  27.133  25.679  1.00  0.00     0.022 A 
BRANCH  65  68
ATOM     68  S   UNL A   1      49.105  27.198  23.048  1.00  0.00     0.127 S 
ATOM     69  O   UNL A   1      50.564  27.110  23.004  1.00  0.00    -0.237 OA
ATOM     70  O   UNL A   1      48.410  25.929  22.827  1.00  0.00    -0.237 OA
ATOM     71  O   UNL A   1      48.530  28.338  22.350  1.00  0.00    -0.744 OA
ENDBRANCH  65  68
ENDBRANCH  47  61
BRANCH  48  72
ATOM     72  C   UNL A   1      38.681  30.496  30.870  1.00  0.00     0.023 A 
ATOM     73  C   UNL A   1      38.501  30.110  32.212  1.00  0.00     0.012 A 
ATOM     74  C   UNL A   1      37.661  31.214  30.218  1.00  0.00     0.148 A 
ATOM     75  C   UNL A   1      37.311  30.401  32.881  1.00  0.00     0.002 A 
ATOM     76  C   UNL A   1      36.502  31.552  30.908  1.00  0.00     0.091 A 
ATOM     77  F   UNL A   1      37.845  31.561  28.937  1.00  0.00    -0.205 F 
ATOM     78  C   UNL A   1      36.316  31.130  32.234  1.00  0.00     0.022 A 
BRANCH  76  79
ATOM     79  S   UNL A   1      35.236  32.608  30.196  1.00  0.00     0.127 S 
ATOM     80  O   UNL A   1      36.016  33.769  29.775  1.00  0.00    -0.237 OA
ATOM     81  O   UNL A   1      34.726  31.778  29.105  1.00  0.00    -0.237 OA
ATOM     82  O   UNL A   1      34.274  32.844  31.265  1.00  0.00    -0.744 OA
ENDBRANCH  76  79
ENDBRANCH  48  72
BRANCH  60  83
ATOM     83  C   UNL A   1      44.506  34.079  29.463  1.00  0.00     0.023 A 
ATOM     84  C   UNL A   1      45.194  34.395  30.651  1.00  0.00     0.012 A 
ATOM     85  C   UNL A   1      44.278  35.088  28.506  1.00  0.00     0.148 A 
ATOM     86  C   UNL A   1      45.615  35.701  30.900  1.00  0.00     0.002 A 
ATOM     87  C   UNL A   1      44.746  36.375  28.738  1.00  0.00     0.091 A 
ATOM     88  F   UNL A   1      43.608  34.771  27.389  1.00  0.00    -0.205 F 
ATOM     89  C   UNL A   1      45.403  36.687  29.940  1.00  0.00     0.022 A 
BRANCH  87  90
ATOM     90  S   UNL A   1      44.606  37.687  27.519  1.00  0.00     0.127 S 
ATOM     91  O   UNL A   1      44.746  38.881  28.350  1.00  0.00    -0.237 OA
ATOM     92  O   UNL A   1      45.745  37.418  26.641  1.00  0.00    -0.237 OA
ATOM     93  O   UNL A   1      43.304  37.514  26.889  1.00  0.00    -0.744 OA
ENDBRANCH  87  90
ENDBRANCH  60  83
ENDBRANCH  34  35
ENDBRANCH  26  29
ENDBRANCH  24  25
ENDBRANCH  23  24
ENDBRANCH  22  23
ENDBRANCH   1  22
TORSDOF 19
ENDMDL
MODEL 3
REMARK VINA RESULT:     -10.7      5.422      8.780
REMARK SMILES C[C@@H](CC(=O)NCCCCCCNC(=O)c1ccc(-c2c3nc(c(-c4cccc(S(=O)(=O)[O-])c4F)c4ccc([nH]4)c(-c4cccc(S(=O)(=O)[O-])c4F)c4nc(c(-c5cccc(S(=O)(=O)[O-])c5F)c5ccc2[nH]5)C=C4)C=C3)cc1)NC(=O)N[C@H]1CCOC1
REMARK SMILES IDX 9 1 8 2 7 3 6 4 4 5 5 6 3 8 2 9 1 10 79 11 80 12 81 14 82 15
REMARK SMILES IDX 83 17 84 18 87 19 85 20 86 21 10 22 11 23 12 24 13 25 14 26
REMARK SMILES IDX 15 28 16 29 17 30 78 31 18 32 77 33 19 34 20 35 21 36 71 37
REMARK SMILES IDX 22 38 76 39 70 40 72 41 23 42 75 43 69 44 68 45 24 47 56 48
REMARK SMILES IDX 36 49 55 50 37 51 40 52 54 53 73 54 38 55 39 56 53 58 74 59
REMARK SMILES IDX 41 60 25 61 26 62 34 63 27 64 29 65 35 66 28 67 30 68 31 69
REMARK SMILES IDX 32 70 33 71 57 72 58 73 66 74 59 75 61 76 67 77 60 78 62 79
REMARK SMILES IDX 63 80 64 81 65 82 42 83 43 84 51 85 44 86 46 87 52 88 45 89
REMARK SMILES IDX 47 90 48 91 49 92 50 93
REMARK H PARENT 6 7 79 13 82 16 13 27 72 46 40 57
REMARK Flexibility Score: inf
ROOT
ATOM      1  C   UNL A   1      35.868  20.575  25.113  1.00  0.00     0.002 C 
ENDROOT
BRANCH   1   2
ATOM      2  C   UNL A   1      35.429  21.601  26.154  1.00  0.00     0.021 C 
BRANCH   2   3
ATOM      3  C   UNL A   1      33.948  21.963  26.054  1.00  0.00     0.116 C 
BRANCH   3   4
ATOM      4  N   UNL A   1      33.339  21.162  25.012  1.00  0.00    -0.356 N 
ATOM      5  C   UNL A   1      32.931  21.565  23.778  1.00  0.00     0.222 C 
ATOM      6  O   UNL A   1      32.150  20.858  23.142  1.00  0.00    -0.275 OA
ATOM      7  H   UNL A   1      33.203  20.209  25.223  1.00  0.00     0.163 HD
BRANCH   5   8
ATOM      8  C   UNL A   1      33.521  22.818  23.185  1.00  0.00     0.124 C 
BRANCH   8   9
ATOM      9  C   UNL A   1      32.576  23.950  22.780  1.00  0.00     0.090 C 
ATOM     10  C   UNL A   1      31.092  23.821  23.085  1.00  0.00     0.031 C 
BRANCH   9  11
ATOM     11  N   UNL A   1      32.756  24.383  21.399  1.00  0.00    -0.335 N 
ATOM     12  C   UNL A   1      32.701  25.589  20.805  1.00  0.00     0.315 C 
ATOM     13  H   UNL A   1      32.958  23.647  20.778  1.00  0.00     0.165 HD
ATOM     14  O   UNL A   1      32.633  25.638  19.576  1.00  0.00    -0.249 OA
ATOM     15  N   UNL A   1      32.729  26.750  21.487  1.00  0.00    -0.333 N 
ATOM     16  H   UNL A   1      32.594  27.550  20.929  1.00  0.00     0.165 HD
BRANCH  15  17
ATOM     17  C   UNL A   1      32.921  27.031  22.891  1.00  0.00     0.112 C 
ATOM     18  C   UNL A   1      33.855  28.198  23.155  1.00  0.00     0.056 C 
ATOM     19  C   UNL A   1      31.702  27.487  23.685  1.00  0.00     0.185 C 
ATOM     20  C   UNL A   1      33.637  28.375  24.637  1.00  0.00     0.162 C 
ATOM     21  O   UNL A   1      32.227  28.179  24.840  1.00  0.00    -0.379 OA
ENDBRANCH  15  17
ENDBRANCH   9  11
ENDBRANCH   8   9
ENDBRANCH   5   8
ENDBRANCH   3   4
ENDBRANCH   2   3
ENDBRANCH   1   2
BRANCH   1  22
ATOM     22  C   UNL A   1      37.274  20.814  24.562  1.00  0.00     0.002 C 
BRANCH  22  23
ATOM     23  C   UNL A   1      38.252  19.658  24.796  1.00  0.00     0.021 C 
BRANCH  23  24
ATOM     24  C   UNL A   1      38.977  19.713  26.138  1.00  0.00     0.116 C 
BRANCH  24  25
ATOM     25  N   UNL A   1      40.231  18.976  26.096  1.00  0.00    -0.352 N 
ATOM     26  C   UNL A   1      41.512  19.456  26.068  1.00  0.00     0.251 C 
ATOM     27  H   UNL A   1      40.147  17.995  26.084  1.00  0.00     0.163 HD
ATOM     28  O   UNL A   1      42.445  18.714  25.754  1.00  0.00    -0.269 OA
BRANCH  26  29
ATOM     29  C   UNL A   1      41.766  20.866  26.410  1.00  0.00     0.039 A 
ATOM     30  C   UNL A   1      41.983  21.216  27.744  1.00  0.00     0.014 A 
ATOM     31  C   UNL A   1      41.798  21.841  25.407  1.00  0.00     0.014 A 
ATOM     32  C   UNL A   1      42.289  22.538  28.065  1.00  0.00     0.010 A 
ATOM     33  C   UNL A   1      42.175  23.141  25.720  1.00  0.00     0.010 A 
ATOM     34  C   UNL A   1      42.423  23.504  27.053  1.00  0.00    -0.014 A 
BRANCH  34  35
ATOM     35  C   UNL A   1      42.858  24.887  27.368  1.00  0.00     0.031 A 
ATOM     36  C   UNL A   1      41.905  25.862  28.001  1.00  0.00     0.074 A 
ATOM     37  C   UNL A   1      44.090  25.288  26.996  1.00  0.00     0.049 A 
ATOM     38  N   UNL A   1      42.099  27.119  28.306  1.00  0.00    -0.248 NA
ATOM     39  C   UNL A   1      40.552  25.371  28.314  1.00  0.00     0.031 C 
ATOM     40  C   UNL A   1      45.073  24.458  26.294  1.00  0.00     0.029 A 
ATOM     41  N   UNL A   1      44.717  26.502  27.128  1.00  0.00    -0.354 N 
ATOM     42  C   UNL A   1      40.888  27.579  28.810  1.00  0.00     0.074 A 
ATOM     43  C   UNL A   1      39.957  26.473  28.748  1.00  0.00     0.031 C 
ATOM     44  C   UNL A   1      46.175  25.185  26.057  1.00  0.00     0.029 A 
ATOM     45  C   UNL A   1      45.968  26.540  26.557  1.00  0.00     0.049 A 
ATOM     46  H   UNL A   1      44.309  27.271  27.587  1.00  0.00     0.167 HD
ATOM     47  C   UNL A   1      40.587  28.804  29.303  1.00  0.00     0.034 A 
ATOM     48  C   UNL A   1      46.843  27.556  26.435  1.00  0.00     0.034 A 
ATOM     49  C   UNL A   1      41.528  29.887  29.398  1.00  0.00     0.049 A 
ATOM     50  C   UNL A   1      46.495  28.895  27.027  1.00  0.00     0.074 A 
ATOM     51  C   UNL A   1      41.350  31.131  29.976  1.00  0.00     0.029 A 
ATOM     52  N   UNL A   1      42.817  29.865  28.886  1.00  0.00    -0.354 N 
ATOM     53  N   UNL A   1      45.407  29.258  27.662  1.00  0.00    -0.248 NA
ATOM     54  C   UNL A   1      47.508  29.955  26.915  1.00  0.00     0.031 C 
ATOM     55  C   UNL A   1      42.517  31.875  29.782  1.00  0.00     0.029 A 
ATOM     56  C   UNL A   1      43.437  31.081  29.116  1.00  0.00     0.049 A 
ATOM     57  H   UNL A   1      43.229  29.099  28.427  1.00  0.00     0.167 HD
ATOM     58  C   UNL A   1      45.616  30.575  28.053  1.00  0.00     0.074 A 
ATOM     59  C   UNL A   1      46.945  30.938  27.606  1.00  0.00     0.031 C 
ATOM     60  C   UNL A   1      44.776  31.415  28.705  1.00  0.00     0.034 A 
BRANCH  47  61
ATOM     61  C   UNL A   1      39.192  29.033  29.823  1.00  0.00     0.023 A 
ATOM     62  C   UNL A   1      38.871  28.669  31.147  1.00  0.00     0.012 A 
ATOM     63  C   UNL A   1      38.227  29.686  29.032  1.00  0.00     0.148 A 
ATOM     64  C   UNL A   1      37.604  28.927  31.667  1.00  0.00     0.002 A 
ATOM     65  C   UNL A   1      36.981  29.981  29.571  1.00  0.00     0.091 A 
ATOM     66  F   UNL A   1      38.546  30.006  27.769  1.00  0.00    -0.205 F 
ATOM     67  C   UNL A   1      36.664  29.593  30.884  1.00  0.00     0.022 A 
BRANCH  65  68
ATOM     68  S   UNL A   1      35.728  30.907  28.676  1.00  0.00     0.127 S 
ATOM     69  O   UNL A   1      35.058  29.845  27.925  1.00  0.00    -0.237 OA
ATOM     70  O   UNL A   1      34.935  31.479  29.764  1.00  0.00    -0.237 OA
ATOM     71  O   UNL A   1      36.448  31.881  27.868  1.00  0.00    -0.744 OA
ENDBRANCH  65  68
ENDBRANCH  47  61
BRANCH  48  72
ATOM     72  C   UNL A   1      48.153  27.335  25.758  1.00  0.00     0.023 A 
ATOM     73  C   UNL A   1      49.266  26.921  26.512  1.00  0.00     0.012 A 
ATOM     74  C   UNL A   1      48.293  27.516  24.368  1.00  0.00     0.148 A 
ATOM     75  C   UNL A   1      50.506  26.726  25.902  1.00  0.00     0.002 A 
ATOM     76  C   UNL A   1      49.515  27.263  23.756  1.00  0.00     0.091 A 
ATOM     77  F   UNL A   1      47.225  27.923  23.668  1.00  0.00    -0.205 F 
ATOM     78  C   UNL A   1      50.629  26.888  24.524  1.00  0.00     0.022 A 
BRANCH  76  79
ATOM     79  S   UNL A   1      49.723  27.308  21.973  1.00  0.00     0.127 S 
ATOM     80  O   UNL A   1      51.146  27.015  21.830  1.00  0.00    -0.237 OA
ATOM     81  O   UNL A   1      48.825  26.239  21.536  1.00  0.00    -0.237 OA
ATOM     82  O   UNL A   1      49.305  28.643  21.563  1.00  0.00    -0.744 OA
ENDBRANCH  76  79
ENDBRANCH  48  72
BRANCH  60  83
ATOM     83  C   UNL A   1      45.275  32.806  29.005  1.00  0.00     0.023 A 
ATOM     84  C   UNL A   1      45.943  33.064  30.218  1.00  0.00     0.012 A 
ATOM     85  C   UNL A   1      45.141  33.837  28.054  1.00  0.00     0.148 A 
ATOM     86  C   UNL A   1      46.439  34.338  30.495  1.00  0.00     0.002 A 
ATOM     87  C   UNL A   1      45.684  35.089  28.315  1.00  0.00     0.091 A 
ATOM     88  F   UNL A   1      44.488  33.574  26.913  1.00  0.00    -0.205 F 
ATOM     89  C   UNL A   1      46.321  35.345  29.541  1.00  0.00     0.022 A 
BRANCH  87  90
ATOM     90  S   UNL A   1      45.666  36.419  27.108  1.00  0.00     0.127 S 
ATOM     91  O   UNL A   1      44.234  36.687  26.983  1.00  0.00    -0.237 OA
ATOM     92  O   UNL A   1      46.425  37.467  27.791  1.00  0.00    -0.237 OA
ATOM     93  O   UNL A   1      46.308  35.887  25.914  1.00  0.00    -0.744 OA
ENDBRANCH  87  90
ENDBRANCH  60  83
ENDBRANCH  34  35
ENDBRANCH  26  29
ENDBRANCH  24  25
ENDBRANCH  23  24
ENDBRANCH  22  23
ENDBRANCH   1  22
TORSDOF 19
ENDMDL
