MODEL 1
REMARK VINA RESULT:     -12.0      0.000      0.000
REMARK SMILES O=C(NCCCCCCNC(=O)c1ccccc1NC(=O)c1ccncc1)c1ccc(-c2c3nc(c(-c4cccc(S(=O)(=O)[O-])c4F)c4ccc([nH]4)c(-c4cccc(S(=O)(=O)[O-])c4F)c4nc(c(-c5cccc(S(=O)(=O)[O-])c5F)c5ccc2[nH]5)C=C4)C=C3)cc1
REMARK SMILES IDX 6 1 5 2 4 3 3 4 1 5 2 6 28 8 29 9 90 10 30 11 89 12 31 13
REMARK SMILES IDX 32 14 33 15 83 16 34 17 88 18 82 19 84 20 35 21 87 22 81 23
REMARK SMILES IDX 80 24 36 26 68 27 48 28 67 29 49 30 52 31 66 32 85 33 50 34
REMARK SMILES IDX 51 35 65 37 86 38 53 39 37 40 38 41 46 42 39 43 41 44 47 45
REMARK SMILES IDX 40 46 42 47 43 48 44 49 45 50 69 51 70 52 78 53 71 54 73 55
REMARK SMILES IDX 79 56 72 57 74 58 75 59 76 60 77 61 54 62 55 63 63 64 56 65
REMARK SMILES IDX 58 66 64 67 57 68 59 69 60 70 61 71 62 72 7 73 8 74 9 75
REMARK SMILES IDX 10 76 11 77 12 79 13 80 14 81 18 82 15 83 17 84 16 85 19 86
REMARK SMILES IDX 20 87 21 89 22 90 23 91 27 92 24 93 26 94 25 95
REMARK H PARENT 3 7 84 25 52 36 10 78 19 88
REMARK Flexibility Score: inf
ROOT
ATOM      1  C   UNL A   1      31.783  30.405  26.220  1.00  0.00     0.002 C 
ENDROOT
BRANCH   1   2
ATOM      2  C   UNL A   1      31.569  31.853  26.660  1.00  0.00     0.021 C 
BRANCH   2   3
ATOM      3  C   UNL A   1      32.813  32.546  27.194  1.00  0.00     0.116 C 
BRANCH   3   4
ATOM      4  N   UNL A   1      32.548  33.910  27.618  1.00  0.00    -0.352 N 
ATOM      5  O   UNL A   1      32.675  35.702  28.980  1.00  0.00    -0.269 OA
ATOM      6  C   UNL A   1      33.142  34.620  28.632  1.00  0.00     0.251 C 
ATOM      7  H   UNL A   1      31.851  34.387  27.113  1.00  0.00     0.163 HD
BRANCH   6   8
ATOM      8  C   UNL A   1      34.332  34.061  29.307  1.00  0.00     0.039 A 
ATOM      9  C   UNL A   1      34.184  33.171  30.376  1.00  0.00     0.014 A 
ATOM     10  C   UNL A   1      35.606  34.426  28.866  1.00  0.00     0.014 A 
ATOM     11  C   UNL A   1      35.302  32.743  31.080  1.00  0.00     0.010 A 
ATOM     12  C   UNL A   1      36.734  33.924  29.522  1.00  0.00     0.010 A 
ATOM     13  C   UNL A   1      36.590  33.089  30.641  1.00  0.00    -0.014 A 
BRANCH  13  14
ATOM     14  C   UNL A   1      37.771  32.464  31.286  1.00  0.00     0.031 A 
ATOM     15  C   UNL A   1      38.498  31.314  30.650  1.00  0.00     0.074 A 
ATOM     16  C   UNL A   1      38.155  32.931  32.491  1.00  0.00     0.049 A 
ATOM     17  N   UNL A   1      39.524  30.643  31.107  1.00  0.00    -0.248 NA
ATOM     18  C   UNL A   1      38.015  30.849  29.341  1.00  0.00     0.031 C 
ATOM     19  C   UNL A   1      37.489  34.013  33.223  1.00  0.00     0.029 A 
ATOM     20  N   UNL A   1      39.174  32.548  33.325  1.00  0.00    -0.354 N 
ATOM     21  C   UNL A   1      39.780  29.649  30.172  1.00  0.00     0.074 A 
ATOM     22  C   UNL A   1      38.808  29.808  29.112  1.00  0.00     0.031 C 
ATOM     23  C   UNL A   1      38.113  34.207  34.392  1.00  0.00     0.029 A 
ATOM     24  C   UNL A   1      39.181  33.224  34.523  1.00  0.00     0.049 A 
ATOM     25  H   UNL A   1      39.835  31.858  33.089  1.00  0.00     0.167 HD
ATOM     26  C   UNL A   1      40.741  28.694  30.198  1.00  0.00     0.034 A 
ATOM     27  C   UNL A   1      39.932  33.047  35.626  1.00  0.00     0.034 A 
ATOM     28  C   UNL A   1      41.722  28.566  31.244  1.00  0.00     0.049 A 
ATOM     29  C   UNL A   1      40.990  31.982  35.617  1.00  0.00     0.074 A 
ATOM     30  C   UNL A   1      42.799  27.699  31.308  1.00  0.00     0.029 A 
ATOM     31  N   UNL A   1      41.732  29.300  32.420  1.00  0.00    -0.354 N 
ATOM     32  N   UNL A   1      41.325  31.164  34.650  1.00  0.00    -0.248 NA
ATOM     33  C   UNL A   1      41.787  31.830  36.841  1.00  0.00     0.031 C 
ATOM     34  C   UNL A   1      43.433  27.879  32.542  1.00  0.00     0.029 A 
ATOM     35  C   UNL A   1      42.774  28.883  33.231  1.00  0.00     0.049 A 
ATOM     36  H   UNL A   1      41.092  30.014  32.645  1.00  0.00     0.167 HD
ATOM     37  C   UNL A   1      42.386  30.413  35.141  1.00  0.00     0.074 A 
ATOM     38  C   UNL A   1      42.657  30.896  36.479  1.00  0.00     0.031 C 
ATOM     39  C   UNL A   1      43.060  29.401  34.544  1.00  0.00     0.034 A 
BRANCH  26  40
ATOM     40  C   UNL A   1      40.807  27.711  29.059  1.00  0.00     0.023 A 
ATOM     41  C   UNL A   1      39.885  26.648  28.993  1.00  0.00     0.012 A 
ATOM     42  C   UNL A   1      41.713  27.908  27.996  1.00  0.00     0.148 A 
ATOM     43  C   UNL A   1      39.877  25.784  27.897  1.00  0.00     0.002 A 
ATOM     44  C   UNL A   1      41.670  27.068  26.889  1.00  0.00     0.091 A 
ATOM     45  F   UNL A   1      42.592  28.917  28.086  1.00  0.00    -0.205 F 
ATOM     46  C   UNL A   1      40.760  26.001  26.842  1.00  0.00     0.022 A 
BRANCH  44  47
ATOM     47  S   UNL A   1      42.708  27.315  25.443  1.00  0.00     0.127 S 
ATOM     48  O   UNL A   1      44.026  27.491  26.054  1.00  0.00    -0.237 OA
ATOM     49  O   UNL A   1      42.535  26.053  24.723  1.00  0.00    -0.237 OA
ATOM     50  O   UNL A   1      42.179  28.486  24.760  1.00  0.00    -0.744 OA
ENDBRANCH  44  47
ENDBRANCH  26  40
BRANCH  27  51
ATOM     51  C   UNL A   1      39.704  33.902  36.824  1.00  0.00     0.023 A 
ATOM     52  C   UNL A   1      40.076  35.258  36.795  1.00  0.00     0.012 A 
ATOM     53  C   UNL A   1      39.090  33.381  37.981  1.00  0.00     0.148 A 
ATOM     54  C   UNL A   1      39.874  36.073  37.910  1.00  0.00     0.002 A 
ATOM     55  C   UNL A   1      38.835  34.212  39.063  1.00  0.00     0.091 A 
ATOM     56  F   UNL A   1      38.756  32.083  37.994  1.00  0.00    -0.205 F 
ATOM     57  C   UNL A   1      39.244  35.553  39.038  1.00  0.00     0.022 A 
BRANCH  55  58
ATOM     58  S   UNL A   1      37.900  33.660  40.494  1.00  0.00     0.127 S 
ATOM     59  O   UNL A   1      36.683  33.142  39.873  1.00  0.00    -0.237 OA
ATOM     60  O   UNL A   1      38.785  32.642  41.061  1.00  0.00    -0.237 OA
ATOM     61  O   UNL A   1      37.734  34.841  41.331  1.00  0.00    -0.744 OA
ENDBRANCH  55  58
ENDBRANCH  27  51
BRANCH  39  62
ATOM     62  C   UNL A   1      44.176  28.757  35.322  1.00  0.00     0.023 A 
ATOM     63  C   UNL A   1      45.484  29.270  35.223  1.00  0.00     0.012 A 
ATOM     64  C   UNL A   1      43.913  27.695  36.209  1.00  0.00     0.148 A 
ATOM     65  C   UNL A   1      46.519  28.717  35.975  1.00  0.00     0.002 A 
ATOM     66  C   UNL A   1      44.939  27.183  36.993  1.00  0.00     0.091 A 
ATOM     67  F   UNL A   1      42.663  27.211  36.274  1.00  0.00    -0.205 F 
ATOM     68  C   UNL A   1      46.245  27.684  36.868  1.00  0.00     0.022 A 
BRANCH  66  69
ATOM     69  S   UNL A   1      44.665  25.918  38.239  1.00  0.00     0.127 S 
ATOM     70  O   UNL A   1      46.026  25.446  38.488  1.00  0.00    -0.237 OA
ATOM     71  O   UNL A   1      44.075  26.687  39.334  1.00  0.00    -0.237 OA
ATOM     72  O   UNL A   1      43.772  24.939  37.632  1.00  0.00    -0.744 OA
ENDBRANCH  66  69
ENDBRANCH  39  62
ENDBRANCH  13  14
ENDBRANCH   6   8
ENDBRANCH   3   4
ENDBRANCH   2   3
ENDBRANCH   1   2
BRANCH   1  73
ATOM     73  C   UNL A   1      32.892  29.653  26.960  1.00  0.00     0.002 C 
BRANCH  73  74
ATOM     74  C   UNL A   1      32.558  28.217  27.381  1.00  0.00     0.021 C 
BRANCH  74  75
ATOM     75  C   UNL A   1      31.112  27.791  27.142  1.00  0.00     0.116 C 
BRANCH  75  76
ATOM     76  N   UNL A   1      31.031  26.487  26.507  1.00  0.00    -0.352 N 
ATOM     77  C   UNL A   1      31.180  26.144  25.192  1.00  0.00     0.253 C 
ATOM     78  H   UNL A   1      30.841  25.738  27.116  1.00  0.00     0.163 HD
ATOM     79  O   UNL A   1      30.874  25.014  24.818  1.00  0.00    -0.269 OA
BRANCH  77  80
ATOM     80  C   UNL A   1      31.716  27.105  24.205  1.00  0.00     0.063 A 
ATOM     81  C   UNL A   1      33.114  27.229  24.171  1.00  0.00     0.016 A 
ATOM     82  C   UNL A   1      30.896  27.934  23.411  1.00  0.00     0.054 A 
ATOM     83  C   UNL A   1      33.714  28.183  23.355  1.00  0.00     0.001 A 
ATOM     84  C   UNL A   1      31.522  28.947  22.677  1.00  0.00     0.027 A 
ATOM     85  C   UNL A   1      32.916  29.057  22.626  1.00  0.00     0.002 A 
BRANCH  82  86
ATOM     86  N   UNL A   1      29.498  27.728  23.400  1.00  0.00    -0.321 N 
ATOM     87  C   UNL A   1      28.421  28.552  23.171  1.00  0.00     0.255 C 
ATOM     88  H   UNL A   1      29.241  26.798  23.597  1.00  0.00     0.170 HD
ATOM     89  O   UNL A   1      27.281  28.099  23.260  1.00  0.00    -0.269 OA
BRANCH  87  90
ATOM     90  C   UNL A   1      28.576  29.965  22.795  1.00  0.00     0.043 A 
ATOM     91  C   UNL A   1      28.878  30.951  23.734  1.00  0.00     0.034 A 
ATOM     92  C   UNL A   1      28.390  30.298  21.456  1.00  0.00     0.034 A 
ATOM     93  C   UNL A   1      28.866  32.263  23.299  1.00  0.00     0.112 A 
ATOM     94  C   UNL A   1      28.414  31.637  21.122  1.00  0.00     0.112 A 
ATOM     95  N   UNL A   1      28.618  32.626  22.020  1.00  0.00    -0.265 NA
ENDBRANCH  87  90
ENDBRANCH  82  86
ENDBRANCH  77  80
ENDBRANCH  75  76
ENDBRANCH  74  75
ENDBRANCH  73  74
ENDBRANCH   1  73
TORSDOF 18
ENDMDL
MODEL 2
REMARK VINA RESULT:     -11.9      4.590      9.785
REMARK SMILES O=C(NCCCCCCNC(=O)c1ccccc1NC(=O)c1ccncc1)c1ccc(-c2c3nc(c(-c4cccc(S(=O)(=O)[O-])c4F)c4ccc([nH]4)c(-c4cccc(S(=O)(=O)[O-])c4F)c4nc(c(-c5cccc(S(=O)(=O)[O-])c5F)c5ccc2[nH]5)C=C4)C=C3)cc1
REMARK SMILES IDX 6 1 5 2 4 3 3 4 1 5 2 6 28 8 29 9 90 10 30 11 89 12 31 13
REMARK SMILES IDX 32 14 33 15 83 16 34 17 88 18 82 19 84 20 35 21 87 22 81 23
REMARK SMILES IDX 80 24 36 26 68 27 48 28 67 29 49 30 52 31 66 32 85 33 50 34
REMARK SMILES IDX 51 35 65 37 86 38 53 39 37 40 38 41 46 42 39 43 41 44 47 45
REMARK SMILES IDX 40 46 42 47 43 48 44 49 45 50 69 51 70 52 78 53 71 54 73 55
REMARK SMILES IDX 79 56 72 57 74 58 75 59 76 60 77 61 54 62 55 63 63 64 56 65
REMARK SMILES IDX 58 66 64 67 57 68 59 69 60 70 61 71 62 72 7 73 8 74 9 75
REMARK SMILES IDX 10 76 11 77 12 79 13 80 14 81 18 82 15 83 17 84 16 85 19 86
REMARK SMILES IDX 20 87 21 89 22 90 23 91 27 92 24 93 26 94 25 95
REMARK H PARENT 3 7 84 25 52 36 10 78 19 88
REMARK Flexibility Score: inf
ROOT
ATOM      1  C   UNL A   1      32.061  27.285  26.021  1.00  0.00     0.002 C 
ENDROOT
BRANCH   1   2
ATOM      2  C   UNL A   1      32.774  28.117  27.085  1.00  0.00     0.021 C 
BRANCH   2   3
ATOM      3  C   UNL A   1      33.991  28.882  26.587  1.00  0.00     0.116 C 
BRANCH   3   4
ATOM      4  N   UNL A   1      33.906  30.304  26.868  1.00  0.00    -0.352 N 
ATOM      5  O   UNL A   1      34.407  32.222  27.943  1.00  0.00    -0.269 OA
ATOM      6  C   UNL A   1      34.725  31.068  27.663  1.00  0.00     0.251 C 
ATOM      7  H   UNL A   1      33.164  30.782  26.434  1.00  0.00     0.163 HD
BRANCH   6   8
ATOM      8  C   UNL A   1      35.976  30.481  28.189  1.00  0.00     0.039 A 
ATOM      9  C   UNL A   1      37.184  30.673  27.512  1.00  0.00     0.014 A 
ATOM     10  C   UNL A   1      35.940  29.737  29.369  1.00  0.00     0.014 A 
ATOM     11  C   UNL A   1      38.332  30.022  27.946  1.00  0.00     0.010 A 
ATOM     12  C   UNL A   1      37.115  29.153  29.853  1.00  0.00     0.010 A 
ATOM     13  C   UNL A   1      38.316  29.281  29.138  1.00  0.00    -0.014 A 
BRANCH  13  14
ATOM     14  C   UNL A   1      39.592  28.758  29.687  1.00  0.00     0.031 A 
ATOM     15  C   UNL A   1      40.293  29.434  30.830  1.00  0.00     0.074 A 
ATOM     16  C   UNL A   1      40.136  27.674  29.100  1.00  0.00     0.049 A 
ATOM     17  N   UNL A   1      41.429  29.116  31.396  1.00  0.00    -0.248 NA
ATOM     18  C   UNL A   1      39.647  30.621  31.412  1.00  0.00     0.031 C 
ATOM     19  C   UNL A   1      39.564  26.967  27.949  1.00  0.00     0.029 A 
ATOM     20  N   UNL A   1      41.294  26.989  29.365  1.00  0.00    -0.354 N 
ATOM     21  C   UNL A   1      41.661  30.085  32.364  1.00  0.00     0.074 A 
ATOM     22  C   UNL A   1      40.541  31.000  32.319  1.00  0.00     0.031 C 
ATOM     23  C   UNL A   1      40.369  25.953  27.607  1.00  0.00     0.029 A 
ATOM     24  C   UNL A   1      41.544  25.974  28.470  1.00  0.00     0.049 A 
ATOM     25  H   UNL A   1      41.888  27.203  30.121  1.00  0.00     0.167 HD
ATOM     26  C   UNL A   1      42.712  30.195  33.212  1.00  0.00     0.034 A 
ATOM     27  C   UNL A   1      42.618  25.175  28.327  1.00  0.00     0.034 A 
ATOM     28  C   UNL A   1      43.804  29.258  33.267  1.00  0.00     0.049 A 
ATOM     29  C   UNL A   1      43.762  25.322  29.287  1.00  0.00     0.074 A 
ATOM     30  C   UNL A   1      44.860  29.225  34.161  1.00  0.00     0.029 A 
ATOM     31  N   UNL A   1      44.001  28.211  32.379  1.00  0.00    -0.354 N 
ATOM     32  N   UNL A   1      43.881  26.139  30.305  1.00  0.00    -0.248 NA
ATOM     33  C   UNL A   1      44.909  24.425  29.095  1.00  0.00     0.031 C 
ATOM     34  C   UNL A   1      45.718  28.186  33.786  1.00  0.00     0.029 A 
ATOM     35  C   UNL A   1      45.178  27.548  32.682  1.00  0.00     0.049 A 
ATOM     36  H   UNL A   1      43.392  27.975  31.642  1.00  0.00     0.167 HD
ATOM     37  C   UNL A   1      45.107  25.841  30.888  1.00  0.00     0.074 A 
ATOM     38  C   UNL A   1      45.676  24.748  30.127  1.00  0.00     0.031 C 
ATOM     39  C   UNL A   1      45.714  26.434  31.944  1.00  0.00     0.034 A 
BRANCH  26  40
ATOM     40  C   UNL A   1      42.740  31.355  34.172  1.00  0.00     0.023 A 
ATOM     41  C   UNL A   1      43.445  32.527  33.838  1.00  0.00     0.012 A 
ATOM     42  C   UNL A   1      41.975  31.321  35.356  1.00  0.00     0.148 A 
ATOM     43  C   UNL A   1      43.405  33.642  34.676  1.00  0.00     0.002 A 
ATOM     44  C   UNL A   1      41.907  32.449  36.165  1.00  0.00     0.091 A 
ATOM     45  F   UNL A   1      41.324  30.190  35.664  1.00  0.00    -0.205 F 
ATOM     46  C   UNL A   1      42.628  33.607  35.832  1.00  0.00     0.022 A 
BRANCH  44  47
ATOM     47  S   UNL A   1      40.868  32.533  37.629  1.00  0.00     0.127 S 
ATOM     48  O   UNL A   1      39.661  31.844  37.172  1.00  0.00    -0.237 OA
ATOM     49  O   UNL A   1      41.660  31.788  38.609  1.00  0.00    -0.237 OA
ATOM     50  O   UNL A   1      40.702  33.948  37.927  1.00  0.00    -0.744 OA
ENDBRANCH  44  47
ENDBRANCH  26  40
BRANCH  27  51
ATOM     51  C   UNL A   1      42.653  24.169  27.230  1.00  0.00     0.023 A 
ATOM     52  C   UNL A   1      43.317  24.470  26.027  1.00  0.00     0.012 A 
ATOM     53  C   UNL A   1      42.057  22.902  27.387  1.00  0.00     0.148 A 
ATOM     54  C   UNL A   1      43.356  23.542  24.986  1.00  0.00     0.002 A 
ATOM     55  C   UNL A   1      42.153  21.959  26.372  1.00  0.00     0.091 A 
ATOM     56  F   UNL A   1      41.416  22.638  28.536  1.00  0.00    -0.205 F 
ATOM     57  C   UNL A   1      42.786  22.284  25.163  1.00  0.00     0.022 A 
BRANCH  55  58
ATOM     58  S   UNL A   1      41.574  20.271  26.575  1.00  0.00     0.127 S 
ATOM     59  O   UNL A   1      40.125  20.453  26.585  1.00  0.00    -0.237 OA
ATOM     60  O   UNL A   1      42.106  19.622  25.377  1.00  0.00    -0.237 OA
ATOM     61  O   UNL A   1      42.165  19.803  27.821  1.00  0.00    -0.744 OA
ENDBRANCH  55  58
ENDBRANCH  27  51
BRANCH  39  62
ATOM     62  C   UNL A   1      47.058  25.901  32.360  1.00  0.00     0.023 A 
ATOM     63  C   UNL A   1      47.153  25.020  33.454  1.00  0.00     0.012 A 
ATOM     64  C   UNL A   1      48.215  26.212  31.618  1.00  0.00     0.148 A 
ATOM     65  C   UNL A   1      48.383  24.478  33.822  1.00  0.00     0.002 A 
ATOM     66  C   UNL A   1      49.428  25.628  31.958  1.00  0.00     0.091 A 
ATOM     67  F   UNL A   1      48.104  27.067  30.590  1.00  0.00    -0.205 F 
ATOM     68  C   UNL A   1      49.517  24.771  33.068  1.00  0.00     0.022 A 
BRANCH  66  69
ATOM     69  S   UNL A   1      50.923  25.870  30.992  1.00  0.00     0.127 S 
ATOM     70  O   UNL A   1      50.496  25.423  29.667  1.00  0.00    -0.237 OA
ATOM     71  O   UNL A   1      51.136  27.312  31.110  1.00  0.00    -0.237 OA
ATOM     72  O   UNL A   1      51.949  25.049  31.622  1.00  0.00    -0.744 OA
ENDBRANCH  66  69
ENDBRANCH  39  62
ENDBRANCH  13  14
ENDBRANCH   6   8
ENDBRANCH   3   4
ENDBRANCH   2   3
ENDBRANCH   1   2
BRANCH   1  73
ATOM     73  C   UNL A   1      31.998  25.781  26.299  1.00  0.00     0.002 C 
BRANCH  73  74
ATOM     74  C   UNL A   1      33.284  24.995  26.016  1.00  0.00     0.021 C 
BRANCH  74  75
ATOM     75  C   UNL A   1      34.043  25.424  24.763  1.00  0.00     0.116 C 
BRANCH  75  76
ATOM     76  N   UNL A   1      33.612  24.680  23.592  1.00  0.00    -0.352 N 
ATOM     77  C   UNL A   1      34.110  23.525  23.057  1.00  0.00     0.253 C 
ATOM     78  H   UNL A   1      32.846  25.068  23.110  1.00  0.00     0.163 HD
ATOM     79  O   UNL A   1      33.740  23.158  21.944  1.00  0.00    -0.269 OA
BRANCH  77  80
ATOM     80  C   UNL A   1      35.081  22.694  23.800  1.00  0.00     0.063 A 
ATOM     81  C   UNL A   1      36.424  22.829  23.411  1.00  0.00     0.016 A 
ATOM     82  C   UNL A   1      34.700  21.742  24.768  1.00  0.00     0.054 A 
ATOM     83  C   UNL A   1      37.402  22.014  23.973  1.00  0.00     0.001 A 
ATOM     84  C   UNL A   1      35.689  20.872  25.242  1.00  0.00     0.027 A 
ATOM     85  C   UNL A   1      37.030  21.022  24.871  1.00  0.00     0.002 A 
BRANCH  82  86
ATOM     86  N   UNL A   1      33.356  21.688  25.204  1.00  0.00    -0.321 N 
ATOM     87  C   UNL A   1      32.341  20.776  25.033  1.00  0.00     0.255 C 
ATOM     88  H   UNL A   1      33.092  22.469  25.743  1.00  0.00     0.170 HD
ATOM     89  O   UNL A   1      31.232  21.007  25.511  1.00  0.00    -0.269 OA
BRANCH  87  90
ATOM     90  C   UNL A   1      32.534  19.507  24.317  1.00  0.00     0.043 A 
ATOM     91  C   UNL A   1      33.086  18.385  24.936  1.00  0.00     0.034 A 
ATOM     92  C   UNL A   1      32.163  19.462  22.976  1.00  0.00     0.034 A 
ATOM     93  C   UNL A   1      33.350  17.288  24.138  1.00  0.00     0.112 A 
ATOM     94  C   UNL A   1      32.456  18.312  22.271  1.00  0.00     0.112 A 
ATOM     95  N   UNL A   1      33.068  17.238  22.816  1.00  0.00    -0.265 NA
ENDBRANCH  87  90
ENDBRANCH  82  86
ENDBRANCH  77  80
ENDBRANCH  75  76
ENDBRANCH  74  75
ENDBRANCH  73  74
ENDBRANCH   1  73
TORSDOF 18
ENDMDL
MODEL 3
REMARK VINA RESULT:     -11.8      0.664      7.744
REMARK SMILES O=C(NCCCCCCNC(=O)c1ccccc1NC(=O)c1ccncc1)c1ccc(-c2c3nc(c(-c4cccc(S(=O)(=O)[O-])c4F)c4ccc([nH]4)c(-c4cccc(S(=O)(=O)[O-])c4F)c4nc(c(-c5cccc(S(=O)(=O)[O-])c5F)c5ccc2[nH]5)C=C4)C=C3)cc1
REMARK SMILES IDX 6 1 5 2 4 3 3 4 1 5 2 6 28 8 29 9 90 10 30 11 89 12 31 13
REMARK SMILES IDX 32 14 33 15 83 16 34 17 88 18 82 19 84 20 35 21 87 22 81 23
REMARK SMILES IDX 80 24 36 26 68 27 48 28 67 29 49 30 52 31 66 32 85 33 50 34
REMARK SMILES IDX 51 35 65 37 86 38 53 39 37 40 38 41 46 42 39 43 41 44 47 45
REMARK SMILES IDX 40 46 42 47 43 48 44 49 45 50 69 51 70 52 78 53 71 54 73 55
REMARK SMILES IDX 79 56 72 57 74 58 75 59 76 60 77 61 54 62 55 63 63 64 56 65
REMARK SMILES IDX 58 66 64 67 57 68 59 69 60 70 61 71 62 72 7 73 8 74 9 75
REMARK SMILES IDX 10 76 11 77 12 79 13 80 14 81 18 82 15 83 17 84 16 85 19 86
REMARK SMILES IDX 20 87 21 89 22 90 23 91 27 92 24 93 26 94 25 95
REMARK H PARENT 3 7 84 25 52 36 10 78 19 88
REMARK Flexibility Score: inf
ROOT
ATOM      1  C   UNL A   1      31.423  30.933  26.053  1.00  0.00     0.002 C 
ENDROOT
BRANCH   1   2
ATOM      2  C   UNL A   1      31.395  32.372  26.564  1.00  0.00     0.021 C 
BRANCH   2   3
ATOM      3  C   UNL A   1      32.612  32.782  27.380  1.00  0.00     0.116 C 
BRANCH   3   4
ATOM      4  N   UNL A   1      32.575  34.181  27.766  1.00  0.00    -0.352 N 
ATOM      5  O   UNL A   1      33.021  35.970  29.064  1.00  0.00    -0.269 OA
ATOM      6  C   UNL A   1      33.305  34.820  28.739  1.00  0.00     0.251 C 
ATOM      7  H   UNL A   1      31.943  34.746  27.266  1.00  0.00     0.163 HD
BRANCH   6   8
ATOM      8  C   UNL A   1      34.417  34.101  29.397  1.00  0.00     0.039 A 
ATOM      9  C   UNL A   1      35.730  34.266  28.944  1.00  0.00     0.014 A 
ATOM     10  C   UNL A   1      34.145  33.259  30.476  1.00  0.00     0.014 A 
ATOM     11  C   UNL A   1      36.751  33.500  29.490  1.00  0.00     0.010 A 
ATOM     12  C   UNL A   1      35.189  32.553  31.081  1.00  0.00     0.010 A 
ATOM     13  C   UNL A   1      36.497  32.659  30.584  1.00  0.00    -0.014 A 
BRANCH  13  14
ATOM     14  C   UNL A   1      37.633  32.001  31.276  1.00  0.00     0.031 A 
ATOM     15  C   UNL A   1      38.179  32.528  32.571  1.00  0.00     0.074 A 
ATOM     16  C   UNL A   1      38.199  30.930  30.684  1.00  0.00     0.049 A 
ATOM     17  N   UNL A   1      39.187  32.082  33.276  1.00  0.00    -0.248 NA
ATOM     18  C   UNL A   1      37.520  33.709  33.152  1.00  0.00     0.031 C 
ATOM     19  C   UNL A   1      37.780  30.362  29.398  1.00  0.00     0.029 A 
ATOM     20  N   UNL A   1      39.256  30.142  31.062  1.00  0.00    -0.354 N 
ATOM     21  C   UNL A   1      39.317  32.949  34.353  1.00  0.00     0.074 A 
ATOM     22  C   UNL A   1      38.277  33.946  34.217  1.00  0.00     0.031 C 
ATOM     23  C   UNL A   1      38.567  29.322  29.095  1.00  0.00     0.029 A 
ATOM     24  C   UNL A   1      39.586  29.187  30.129  1.00  0.00     0.049 A 
ATOM     25  H   UNL A   1      39.731  30.249  31.918  1.00  0.00     0.167 HD
ATOM     26  C   UNL A   1      40.221  32.912  35.361  1.00  0.00     0.034 A 
ATOM     27  C   UNL A   1      40.618  28.324  30.083  1.00  0.00     0.034 A 
ATOM     28  C   UNL A   1      41.232  31.896  35.500  1.00  0.00     0.049 A 
ATOM     29  C   UNL A   1      41.598  28.309  31.219  1.00  0.00     0.074 A 
ATOM     30  C   UNL A   1      42.125  31.713  36.542  1.00  0.00     0.029 A 
ATOM     31  N   UNL A   1      41.507  30.913  34.562  1.00  0.00    -0.354 N 
ATOM     32  N   UNL A   1      41.600  29.029  32.314  1.00  0.00    -0.248 NA
ATOM     33  C   UNL A   1      42.705  27.348  31.127  1.00  0.00     0.031 C 
ATOM     34  C   UNL A   1      42.969  30.646  36.212  1.00  0.00     0.029 A 
ATOM     35  C   UNL A   1      42.577  30.142  34.983  1.00  0.00     0.049 A 
ATOM     36  H   UNL A   1      41.013  30.782  33.720  1.00  0.00     0.167 HD
ATOM     37  C   UNL A   1      42.695  28.595  33.051  1.00  0.00     0.074 A 
ATOM     38  C   UNL A   1      43.314  27.528  32.292  1.00  0.00     0.031 C 
ATOM     39  C   UNL A   1      43.158  29.055  34.239  1.00  0.00     0.034 A 
BRANCH  26  40
ATOM     40  C   UNL A   1      40.164  33.985  36.416  1.00  0.00     0.023 A 
ATOM     41  C   UNL A   1      40.512  35.311  36.091  1.00  0.00     0.012 A 
ATOM     42  C   UNL A   1      39.658  33.698  37.701  1.00  0.00     0.148 A 
ATOM     43  C   UNL A   1      40.376  36.331  37.033  1.00  0.00     0.002 A 
ATOM     44  C   UNL A   1      39.487  34.727  38.620  1.00  0.00     0.091 A 
ATOM     45  F   UNL A   1      39.348  32.427  37.995  1.00  0.00    -0.205 F 
ATOM     46  C   UNL A   1      39.854  36.041  38.292  1.00  0.00     0.022 A 
BRANCH  44  47
ATOM     47  S   UNL A   1      38.745  34.470  40.237  1.00  0.00     0.127 S 
ATOM     48  O   UNL A   1      37.554  33.694  39.893  1.00  0.00    -0.237 OA
ATOM     49  O   UNL A   1      39.785  33.713  40.934  1.00  0.00    -0.237 OA
ATOM     50  O   UNL A   1      38.488  35.796  40.779  1.00  0.00    -0.744 OA
ENDBRANCH  44  47
ENDBRANCH  26  40
BRANCH  27  51
ATOM     51  C   UNL A   1      40.770  27.410  28.917  1.00  0.00     0.023 A 
ATOM     52  C   UNL A   1      39.931  26.287  28.796  1.00  0.00     0.012 A 
ATOM     53  C   UNL A   1      41.723  27.668  27.912  1.00  0.00     0.148 A 
ATOM     54  C   UNL A   1      40.062  25.417  27.714  1.00  0.00     0.002 A 
ATOM     55  C   UNL A   1      41.807  26.834  26.805  1.00  0.00     0.091 A 
ATOM     56  F   UNL A   1      42.523  28.735  28.052  1.00  0.00    -0.205 F 
ATOM     57  C   UNL A   1      40.990  25.697  26.713  1.00  0.00     0.022 A 
BRANCH  55  58
ATOM     58  S   UNL A   1      42.871  27.202  25.406  1.00  0.00     0.127 S 
ATOM     59  O   UNL A   1      44.141  27.494  26.067  1.00  0.00    -0.237 OA
ATOM     60  O   UNL A   1      42.839  25.943  24.661  1.00  0.00    -0.237 OA
ATOM     61  O   UNL A   1      42.239  28.320  24.718  1.00  0.00    -0.744 OA
ENDBRANCH  55  58
ENDBRANCH  27  51
BRANCH  39  62
ATOM     62  C   UNL A   1      44.382  28.392  34.809  1.00  0.00     0.023 A 
ATOM     63  C   UNL A   1      45.661  28.848  34.435  1.00  0.00     0.012 A 
ATOM     64  C   UNL A   1      44.264  27.372  35.773  1.00  0.00     0.148 A 
ATOM     65  C   UNL A   1      46.806  28.278  34.991  1.00  0.00     0.002 A 
ATOM     66  C   UNL A   1      45.407  26.845  36.361  1.00  0.00     0.091 A 
ATOM     67  F   UNL A   1      43.036  26.942  36.101  1.00  0.00    -0.205 F 
ATOM     68  C   UNL A   1      46.679  27.287  35.962  1.00  0.00     0.022 A 
BRANCH  66  69
ATOM     69  S   UNL A   1      45.342  25.634  37.687  1.00  0.00     0.127 S 
ATOM     70  O   UNL A   1      44.457  24.618  37.119  1.00  0.00    -0.237 OA
ATOM     71  O   UNL A   1      46.743  25.229  37.802  1.00  0.00    -0.237 OA
ATOM     72  O   UNL A   1      44.813  26.336  38.849  1.00  0.00    -0.744 OA
ENDBRANCH  66  69
ENDBRANCH  39  62
ENDBRANCH  13  14
ENDBRANCH   6   8
ENDBRANCH   3   4
ENDBRANCH   2   3
ENDBRANCH   1   2
BRANCH   1  73
ATOM     73  C   UNL A   1      32.250  29.955  26.893  1.00  0.00     0.002 C 
BRANCH  73  74
ATOM     74  C   UNL A   1      31.479  28.777  27.499  1.00  0.00     0.021 C 
BRANCH  74  75
ATOM     75  C   UNL A   1      32.001  27.395  27.114  1.00  0.00     0.116 C 
BRANCH  75  76
ATOM     76  N   UNL A   1      30.957  26.563  26.542  1.00  0.00    -0.352 N 
ATOM     77  C   UNL A   1      30.401  26.591  25.293  1.00  0.00     0.253 C 
ATOM     78  H   UNL A   1      30.595  25.875  27.146  1.00  0.00     0.163 HD
ATOM     79  O   UNL A   1      29.386  25.939  25.062  1.00  0.00    -0.269 OA
BRANCH  77  80
ATOM     80  C   UNL A   1      31.007  27.385  24.204  1.00  0.00     0.063 A 
ATOM     81  C   UNL A   1      32.410  27.372  24.146  1.00  0.00     0.016 A 
ATOM     82  C   UNL A   1      30.254  28.198  23.331  1.00  0.00     0.054 A 
ATOM     83  C   UNL A   1      33.082  28.171  23.226  1.00  0.00     0.001 A 
ATOM     84  C   UNL A   1      30.959  29.063  22.485  1.00  0.00     0.027 A 
ATOM     85  C   UNL A   1      32.356  29.033  22.412  1.00  0.00     0.002 A 
BRANCH  82  86
ATOM     86  N   UNL A   1      28.843  28.126  23.352  1.00  0.00    -0.321 N 
ATOM     87  C   UNL A   1      27.844  29.045  23.129  1.00  0.00     0.255 C 
ATOM     88  H   UNL A   1      28.504  27.228  23.574  1.00  0.00     0.170 HD
ATOM     89  O   UNL A   1      26.668  28.704  23.251  1.00  0.00    -0.269 OA
BRANCH  87  90
ATOM     90  C   UNL A   1      28.124  30.430  22.721  1.00  0.00     0.043 A 
ATOM     91  C   UNL A   1      28.521  31.404  23.637  1.00  0.00     0.034 A 
ATOM     92  C   UNL A   1      27.959  30.750  21.377  1.00  0.00     0.034 A 
ATOM     93  C   UNL A   1      28.626  32.702  23.174  1.00  0.00     0.112 A 
ATOM     94  C   UNL A   1      28.102  32.074  21.014  1.00  0.00     0.112 A 
ATOM     95  N   UNL A   1      28.402  33.059  21.888  1.00  0.00    -0.265 NA
ENDBRANCH  87  90
ENDBRANCH  82  86
ENDBRANCH  77  80
ENDBRANCH  75  76
ENDBRANCH  74  75
ENDBRANCH  73  74
ENDBRANCH   1  73
TORSDOF 18
ENDMDL
